MODEL 1
REMARK VINA RESULT:    -6.009      0.000      0.000
REMARK INTER + INTRA:         -15.103
REMARK INTER:                 -13.737
REMARK INTRA:                  -1.365
REMARK UNBOUND:                -1.365
REMARK SMILES CCCCCCCCCCCCCCCCCCCCCCCC(=O)[O-]
REMARK SMILES IDX 13 1 14 2 15 3 16 4 17 5 18 6 19 7 20 8 21 9 22 10 23 11
REMARK SMILES IDX 24 12 25 13 26 14 12 15 11 16 10 17 9 18 8 19 7 20 6 21 5 22
REMARK SMILES IDX 4 23 3 24 2 25 1 26
REMARK H PARENT
REMARK Flexibility Score: inf
ROOT
ATOM      1  C   UNL     1      10.767  10.493 -19.026  1.00  0.00     0.000 C 
ENDROOT
BRANCH   1   2
ATOM      2  C   UNL     1      11.491   9.246 -19.583  1.00  0.00     0.000 C 
BRANCH   2   3
ATOM      3  C   UNL     1      12.022   8.293 -18.497  1.00  0.00     0.000 C 
BRANCH   3   4
ATOM      4  C   UNL     1      13.416   7.730 -18.822  1.00  0.00     0.000 C 
BRANCH   4   5
ATOM      5  C   UNL     1      13.442   6.954 -20.148  1.00  0.00     0.000 C 
BRANCH   5   6
ATOM      6  C   UNL     1      14.855   6.471 -20.520  1.00  0.00     0.000 C 
BRANCH   6   7
ATOM      7  C   UNL     1      15.463   7.258 -21.691  1.00  0.00     0.000 C 
BRANCH   7   8
ATOM      8  C   UNL     1      16.088   8.614 -21.308  1.00  0.00     0.000 C 
BRANCH   8   9
ATOM      9  C   UNL     1      16.882   8.583 -19.983  1.00  0.00     0.000 C 
BRANCH   9  10
ATOM     10  C   UNL     1      17.910   9.721 -19.890  1.00  0.00     0.006 C 
BRANCH  10  11
ATOM     11  C   UNL     1      17.511  10.897 -20.786  1.00  0.00     0.053 C 
BRANCH  11  12
ATOM     12  C   UNL     1      17.911  12.195 -20.157  1.00  0.00     0.041 C 
ATOM     13  O   UNL     1      17.034  12.967 -19.687  1.00  0.00    -0.550 OA
ATOM     14  O   UNL     1      19.254  12.530 -20.048  1.00  0.00    -0.550 OA
ENDBRANCH  11  12
ENDBRANCH  10  11
ENDBRANCH   9  10
ENDBRANCH   8   9
ENDBRANCH   7   8
ENDBRANCH   6   7
ENDBRANCH   5   6
ENDBRANCH   4   5
ENDBRANCH   3   4
ENDBRANCH   2   3
ENDBRANCH   1   2
BRANCH   1  15
ATOM     15  C   UNL     1      11.038  10.796 -17.535  1.00  0.00     0.000 C 
BRANCH  15  16
ATOM     16  C   UNL     1      10.411  12.093 -16.989  1.00  0.00     0.000 C 
BRANCH  16  17
ATOM     17  C   UNL     1      10.057  13.106 -18.087  1.00  0.00     0.000 C 
BRANCH  17  18
ATOM     18  C   UNL     1       9.570  14.431 -17.481  1.00  0.00    -0.000 C 
BRANCH  18  19
ATOM     19  C   UNL     1       9.163  15.454 -18.563  1.00  0.00    -0.000 C 
BRANCH  19  20
ATOM     20  C   UNL     1       9.003  14.840 -19.969  1.00  0.00    -0.000 C 
BRANCH  20  21
ATOM     21  C   UNL     1       7.803  15.366 -20.777  1.00  0.00    -0.000 C 
BRANCH  21  22
ATOM     22  C   UNL     1       6.835  14.278 -21.283  1.00  0.00    -0.000 C 
BRANCH  22  23
ATOM     23  C   UNL     1       5.478  14.830 -21.778  1.00  0.00    -0.000 C 
BRANCH  23  24
ATOM     24  C   UNL     1       4.800  13.945 -22.840  1.00  0.00    -0.000 C 
BRANCH  24  25
ATOM     25  C   UNL     1       3.446  13.391 -22.367  1.00  0.00    -0.003 C 
ATOM     26  C   UNL     1       2.863  14.254 -21.250  1.00  0.00     0.004 C 
ENDBRANCH  24  25
ENDBRANCH  23  24
ENDBRANCH  22  23
ENDBRANCH  21  22
ENDBRANCH  20  21
ENDBRANCH  19  20
ENDBRANCH  18  19
ENDBRANCH  17  18
ENDBRANCH  16  17
ENDBRANCH  15  16
ENDBRANCH   1  15
TORSDOF 22
ENDMDL
MODEL 2
REMARK VINA RESULT:    -5.947      1.255      2.218
REMARK INTER + INTRA:         -14.962
REMARK INTER:                 -13.739
REMARK INTRA:                  -1.223
REMARK UNBOUND:                -1.365
REMARK SMILES CCCCCCCCCCCCCCCCCCCCCCCC(=O)[O-]
REMARK SMILES IDX 13 1 14 2 15 3 16 4 17 5 18 6 19 7 20 8 21 9 22 10 23 11
REMARK SMILES IDX 24 12 25 13 26 14 12 15 11 16 10 17 9 18 8 19 7 20 6 21 5 22
REMARK SMILES IDX 4 23 3 24 2 25 1 26
REMARK H PARENT
REMARK Flexibility Score: inf
ROOT
ATOM      1  C   UNL     1      11.549   9.290 -19.641  1.00  0.00     0.000 C 
ENDROOT
BRANCH   1   2
ATOM      2  C   UNL     1      11.932   8.074 -18.767  1.00  0.00     0.000 C 
BRANCH   2   3
ATOM      3  C   UNL     1      13.351   7.539 -19.026  1.00  0.00     0.000 C 
BRANCH   3   4
ATOM      4  C   UNL     1      13.501   6.875 -20.405  1.00  0.00     0.000 C 
BRANCH   4   5
ATOM      5  C   UNL     1      14.944   6.434 -20.693  1.00  0.00     0.000 C 
BRANCH   5   6
ATOM      6  C   UNL     1      15.601   7.258 -21.815  1.00  0.00     0.000 C 
BRANCH   6   7
ATOM      7  C   UNL     1      16.006   8.668 -21.357  1.00  0.00     0.000 C 
BRANCH   7   8
ATOM      8  C   UNL     1      17.197   8.716 -20.379  1.00  0.00     0.000 C 
BRANCH   8   9
ATOM      9  C   UNL     1      17.993  10.040 -20.430  1.00  0.00     0.000 C 
BRANCH   9  10
ATOM     10  C   UNL     1      17.549  10.946 -21.589  1.00  0.00     0.006 C 
BRANCH  10  11
ATOM     11  C   UNL     1      18.298  12.281 -21.560  1.00  0.00     0.053 C 
BRANCH  11  12
ATOM     12  C   UNL     1      18.039  13.000 -20.273  1.00  0.00     0.041 C 
ATOM     13  O   UNL     1      18.997  13.305 -19.515  1.00  0.00    -0.550 OA
ATOM     14  O   UNL     1      16.745  13.375 -19.934  1.00  0.00    -0.550 OA
ENDBRANCH  11  12
ENDBRANCH  10  11
ENDBRANCH   9  10
ENDBRANCH   8   9
ENDBRANCH   7   8
ENDBRANCH   6   7
ENDBRANCH   5   6
ENDBRANCH   4   5
ENDBRANCH   3   4
ENDBRANCH   2   3
ENDBRANCH   1   2
BRANCH   1  15
ATOM     15  C   UNL     1      10.774  10.406 -18.907  1.00  0.00     0.000 C 
BRANCH  15  16
ATOM     16  C   UNL     1      10.580  11.717 -19.692  1.00  0.00     0.000 C 
BRANCH  16  17
ATOM     17  C   UNL     1       9.192  11.839 -20.336  1.00  0.00     0.000 C 
BRANCH  17  18
ATOM     18  C   UNL     1       8.777  13.312 -20.481  1.00  0.00    -0.000 C 
BRANCH  18  19
ATOM     19  C   UNL     1       7.444  13.471 -21.241  1.00  0.00    -0.000 C 
BRANCH  19  20
ATOM     20  C   UNL     1       6.923  14.923 -21.286  1.00  0.00    -0.000 C 
BRANCH  20  21
ATOM     21  C   UNL     1       5.498  15.087 -21.844  1.00  0.00    -0.000 C 
BRANCH  21  22
ATOM     22  C   UNL     1       5.014  13.930 -22.739  1.00  0.00    -0.000 C 
BRANCH  22  23
ATOM     23  C   UNL     1       3.583  13.444 -22.412  1.00  0.00    -0.000 C 
BRANCH  23  24
ATOM     24  C   UNL     1       2.918  14.211 -21.255  1.00  0.00    -0.000 C 
BRANCH  24  25
ATOM     25  C   UNL     1       1.796  13.405 -20.582  1.00  0.00    -0.003 C 
ATOM     26  C   UNL     1       1.907  13.480 -19.060  1.00  0.00     0.004 C 
ENDBRANCH  24  25
ENDBRANCH  23  24
ENDBRANCH  22  23
ENDBRANCH  21  22
ENDBRANCH  20  21
ENDBRANCH  19  20
ENDBRANCH  18  19
ENDBRANCH  17  18
ENDBRANCH  16  17
ENDBRANCH  15  16
ENDBRANCH   1  15
TORSDOF 22
ENDMDL
MODEL 3
REMARK VINA RESULT:    -5.743      1.356      3.480
REMARK INTER + INTRA:         -14.495
REMARK INTER:                 -13.113
REMARK INTRA:                  -1.383
REMARK UNBOUND:                -1.365
REMARK SMILES CCCCCCCCCCCCCCCCCCCCCCCC(=O)[O-]
REMARK SMILES IDX 13 1 14 2 15 3 16 4 17 5 18 6 19 7 20 8 21 9 22 10 23 11
REMARK SMILES IDX 24 12 25 13 26 14 12 15 11 16 10 17 9 18 8 19 7 20 6 21 5 22
REMARK SMILES IDX 4 23 3 24 2 25 1 26
REMARK H PARENT
REMARK Flexibility Score: inf
ROOT
ATOM      1  C   UNL     1      13.370   7.426 -20.396  1.00  0.00     0.000 C 
ENDROOT
BRANCH   1   2
ATOM      2  C   UNL     1      14.595   6.602 -20.853  1.00  0.00     0.000 C 
BRANCH   2   3
ATOM      3  C   UNL     1      15.477   7.317 -21.892  1.00  0.00     0.000 C 
BRANCH   3   4
ATOM      4  C   UNL     1      16.207   8.543 -21.318  1.00  0.00     0.000 C 
BRANCH   4   5
ATOM      5  C   UNL     1      16.759   8.292 -19.907  1.00  0.00     0.000 C 
BRANCH   5   6
ATOM      6  C   UNL     1      17.812   9.335 -19.490  1.00  0.00     0.000 C 
BRANCH   6   7
ATOM      7  C   UNL     1      19.121   9.207 -20.285  1.00  0.00     0.000 C 
BRANCH   7   8
ATOM      8  C   UNL     1      19.905  10.523 -20.460  1.00  0.00     0.000 C 
BRANCH   8   9
ATOM      9  C   UNL     1      19.684  11.203 -21.830  1.00  0.00     0.000 C 
BRANCH   9  10
ATOM     10  C   UNL     1      18.619  12.308 -21.769  1.00  0.00     0.006 C 
BRANCH  10  11
ATOM     11  C   UNL     1      18.755  13.133 -20.486  1.00  0.00     0.053 C 
BRANCH  11  12
ATOM     12  C   UNL     1      17.409  13.566 -19.995  1.00  0.00     0.041 C 
ATOM     13  O   UNL     1      16.364  13.130 -20.547  1.00  0.00    -0.550 OA
ATOM     14  O   UNL     1      17.308  14.412 -18.899  1.00  0.00    -0.550 OA
ENDBRANCH  11  12
ENDBRANCH  10  11
ENDBRANCH   9  10
ENDBRANCH   8   9
ENDBRANCH   7   8
ENDBRANCH   6   7
ENDBRANCH   5   6
ENDBRANCH   4   5
ENDBRANCH   3   4
ENDBRANCH   2   3
ENDBRANCH   1   2
BRANCH   1  15
ATOM     15  C   UNL     1      13.022   7.303 -18.896  1.00  0.00     0.000 C 
BRANCH  15  16
ATOM     16  C   UNL     1      12.301   8.513 -18.272  1.00  0.00     0.000 C 
BRANCH  16  17
ATOM     17  C   UNL     1      11.331   9.207 -19.240  1.00  0.00     0.000 C 
BRANCH  17  18
ATOM     18  C   UNL     1      10.846  10.548 -18.669  1.00  0.00    -0.000 C 
BRANCH  18  19
ATOM     19  C   UNL     1      10.632  11.609 -19.770  1.00  0.00    -0.000 C 
BRANCH  19  20
ATOM     20  C   UNL     1       9.627  12.713 -19.382  1.00  0.00    -0.000 C 
BRANCH  20  21
ATOM     21  C   UNL     1       8.802  13.283 -20.550  1.00  0.00    -0.000 C 
BRANCH  21  22
ATOM     22  C   UNL     1       8.468  14.784 -20.437  1.00  0.00    -0.000 C 
BRANCH  22  23
ATOM     23  C   UNL     1       7.204  15.203 -21.224  1.00  0.00    -0.000 C 
BRANCH  23  24
ATOM     24  C   UNL     1       6.296  14.021 -21.611  1.00  0.00    -0.000 C 
BRANCH  24  25
ATOM     25  C   UNL     1       5.018  14.473 -22.334  1.00  0.00    -0.003 C 
ATOM     26  C   UNL     1       4.470  13.359 -23.224  1.00  0.00     0.004 C 
ENDBRANCH  24  25
ENDBRANCH  23  24
ENDBRANCH  22  23
ENDBRANCH  21  22
ENDBRANCH  20  21
ENDBRANCH  19  20
ENDBRANCH  18  19
ENDBRANCH  17  18
ENDBRANCH  16  17
ENDBRANCH  15  16
ENDBRANCH   1  15
TORSDOF 22
ENDMDL
MODEL 4
REMARK VINA RESULT:    -5.655      1.683      3.625
REMARK INTER + INTRA:         -14.293
REMARK INTER:                 -13.291
REMARK INTRA:                  -1.002
REMARK UNBOUND:                -1.365
REMARK SMILES CCCCCCCCCCCCCCCCCCCCCCCC(=O)[O-]
REMARK SMILES IDX 13 1 14 2 15 3 16 4 17 5 18 6 19 7 20 8 21 9 22 10 23 11
REMARK SMILES IDX 24 12 25 13 26 14 12 15 11 16 10 17 9 18 8 19 7 20 6 21 5 22
REMARK SMILES IDX 4 23 3 24 2 25 1 26
REMARK H PARENT
REMARK Flexibility Score: inf
ROOT
ATOM      1  C   UNL     1      10.422  12.541 -18.534  1.00  0.00     0.000 C 
ENDROOT
BRANCH   1   2
ATOM      2  C   UNL     1      10.651  11.314 -19.445  1.00  0.00     0.000 C 
BRANCH   2   3
ATOM      3  C   UNL     1      10.781   9.984 -18.682  1.00  0.00     0.000 C 
BRANCH   3   4
ATOM      4  C   UNL     1      11.802   9.025 -19.318  1.00  0.00     0.000 C 
BRANCH   4   5
ATOM      5  C   UNL     1      12.381   8.025 -18.306  1.00  0.00     0.000 C 
BRANCH   5   6
ATOM      6  C   UNL     1      13.405   7.068 -18.941  1.00  0.00     0.000 C 
BRANCH   6   7
ATOM      7  C   UNL     1      13.590   7.309 -20.447  1.00  0.00     0.000 C 
BRANCH   7   8
ATOM      8  C   UNL     1      14.957   6.875 -21.012  1.00  0.00     0.000 C 
BRANCH   8   9
ATOM      9  C   UNL     1      15.584   7.900 -21.984  1.00  0.00     0.000 C 
BRANCH   9  10
ATOM     10  C   UNL     1      16.682   8.743 -21.318  1.00  0.00     0.006 C 
BRANCH  10  11
ATOM     11  C   UNL     1      16.757   8.458 -19.815  1.00  0.00     0.053 C 
BRANCH  11  12
ATOM     12  C   UNL     1      17.773   9.344 -19.164  1.00  0.00     0.041 C 
ATOM     13  O   UNL     1      17.682  10.596 -19.270  1.00  0.00    -0.550 OA
ATOM     14  O   UNL     1      18.793   8.789 -18.402  1.00  0.00    -0.550 OA
ENDBRANCH  11  12
ENDBRANCH  10  11
ENDBRANCH   9  10
ENDBRANCH   8   9
ENDBRANCH   7   8
ENDBRANCH   6   7
ENDBRANCH   5   6
ENDBRANCH   4   5
ENDBRANCH   3   4
ENDBRANCH   2   3
ENDBRANCH   1   2
BRANCH   1  15
ATOM     15  C   UNL     1       9.318  13.512 -19.009  1.00  0.00     0.000 C 
BRANCH  15  16
ATOM     16  C   UNL     1       9.021  13.503 -20.521  1.00  0.00     0.000 C 
BRANCH  16  17
ATOM     17  C   UNL     1       7.830  14.389 -20.911  1.00  0.00     0.000 C 
BRANCH  17  18
ATOM     18  C   UNL     1       6.741  13.570 -21.622  1.00  0.00    -0.000 C 
BRANCH  18  19
ATOM     19  C   UNL     1       5.492  14.416 -21.948  1.00  0.00    -0.000 C 
BRANCH  19  20
ATOM     20  C   UNL     1       4.505  13.722 -22.909  1.00  0.00    -0.000 C 
BRANCH  20  21
ATOM     21  C   UNL     1       3.079  13.538 -22.359  1.00  0.00    -0.000 C 
BRANCH  21  22
ATOM     22  C   UNL     1       2.833  14.166 -20.972  1.00  0.00    -0.000 C 
BRANCH  22  23
ATOM     23  C   UNL     1       1.571  13.628 -20.259  1.00  0.00    -0.000 C 
BRANCH  23  24
ATOM     24  C   UNL     1       1.872  12.890 -18.941  1.00  0.00    -0.000 C 
BRANCH  24  25
ATOM     25  C   UNL     1       1.809  13.820 -17.719  1.00  0.00    -0.003 C 
ATOM     26  C   UNL     1       0.987  15.070 -18.024  1.00  0.00     0.004 C 
ENDBRANCH  24  25
ENDBRANCH  23  24
ENDBRANCH  22  23
ENDBRANCH  21  22
ENDBRANCH  20  21
ENDBRANCH  19  20
ENDBRANCH  18  19
ENDBRANCH  17  18
ENDBRANCH  16  17
ENDBRANCH  15  16
ENDBRANCH   1  15
TORSDOF 22
ENDMDL
MODEL 5
REMARK VINA RESULT:    -5.625      2.519      5.124
REMARK INTER + INTRA:         -14.225
REMARK INTER:                 -12.756
REMARK INTRA:                  -1.469
REMARK UNBOUND:                -1.365
REMARK SMILES CCCCCCCCCCCCCCCCCCCCCCCC(=O)[O-]
REMARK SMILES IDX 13 1 14 2 15 3 16 4 17 5 18 6 19 7 20 8 21 9 22 10 23 11
REMARK SMILES IDX 24 12 25 13 26 14 12 15 11 16 10 17 9 18 8 19 7 20 6 21 5 22
REMARK SMILES IDX 4 23 3 24 2 25 1 26
REMARK H PARENT
REMARK Flexibility Score: inf
ROOT
ATOM      1  C   UNL     1      14.873   6.640 -20.808  1.00  0.00     0.000 C 
ENDROOT
BRANCH   1   2
ATOM      2  C   UNL     1      15.571   7.557 -21.837  1.00  0.00     0.000 C 
BRANCH   2   3
ATOM      3  C   UNL     1      16.526   8.588 -21.211  1.00  0.00     0.000 C 
BRANCH   3   4
ATOM      4  C   UNL     1      16.669   8.428 -19.688  1.00  0.00     0.000 C 
BRANCH   4   5
ATOM      5  C   UNL     1      18.009   8.962 -19.162  1.00  0.00     0.000 C 
BRANCH   5   6
ATOM      6  C   UNL     1      19.157   8.768 -20.168  1.00  0.00     0.000 C 
BRANCH   6   7
ATOM      7  C   UNL     1      19.912  10.073 -20.468  1.00  0.00     0.000 C 
BRANCH   7   8
ATOM      8  C   UNL     1      19.582  10.717 -21.829  1.00  0.00     0.000 C 
BRANCH   8   9
ATOM      9  C   UNL     1      19.661  12.260 -21.824  1.00  0.00     0.000 C 
BRANCH   9  10
ATOM     10  C   UNL     1      20.031  12.823 -20.444  1.00  0.00     0.006 C 
BRANCH  10  11
ATOM     11  C   UNL     1      19.169  14.041 -20.098  1.00  0.00     0.053 C 
BRANCH  11  12
ATOM     12  C   UNL     1      17.873  13.610 -19.486  1.00  0.00     0.041 C 
ATOM     13  O   UNL     1      17.558  12.391 -19.463  1.00  0.00    -0.550 OA
ATOM     14  O   UNL     1      17.036  14.550 -18.899  1.00  0.00    -0.550 OA
ENDBRANCH  11  12
ENDBRANCH  10  11
ENDBRANCH   9  10
ENDBRANCH   8   9
ENDBRANCH   7   8
ENDBRANCH   6   7
ENDBRANCH   5   6
ENDBRANCH   4   5
ENDBRANCH   3   4
ENDBRANCH   2   3
ENDBRANCH   1   2
BRANCH   1  15
ATOM     15  C   UNL     1      13.504   7.146 -20.302  1.00  0.00     0.000 C 
BRANCH  15  16
ATOM     16  C   UNL     1      13.343   7.228 -18.772  1.00  0.00     0.000 C 
BRANCH  16  17
ATOM     17  C   UNL     1      12.257   8.219 -18.328  1.00  0.00     0.000 C 
BRANCH  17  18
ATOM     18  C   UNL     1      11.826   9.124 -19.493  1.00  0.00    -0.000 C 
BRANCH  18  19
ATOM     19  C   UNL     1      10.715  10.115 -19.083  1.00  0.00    -0.000 C 
BRANCH  19  20
ATOM     20  C   UNL     1      10.799  11.475 -19.804  1.00  0.00    -0.000 C 
BRANCH  20  21
ATOM     21  C   UNL     1       9.466  11.996 -20.371  1.00  0.00    -0.000 C 
BRANCH  21  22
ATOM     22  C   UNL     1       9.014  13.362 -19.817  1.00  0.00    -0.000 C 
BRANCH  22  23
ATOM     23  C   UNL     1       9.696  13.752 -18.485  1.00  0.00    -0.000 C 
BRANCH  23  24
ATOM     24  C   UNL     1       9.401  15.196 -18.039  1.00  0.00    -0.000 C 
BRANCH  24  25
ATOM     25  C   UNL     1       9.003  15.285 -16.557  1.00  0.00    -0.003 C 
ATOM     26  C   UNL     1       9.987  14.514 -15.679  1.00  0.00     0.004 C 
ENDBRANCH  24  25
ENDBRANCH  23  24
ENDBRANCH  22  23
ENDBRANCH  21  22
ENDBRANCH  20  21
ENDBRANCH  19  20
ENDBRANCH  18  19
ENDBRANCH  17  18
ENDBRANCH  16  17
ENDBRANCH  15  16
ENDBRANCH   1  15
TORSDOF 22
ENDMDL
MODEL 6
REMARK VINA RESULT:    -5.501      5.115     12.005
REMARK INTER + INTRA:         -13.942
REMARK INTER:                 -12.811
REMARK INTRA:                  -1.131
REMARK UNBOUND:                -1.365
REMARK SMILES CCCCCCCCCCCCCCCCCCCCCCCC(=O)[O-]
REMARK SMILES IDX 13 1 14 2 15 3 16 4 17 5 18 6 19 7 20 8 21 9 22 10 23 11
REMARK SMILES IDX 24 12 25 13 26 14 12 15 11 16 10 17 9 18 8 19 7 20 6 21 5 22
REMARK SMILES IDX 4 23 3 24 2 25 1 26
REMARK H PARENT
REMARK Flexibility Score: inf
ROOT
ATOM      1  C   UNL     1      10.769  10.409 -18.683  1.00  0.00     0.000 C 
ENDROOT
BRANCH   1   2
ATOM      2  C   UNL     1      10.608  11.685 -19.538  1.00  0.00     0.000 C 
BRANCH   2   3
ATOM      3  C   UNL     1       9.223  11.829 -20.194  1.00  0.00     0.000 C 
BRANCH   3   4
ATOM      4  C   UNL     1       8.870  13.286 -20.538  1.00  0.00     0.000 C 
BRANCH   4   5
ATOM      5  C   UNL     1       7.526  13.409 -21.271  1.00  0.00     0.000 C 
BRANCH   5   6
ATOM      6  C   UNL     1       7.002  14.856 -21.306  1.00  0.00     0.000 C 
BRANCH   6   7
ATOM      7  C   UNL     1       5.535  14.947 -21.754  1.00  0.00     0.000 C 
BRANCH   7   8
ATOM      8  C   UNL     1       5.040  13.758 -22.602  1.00  0.00     0.000 C 
BRANCH   8   9
ATOM      9  C   UNL     1       3.552  13.409 -22.377  1.00  0.00     0.000 C 
BRANCH   9  10
ATOM     10  C   UNL     1       2.935  14.198 -21.212  1.00  0.00     0.006 C 
BRANCH  10  11
ATOM     11  C   UNL     1       1.880  13.362 -20.480  1.00  0.00     0.053 C 
BRANCH  11  12
ATOM     12  C   UNL     1       0.805  14.244 -19.926  1.00  0.00     0.041 C 
ATOM     13  O   UNL     1       0.368  14.052 -18.761  1.00  0.00    -0.550 OA
ATOM     14  O   UNL     1       0.320  15.306 -20.678  1.00  0.00    -0.550 OA
ENDBRANCH  11  12
ENDBRANCH  10  11
ENDBRANCH   9  10
ENDBRANCH   8   9
ENDBRANCH   7   8
ENDBRANCH   6   7
ENDBRANCH   5   6
ENDBRANCH   4   5
ENDBRANCH   3   4
ENDBRANCH   2   3
ENDBRANCH   1   2
BRANCH   1  15
ATOM     15  C   UNL     1      11.538   9.256 -19.365  1.00  0.00     0.000 C 
BRANCH  15  16
ATOM     16  C   UNL     1      12.551   8.507 -18.478  1.00  0.00     0.000 C 
BRANCH  16  17
ATOM     17  C   UNL     1      12.915   7.116 -19.014  1.00  0.00     0.000 C 
BRANCH  17  18
ATOM     18  C   UNL     1      13.421   7.196 -20.463  1.00  0.00    -0.000 C 
BRANCH  18  19
ATOM     19  C   UNL     1      14.895   6.759 -20.592  1.00  0.00    -0.000 C 
BRANCH  19  20
ATOM     20  C   UNL     1      15.654   7.463 -21.736  1.00  0.00    -0.000 C 
BRANCH  20  21
ATOM     21  C   UNL     1      16.476   8.694 -21.312  1.00  0.00    -0.000 C 
BRANCH  21  22
ATOM     22  C   UNL     1      17.116   8.597 -19.913  1.00  0.00    -0.000 C 
BRANCH  22  23
ATOM     23  C   UNL     1      17.862   9.879 -19.476  1.00  0.00    -0.000 C 
BRANCH  23  24
ATOM     24  C   UNL     1      17.784  11.020 -20.506  1.00  0.00    -0.000 C 
BRANCH  24  25
ATOM     25  C   UNL     1      19.062  11.137 -21.353  1.00  0.00    -0.003 C 
ATOM     26  C   UNL     1      18.741  11.636 -22.761  1.00  0.00     0.004 C 
ENDBRANCH  24  25
ENDBRANCH  23  24
ENDBRANCH  22  23
ENDBRANCH  21  22
ENDBRANCH  20  21
ENDBRANCH  19  20
ENDBRANCH  18  19
ENDBRANCH  17  18
ENDBRANCH  16  17
ENDBRANCH  15  16
ENDBRANCH   1  15
TORSDOF 22
ENDMDL
MODEL 7
REMARK VINA RESULT:    -5.455      3.964     10.719
REMARK INTER + INTRA:         -13.836
REMARK INTER:                 -12.534
REMARK INTRA:                  -1.302
REMARK UNBOUND:                -1.365
REMARK SMILES CCCCCCCCCCCCCCCCCCCCCCCC(=O)[O-]
REMARK SMILES IDX 13 1 14 2 15 3 16 4 17 5 18 6 19 7 20 8 21 9 22 10 23 11
REMARK SMILES IDX 24 12 25 13 26 14 12 15 11 16 10 17 9 18 8 19 7 20 6 21 5 22
REMARK SMILES IDX 4 23 3 24 2 25 1 26
REMARK H PARENT
REMARK Flexibility Score: inf
ROOT
ATOM      1  C   UNL     1      11.041   9.961 -19.156  1.00  0.00     0.000 C 
ENDROOT
BRANCH   1   2
ATOM      2  C   UNL     1      10.807  10.887 -17.942  1.00  0.00     0.000 C 
BRANCH   2   3
ATOM      3  C   UNL     1      10.523  12.352 -18.318  1.00  0.00     0.000 C 
BRANCH   3   4
ATOM      4  C   UNL     1       9.666  13.085 -17.272  1.00  0.00     0.000 C 
BRANCH   4   5
ATOM      5  C   UNL     1      10.016  14.577 -17.164  1.00  0.00     0.000 C 
BRANCH   5   6
ATOM      6  C   UNL     1       8.944  15.482 -17.797  1.00  0.00     0.000 C 
BRANCH   6   7
ATOM      7  C   UNL     1       9.271  15.864 -19.249  1.00  0.00     0.000 C 
BRANCH   7   8
ATOM      8  C   UNL     1       8.180  15.506 -20.278  1.00  0.00     0.000 C 
BRANCH   8   9
ATOM      9  C   UNL     1       8.317  14.083 -20.863  1.00  0.00     0.000 C 
BRANCH   9  10
ATOM     10  C   UNL     1       6.975  13.522 -21.357  1.00  0.00     0.006 C 
BRANCH  10  11
ATOM     11  C   UNL     1       6.002  14.652 -21.705  1.00  0.00     0.053 C 
BRANCH  11  12
ATOM     12  C   UNL     1       4.748  14.098 -22.306  1.00  0.00     0.041 C 
ATOM     13  O   UNL     1       4.790  13.491 -23.409  1.00  0.00    -0.550 OA
ATOM     14  O   UNL     1       3.542  14.210 -21.626  1.00  0.00    -0.550 OA
ENDBRANCH  11  12
ENDBRANCH  10  11
ENDBRANCH   9  10
ENDBRANCH   8   9
ENDBRANCH   7   8
ENDBRANCH   6   7
ENDBRANCH   5   6
ENDBRANCH   4   5
ENDBRANCH   3   4
ENDBRANCH   2   3
ENDBRANCH   1   2
BRANCH   1  15
ATOM     15  C   UNL     1      11.803   8.653 -18.845  1.00  0.00     0.000 C 
BRANCH  15  16
ATOM     16  C   UNL     1      12.533   8.003 -20.036  1.00  0.00     0.000 C 
BRANCH  16  17
ATOM     17  C   UNL     1      13.741   7.153 -19.617  1.00  0.00     0.000 C 
BRANCH  17  18
ATOM     18  C   UNL     1      14.427   6.526 -20.840  1.00  0.00    -0.000 C 
BRANCH  18  19
ATOM     19  C   UNL     1      15.546   7.426 -21.407  1.00  0.00    -0.000 C 
BRANCH  19  20
ATOM     20  C   UNL     1      16.306   8.225 -20.329  1.00  0.00    -0.000 C 
BRANCH  20  21
ATOM     21  C   UNL     1      17.467   9.089 -20.855  1.00  0.00    -0.000 C 
BRANCH  21  22
ATOM     22  C   UNL     1      17.038  10.348 -21.634  1.00  0.00    -0.000 C 
BRANCH  22  23
ATOM     23  C   UNL     1      18.218  11.253 -22.059  1.00  0.00    -0.000 C 
BRANCH  23  24
ATOM     24  C   UNL     1      19.120  11.684 -20.888  1.00  0.00    -0.000 C 
BRANCH  24  25
ATOM     25  C   UNL     1      18.943  13.166 -20.524  1.00  0.00    -0.003 C 
ATOM     26  C   UNL     1      17.544  13.431 -19.972  1.00  0.00     0.004 C 
ENDBRANCH  24  25
ENDBRANCH  23  24
ENDBRANCH  22  23
ENDBRANCH  21  22
ENDBRANCH  20  21
ENDBRANCH  19  20
ENDBRANCH  18  19
ENDBRANCH  17  18
ENDBRANCH  16  17
ENDBRANCH  15  16
ENDBRANCH   1  15
TORSDOF 22
ENDMDL
MODEL 8
REMARK VINA RESULT:    -5.426      3.933     10.788
REMARK INTER + INTRA:         -13.769
REMARK INTER:                 -12.239
REMARK INTRA:                  -1.529
REMARK UNBOUND:                -1.365
REMARK SMILES CCCCCCCCCCCCCCCCCCCCCCCC(=O)[O-]
REMARK SMILES IDX 13 1 14 2 15 3 16 4 17 5 18 6 19 7 20 8 21 9 22 10 23 11
REMARK SMILES IDX 24 12 25 13 26 14 12 15 11 16 10 17 9 18 8 19 7 20 6 21 5 22
REMARK SMILES IDX 4 23 3 24 2 25 1 26
REMARK H PARENT
REMARK Flexibility Score: inf
ROOT
ATOM      1  C   UNL     1      13.037   7.417 -18.915  1.00  0.00     0.000 C 
ENDROOT
BRANCH   1   2
ATOM      2  C   UNL     1      12.139   8.616 -18.535  1.00  0.00     0.000 C 
BRANCH   2   3
ATOM      3  C   UNL     1      11.516   9.339 -19.742  1.00  0.00     0.000 C 
BRANCH   3   4
ATOM      4  C   UNL     1      10.409  10.330 -19.342  1.00  0.00     0.000 C 
BRANCH   4   5
ATOM      5  C   UNL     1      10.759  11.781 -19.705  1.00  0.00     0.000 C 
BRANCH   5   6
ATOM      6  C   UNL     1       9.671  12.778 -19.266  1.00  0.00     0.000 C 
BRANCH   6   7
ATOM      7  C   UNL     1       8.937  13.417 -20.454  1.00  0.00     0.000 C 
BRANCH   7   8
ATOM      8  C   UNL     1       8.567  14.902 -20.267  1.00  0.00     0.000 C 
BRANCH   8   9
ATOM      9  C   UNL     1       7.315  15.338 -21.061  1.00  0.00     0.000 C 
BRANCH   9  10
ATOM     10  C   UNL     1       6.471  14.142 -21.526  1.00  0.00     0.006 C 
BRANCH  10  11
ATOM     11  C   UNL     1       5.084  14.596 -21.991  1.00  0.00     0.053 C 
BRANCH  11  12
ATOM     12  C   UNL     1       4.348  13.461 -22.631  1.00  0.00     0.041 C 
ATOM     13  O   UNL     1       3.090  13.473 -22.685  1.00  0.00    -0.550 OA
ATOM     14  O   UNL     1       5.053  12.412 -23.208  1.00  0.00    -0.550 OA
ENDBRANCH  11  12
ENDBRANCH  10  11
ENDBRANCH   9  10
ENDBRANCH   8   9
ENDBRANCH   7   8
ENDBRANCH   6   7
ENDBRANCH   5   6
ENDBRANCH   4   5
ENDBRANCH   3   4
ENDBRANCH   2   3
ENDBRANCH   1   2
BRANCH   1  15
ATOM     15  C   UNL     1      13.566   7.430 -20.366  1.00  0.00     0.000 C 
BRANCH  15  16
ATOM     16  C   UNL     1      14.942   6.771 -20.584  1.00  0.00     0.000 C 
BRANCH  16  17
ATOM     17  C   UNL     1      15.772   7.449 -21.683  1.00  0.00     0.000 C 
BRANCH  17  18
ATOM     18  C   UNL     1      16.532   8.665 -21.131  1.00  0.00    -0.000 C 
BRANCH  18  19
ATOM     19  C   UNL     1      16.727   8.588 -19.602  1.00  0.00    -0.000 C 
BRANCH  19  20
ATOM     20  C   UNL     1      18.182   8.832 -19.149  1.00  0.00    -0.000 C 
BRANCH  20  21
ATOM     21  C   UNL     1      19.206   8.969 -20.290  1.00  0.00    -0.000 C 
BRANCH  21  22
ATOM     22  C   UNL     1      19.653  10.413 -20.591  1.00  0.00    -0.000 C 
BRANCH  22  23
ATOM     23  C   UNL     1      18.997  11.021 -21.852  1.00  0.00    -0.000 C 
BRANCH  23  24
ATOM     24  C   UNL     1      18.242  12.336 -21.584  1.00  0.00    -0.000 C 
BRANCH  24  25
ATOM     25  C   UNL     1      17.697  12.419 -20.150  1.00  0.00    -0.003 C 
ATOM     26  C   UNL     1      17.471  13.872 -19.735  1.00  0.00     0.004 C 
ENDBRANCH  24  25
ENDBRANCH  23  24
ENDBRANCH  22  23
ENDBRANCH  21  22
ENDBRANCH  20  21
ENDBRANCH  19  20
ENDBRANCH  18  19
ENDBRANCH  17  18
ENDBRANCH  16  17
ENDBRANCH  15  16
ENDBRANCH   1  15
TORSDOF 22
ENDMDL
MODEL 9
REMARK VINA RESULT:    -5.369      7.064     11.804
REMARK INTER + INTRA:         -13.639
REMARK INTER:                 -11.760
REMARK INTRA:                  -1.879
REMARK UNBOUND:                -1.365
REMARK SMILES CCCCCCCCCCCCCCCCCCCCCCCC(=O)[O-]
REMARK SMILES IDX 13 1 14 2 15 3 16 4 17 5 18 6 19 7 20 8 21 9 22 10 23 11
REMARK SMILES IDX 24 12 25 13 26 14 12 15 11 16 10 17 9 18 8 19 7 20 6 21 5 22
REMARK SMILES IDX 4 23 3 24 2 25 1 26
REMARK H PARENT
REMARK Flexibility Score: inf
ROOT
ATOM      1  C   UNL     1       1.767  13.051 -17.671  1.00  0.00     0.000 C 
ENDROOT
BRANCH   1   2
ATOM      2  C   UNL     1       1.980  12.978 -16.142  1.00  0.00     0.000 C 
BRANCH   2   3
ATOM      3  C   UNL     1       2.905  14.075 -15.586  1.00  0.00     0.000 C 
BRANCH   3   4
ATOM      4  C   UNL     1       3.990  13.525 -14.645  1.00  0.00     0.000 C 
BRANCH   4   5
ATOM      5  C   UNL     1       3.549  12.243 -13.924  1.00  0.00     0.000 C 
BRANCH   5   6
ATOM      6  C   UNL     1       2.960  12.523 -12.529  1.00  0.00     0.000 C 
BRANCH   6   7
ATOM      7  C   UNL     1       1.830  11.550 -12.155  1.00  0.00     0.000 C 
BRANCH   7   8
ATOM      8  C   UNL     1       1.267  10.726 -13.329  1.00  0.00     0.000 C 
BRANCH   8   9
ATOM      9  C   UNL     1       1.143   9.215 -13.029  1.00  0.00     0.000 C 
BRANCH   9  10
ATOM     10  C   UNL     1       1.196   8.359 -14.302  1.00  0.00     0.006 C 
BRANCH  10  11
ATOM     11  C   UNL     1       2.608   7.819 -14.544  1.00  0.00     0.053 C 
BRANCH  11  12
ATOM     12  C   UNL     1       3.314   8.639 -15.578  1.00  0.00     0.041 C 
ATOM     13  O   UNL     1       4.556   8.516 -15.744  1.00  0.00    -0.550 OA
ATOM     14  O   UNL     1       2.592   9.504 -16.390  1.00  0.00    -0.550 OA
ENDBRANCH  11  12
ENDBRANCH  10  11
ENDBRANCH   9  10
ENDBRANCH   8   9
ENDBRANCH   7   8
ENDBRANCH   6   7
ENDBRANCH   5   6
ENDBRANCH   4   5
ENDBRANCH   3   4
ENDBRANCH   2   3
ENDBRANCH   1   2
BRANCH   1  15
ATOM     15  C   UNL     1       1.401  14.449 -18.216  1.00  0.00     0.000 C 
BRANCH  15  16
ATOM     16  C   UNL     1       1.135  14.531 -19.731  1.00  0.00     0.000 C 
BRANCH  16  17
ATOM     17  C   UNL     1       1.981  13.546 -20.550  1.00  0.00     0.000 C 
BRANCH  17  18
ATOM     18  C   UNL     1       2.878  14.290 -21.553  1.00  0.00    -0.000 C 
BRANCH  18  19
ATOM     19  C   UNL     1       3.727  13.323 -22.406  1.00  0.00    -0.000 C 
BRANCH  19  20
ATOM     20  C   UNL     1       5.236  13.644 -22.391  1.00  0.00    -0.000 C 
BRANCH  20  21
ATOM     21  C   UNL     1       5.605  15.010 -21.784  1.00  0.00    -0.000 C 
BRANCH  21  22
ATOM     22  C   UNL     1       7.047  15.112 -21.246  1.00  0.00    -0.000 C 
BRANCH  22  23
ATOM     23  C   UNL     1       7.743  13.744 -21.059  1.00  0.00    -0.000 C 
BRANCH  23  24
ATOM     24  C   UNL     1       8.925  13.781 -20.074  1.00  0.00    -0.000 C 
BRANCH  24  25
ATOM     25  C   UNL     1       8.986  15.094 -19.276  1.00  0.00    -0.003 C 
ATOM     26  C   UNL     1       9.394  14.834 -17.827  1.00  0.00     0.004 C 
ENDBRANCH  24  25
ENDBRANCH  23  24
ENDBRANCH  22  23
ENDBRANCH  21  22
ENDBRANCH  20  21
ENDBRANCH  19  20
ENDBRANCH  18  19
ENDBRANCH  17  18
ENDBRANCH  16  17
ENDBRANCH  15  16
ENDBRANCH   1  15
TORSDOF 22
ENDMDL
