MODEL 1
REMARK VINA RESULT:    -6.562      0.000      0.000
REMARK INTER + INTRA:          -8.008
REMARK INTER:                  -7.713
REMARK INTRA:                  -0.295
REMARK UNBOUND:                -0.295
REMARK SMILES O=c1c(O)c(-c2ccc(O)cc2)oc2cc(O)cc(O)c12
REMARK SMILES IDX 5 1 3 2 2 3 1 4 21 5 19 6 18 7 16 8 15 9 14 10 13 11 6 12
REMARK SMILES IDX 7 13 8 14 9 15 12 16 11 17 10 18 4 20 20 22 17 24
REMARK H PARENT 10 19 4 21 20 23 17 25
REMARK Flexibility Score: inf
ROOT
ATOM      1  C   UNL     1       7.447   7.785 -14.567  1.00  0.00     0.180 A 
ATOM      2  C   UNL     1       6.990   8.239 -13.318  1.00  0.00     0.208 A 
ATOM      3  C   UNL     1       7.251   9.564 -12.938  1.00  0.00     0.238 A 
ATOM      4  O   UNL     1       6.792   9.981 -11.842  1.00  0.00    -0.285 OA
ATOM      5  C   UNL     1       7.980  10.415 -13.803  1.00  0.00     0.111 A 
ATOM      6  C   UNL     1       8.337  11.763 -13.501  1.00  0.00     0.134 A 
ATOM      7  C   UNL     1       8.946  12.553 -14.485  1.00  0.00     0.093 A 
ATOM      8  C   UNL     1       9.270  12.024 -15.734  1.00  0.00     0.123 A 
ATOM      9  C   UNL     1       8.979  10.690 -16.019  1.00  0.00     0.094 A 
ATOM     10  C   UNL     1       8.340   9.888 -15.070  1.00  0.00     0.146 A 
ATOM     11  O   UNL     1       8.071   8.625 -15.385  1.00  0.00    -0.452 OA
ENDROOT
BRANCH   1  12
ATOM     12  C   UNL     1       7.232   6.394 -15.028  1.00  0.00     0.021 A 
ATOM     13  C   UNL     1       6.156   6.108 -15.886  1.00  0.00     0.016 A 
ATOM     14  C   UNL     1       5.949   4.806 -16.351  1.00  0.00     0.047 A 
ATOM     15  C   UNL     1       6.821   3.777 -15.976  1.00  0.00     0.115 A 
ATOM     16  C   UNL     1       8.116   5.359 -14.671  1.00  0.00     0.016 A 
ATOM     17  C   UNL     1       7.906   4.058 -15.138  1.00  0.00     0.047 A 
BRANCH  15  18
ATOM     18  O   UNL     1       6.624   2.475 -16.431  1.00  0.00    -0.508 OA
ATOM     19  H   UNL     1       6.994   1.676 -15.928  1.00  0.00     0.293 HD
ENDBRANCH  15  18
ENDBRANCH   1  12
BRANCH   2  20
ATOM     20  O   UNL     1       6.252   7.388 -12.489  1.00  0.00    -0.502 OA
ATOM     21  H   UNL     1       5.253   7.489 -12.358  1.00  0.00     0.293 HD
ENDBRANCH   2  20
BRANCH   6  22
ATOM     22  O   UNL     1       8.142  12.362 -12.253  1.00  0.00    -0.507 OA
ATOM     23  H   UNL     1       8.100  13.357 -12.094  1.00  0.00     0.293 HD
ENDBRANCH   6  22
BRANCH   8  24
ATOM     24  O   UNL     1       9.889  12.835 -16.683  1.00  0.00    -0.508 OA
ATOM     25  H   UNL     1       9.400  13.606 -17.121  1.00  0.00     0.293 HD
ENDBRANCH   8  24
TORSDOF 5
ENDMDL
MODEL 2
REMARK VINA RESULT:    -6.396      2.890      7.433
REMARK INTER + INTRA:          -7.813
REMARK INTER:                  -7.524
REMARK INTRA:                  -0.289
REMARK UNBOUND:                -0.295
REMARK SMILES O=c1c(O)c(-c2ccc(O)cc2)oc2cc(O)cc(O)c12
REMARK SMILES IDX 5 1 3 2 2 3 1 4 21 5 19 6 18 7 16 8 15 9 14 10 13 11 6 12
REMARK SMILES IDX 7 13 8 14 9 15 12 16 11 17 10 18 4 20 20 22 17 24
REMARK H PARENT 10 19 4 21 20 23 17 25
REMARK Flexibility Score: inf
ROOT
ATOM      1  C   UNL     1       9.560  11.715 -16.027  1.00  0.00     0.180 A 
ATOM      2  C   UNL     1      10.184  10.519 -16.416  1.00  0.00     0.208 A 
ATOM      3  C   UNL     1       9.883   9.336 -15.722  1.00  0.00     0.238 A 
ATOM      4  O   UNL     1      10.403   8.258 -16.110  1.00  0.00    -0.285 OA
ATOM      5  C   UNL     1       8.975   9.368 -14.637  1.00  0.00     0.111 A 
ATOM      6  C   UNL     1       8.628   8.238 -13.837  1.00  0.00     0.134 A 
ATOM      7  C   UNL     1       7.620   8.358 -12.873  1.00  0.00     0.093 A 
ATOM      8  C   UNL     1       6.993   9.581 -12.634  1.00  0.00     0.123 A 
ATOM      9  C   UNL     1       7.367  10.706 -13.369  1.00  0.00     0.094 A 
ATOM     10  C   UNL     1       8.344  10.609 -14.363  1.00  0.00     0.146 A 
ATOM     11  O   UNL     1       8.663  11.702 -15.048  1.00  0.00    -0.452 OA
ENDROOT
BRANCH   1  12
ATOM     12  C   UNL     1       9.845  13.007 -16.694  1.00  0.00     0.021 A 
ATOM     13  C   UNL     1      10.906  13.804 -16.232  1.00  0.00     0.016 A 
ATOM     14  C   UNL     1      11.207  15.016 -16.862  1.00  0.00     0.047 A 
ATOM     15  C   UNL     1      10.461  15.439 -17.969  1.00  0.00     0.115 A 
ATOM     16  C   UNL     1       9.113  13.428 -17.819  1.00  0.00     0.016 A 
ATOM     17  C   UNL     1       9.417  14.640 -18.447  1.00  0.00     0.047 A 
BRANCH  15  18
ATOM     18  O   UNL     1      10.751  16.644 -18.603  1.00  0.00    -0.508 OA
ATOM     19  H   UNL     1      10.980  16.681 -19.590  1.00  0.00     0.293 HD
ENDBRANCH  15  18
ENDBRANCH   1  12
BRANCH   2  20
ATOM     20  O   UNL     1      11.061  10.505 -17.506  1.00  0.00    -0.502 OA
ATOM     21  H   UNL     1      10.741  10.587 -18.463  1.00  0.00     0.293 HD
ENDBRANCH   2  20
BRANCH   6  22
ATOM     22  O   UNL     1       9.256   6.993 -13.931  1.00  0.00    -0.507 OA
ATOM     23  H   UNL     1       9.817   6.690 -14.712  1.00  0.00     0.293 HD
ENDBRANCH   6  22
BRANCH   8  24
ATOM     24  O   UNL     1       6.005   9.667 -11.656  1.00  0.00    -0.508 OA
ATOM     25  H   UNL     1       5.106   9.215 -11.771  1.00  0.00     0.293 HD
ENDBRANCH   8  24
TORSDOF 5
ENDMDL
MODEL 3
REMARK VINA RESULT:    -6.303      2.993      4.895
REMARK INTER + INTRA:          -7.703
REMARK INTER:                  -7.833
REMARK INTRA:                   0.130
REMARK UNBOUND:                -0.295
REMARK SMILES O=c1c(O)c(-c2ccc(O)cc2)oc2cc(O)cc(O)c12
REMARK SMILES IDX 5 1 3 2 2 3 1 4 21 5 19 6 18 7 16 8 15 9 14 10 13 11 6 12
REMARK SMILES IDX 7 13 8 14 9 15 12 16 11 17 10 18 4 20 20 22 17 24
REMARK H PARENT 10 19 4 21 20 23 17 25
REMARK Flexibility Score: inf
ROOT
ATOM      1  C   UNL     1       8.397  11.272 -14.779  1.00  0.00     0.180 A 
ATOM      2  C   UNL     1       8.831  12.539 -14.355  1.00  0.00     0.208 A 
ATOM      3  C   UNL     1       9.271  13.464 -15.315  1.00  0.00     0.238 A 
ATOM      4  O   UNL     1       9.606  14.617 -14.935  1.00  0.00    -0.285 OA
ATOM      5  C   UNL     1       9.288  13.105 -16.684  1.00  0.00     0.111 A 
ATOM      6  C   UNL     1       9.752  13.949 -17.737  1.00  0.00     0.134 A 
ATOM      7  C   UNL     1       9.601  13.540 -19.068  1.00  0.00     0.093 A 
ATOM      8  C   UNL     1       9.064  12.291 -19.380  1.00  0.00     0.123 A 
ATOM      9  C   UNL     1       8.662  11.433 -18.356  1.00  0.00     0.094 A 
ATOM     10  C   UNL     1       8.767  11.829 -17.021  1.00  0.00     0.146 A 
ATOM     11  O   UNL     1       8.363  10.987 -16.076  1.00  0.00    -0.452 OA
ENDROOT
BRANCH   1  12
ATOM     12  C   UNL     1       7.943  10.234 -13.825  1.00  0.00     0.021 A 
ATOM     13  C   UNL     1       7.027  10.576 -12.815  1.00  0.00     0.016 A 
ATOM     14  C   UNL     1       6.568   9.607 -11.918  1.00  0.00     0.047 A 
ATOM     15  C   UNL     1       7.007   8.282 -12.027  1.00  0.00     0.115 A 
ATOM     16  C   UNL     1       8.365   8.897 -13.941  1.00  0.00     0.016 A 
ATOM     17  C   UNL     1       7.903   7.930 -13.042  1.00  0.00     0.047 A 
BRANCH  15  18
ATOM     18  O   UNL     1       6.558   7.308 -11.138  1.00  0.00    -0.508 OA
ATOM     19  H   UNL     1       5.675   6.829 -11.280  1.00  0.00     0.293 HD
ENDBRANCH  15  18
ENDBRANCH   1  12
BRANCH   2  20
ATOM     20  O   UNL     1       8.785  12.881 -13.000  1.00  0.00    -0.502 OA
ATOM     21  H   UNL     1       8.126  12.461 -12.355  1.00  0.00     0.293 HD
ENDBRANCH   2  20
BRANCH   6  22
ATOM     22  O   UNL     1      10.387  15.178 -17.531  1.00  0.00    -0.507 OA
ATOM     23  H   UNL     1      10.525  15.609 -16.630  1.00  0.00     0.293 HD
ENDBRANCH   6  22
BRANCH   8  24
ATOM     24  O   UNL     1       8.943  11.910 -20.715  1.00  0.00    -0.508 OA
ATOM     25  H   UNL     1       8.360  12.428 -21.363  1.00  0.00     0.293 HD
ENDBRANCH   8  24
TORSDOF 5
ENDMDL
MODEL 4
REMARK VINA RESULT:    -6.262      4.087      8.387
REMARK INTER + INTRA:          -7.655
REMARK INTER:                  -7.791
REMARK INTRA:                   0.136
REMARK UNBOUND:                -0.295
REMARK SMILES O=c1c(O)c(-c2ccc(O)cc2)oc2cc(O)cc(O)c12
REMARK SMILES IDX 5 1 3 2 2 3 1 4 21 5 19 6 18 7 16 8 15 9 14 10 13 11 6 12
REMARK SMILES IDX 7 13 8 14 9 15 12 16 11 17 10 18 4 20 20 22 17 24
REMARK H PARENT 10 19 4 21 20 23 17 25
REMARK Flexibility Score: inf
ROOT
ATOM      1  C   UNL     1       8.972  13.250 -18.712  1.00  0.00     0.180 A 
ATOM      2  C   UNL     1       9.371  11.934 -18.997  1.00  0.00     0.208 A 
ATOM      3  C   UNL     1       9.435  11.001 -17.950  1.00  0.00     0.238 A 
ATOM      4  O   UNL     1       9.740   9.809 -18.219  1.00  0.00    -0.285 OA
ATOM      5  C   UNL     1       9.117  11.400 -16.630  1.00  0.00     0.111 A 
ATOM      6  C   UNL     1       9.187  10.548 -15.487  1.00  0.00     0.134 A 
ATOM      7  C   UNL     1       8.724  11.013 -14.249  1.00  0.00     0.093 A 
ATOM      8  C   UNL     1       8.254  12.317 -14.101  1.00  0.00     0.123 A 
ATOM      9  C   UNL     1       8.237  13.178 -15.199  1.00  0.00     0.094 A 
ATOM     10  C   UNL     1       8.659  12.731 -16.453  1.00  0.00     0.146 A 
ATOM     11  O   UNL     1       8.616  13.578 -17.476  1.00  0.00    -0.452 OA
ENDROOT
BRANCH   1  12
ATOM     12  C   UNL     1       8.904  14.297 -19.759  1.00  0.00     0.021 A 
ATOM     13  C   UNL     1       8.279  14.009 -20.985  1.00  0.00     0.016 A 
ATOM     14  C   UNL     1       8.184  14.990 -21.977  1.00  0.00     0.047 A 
ATOM     15  C   UNL     1       8.699  16.272 -21.752  1.00  0.00     0.115 A 
ATOM     16  C   UNL     1       9.401  15.593 -19.532  1.00  0.00     0.016 A 
ATOM     17  C   UNL     1       9.303  16.572 -20.526  1.00  0.00     0.047 A 
BRANCH  15  18
ATOM     18  O   UNL     1       8.611  17.257 -22.733  1.00  0.00    -0.508 OA
ATOM     19  H   UNL     1       8.723  17.035 -23.716  1.00  0.00     0.293 HD
ENDBRANCH  15  18
ENDBRANCH   1  12
BRANCH   2  20
ATOM     20  O   UNL     1       9.659  11.554 -20.312  1.00  0.00    -0.502 OA
ATOM     21  H   UNL     1      10.606  11.504 -20.667  1.00  0.00     0.293 HD
ENDBRANCH   2  20
BRANCH   6  22
ATOM     22  O   UNL     1       9.725   9.257 -15.506  1.00  0.00    -0.507 OA
ATOM     23  H   UNL     1       9.868   8.683 -14.690  1.00  0.00     0.293 HD
ENDBRANCH   6  22
BRANCH   8  24
ATOM     24  O   UNL     1       7.816  12.751 -12.851  1.00  0.00    -0.508 OA
ATOM     25  H   UNL     1       6.829  12.834 -12.636  1.00  0.00     0.293 HD
ENDBRANCH   8  24
TORSDOF 5
ENDMDL
MODEL 5
REMARK VINA RESULT:    -6.143      3.442      6.256
REMARK INTER + INTRA:          -7.516
REMARK INTER:                  -7.219
REMARK INTRA:                  -0.297
REMARK UNBOUND:                -0.295
REMARK SMILES O=c1c(O)c(-c2ccc(O)cc2)oc2cc(O)cc(O)c12
REMARK SMILES IDX 5 1 3 2 2 3 1 4 21 5 19 6 18 7 16 8 15 9 14 10 13 11 6 12
REMARK SMILES IDX 7 13 8 14 9 15 12 16 11 17 10 18 4 20 20 22 17 24
REMARK H PARENT 10 19 4 21 20 23 17 25
REMARK Flexibility Score: inf
ROOT
ATOM      1  C   UNL     1       9.590  12.055 -16.970  1.00  0.00     0.180 A 
ATOM      2  C   UNL     1      10.318  13.188 -16.572  1.00  0.00     0.208 A 
ATOM      3  C   UNL     1      10.318  14.323 -17.399  1.00  0.00     0.238 A 
ATOM      4  O   UNL     1      10.928  15.354 -17.011  1.00  0.00    -0.285 OA
ATOM      5  C   UNL     1       9.604  14.304 -18.621  1.00  0.00     0.111 A 
ATOM      6  C   UNL     1       9.569  15.383 -19.555  1.00  0.00     0.134 A 
ATOM      7  C   UNL     1       8.724  15.304 -20.669  1.00  0.00     0.093 A 
ATOM      8  C   UNL     1       7.965  14.161 -20.917  1.00  0.00     0.123 A 
ATOM      9  C   UNL     1       8.037  13.076 -20.043  1.00  0.00     0.094 A 
ATOM     10  C   UNL     1       8.843  13.140 -18.903  1.00  0.00     0.146 A 
ATOM     11  O   UNL     1       8.876  12.090 -18.090  1.00  0.00    -0.452 OA
ENDROOT
BRANCH   1  12
ATOM     12  C   UNL     1       9.562  10.812 -16.164  1.00  0.00     0.021 A 
ATOM     13  C   UNL     1       8.492  10.584 -15.282  1.00  0.00     0.016 A 
ATOM     14  C   UNL     1       8.434   9.407 -14.529  1.00  0.00     0.047 A 
ATOM     15  C   UNL     1       9.437   8.439 -14.659  1.00  0.00     0.115 A 
ATOM     16  C   UNL     1      10.555   9.826 -16.304  1.00  0.00     0.016 A 
ATOM     17  C   UNL     1      10.494   8.650 -15.550  1.00  0.00     0.047 A 
BRANCH  15  18
ATOM     18  O   UNL     1       9.391   7.263 -13.913  1.00  0.00    -0.508 OA
ATOM     19  H   UNL     1      10.077   6.527 -14.042  1.00  0.00     0.293 HD
ENDBRANCH  15  18
ENDBRANCH   1  12
BRANCH   2  20
ATOM     20  O   UNL     1      10.999  13.193 -15.350  1.00  0.00    -0.502 OA
ATOM     21  H   UNL     1      11.976  12.940 -15.271  1.00  0.00     0.293 HD
ENDBRANCH   2  20
BRANCH   6  22
ATOM     22  O   UNL     1      10.357  16.533 -19.450  1.00  0.00    -0.507 OA
ATOM     23  H   UNL     1      10.663  16.942 -18.580  1.00  0.00     0.293 HD
ENDBRANCH   6  22
BRANCH   8  24
ATOM     24  O   UNL     1       7.147  14.111 -22.045  1.00  0.00    -0.508 OA
ATOM     25  H   UNL     1       7.443  14.506 -22.930  1.00  0.00     0.293 HD
ENDBRANCH   8  24
TORSDOF 5
ENDMDL
MODEL 6
REMARK VINA RESULT:    -6.119      1.759      6.778
REMARK INTER + INTRA:          -7.487
REMARK INTER:                  -7.190
REMARK INTRA:                  -0.296
REMARK UNBOUND:                -0.295
REMARK SMILES O=c1c(O)c(-c2ccc(O)cc2)oc2cc(O)cc(O)c12
REMARK SMILES IDX 5 1 3 2 2 3 1 4 21 5 19 6 18 7 16 8 15 9 14 10 13 11 6 12
REMARK SMILES IDX 7 13 8 14 9 15 12 16 11 17 10 18 4 20 20 22 17 24
REMARK H PARENT 10 19 4 21 20 23 17 25
REMARK Flexibility Score: inf
ROOT
ATOM      1  C   UNL     1       8.492  11.359 -15.076  1.00  0.00     0.180 A 
ATOM      2  C   UNL     1       8.192  11.399 -13.704  1.00  0.00     0.208 A 
ATOM      3  C   UNL     1       7.668  10.252 -13.087  1.00  0.00     0.238 A 
ATOM      4  O   UNL     1       7.454  10.277 -11.847  1.00  0.00    -0.285 OA
ATOM      5  C   UNL     1       7.435   9.085 -13.853  1.00  0.00     0.111 A 
ATOM      6  C   UNL     1       6.869   7.879 -13.340  1.00  0.00     0.134 A 
ATOM      7  C   UNL     1       6.805   6.744 -14.158  1.00  0.00     0.093 A 
ATOM      8  C   UNL     1       7.224   6.790 -15.488  1.00  0.00     0.123 A 
ATOM      9  C   UNL     1       7.723   7.980 -16.017  1.00  0.00     0.094 A 
ATOM     10  C   UNL     1       7.833   9.119 -15.215  1.00  0.00     0.146 A 
ATOM     11  O   UNL     1       8.324  10.229 -15.754  1.00  0.00    -0.452 OA
ENDROOT
BRANCH   1  12
ATOM     12  C   UNL     1       9.023  12.536 -15.802  1.00  0.00     0.021 A 
ATOM     13  C   UNL     1      10.413  12.696 -15.935  1.00  0.00     0.016 A 
ATOM     14  C   UNL     1      10.935  13.788 -16.636  1.00  0.00     0.047 A 
ATOM     15  C   UNL     1      10.076  14.724 -17.224  1.00  0.00     0.115 A 
ATOM     16  C   UNL     1       8.166  13.468 -16.412  1.00  0.00     0.016 A 
ATOM     17  C   UNL     1       8.691  14.559 -17.114  1.00  0.00     0.047 A 
BRANCH  15  18
ATOM     18  O   UNL     1      10.584  15.816 -17.924  1.00  0.00    -0.508 OA
ATOM     19  H   UNL     1      11.551  16.105 -17.823  1.00  0.00     0.293 HD
ENDBRANCH  15  18
ENDBRANCH   1  12
BRANCH   2  20
ATOM     20  O   UNL     1       8.452  12.555 -12.961  1.00  0.00    -0.502 OA
ATOM     21  H   UNL     1       8.856  13.387 -13.374  1.00  0.00     0.293 HD
ENDBRANCH   2  20
BRANCH   6  22
ATOM     22  O   UNL     1       6.336   7.752 -12.054  1.00  0.00    -0.507 OA
ATOM     23  H   UNL     1       5.430   7.364 -11.844  1.00  0.00     0.293 HD
ENDBRANCH   6  22
BRANCH   8  24
ATOM     24  O   UNL     1       7.130   5.645 -16.277  1.00  0.00    -0.508 OA
ATOM     25  H   UNL     1       7.928   5.038 -16.425  1.00  0.00     0.293 HD
ENDBRANCH   8  24
TORSDOF 5
ENDMDL
MODEL 7
REMARK VINA RESULT:    -6.108      3.541      6.139
REMARK INTER + INTRA:          -7.474
REMARK INTER:                  -7.190
REMARK INTRA:                  -0.285
REMARK UNBOUND:                -0.295
REMARK SMILES O=c1c(O)c(-c2ccc(O)cc2)oc2cc(O)cc(O)c12
REMARK SMILES IDX 5 1 3 2 2 3 1 4 21 5 19 6 18 7 16 8 15 9 14 10 13 11 6 12
REMARK SMILES IDX 7 13 8 14 9 15 12 16 11 17 10 18 4 20 20 22 17 24
REMARK H PARENT 10 19 4 21 20 23 17 25
REMARK Flexibility Score: inf
ROOT
ATOM      1  C   UNL     1       8.599  11.561 -17.428  1.00  0.00     0.180 A 
ATOM      2  C   UNL     1       7.888  11.267 -18.603  1.00  0.00     0.208 A 
ATOM      3  C   UNL     1       7.804  12.242 -19.610  1.00  0.00     0.238 A 
ATOM      4  O   UNL     1       7.212  11.954 -20.683  1.00  0.00    -0.285 OA
ATOM      5  C   UNL     1       8.417  13.504 -19.422  1.00  0.00     0.111 A 
ATOM      6  C   UNL     1       8.360  14.580 -20.358  1.00  0.00     0.134 A 
ATOM      7  C   UNL     1       9.114  15.737 -20.125  1.00  0.00     0.093 A 
ATOM      8  C   UNL     1       9.868  15.884 -18.962  1.00  0.00     0.123 A 
ATOM      9  C   UNL     1       9.883  14.863 -18.011  1.00  0.00     0.094 A 
ATOM     10  C   UNL     1       9.170  13.682 -18.232  1.00  0.00     0.146 A 
ATOM     11  O   UNL     1       9.219  12.729 -17.308  1.00  0.00    -0.452 OA
ENDROOT
BRANCH   1  12
ATOM     12  C   UNL     1       8.711  10.593 -16.311  1.00  0.00     0.021 A 
ATOM     13  C   UNL     1       7.759  10.617 -15.278  1.00  0.00     0.016 A 
ATOM     14  C   UNL     1       7.833   9.698 -14.227  1.00  0.00     0.047 A 
ATOM     15  C   UNL     1       8.850   8.736 -14.202  1.00  0.00     0.115 A 
ATOM     16  C   UNL     1       9.718   9.612 -16.291  1.00  0.00     0.016 A 
ATOM     17  C   UNL     1       9.789   8.694 -15.238  1.00  0.00     0.047 A 
BRANCH  15  18
ATOM     18  O   UNL     1       8.934   7.817 -13.159  1.00  0.00    -0.508 OA
ATOM     19  H   UNL     1       9.818   7.608 -12.708  1.00  0.00     0.293 HD
ENDBRANCH  15  18
ENDBRANCH   1  12
BRANCH   2  20
ATOM     20  O   UNL     1       7.309  10.006 -18.778  1.00  0.00    -0.502 OA
ATOM     21  H   UNL     1       7.153   9.368 -18.008  1.00  0.00     0.293 HD
ENDBRANCH   2  20
BRANCH   6  22
ATOM     22  O   UNL     1       7.566  14.573 -21.508  1.00  0.00    -0.507 OA
ATOM     23  H   UNL     1       7.889  14.820 -22.431  1.00  0.00     0.293 HD
ENDBRANCH   6  22
BRANCH   8  24
ATOM     24  O   UNL     1      10.592  17.057 -18.756  1.00  0.00    -0.508 OA
ATOM     25  H   UNL     1      10.565  17.547 -17.869  1.00  0.00     0.293 HD
ENDBRANCH   8  24
TORSDOF 5
ENDMDL
MODEL 8
REMARK VINA RESULT:    -6.078      2.826      7.157
REMARK INTER + INTRA:          -7.438
REMARK INTER:                  -7.151
REMARK INTRA:                  -0.287
REMARK UNBOUND:                -0.295
REMARK SMILES O=c1c(O)c(-c2ccc(O)cc2)oc2cc(O)cc(O)c12
REMARK SMILES IDX 5 1 3 2 2 3 1 4 21 5 19 6 18 7 16 8 15 9 14 10 13 11 6 12
REMARK SMILES IDX 7 13 8 14 9 15 12 16 11 17 10 18 4 20 20 22 17 24
REMARK H PARENT 10 19 4 21 20 23 17 25
REMARK Flexibility Score: inf
ROOT
ATOM      1  C   UNL     1       8.480  12.717 -15.858  1.00  0.00     0.180 A 
ATOM      2  C   UNL     1       7.521  13.096 -14.904  1.00  0.00     0.208 A 
ATOM      3  C   UNL     1       7.067  12.143 -13.979  1.00  0.00     0.238 A 
ATOM      4  O   UNL     1       6.249  12.503 -13.093  1.00  0.00    -0.285 OA
ATOM      5  C   UNL     1       7.563  10.819 -14.031  1.00  0.00     0.111 A 
ATOM      6  C   UNL     1       7.143   9.762 -13.169  1.00  0.00     0.134 A 
ATOM      7  C   UNL     1       7.797   8.525 -13.224  1.00  0.00     0.093 A 
ATOM      8  C   UNL     1       8.810   8.286 -14.152  1.00  0.00     0.123 A 
ATOM      9  C   UNL     1       9.188   9.294 -15.040  1.00  0.00     0.094 A 
ATOM     10  C   UNL     1       8.579  10.549 -14.984  1.00  0.00     0.146 A 
ATOM     11  O   UNL     1       8.976  11.485 -15.840  1.00  0.00    -0.452 OA
ENDROOT
BRANCH   1  12
ATOM     12  C   UNL     1       8.989  13.659 -16.882  1.00  0.00     0.021 A 
ATOM     13  C   UNL     1       8.282  13.820 -18.086  1.00  0.00     0.016 A 
ATOM     14  C   UNL     1       8.733  14.720 -19.057  1.00  0.00     0.047 A 
ATOM     15  C   UNL     1       9.886  15.480 -18.830  1.00  0.00     0.115 A 
ATOM     16  C   UNL     1      10.136  14.440 -16.653  1.00  0.00     0.016 A 
ATOM     17  C   UNL     1      10.583  15.341 -17.626  1.00  0.00     0.047 A 
BRANCH  15  18
ATOM     18  O   UNL     1      10.345  16.380 -19.790  1.00  0.00    -0.508 OA
ATOM     19  H   UNL     1      10.381  16.132 -20.773  1.00  0.00     0.293 HD
ENDBRANCH  15  18
ENDBRANCH   1  12
BRANCH   2  20
ATOM     20  O   UNL     1       7.060  14.416 -14.857  1.00  0.00    -0.502 OA
ATOM     21  H   UNL     1       7.153  15.053 -15.639  1.00  0.00     0.293 HD
ENDBRANCH   2  20
BRANCH   6  22
ATOM     22  O   UNL     1       6.079   9.866 -12.268  1.00  0.00    -0.507 OA
ATOM     23  H   UNL     1       5.173  10.250 -12.490  1.00  0.00     0.293 HD
ENDBRANCH   6  22
BRANCH   8  24
ATOM     24  O   UNL     1       9.427   7.038 -14.188  1.00  0.00    -0.508 OA
ATOM     25  H   UNL     1       9.362   6.392 -13.410  1.00  0.00     0.293 HD
ENDBRANCH   8  24
TORSDOF 5
ENDMDL
MODEL 9
REMARK VINA RESULT:    -5.942      1.580      2.437
REMARK INTER + INTRA:          -7.279
REMARK INTER:                  -7.076
REMARK INTRA:                  -0.204
REMARK UNBOUND:                -0.295
REMARK SMILES O=c1c(O)c(-c2ccc(O)cc2)oc2cc(O)cc(O)c12
REMARK SMILES IDX 5 1 3 2 2 3 1 4 21 5 19 6 18 7 16 8 15 9 14 10 13 11 6 12
REMARK SMILES IDX 7 13 8 14 9 15 12 16 11 17 10 18 4 20 20 22 17 24
REMARK H PARENT 10 19 4 21 20 23 17 25
REMARK Flexibility Score: inf
ROOT
ATOM      1  C   UNL     1       8.061   9.673 -15.183  1.00  0.00     0.180 A 
ATOM      2  C   UNL     1       8.090  10.435 -14.004  1.00  0.00     0.208 A 
ATOM      3  C   UNL     1       8.479  11.782 -14.072  1.00  0.00     0.238 A 
ATOM      4  O   UNL     1       8.450  12.474 -13.021  1.00  0.00    -0.285 OA
ATOM      5  C   UNL     1       8.849  12.347 -15.317  1.00  0.00     0.111 A 
ATOM      6  C   UNL     1       9.297  13.689 -15.496  1.00  0.00     0.134 A 
ATOM      7  C   UNL     1       9.512  14.178 -16.791  1.00  0.00     0.093 A 
ATOM      8  C   UNL     1       9.358  13.356 -17.906  1.00  0.00     0.123 A 
ATOM      9  C   UNL     1       8.978  12.024 -17.738  1.00  0.00     0.094 A 
ATOM     10  C   UNL     1       8.721  11.518 -16.462  1.00  0.00     0.146 A 
ATOM     11  O   UNL     1       8.351  10.247 -16.346  1.00  0.00    -0.452 OA
ENDROOT
BRANCH   1  12
ATOM     12  C   UNL     1       7.687   8.240 -15.188  1.00  0.00     0.021 A 
ATOM     13  C   UNL     1       6.505   7.835 -15.832  1.00  0.00     0.016 A 
ATOM     14  C   UNL     1       6.146   6.485 -15.867  1.00  0.00     0.047 A 
ATOM     15  C   UNL     1       6.968   5.521 -15.272  1.00  0.00     0.115 A 
ATOM     16  C   UNL     1       8.519   7.264 -14.609  1.00  0.00     0.016 A 
ATOM     17  C   UNL     1       8.157   5.914 -14.647  1.00  0.00     0.047 A 
BRANCH  15  18
ATOM     18  O   UNL     1       6.620   4.172 -15.300  1.00  0.00    -0.508 OA
ATOM     19  H   UNL     1       6.218   3.747 -16.128  1.00  0.00     0.293 HD
ENDBRANCH  15  18
ENDBRANCH   1  12
BRANCH   2  20
ATOM     20  O   UNL     1       7.699   9.864 -12.788  1.00  0.00    -0.502 OA
ATOM     21  H   UNL     1       8.261   9.172 -12.307  1.00  0.00     0.293 HD
ENDBRANCH   2  20
BRANCH   6  22
ATOM     22  O   UNL     1       9.571  14.568 -14.444  1.00  0.00    -0.507 OA
ATOM     23  H   UNL     1       9.334  14.399 -13.478  1.00  0.00     0.293 HD
ENDBRANCH   6  22
BRANCH   8  24
ATOM     24  O   UNL     1       9.596  13.872 -19.178  1.00  0.00    -0.508 OA
ATOM     25  H   UNL     1       8.898  14.423 -19.665  1.00  0.00     0.293 HD
ENDBRANCH   8  24
TORSDOF 5
ENDMDL
