MODEL 1
REMARK VINA RESULT:    -3.839      0.000      0.000
REMARK INTER + INTRA:          -7.490
REMARK INTER:                  -6.083
REMARK INTRA:                  -1.407
REMARK UNBOUND:                -1.407
REMARK SMILES CCCCCCCCCCCC(=O)[O-]
REMARK SMILES IDX 7 1 8 2 9 3 10 4 11 5 12 6 13 7 14 8 6 9 5 10 4 11 3 12 2 13
REMARK SMILES IDX 1 14
REMARK H PARENT
REMARK Flexibility Score: inf
ROOT
ATOM      1  C   UNL     1      -4.289  -0.210  -7.085  1.00  0.00     0.000 C 
ENDROOT
BRANCH   1   2
ATOM      2  C   UNL     1      -4.868  -1.549  -7.560  1.00  0.00     0.000 C 
BRANCH   2   3
ATOM      3  C   UNL     1      -5.706  -2.209  -6.459  1.00  0.00     0.000 C 
BRANCH   3   4
ATOM      4  C   UNL     1      -5.148  -3.590  -6.095  1.00  0.00     0.006 C 
BRANCH   4   5
ATOM      5  C   UNL     1      -4.958  -3.724  -4.581  1.00  0.00     0.053 C 
BRANCH   5   6
ATOM      6  C   UNL     1      -4.882  -5.165  -4.188  1.00  0.00     0.041 C 
ATOM      7  O   UNL     1      -5.104  -6.066  -5.039  1.00  0.00    -0.550 OA
ATOM      8  O   UNL     1      -4.614  -5.514  -2.870  1.00  0.00    -0.550 OA
ENDBRANCH   5   6
ENDBRANCH   4   5
ENDBRANCH   3   4
ENDBRANCH   2   3
ENDBRANCH   1   2
BRANCH   1   9
ATOM      9  C   UNL     1      -3.389  -0.405  -5.857  1.00  0.00     0.000 C 
BRANCH   9  10
ATOM     10  C   UNL     1      -2.045  -1.074  -6.201  1.00  0.00    -0.000 C 
BRANCH  10  11
ATOM     11  C   UNL     1      -1.671  -2.280  -5.315  1.00  0.00    -0.000 C 
BRANCH  11  12
ATOM     12  C   UNL     1      -1.392  -3.588  -6.079  1.00  0.00    -0.000 C 
BRANCH  12  13
ATOM     13  C   UNL     1      -1.363  -4.818  -5.162  1.00  0.00    -0.003 C 
ATOM     14  C   UNL     1      -1.157  -4.413  -3.705  1.00  0.00     0.004 C 
ENDBRANCH  12  13
ENDBRANCH  11  12
ENDBRANCH  10  11
ENDBRANCH   9  10
ENDBRANCH   1   9
TORSDOF 10
ENDMDL
MODEL 2
REMARK VINA RESULT:    -3.787     12.636     13.959
REMARK INTER + INTRA:          -7.409
REMARK INTER:                  -6.597
REMARK INTRA:                  -0.812
REMARK UNBOUND:                -1.407
REMARK SMILES CCCCCCCCCCCC(=O)[O-]
REMARK SMILES IDX 7 1 8 2 9 3 10 4 11 5 12 6 13 7 14 8 6 9 5 10 4 11 3 12 2 13
REMARK SMILES IDX 1 14
REMARK H PARENT
REMARK Flexibility Score: inf
ROOT
ATOM      1  C   UNL     1       1.508   4.346   6.285  1.00  0.00     0.000 C 
ENDROOT
BRANCH   1   2
ATOM      2  C   UNL     1       0.221   3.722   6.840  1.00  0.00     0.000 C 
BRANCH   2   3
ATOM      3  C   UNL     1      -0.362   2.697   5.859  1.00  0.00     0.000 C 
BRANCH   3   4
ATOM      4  C   UNL     1      -1.480   3.319   5.014  1.00  0.00     0.006 C 
BRANCH   4   5
ATOM      5  C   UNL     1      -2.527   3.998   5.903  1.00  0.00     0.053 C 
BRANCH   5   6
ATOM      6  C   UNL     1      -3.789   3.196   5.932  1.00  0.00     0.041 C 
ATOM      7  O   UNL     1      -4.865   3.721   6.323  1.00  0.00    -0.550 OA
ATOM      8  O   UNL     1      -3.769   1.854   5.574  1.00  0.00    -0.550 OA
ENDBRANCH   5   6
ENDBRANCH   4   5
ENDBRANCH   3   4
ENDBRANCH   2   3
ENDBRANCH   1   2
BRANCH   1   9
ATOM      9  C   UNL     1       2.724   3.939   7.129  1.00  0.00     0.000 C 
BRANCH   9  10
ATOM     10  C   UNL     1       3.826   3.256   6.299  1.00  0.00    -0.000 C 
BRANCH  10  11
ATOM     11  C   UNL     1       4.082   1.775   6.646  1.00  0.00    -0.000 C 
BRANCH  11  12
ATOM     12  C   UNL     1       2.934   1.071   7.392  1.00  0.00    -0.000 C 
BRANCH  12  13
ATOM     13  C   UNL     1       2.001   0.295   6.452  1.00  0.00    -0.003 C 
ATOM     14  C   UNL     1       2.475  -1.145   6.274  1.00  0.00     0.004 C 
ENDBRANCH  12  13
ENDBRANCH  11  12
ENDBRANCH  10  11
ENDBRANCH   9  10
ENDBRANCH   1   9
TORSDOF 10
ENDMDL
MODEL 3
REMARK VINA RESULT:    -3.785     12.756     14.321
REMARK INTER + INTRA:          -7.404
REMARK INTER:                  -6.315
REMARK INTRA:                  -1.090
REMARK UNBOUND:                -1.407
REMARK SMILES CCCCCCCCCCCC(=O)[O-]
REMARK SMILES IDX 7 1 8 2 9 3 10 4 11 5 12 6 13 7 14 8 6 9 5 10 4 11 3 12 2 13
REMARK SMILES IDX 1 14
REMARK H PARENT
REMARK Flexibility Score: inf
ROOT
ATOM      1  C   UNL     1      -1.248   3.374   4.880  1.00  0.00     0.000 C 
ENDROOT
BRANCH   1   2
ATOM      2  C   UNL     1      -0.133   4.119   5.625  1.00  0.00     0.000 C 
BRANCH   2   3
ATOM      3  C   UNL     1       0.251   3.387   6.917  1.00  0.00     0.000 C 
BRANCH   3   4
ATOM      4  C   UNL     1       1.610   2.692   6.773  1.00  0.00     0.006 C 
BRANCH   4   5
ATOM      5  C   UNL     1       1.494   1.194   7.071  1.00  0.00     0.053 C 
BRANCH   5   6
ATOM      6  C   UNL     1       2.596   0.440   6.397  1.00  0.00     0.041 C 
ATOM      7  O   UNL     1       3.762   0.915   6.364  1.00  0.00    -0.550 OA
ATOM      8  O   UNL     1       2.327  -0.765   5.760  1.00  0.00    -0.550 OA
ENDBRANCH   5   6
ENDBRANCH   4   5
ENDBRANCH   3   4
ENDBRANCH   2   3
ENDBRANCH   1   2
BRANCH   1   9
ATOM      9  C   UNL     1      -1.921   2.339   5.792  1.00  0.00     0.000 C 
BRANCH   9  10
ATOM     10  C   UNL     1      -3.458   2.375   5.707  1.00  0.00    -0.000 C 
BRANCH  10  11
ATOM     11  C   UNL     1      -4.141   3.370   6.667  1.00  0.00    -0.000 C 
BRANCH  11  12
ATOM     12  C   UNL     1      -4.762   4.606   5.992  1.00  0.00    -0.000 C 
BRANCH  12  13
ATOM     13  C   UNL     1      -3.782   5.782   5.885  1.00  0.00    -0.003 C 
ATOM     14  C   UNL     1      -3.025   5.987   7.195  1.00  0.00     0.004 C 
ENDBRANCH  12  13
ENDBRANCH  11  12
ENDBRANCH  10  11
ENDBRANCH   9  10
ENDBRANCH   1   9
TORSDOF 10
ENDMDL
MODEL 4
REMARK VINA RESULT:    -3.768     12.676     14.227
REMARK INTER + INTRA:          -7.377
REMARK INTER:                  -6.441
REMARK INTRA:                  -0.936
REMARK UNBOUND:                -1.407
REMARK SMILES CCCCCCCCCCCC(=O)[O-]
REMARK SMILES IDX 7 1 8 2 9 3 10 4 11 5 12 6 13 7 14 8 6 9 5 10 4 11 3 12 2 13
REMARK SMILES IDX 1 14
REMARK H PARENT
REMARK Flexibility Score: inf
ROOT
ATOM      1  C   UNL     1       1.129   1.394   7.694  1.00  0.00     0.000 C 
ENDROOT
BRANCH   1   2
ATOM      2  C   UNL     1      -0.097   2.282   7.443  1.00  0.00     0.000 C 
BRANCH   2   3
ATOM      3  C   UNL     1       0.002   2.988   6.086  1.00  0.00     0.000 C 
BRANCH   3   4
ATOM      4  C   UNL     1      -1.285   2.804   5.274  1.00  0.00     0.006 C 
BRANCH   4   5
ATOM      5  C   UNL     1      -2.388   3.742   5.776  1.00  0.00     0.053 C 
BRANCH   5   6
ATOM      6  C   UNL     1      -3.680   3.001   5.917  1.00  0.00     0.041 C 
ATOM      7  O   UNL     1      -3.756   1.789   5.584  1.00  0.00    -0.550 OA
ATOM      8  O   UNL     1      -4.815   3.662   6.370  1.00  0.00    -0.550 OA
ENDBRANCH   5   6
ENDBRANCH   4   5
ENDBRANCH   3   4
ENDBRANCH   2   3
ENDBRANCH   1   2
BRANCH   1   9
ATOM      9  C   UNL     1       1.539   0.650   6.415  1.00  0.00     0.000 C 
BRANCH   9  10
ATOM     10  C   UNL     1       2.783  -0.235   6.611  1.00  0.00    -0.000 C 
BRANCH  10  11
ATOM     11  C   UNL     1       3.820   0.307   7.616  1.00  0.00    -0.000 C 
BRANCH  11  12
ATOM     12  C   UNL     1       4.902   1.218   7.009  1.00  0.00    -0.000 C 
BRANCH  12  13
ATOM     13  C   UNL     1       4.645   2.708   7.273  1.00  0.00    -0.003 C 
ATOM     14  C   UNL     1       4.105   3.402   6.025  1.00  0.00     0.004 C 
ENDBRANCH  12  13
ENDBRANCH  11  12
ENDBRANCH  10  11
ENDBRANCH   9  10
ENDBRANCH   1   9
TORSDOF 10
ENDMDL
MODEL 5
REMARK VINA RESULT:    -3.766     13.013     14.497
REMARK INTER + INTRA:          -7.375
REMARK INTER:                  -6.163
REMARK INTRA:                  -1.212
REMARK UNBOUND:                -1.407
REMARK SMILES CCCCCCCCCCCC(=O)[O-]
REMARK SMILES IDX 7 1 8 2 9 3 10 4 11 5 12 6 13 7 14 8 6 9 5 10 4 11 3 12 2 13
REMARK SMILES IDX 1 14
REMARK H PARENT
REMARK Flexibility Score: inf
ROOT
ATOM      1  C   UNL     1       0.397   5.358   7.073  1.00  0.00     0.000 C 
ENDROOT
BRANCH   1   2
ATOM      2  C   UNL     1       0.479   4.348   8.225  1.00  0.00     0.000 C 
BRANCH   2   3
ATOM      3  C   UNL     1       1.783   3.543   8.159  1.00  0.00     0.000 C 
BRANCH   3   4
ATOM      4  C   UNL     1       1.912   2.811   6.818  1.00  0.00     0.006 C 
BRANCH   4   5
ATOM      5  C   UNL     1       1.542   1.332   6.963  1.00  0.00     0.053 C 
BRANCH   5   6
ATOM      6  C   UNL     1       2.605   0.466   6.364  1.00  0.00     0.041 C 
ATOM      7  O   UNL     1       3.804   0.853   6.349  1.00  0.00    -0.550 OA
ATOM      8  O   UNL     1       2.266  -0.747   5.778  1.00  0.00    -0.550 OA
ENDBRANCH   5   6
ENDBRANCH   4   5
ENDBRANCH   3   4
ENDBRANCH   2   3
ENDBRANCH   1   2
BRANCH   1   9
ATOM      9  C   UNL     1      -0.918   5.200   6.297  1.00  0.00     0.000 C 
BRANCH   9  10
ATOM     10  C   UNL     1      -0.742   4.442   4.968  1.00  0.00    -0.000 C 
BRANCH  10  11
ATOM     11  C   UNL     1      -1.361   3.030   4.934  1.00  0.00    -0.000 C 
BRANCH  11  12
ATOM     12  C   UNL     1      -2.079   2.601   6.226  1.00  0.00    -0.000 C 
BRANCH  12  13
ATOM     13  C   UNL     1      -3.549   2.226   5.994  1.00  0.00    -0.003 C 
ATOM     14  C   UNL     1      -4.456   3.446   6.129  1.00  0.00     0.004 C 
ENDBRANCH  12  13
ENDBRANCH  11  12
ENDBRANCH  10  11
ENDBRANCH   9  10
ENDBRANCH   1   9
TORSDOF 10
ENDMDL
MODEL 6
REMARK VINA RESULT:    -3.700     12.851     14.159
REMARK INTER + INTRA:          -7.270
REMARK INTER:                  -6.185
REMARK INTRA:                  -1.085
REMARK UNBOUND:                -1.407
REMARK SMILES CCCCCCCCCCCC(=O)[O-]
REMARK SMILES IDX 7 1 8 2 9 3 10 4 11 5 12 6 13 7 14 8 6 9 5 10 4 11 3 12 2 13
REMARK SMILES IDX 1 14
REMARK H PARENT
REMARK Flexibility Score: inf
ROOT
ATOM      1  C   UNL     1       0.865   4.313   7.707  1.00  0.00     0.000 C 
ENDROOT
BRANCH   1   2
ATOM      2  C   UNL     1      -0.192   3.247   7.385  1.00  0.00     0.000 C 
BRANCH   2   3
ATOM      3  C   UNL     1      -0.060   2.761   5.936  1.00  0.00     0.000 C 
BRANCH   3   4
ATOM      4  C   UNL     1      -1.392   2.893   5.188  1.00  0.00     0.006 C 
BRANCH   4   5
ATOM      5  C   UNL     1      -2.399   3.712   6.002  1.00  0.00     0.053 C 
BRANCH   5   6
ATOM      6  C   UNL     1      -3.739   3.047   5.997  1.00  0.00     0.041 C 
ATOM      7  O   UNL     1      -3.854   1.855   5.608  1.00  0.00    -0.550 OA
ATOM      8  O   UNL     1      -4.871   3.760   6.373  1.00  0.00    -0.550 OA
ENDBRANCH   5   6
ENDBRANCH   4   5
ENDBRANCH   3   4
ENDBRANCH   2   3
ENDBRANCH   1   2
BRANCH   1   9
ATOM      9  C   UNL     1       2.069   4.195   6.761  1.00  0.00     0.000 C 
BRANCH   9  10
ATOM     10  C   UNL     1       3.258   3.451   7.396  1.00  0.00    -0.000 C 
BRANCH  10  11
ATOM     11  C   UNL     1       3.980   2.458   6.463  1.00  0.00    -0.000 C 
BRANCH  11  12
ATOM     12  C   UNL     1       3.998   0.998   6.952  1.00  0.00    -0.000 C 
BRANCH  12  13
ATOM     13  C   UNL     1       2.610   0.493   7.370  1.00  0.00    -0.003 C 
ATOM     14  C   UNL     1       1.987  -0.372   6.276  1.00  0.00     0.004 C 
ENDBRANCH  12  13
ENDBRANCH  11  12
ENDBRANCH  10  11
ENDBRANCH   9  10
ENDBRANCH   1   9
TORSDOF 10
ENDMDL
MODEL 7
REMARK VINA RESULT:    -3.692     13.022     14.678
REMARK INTER + INTRA:          -7.257
REMARK INTER:                  -5.786
REMARK INTRA:                  -1.471
REMARK UNBOUND:                -1.407
REMARK SMILES CCCCCCCCCCCC(=O)[O-]
REMARK SMILES IDX 7 1 8 2 9 3 10 4 11 5 12 6 13 7 14 8 6 9 5 10 4 11 3 12 2 13
REMARK SMILES IDX 1 14
REMARK H PARENT
REMARK Flexibility Score: inf
ROOT
ATOM      1  C   UNL     1       3.336   4.038   7.131  1.00  0.00     0.000 C 
ENDROOT
BRANCH   1   2
ATOM      2  C   UNL     1       2.508   3.451   8.282  1.00  0.00     0.000 C 
BRANCH   2   3
ATOM      3  C   UNL     1       1.015   3.433   7.933  1.00  0.00     0.000 C 
BRANCH   3   4
ATOM      4  C   UNL     1       0.805   3.411   6.415  1.00  0.00     0.006 C 
BRANCH   4   5
ATOM      5  C   UNL     1      -0.221   2.344   6.018  1.00  0.00     0.053 C 
BRANCH   5   6
ATOM      6  C   UNL     1      -1.287   2.939   5.155  1.00  0.00     0.041 C 
ATOM      7  O   UNL     1      -1.042   3.957   4.456  1.00  0.00    -0.550 OA
ATOM      8  O   UNL     1      -2.568   2.400   5.159  1.00  0.00    -0.550 OA
ENDBRANCH   5   6
ENDBRANCH   4   5
ENDBRANCH   3   4
ENDBRANCH   2   3
ENDBRANCH   1   2
BRANCH   1   9
ATOM      9  C   UNL     1       4.347   3.011   6.602  1.00  0.00     0.000 C 
BRANCH   9  10
ATOM     10  C   UNL     1       4.667   1.906   7.625  1.00  0.00    -0.000 C 
BRANCH  10  11
ATOM     11  C   UNL     1       4.306   0.475   7.176  1.00  0.00    -0.000 C 
BRANCH  11  12
ATOM     12  C   UNL     1       3.020   0.361   6.336  1.00  0.00    -0.000 C 
BRANCH  12  13
ATOM     13  C   UNL     1       2.005  -0.624   6.932  1.00  0.00    -0.003 C 
ATOM     14  C   UNL     1       1.676  -0.266   8.379  1.00  0.00     0.004 C 
ENDBRANCH  12  13
ENDBRANCH  11  12
ENDBRANCH  10  11
ENDBRANCH   9  10
ENDBRANCH   1   9
TORSDOF 10
ENDMDL
MODEL 8
REMARK VINA RESULT:    -3.651      1.423      2.146
REMARK INTER + INTRA:          -7.192
REMARK INTER:                  -5.539
REMARK INTRA:                  -1.653
REMARK UNBOUND:                -1.407
REMARK SMILES CCCCCCCCCCCC(=O)[O-]
REMARK SMILES IDX 7 1 8 2 9 3 10 4 11 5 12 6 13 7 14 8 6 9 5 10 4 11 3 12 2 13
REMARK SMILES IDX 1 14
REMARK H PARENT
REMARK Flexibility Score: inf
ROOT
ATOM      1  C   UNL     1      -4.174  -2.697  -6.677  1.00  0.00     0.000 C 
ENDROOT
BRANCH   1   2
ATOM      2  C   UNL     1      -4.811  -3.938  -6.037  1.00  0.00     0.000 C 
BRANCH   2   3
ATOM      3  C   UNL     1      -4.948  -3.766  -4.519  1.00  0.00     0.000 C 
BRANCH   3   4
ATOM      4  C   UNL     1      -4.604  -5.067  -3.784  1.00  0.00     0.006 C 
BRANCH   4   5
ATOM      5  C   UNL     1      -4.794  -6.281  -4.700  1.00  0.00     0.053 C 
BRANCH   5   6
ATOM      6  C   UNL     1      -6.018  -7.046  -4.308  1.00  0.00     0.041 C 
ATOM      7  O   UNL     1      -6.953  -7.213  -5.135  1.00  0.00    -0.550 OA
ATOM      8  O   UNL     1      -6.150  -7.533  -3.014  1.00  0.00    -0.550 OA
ENDBRANCH   5   6
ENDBRANCH   4   5
ENDBRANCH   3   4
ENDBRANCH   2   3
ENDBRANCH   1   2
BRANCH   1   9
ATOM      9  C   UNL     1      -3.453  -1.845  -5.623  1.00  0.00     0.000 C 
BRANCH   9  10
ATOM     10  C   UNL     1      -2.009  -1.492  -6.025  1.00  0.00    -0.000 C 
BRANCH  10  11
ATOM     11  C   UNL     1      -0.965  -2.591  -5.741  1.00  0.00    -0.000 C 
BRANCH  11  12
ATOM     12  C   UNL     1      -1.207  -3.406  -4.458  1.00  0.00    -0.000 C 
BRANCH  12  13
ATOM     13  C   UNL     1      -1.113  -4.920  -4.687  1.00  0.00    -0.003 C 
ATOM     14  C   UNL     1      -1.301  -5.266  -6.162  1.00  0.00     0.004 C 
ENDBRANCH  12  13
ENDBRANCH  11  12
ENDBRANCH  10  11
ENDBRANCH   9  10
ENDBRANCH   1   9
TORSDOF 10
ENDMDL
MODEL 9
REMARK VINA RESULT:    -3.627      1.280      2.597
REMARK INTER + INTRA:          -7.154
REMARK INTER:                  -5.847
REMARK INTRA:                  -1.308
REMARK UNBOUND:                -1.407
REMARK SMILES CCCCCCCCCCCC(=O)[O-]
REMARK SMILES IDX 7 1 8 2 9 3 10 4 11 5 12 6 13 7 14 8 6 9 5 10 4 11 3 12 2 13
REMARK SMILES IDX 1 14
REMARK H PARENT
REMARK Flexibility Score: inf
ROOT
ATOM      1  C   UNL     1      -6.028  -2.011  -6.768  1.00  0.00     0.000 C 
ENDROOT
BRANCH   1   2
ATOM      2  C   UNL     1      -5.470  -3.362  -6.303  1.00  0.00     0.000 C 
BRANCH   2   3
ATOM      3  C   UNL     1      -5.060  -3.309  -4.826  1.00  0.00     0.000 C 
BRANCH   3   4
ATOM      4  C   UNL     1      -4.456  -4.644  -4.374  1.00  0.00     0.006 C 
BRANCH   4   5
ATOM      5  C   UNL     1      -5.126  -5.820  -5.091  1.00  0.00     0.053 C 
BRANCH   5   6
ATOM      6  C   UNL     1      -5.650  -6.809  -4.098  1.00  0.00     0.041 C 
ATOM      7  O   UNL     1      -5.313  -6.730  -2.887  1.00  0.00    -0.550 OA
ATOM      8  O   UNL     1      -6.471  -7.848  -4.517  1.00  0.00    -0.550 OA
ENDBRANCH   5   6
ENDBRANCH   4   5
ENDBRANCH   3   4
ENDBRANCH   2   3
ENDBRANCH   1   2
BRANCH   1   9
ATOM      9  C   UNL     1      -5.028  -1.289  -7.682  1.00  0.00     0.000 C 
BRANCH   9  10
ATOM     10  C   UNL     1      -4.504   0.025  -7.075  1.00  0.00    -0.000 C 
BRANCH  10  11
ATOM     11  C   UNL     1      -3.462  -0.144  -5.951  1.00  0.00    -0.000 C 
BRANCH  11  12
ATOM     12  C   UNL     1      -2.117  -0.750  -6.394  1.00  0.00    -0.000 C 
BRANCH  12  13
ATOM     13  C   UNL     1      -1.732  -1.998  -5.589  1.00  0.00    -0.003 C 
ATOM     14  C   UNL     1      -1.711  -3.240  -6.477  1.00  0.00     0.004 C 
ENDBRANCH  12  13
ENDBRANCH  11  12
ENDBRANCH  10  11
ENDBRANCH   9  10
ENDBRANCH   1   9
TORSDOF 10
ENDMDL
