MODEL 1
REMARK VINA RESULT:    -5.143      0.000      0.000
REMARK INTER + INTRA:          -6.486
REMARK INTER:                  -6.196
REMARK INTRA:                  -0.291
REMARK UNBOUND:                -0.291
REMARK SMILES O=c1c(O)c(-c2ccc(O)c(O)c2)oc2cc(O)cc(O)c12
REMARK SMILES IDX 5 1 3 2 2 3 1 4 22 5 20 6 19 7 17 8 16 9 15 10 14 11 6 12
REMARK SMILES IDX 7 13 8 14 9 15 13 16 11 17 10 18 12 20 4 22 21 24 18 26
REMARK H PARENT 10 19 12 21 4 23 21 25 18 27
REMARK Flexibility Score: inf
ROOT
ATOM      1  C   UNL     1      21.372  -2.728  17.781  1.00  0.00     0.180 A 
ATOM      2  C   UNL     1      21.320  -3.267  16.484  1.00  0.00     0.208 A 
ATOM      3  C   UNL     1      20.070  -3.586  15.928  1.00  0.00     0.238 A 
ATOM      4  O   UNL     1      20.034  -4.119  14.789  1.00  0.00    -0.285 OA
ATOM      5  C   UNL     1      18.889  -3.346  16.670  1.00  0.00     0.111 A 
ATOM      6  C   UNL     1      17.567  -3.594  16.190  1.00  0.00     0.134 A 
ATOM      7  C   UNL     1      16.478  -3.442  17.057  1.00  0.00     0.093 A 
ATOM      8  C   UNL     1      16.657  -2.988  18.367  1.00  0.00     0.123 A 
ATOM      9  C   UNL     1      17.938  -2.688  18.825  1.00  0.00     0.094 A 
ATOM     10  C   UNL     1      19.048  -2.863  17.995  1.00  0.00     0.146 A 
ATOM     11  O   UNL     1      20.251  -2.575  18.475  1.00  0.00    -0.452 OA
ENDROOT
BRANCH   1  12
ATOM     12  C   UNL     1      22.650  -2.343  18.422  1.00  0.00     0.025 A 
ATOM     13  C   UNL     1      23.445  -3.329  19.022  1.00  0.00     0.016 A 
ATOM     14  C   UNL     1      24.644  -2.987  19.650  1.00  0.00     0.051 A 
ATOM     15  C   UNL     1      25.064  -1.654  19.706  1.00  0.00     0.157 A 
ATOM     16  C   UNL     1      23.058  -1.001  18.495  1.00  0.00     0.062 A 
ATOM     17  C   UNL     1      24.258  -0.646  19.127  1.00  0.00     0.158 A 
BRANCH  15  18
ATOM     18  O   UNL     1      26.277  -1.378  20.343  1.00  0.00    -0.504 OA
ATOM     19  H   UNL     1      26.571  -1.810  21.207  1.00  0.00     0.293 HD
ENDBRANCH  15  18
BRANCH  17  20
ATOM     20  O   UNL     1      24.602   0.707  19.160  1.00  0.00    -0.504 OA
ATOM     21  H   UNL     1      24.495   1.335  18.377  1.00  0.00     0.293 HD
ENDBRANCH  17  20
ENDBRANCH   1  12
BRANCH   2  22
ATOM     22  O   UNL     1      22.501  -3.516  15.778  1.00  0.00    -0.502 OA
ATOM     23  H   UNL     1      22.539  -3.519  14.766  1.00  0.00     0.293 HD
ENDBRANCH   2  22
BRANCH   6  24
ATOM     24  O   UNL     1      17.271  -3.960  14.874  1.00  0.00    -0.507 OA
ATOM     25  H   UNL     1      16.603  -4.668  14.611  1.00  0.00     0.293 HD
ENDBRANCH   6  24
BRANCH   8  26
ATOM     26  O   UNL     1      15.567  -2.826  19.218  1.00  0.00    -0.508 OA
ATOM     27  H   UNL     1      15.009  -3.616  19.521  1.00  0.00     0.293 HD
ENDBRANCH   8  26
TORSDOF 6
ENDMDL
MODEL 2
REMARK VINA RESULT:    -5.010      3.032      7.315
REMARK INTER + INTRA:          -6.326
REMARK INTER:                  -6.019
REMARK INTRA:                  -0.307
REMARK UNBOUND:                -0.291
REMARK SMILES O=c1c(O)c(-c2ccc(O)c(O)c2)oc2cc(O)cc(O)c12
REMARK SMILES IDX 5 1 3 2 2 3 1 4 22 5 20 6 19 7 17 8 16 9 15 10 14 11 6 12
REMARK SMILES IDX 7 13 8 14 9 15 13 16 11 17 10 18 12 20 4 22 21 24 18 26
REMARK H PARENT 10 19 12 21 4 23 21 25 18 27
REMARK Flexibility Score: inf
ROOT
ATOM      1  C   UNL     1      22.920  -0.308  19.289  1.00  0.00     0.180 A 
ATOM      2  C   UNL     1      24.213  -0.540  19.790  1.00  0.00     0.208 A 
ATOM      3  C   UNL     1      24.695   0.268  20.832  1.00  0.00     0.238 A 
ATOM      4  O   UNL     1      25.873   0.091  21.239  1.00  0.00    -0.285 OA
ATOM      5  C   UNL     1      23.873   1.286  21.371  1.00  0.00     0.111 A 
ATOM      6  C   UNL     1      24.244   2.138  22.455  1.00  0.00     0.134 A 
ATOM      7  C   UNL     1      23.403   3.197  22.821  1.00  0.00     0.093 A 
ATOM      8  C   UNL     1      22.175   3.394  22.184  1.00  0.00     0.123 A 
ATOM      9  C   UNL     1      21.778   2.532  21.165  1.00  0.00     0.094 A 
ATOM     10  C   UNL     1      22.611   1.488  20.754  1.00  0.00     0.146 A 
ATOM     11  O   UNL     1      22.199   0.696  19.772  1.00  0.00    -0.452 OA
ENDROOT
BRANCH   1  12
ATOM     12  C   UNL     1      22.334  -1.135  18.210  1.00  0.00     0.025 A 
ATOM     13  C   UNL     1      22.616  -0.824  16.872  1.00  0.00     0.016 A 
ATOM     14  C   UNL     1      22.058  -1.577  15.838  1.00  0.00     0.051 A 
ATOM     15  C   UNL     1      21.198  -2.645  16.117  1.00  0.00     0.157 A 
ATOM     16  C   UNL     1      21.453  -2.192  18.493  1.00  0.00     0.062 A 
ATOM     17  C   UNL     1      20.884  -2.951  17.462  1.00  0.00     0.158 A 
BRANCH  15  18
ATOM     18  O   UNL     1      20.678  -3.363  15.037  1.00  0.00    -0.504 OA
ATOM     19  H   UNL     1      20.841  -4.348  14.884  1.00  0.00     0.293 HD
ENDBRANCH  15  18
BRANCH  17  20
ATOM     20  O   UNL     1      20.019  -3.988  17.817  1.00  0.00    -0.504 OA
ATOM     21  H   UNL     1      19.037  -3.861  18.016  1.00  0.00     0.293 HD
ENDBRANCH  17  20
ENDBRANCH   1  12
BRANCH   2  22
ATOM     22  O   UNL     1      25.016  -1.537  19.228  1.00  0.00    -0.502 OA
ATOM     23  H   UNL     1      25.653  -1.353  18.461  1.00  0.00     0.293 HD
ENDBRANCH   2  22
BRANCH   6  24
ATOM     24  O   UNL     1      25.404   1.971  23.217  1.00  0.00    -0.507 OA
ATOM     25  H   UNL     1      26.332   2.222  22.914  1.00  0.00     0.293 HD
ENDBRANCH   6  24
BRANCH   8  26
ATOM     26  O   UNL     1      21.337   4.441  22.564  1.00  0.00    -0.508 OA
ATOM     27  H   UNL     1      20.333   4.388  22.439  1.00  0.00     0.293 HD
ENDBRANCH   8  26
TORSDOF 6
ENDMDL
MODEL 3
REMARK VINA RESULT:    -4.821      2.056      7.639
REMARK INTER + INTRA:          -6.098
REMARK INTER:                  -5.836
REMARK INTRA:                  -0.263
REMARK UNBOUND:                -0.291
REMARK SMILES O=c1c(O)c(-c2ccc(O)c(O)c2)oc2cc(O)cc(O)c12
REMARK SMILES IDX 5 1 3 2 2 3 1 4 22 5 20 6 19 7 17 8 16 9 15 10 14 11 6 12
REMARK SMILES IDX 7 13 8 14 9 15 13 16 11 17 10 18 12 20 4 22 21 24 18 26
REMARK H PARENT 10 19 12 21 4 23 21 25 18 27
REMARK Flexibility Score: inf
ROOT
ATOM      1  C   UNL     1      22.712  -1.456  18.818  1.00  0.00     0.180 A 
ATOM      2  C   UNL     1      22.387  -0.251  19.465  1.00  0.00     0.208 A 
ATOM      3  C   UNL     1      23.331   0.340  20.319  1.00  0.00     0.238 A 
ATOM      4  O   UNL     1      23.013   1.389  20.937  1.00  0.00    -0.285 OA
ATOM      5  C   UNL     1      24.594  -0.272  20.503  1.00  0.00     0.111 A 
ATOM      6  C   UNL     1      25.641   0.261  21.315  1.00  0.00     0.134 A 
ATOM      7  C   UNL     1      26.801  -0.495  21.528  1.00  0.00     0.093 A 
ATOM      8  C   UNL     1      26.979  -1.734  20.907  1.00  0.00     0.123 A 
ATOM      9  C   UNL     1      25.987  -2.235  20.067  1.00  0.00     0.094 A 
ATOM     10  C   UNL     1      24.803  -1.521  19.862  1.00  0.00     0.146 A 
ATOM     11  O   UNL     1      23.880  -2.038  19.062  1.00  0.00    -0.452 OA
ENDROOT
BRANCH   1  12
ATOM     12  C   UNL     1      21.779  -2.125  17.883  1.00  0.00     0.025 A 
ATOM     13  C   UNL     1      21.984  -2.008  16.502  1.00  0.00     0.016 A 
ATOM     14  C   UNL     1      21.105  -2.614  15.602  1.00  0.00     0.051 A 
ATOM     15  C   UNL     1      19.998  -3.335  16.062  1.00  0.00     0.157 A 
ATOM     16  C   UNL     1      20.656  -2.830  18.348  1.00  0.00     0.062 A 
ATOM     17  C   UNL     1      19.766  -3.439  17.454  1.00  0.00     0.158 A 
BRANCH  15  18
ATOM     18  O   UNL     1      19.161  -3.923  15.111  1.00  0.00    -0.504 OA
ATOM     19  H   UNL     1      18.305  -3.504  14.777  1.00  0.00     0.293 HD
ENDBRANCH  15  18
BRANCH  17  20
ATOM     20  O   UNL     1      18.673  -4.125  17.987  1.00  0.00    -0.504 OA
ATOM     21  H   UNL     1      18.112  -4.783  17.466  1.00  0.00     0.293 HD
ENDBRANCH  17  20
ENDBRANCH   1  12
BRANCH   2  22
ATOM     22  O   UNL     1      21.125   0.324  19.285  1.00  0.00    -0.502 OA
ATOM     23  H   UNL     1      20.792   0.632  18.379  1.00  0.00     0.293 HD
ENDBRANCH   2  22
BRANCH   6  24
ATOM     24  O   UNL     1      25.604   1.527  21.905  1.00  0.00    -0.507 OA
ATOM     25  H   UNL     1      26.385   1.970  22.365  1.00  0.00     0.293 HD
ENDBRANCH   6  24
BRANCH   8  26
ATOM     26  O   UNL     1      28.142  -2.472  21.113  1.00  0.00    -0.508 OA
ATOM     27  H   UNL     1      28.758  -2.716  20.346  1.00  0.00     0.293 HD
ENDBRANCH   8  26
TORSDOF 6
ENDMDL
MODEL 4
REMARK VINA RESULT:    -4.744      3.477      7.798
REMARK INTER + INTRA:          -6.005
REMARK INTER:                  -5.710
REMARK INTRA:                  -0.294
REMARK UNBOUND:                -0.291
REMARK SMILES O=c1c(O)c(-c2ccc(O)c(O)c2)oc2cc(O)cc(O)c12
REMARK SMILES IDX 5 1 3 2 2 3 1 4 22 5 20 6 19 7 17 8 16 9 15 10 14 11 6 12
REMARK SMILES IDX 7 13 8 14 9 15 13 16 11 17 10 18 12 20 4 22 21 24 18 26
REMARK H PARENT 10 19 12 21 4 23 21 25 18 27
REMARK Flexibility Score: inf
ROOT
ATOM      1  C   UNL     1      22.229   0.104  20.082  1.00  0.00     0.180 A 
ATOM      2  C   UNL     1      21.275   1.062  20.467  1.00  0.00     0.208 A 
ATOM      3  C   UNL     1      21.647   2.066  21.377  1.00  0.00     0.238 A 
ATOM      4  O   UNL     1      20.773   2.887  21.760  1.00  0.00    -0.285 OA
ATOM      5  C   UNL     1      22.970   2.108  21.876  1.00  0.00     0.111 A 
ATOM      6  C   UNL     1      23.466   3.104  22.772  1.00  0.00     0.134 A 
ATOM      7  C   UNL     1      24.755   2.974  23.303  1.00  0.00     0.093 A 
ATOM      8  C   UNL     1      25.589   1.919  22.921  1.00  0.00     0.123 A 
ATOM      9  C   UNL     1      25.134   0.975  22.003  1.00  0.00     0.094 A 
ATOM     10  C   UNL     1      23.840   1.059  21.483  1.00  0.00     0.146 A 
ATOM     11  O   UNL     1      23.443   0.133  20.618  1.00  0.00    -0.452 OA
ENDROOT
BRANCH   1  12
ATOM     12  C   UNL     1      21.920  -0.968  19.109  1.00  0.00     0.025 A 
ATOM     13  C   UNL     1      21.252  -2.122  19.542  1.00  0.00     0.016 A 
ATOM     14  C   UNL     1      20.968  -3.153  18.646  1.00  0.00     0.051 A 
ATOM     15  C   UNL     1      21.357  -3.061  17.305  1.00  0.00     0.157 A 
ATOM     16  C   UNL     1      22.331  -0.881  17.768  1.00  0.00     0.062 A 
ATOM     17  C   UNL     1      22.054  -1.913  16.862  1.00  0.00     0.158 A 
BRANCH  15  18
ATOM     18  O   UNL     1      21.037  -4.125  16.458  1.00  0.00    -0.504 OA
ATOM     19  H   UNL     1      20.120  -4.274  16.062  1.00  0.00     0.293 HD
ENDBRANCH  15  18
BRANCH  17  20
ATOM     20  O   UNL     1      22.491  -1.758  15.545  1.00  0.00    -0.504 OA
ATOM     21  H   UNL     1      22.050  -1.147  14.872  1.00  0.00     0.293 HD
ENDBRANCH  17  20
ENDBRANCH   1  12
BRANCH   2  22
ATOM     22  O   UNL     1      19.967   0.988  19.978  1.00  0.00    -0.502 OA
ATOM     23  H   UNL     1      19.173   1.350  20.493  1.00  0.00     0.293 HD
ENDBRANCH   2  22
BRANCH   6  24
ATOM     24  O   UNL     1      22.750   4.245  23.144  1.00  0.00    -0.507 OA
ATOM     25  H   UNL     1      22.704   4.614  24.081  1.00  0.00     0.293 HD
ENDBRANCH   6  24
BRANCH   8  26
ATOM     26  O   UNL     1      26.875   1.805  23.444  1.00  0.00    -0.508 OA
ATOM     27  H   UNL     1      27.240   0.916  23.766  1.00  0.00     0.293 HD
ENDBRANCH   8  26
TORSDOF 6
ENDMDL
MODEL 5
REMARK VINA RESULT:    -4.617      4.691      6.777
REMARK INTER + INTRA:          -5.853
REMARK INTER:                  -5.557
REMARK INTRA:                  -0.296
REMARK UNBOUND:                -0.291
REMARK SMILES O=c1c(O)c(-c2ccc(O)c(O)c2)oc2cc(O)cc(O)c12
REMARK SMILES IDX 5 1 3 2 2 3 1 4 22 5 20 6 19 7 17 8 16 9 15 10 14 11 6 12
REMARK SMILES IDX 7 13 8 14 9 15 13 16 11 17 10 18 12 20 4 22 21 24 18 26
REMARK H PARENT 10 19 12 21 4 23 21 25 18 27
REMARK Flexibility Score: inf
ROOT
ATOM      1  C   UNL     1      21.666   2.132  21.124  1.00  0.00     0.180 A 
ATOM      2  C   UNL     1      20.370   1.766  21.529  1.00  0.00     0.208 A 
ATOM      3  C   UNL     1      19.832   0.550  21.077  1.00  0.00     0.238 A 
ATOM      4  O   UNL     1      18.652   0.256  21.398  1.00  0.00    -0.285 OA
ATOM      5  C   UNL     1      20.603  -0.292  20.241  1.00  0.00     0.111 A 
ATOM      6  C   UNL     1      20.173  -1.565  19.757  1.00  0.00     0.134 A 
ATOM      7  C   UNL     1      20.965  -2.254  18.830  1.00  0.00     0.093 A 
ATOM      8  C   UNL     1      22.201  -1.747  18.420  1.00  0.00     0.123 A 
ATOM      9  C   UNL     1      22.655  -0.534  18.933  1.00  0.00     0.094 A 
ATOM     10  C   UNL     1      21.872   0.194  19.831  1.00  0.00     0.146 A 
ATOM     11  O   UNL     1      22.337   1.350  20.287  1.00  0.00    -0.452 OA
ENDROOT
BRANCH   1  12
ATOM     12  C   UNL     1      22.309   3.385  21.580  1.00  0.00     0.025 A 
ATOM     13  C   UNL     1      22.006   4.591  20.933  1.00  0.00     0.016 A 
ATOM     14  C   UNL     1      22.616   5.781  21.333  1.00  0.00     0.051 A 
ATOM     15  C   UNL     1      23.550   5.789  22.374  1.00  0.00     0.157 A 
ATOM     16  C   UNL     1      23.263   3.386  22.611  1.00  0.00     0.062 A 
ATOM     17  C   UNL     1      23.884   4.574  23.017  1.00  0.00     0.158 A 
BRANCH  15  18
ATOM     18  O   UNL     1      24.119   7.014  22.731  1.00  0.00    -0.504 OA
ATOM     19  H   UNL     1      23.943   7.484  23.607  1.00  0.00     0.293 HD
ENDBRANCH  15  18
BRANCH  17  20
ATOM     20  O   UNL     1      24.820   4.501  24.051  1.00  0.00    -0.504 OA
ATOM     21  H   UNL     1      25.335   5.295  24.403  1.00  0.00     0.293 HD
ENDBRANCH  17  20
ENDBRANCH   1  12
BRANCH   2  22
ATOM     22  O   UNL     1      19.619   2.625  22.338  1.00  0.00    -0.502 OA
ATOM     23  H   UNL     1      20.039   3.198  23.060  1.00  0.00     0.293 HD
ENDBRANCH   2  22
BRANCH   6  24
ATOM     24  O   UNL     1      19.001  -2.203  20.173  1.00  0.00    -0.507 OA
ATOM     25  H   UNL     1      18.203  -1.735  20.573  1.00  0.00     0.293 HD
ENDBRANCH   6  24
BRANCH   8  26
ATOM     26  O   UNL     1      22.990  -2.447  17.510  1.00  0.00    -0.508 OA
ATOM     27  H   UNL     1      22.745  -3.382  17.206  1.00  0.00     0.293 HD
ENDBRANCH   8  26
TORSDOF 6
ENDMDL
MODEL 6
REMARK VINA RESULT:    -4.398      4.945      6.381
REMARK INTER + INTRA:          -5.589
REMARK INTER:                  -5.296
REMARK INTRA:                  -0.293
REMARK UNBOUND:                -0.291
REMARK SMILES O=c1c(O)c(-c2ccc(O)c(O)c2)oc2cc(O)cc(O)c12
REMARK SMILES IDX 5 1 3 2 2 3 1 4 22 5 20 6 19 7 17 8 16 9 15 10 14 11 6 12
REMARK SMILES IDX 7 13 8 14 9 15 13 16 11 17 10 18 12 20 4 22 21 24 18 26
REMARK H PARENT 10 19 12 21 4 23 21 25 18 27
REMARK Flexibility Score: inf
ROOT
ATOM      1  C   UNL     1      21.401   2.387  21.352  1.00  0.00     0.180 A 
ATOM      2  C   UNL     1      21.890   1.419  20.457  1.00  0.00     0.208 A 
ATOM      3  C   UNL     1      21.056   0.351  20.087  1.00  0.00     0.238 A 
ATOM      4  O   UNL     1      21.518  -0.541  19.329  1.00  0.00    -0.285 OA
ATOM      5  C   UNL     1      19.740   0.275  20.602  1.00  0.00     0.111 A 
ATOM      6  C   UNL     1      18.796  -0.742  20.262  1.00  0.00     0.134 A 
ATOM      7  C   UNL     1      17.567  -0.793  20.932  1.00  0.00     0.093 A 
ATOM      8  C   UNL     1      17.222   0.174  21.881  1.00  0.00     0.123 A 
ATOM      9  C   UNL     1      18.114   1.203  22.175  1.00  0.00     0.094 A 
ATOM     10  C   UNL     1      19.362   1.260  21.550  1.00  0.00     0.146 A 
ATOM     11  O   UNL     1      20.186   2.251  21.867  1.00  0.00    -0.452 OA
ENDROOT
BRANCH   1  12
ATOM     12  C   UNL     1      22.212   3.554  21.768  1.00  0.00     0.025 A 
ATOM     13  C   UNL     1      22.029   4.786  21.125  1.00  0.00     0.016 A 
ATOM     14  C   UNL     1      22.796   5.894  21.489  1.00  0.00     0.051 A 
ATOM     15  C   UNL     1      23.769   5.792  22.489  1.00  0.00     0.157 A 
ATOM     16  C   UNL     1      23.203   3.441  22.757  1.00  0.00     0.062 A 
ATOM     17  C   UNL     1      23.981   4.547  23.126  1.00  0.00     0.158 A 
BRANCH  15  18
ATOM     18  O   UNL     1      24.498   6.939  22.810  1.00  0.00    -0.504 OA
ATOM     19  H   UNL     1      25.496   7.028  22.683  1.00  0.00     0.293 HD
ENDBRANCH  15  18
BRANCH  17  20
ATOM     20  O   UNL     1      24.947   4.362  24.118  1.00  0.00    -0.504 OA
ATOM     21  H   UNL     1      24.864   3.691  24.868  1.00  0.00     0.293 HD
ENDBRANCH  17  20
ENDBRANCH   1  12
BRANCH   2  22
ATOM     22  O   UNL     1      23.201   1.502  19.978  1.00  0.00    -0.502 OA
ATOM     23  H   UNL     1      23.609   0.790  19.384  1.00  0.00     0.293 HD
ENDBRANCH   2  22
BRANCH   6  24
ATOM     24  O   UNL     1      19.003  -1.698  19.264  1.00  0.00    -0.507 OA
ATOM     25  H   UNL     1      18.322  -1.957  18.567  1.00  0.00     0.293 HD
ENDBRANCH   6  24
BRANCH   8  26
ATOM     26  O   UNL     1      15.991   0.124  22.531  1.00  0.00    -0.508 OA
ATOM     27  H   UNL     1      15.408  -0.704  22.499  1.00  0.00     0.293 HD
ENDBRANCH   8  26
TORSDOF 6
ENDMDL
MODEL 7
REMARK VINA RESULT:    -4.366      4.028      6.228
REMARK INTER + INTRA:          -5.550
REMARK INTER:                  -5.221
REMARK INTRA:                  -0.330
REMARK UNBOUND:                -0.291
REMARK SMILES O=c1c(O)c(-c2ccc(O)c(O)c2)oc2cc(O)cc(O)c12
REMARK SMILES IDX 5 1 3 2 2 3 1 4 22 5 20 6 19 7 17 8 16 9 15 10 14 11 6 12
REMARK SMILES IDX 7 13 8 14 9 15 13 16 11 17 10 18 12 20 4 22 21 24 18 26
REMARK H PARENT 10 19 12 21 4 23 21 25 18 27
REMARK Flexibility Score: inf
ROOT
ATOM      1  C   UNL     1      21.982   0.971  20.966  1.00  0.00     0.180 A 
ATOM      2  C   UNL     1      21.245   0.055  21.737  1.00  0.00     0.208 A 
ATOM      3  C   UNL     1      20.956  -1.210  21.201  1.00  0.00     0.238 A 
ATOM      4  O   UNL     1      20.250  -2.005  21.875  1.00  0.00    -0.285 OA
ATOM      5  C   UNL     1      21.421  -1.550  19.909  1.00  0.00     0.111 A 
ATOM      6  C   UNL     1      21.221  -2.818  19.283  1.00  0.00     0.134 A 
ATOM      7  C   UNL     1      21.611  -2.999  17.951  1.00  0.00     0.093 A 
ATOM      8  C   UNL     1      22.254  -1.980  17.243  1.00  0.00     0.123 A 
ATOM      9  C   UNL     1      22.506  -0.759  17.864  1.00  0.00     0.094 A 
ATOM     10  C   UNL     1      22.097  -0.536  19.181  1.00  0.00     0.146 A 
ATOM     11  O   UNL     1      22.348   0.645  19.732  1.00  0.00    -0.452 OA
ENDROOT
BRANCH   1  12
ATOM     12  C   UNL     1      22.347   2.313  21.473  1.00  0.00     0.025 A 
ATOM     13  C   UNL     1      21.559   3.419  21.125  1.00  0.00     0.016 A 
ATOM     14  C   UNL     1      21.896   4.697  21.575  1.00  0.00     0.051 A 
ATOM     15  C   UNL     1      23.031   4.898  22.367  1.00  0.00     0.157 A 
ATOM     16  C   UNL     1      23.500   2.514  22.250  1.00  0.00     0.062 A 
ATOM     17  C   UNL     1      23.849   3.793  22.703  1.00  0.00     0.158 A 
BRANCH  15  18
ATOM     18  O   UNL     1      23.310   6.200  22.791  1.00  0.00    -0.504 OA
ATOM     19  H   UNL     1      22.894   6.630  23.604  1.00  0.00     0.293 HD
ENDBRANCH  15  18
BRANCH  17  20
ATOM     20  O   UNL     1      25.007   3.918  23.473  1.00  0.00    -0.504 OA
ATOM     21  H   UNL     1      25.495   4.790  23.620  1.00  0.00     0.293 HD
ENDBRANCH  17  20
ENDBRANCH   1  12
BRANCH   2  22
ATOM     22  O   UNL     1      20.777   0.420  23.004  1.00  0.00    -0.502 OA
ATOM     23  H   UNL     1      19.851   0.171  23.333  1.00  0.00     0.293 HD
ENDBRANCH   2  22
BRANCH   6  24
ATOM     24  O   UNL     1      20.674  -3.930  19.930  1.00  0.00    -0.507 OA
ATOM     25  H   UNL     1      19.868  -4.443  19.609  1.00  0.00     0.293 HD
ENDBRANCH   6  24
BRANCH   8  26
ATOM     26  O   UNL     1      22.653  -2.174  15.922  1.00  0.00    -0.508 OA
ATOM     27  H   UNL     1      23.534  -2.620  15.695  1.00  0.00     0.293 HD
ENDBRANCH   8  26
TORSDOF 6
ENDMDL
MODEL 8
REMARK VINA RESULT:    -4.255     17.375     18.831
REMARK INTER + INTRA:          -5.417
REMARK INTER:                  -5.143
REMARK INTRA:                  -0.273
REMARK UNBOUND:                -0.291
REMARK SMILES O=c1c(O)c(-c2ccc(O)c(O)c2)oc2cc(O)cc(O)c12
REMARK SMILES IDX 5 1 3 2 2 3 1 4 22 5 20 6 19 7 17 8 16 9 15 10 14 11 6 12
REMARK SMILES IDX 7 13 8 14 9 15 13 16 11 17 10 18 12 20 4 22 21 24 18 26
REMARK H PARENT 10 19 12 21 4 23 21 25 18 27
REMARK Flexibility Score: inf
ROOT
ATOM      1  C   UNL     1      27.262  10.387   5.640  1.00  0.00     0.180 A 
ATOM      2  C   UNL     1      26.106  11.106   5.291  1.00  0.00     0.208 A 
ATOM      3  C   UNL     1      25.006  10.413   4.761  1.00  0.00     0.238 A 
ATOM      4  O   UNL     1      23.995  11.070   4.399  1.00  0.00    -0.285 OA
ATOM      5  C   UNL     1      25.069   9.008   4.603  1.00  0.00     0.111 A 
ATOM      6  C   UNL     1      23.999   8.199   4.114  1.00  0.00     0.134 A 
ATOM      7  C   UNL     1      24.217   6.836   3.876  1.00  0.00     0.093 A 
ATOM      8  C   UNL     1      25.446   6.241   4.172  1.00  0.00     0.123 A 
ATOM      9  C   UNL     1      26.477   7.011   4.705  1.00  0.00     0.094 A 
ATOM     10  C   UNL     1      26.302   8.380   4.920  1.00  0.00     0.146 A 
ATOM     11  O   UNL     1      27.313   9.079   5.419  1.00  0.00    -0.452 OA
ENDROOT
BRANCH   1  12
ATOM     12  C   UNL     1      28.451  11.044   6.227  1.00  0.00     0.025 A 
ATOM     13  C   UNL     1      29.335  11.744   5.394  1.00  0.00     0.016 A 
ATOM     14  C   UNL     1      30.473  12.355   5.923  1.00  0.00     0.051 A 
ATOM     15  C   UNL     1      30.760  12.267   7.290  1.00  0.00     0.157 A 
ATOM     16  C   UNL     1      28.748  10.935   7.596  1.00  0.00     0.062 A 
ATOM     17  C   UNL     1      29.890  11.540   8.137  1.00  0.00     0.158 A 
BRANCH  15  18
ATOM     18  O   UNL     1      31.911  12.905   7.758  1.00  0.00    -0.504 OA
ATOM     19  H   UNL     1      32.743  12.419   8.058  1.00  0.00     0.293 HD
ENDBRANCH  15  18
BRANCH  17  20
ATOM     20  O   UNL     1      30.120  11.392   9.506  1.00  0.00    -0.504 OA
ATOM     21  H   UNL     1      29.388  11.337  10.198  1.00  0.00     0.293 HD
ENDBRANCH  17  20
ENDBRANCH   1  12
BRANCH   2  22
ATOM     22  O   UNL     1      26.074  12.497   5.434  1.00  0.00    -0.502 OA
ATOM     23  H   UNL     1      26.201  13.127   4.651  1.00  0.00     0.293 HD
ENDBRANCH   2  22
BRANCH   6  24
ATOM     24  O   UNL     1      22.707   8.675   3.875  1.00  0.00    -0.507 OA
ATOM     25  H   UNL     1      22.452   9.293   3.120  1.00  0.00     0.293 HD
ENDBRANCH   6  24
BRANCH   8  26
ATOM     26  O   UNL     1      25.649   4.881   3.947  1.00  0.00    -0.508 OA
ATOM     27  H   UNL     1      26.452   4.544   3.428  1.00  0.00     0.293 HD
ENDBRANCH   8  26
TORSDOF 6
ENDMDL
MODEL 9
REMARK VINA RESULT:    -4.248      4.998      9.277
REMARK INTER + INTRA:          -5.407
REMARK INTER:                  -5.074
REMARK INTRA:                  -0.333
REMARK UNBOUND:                -0.291
REMARK SMILES O=c1c(O)c(-c2ccc(O)c(O)c2)oc2cc(O)cc(O)c12
REMARK SMILES IDX 5 1 3 2 2 3 1 4 22 5 20 6 19 7 17 8 16 9 15 10 14 11 6 12
REMARK SMILES IDX 7 13 8 14 9 15 13 16 11 17 10 18 12 20 4 22 21 24 18 26
REMARK H PARENT 10 19 12 21 4 23 21 25 18 27
REMARK Flexibility Score: inf
ROOT
ATOM      1  C   UNL     1      22.573   1.908  21.544  1.00  0.00     0.180 A 
ATOM      2  C   UNL     1      21.784   3.071  21.562  1.00  0.00     0.208 A 
ATOM      3  C   UNL     1      22.335   4.261  22.063  1.00  0.00     0.238 A 
ATOM      4  O   UNL     1      21.606   5.284  22.127  1.00  0.00    -0.285 OA
ATOM      5  C   UNL     1      23.672   4.277  22.525  1.00  0.00     0.111 A 
ATOM      6  C   UNL     1      24.346   5.436  23.016  1.00  0.00     0.134 A 
ATOM      7  C   UNL     1      25.626   5.309  23.569  1.00  0.00     0.093 A 
ATOM      8  C   UNL     1      26.284   4.076  23.587  1.00  0.00     0.123 A 
ATOM      9  C   UNL     1      25.658   2.950  23.056  1.00  0.00     0.094 A 
ATOM     10  C   UNL     1      24.366   3.039  22.531  1.00  0.00     0.146 A 
ATOM     11  O   UNL     1      23.802   1.940  22.044  1.00  0.00    -0.452 OA
ENDROOT
BRANCH   1  12
ATOM     12  C   UNL     1      22.070   0.623  21.007  1.00  0.00     0.025 A 
ATOM     13  C   UNL     1      21.523  -0.325  21.884  1.00  0.00     0.016 A 
ATOM     14  C   UNL     1      21.061  -1.551  21.403  1.00  0.00     0.051 A 
ATOM     15  C   UNL     1      21.149  -1.862  20.042  1.00  0.00     0.157 A 
ATOM     16  C   UNL     1      22.180   0.305  19.643  1.00  0.00     0.062 A 
ATOM     17  C   UNL     1      21.724  -0.925  19.151  1.00  0.00     0.158 A 
BRANCH  15  18
ATOM     18  O   UNL     1      20.663  -3.103  19.623  1.00  0.00    -0.504 OA
ATOM     19  H   UNL     1      21.127  -3.691  18.945  1.00  0.00     0.293 HD
ENDBRANCH  15  18
BRANCH  17  20
ATOM     20  O   UNL     1      21.863  -1.172  17.783  1.00  0.00    -0.504 OA
ATOM     21  H   UNL     1      22.181  -2.049  17.399  1.00  0.00     0.293 HD
ENDBRANCH  17  20
ENDBRANCH   1  12
BRANCH   2  22
ATOM     22  O   UNL     1      20.457   3.026  21.121  1.00  0.00    -0.502 OA
ATOM     23  H   UNL     1      19.875   3.854  21.065  1.00  0.00     0.293 HD
ENDBRANCH   2  22
BRANCH   6  24
ATOM     24  O   UNL     1      23.817   6.729  22.959  1.00  0.00    -0.507 OA
ATOM     25  H   UNL     1      24.083   7.430  22.285  1.00  0.00     0.293 HD
ENDBRANCH   6  24
BRANCH   8  26
ATOM     26  O   UNL     1      27.564   3.960  24.125  1.00  0.00    -0.508 OA
ATOM     27  H   UNL     1      28.344   3.629  23.570  1.00  0.00     0.293 HD
ENDBRANCH   8  26
TORSDOF 6
ENDMDL
