MODEL 1
REMARK VINA RESULT:    -3.564      0.000      0.000
REMARK INTER + INTRA:         -13.060
REMARK INTER:                  -9.397
REMARK INTRA:                  -3.663
REMARK UNBOUND:                -3.663
REMARK SMILES CCCCCCCCCCCCCCCCCCCCCCCCCCCCCC(=O)[O-]
REMARK SMILES IDX 16 1 17 2 18 3 19 4 20 5 21 6 22 7 23 8 24 9 25 10 26 11
REMARK SMILES IDX 27 12 28 13 29 14 30 15 31 16 32 17 15 18 14 19 13 20 12 21
REMARK SMILES IDX 11 22 10 23 9 24 8 25 7 26 6 27 5 28 4 29 3 30 2 31 1 32
REMARK H PARENT
REMARK Flexibility Score: inf
ROOT
ATOM      1  C   UNL     1      20.995   8.707   7.570  1.00  0.00     0.000 C 
ENDROOT
BRANCH   1   2
ATOM      2  C   UNL     1      21.847   9.509   8.572  1.00  0.00     0.000 C 
BRANCH   2   3
ATOM      3  C   UNL     1      23.000   8.677   9.167  1.00  0.00     0.000 C 
BRANCH   3   4
ATOM      4  C   UNL     1      23.998   9.474  10.038  1.00  0.00     0.000 C 
BRANCH   4   5
ATOM      5  C   UNL     1      25.365   8.795  10.281  1.00  0.00     0.000 C 
BRANCH   5   6
ATOM      6  C   UNL     1      26.125   9.315  11.516  1.00  0.00     0.000 C 
BRANCH   6   7
ATOM      7  C   UNL     1      25.915  10.820  11.747  1.00  0.00     0.000 C 
BRANCH   7   8
ATOM      8  C   UNL     1      26.098  11.218  13.223  1.00  0.00     0.000 C 
BRANCH   8   9
ATOM      9  C   UNL     1      24.883  11.962  13.812  1.00  0.00     0.000 C 
BRANCH   9  10
ATOM     10  C   UNL     1      25.298  13.153  14.695  1.00  0.00     0.000 C 
BRANCH  10  11
ATOM     11  C   UNL     1      24.875  14.507  14.105  1.00  0.00     0.000 C 
BRANCH  11  12
ATOM     12  C   UNL     1      23.865  15.250  14.998  1.00  0.00     0.000 C 
BRANCH  12  13
ATOM     13  C   UNL     1      23.866  16.770  14.754  1.00  0.00     0.006 C 
BRANCH  13  14
ATOM     14  C   UNL     1      22.449  17.363  14.767  1.00  0.00     0.053 C 
BRANCH  14  15
ATOM     15  C   UNL     1      22.493  18.838  14.521  1.00  0.00     0.041 C 
ATOM     16  O   UNL     1      21.432  19.475  14.278  1.00  0.00    -0.550 OA
ATOM     17  O   UNL     1      23.708  19.508  14.568  1.00  0.00    -0.550 OA
ENDBRANCH  14  15
ENDBRANCH  13  14
ENDBRANCH  12  13
ENDBRANCH  11  12
ENDBRANCH  10  11
ENDBRANCH   9  10
ENDBRANCH   8   9
ENDBRANCH   7   8
ENDBRANCH   6   7
ENDBRANCH   5   6
ENDBRANCH   4   5
ENDBRANCH   3   4
ENDBRANCH   2   3
ENDBRANCH   1   2
BRANCH   1  18
ATOM     18  C   UNL     1      19.561   8.463   8.069  1.00  0.00     0.000 C 
BRANCH  18  19
ATOM     19  C   UNL     1      19.231   6.971   8.234  1.00  0.00     0.000 C 
BRANCH  19  20
ATOM     20  C   UNL     1      20.247   6.293   9.167  1.00  0.00     0.000 C 
BRANCH  20  21
ATOM     21  C   UNL     1      19.712   6.077  10.594  1.00  0.00     0.000 C 
BRANCH  21  22
ATOM     22  C   UNL     1      19.395   7.368  11.378  1.00  0.00     0.000 C 
BRANCH  22  23
ATOM     23  C   UNL     1      20.586   8.319  11.586  1.00  0.00     0.000 C 
BRANCH  23  24
ATOM     24  C   UNL     1      21.745   7.674  12.362  1.00  0.00    -0.000 C 
BRANCH  24  25
ATOM     25  C   UNL     1      22.660   8.747  12.967  1.00  0.00    -0.000 C 
BRANCH  25  26
ATOM     26  C   UNL     1      23.101   8.416  14.405  1.00  0.00    -0.000 C 
BRANCH  26  27
ATOM     27  C   UNL     1      24.622   8.222  14.592  1.00  0.00    -0.000 C 
BRANCH  27  28
ATOM     28  C   UNL     1      25.090   6.758  14.694  1.00  0.00    -0.000 C 
BRANCH  28  29
ATOM     29  C   UNL     1      25.772   6.254  13.413  1.00  0.00    -0.000 C 
BRANCH  29  30
ATOM     30  C   UNL     1      24.891   5.223  12.691  1.00  0.00    -0.000 C 
BRANCH  30  31
ATOM     31  C   UNL     1      23.875   4.560  13.635  1.00  0.00    -0.003 C 
ATOM     32  C   UNL     1      24.337   3.191  14.133  1.00  0.00     0.004 C 
ENDBRANCH  30  31
ENDBRANCH  29  30
ENDBRANCH  28  29
ENDBRANCH  27  28
ENDBRANCH  26  27
ENDBRANCH  25  26
ENDBRANCH  24  25
ENDBRANCH  23  24
ENDBRANCH  22  23
ENDBRANCH  21  22
ENDBRANCH  20  21
ENDBRANCH  19  20
ENDBRANCH  18  19
ENDBRANCH   1  18
TORSDOF 28
ENDMDL
MODEL 2
REMARK VINA RESULT:    -2.964      1.724      5.603
REMARK INTER + INTRA:         -11.478
REMARK INTER:                  -7.866
REMARK INTRA:                  -3.612
REMARK UNBOUND:                -3.663
REMARK SMILES CCCCCCCCCCCCCCCCCCCCCCCCCCCCCC(=O)[O-]
REMARK SMILES IDX 16 1 17 2 18 3 19 4 20 5 21 6 22 7 23 8 24 9 25 10 26 11
REMARK SMILES IDX 27 12 28 13 29 14 30 15 31 16 32 17 15 18 14 19 13 20 12 21
REMARK SMILES IDX 11 22 10 23 9 24 8 25 7 26 6 27 5 28 4 29 3 30 2 31 1 32
REMARK H PARENT
REMARK Flexibility Score: inf
ROOT
ATOM      1  C   UNL     1      25.963   6.651  10.006  1.00  0.00     0.000 C 
ENDROOT
BRANCH   1   2
ATOM      2  C   UNL     1      25.936   5.160  10.393  1.00  0.00     0.000 C 
BRANCH   2   3
ATOM      3  C   UNL     1      26.125   4.939  11.907  1.00  0.00     0.000 C 
BRANCH   3   4
ATOM      4  C   UNL     1      24.888   4.377  12.644  1.00  0.00     0.000 C 
BRANCH   4   5
ATOM      5  C   UNL     1      24.303   5.280  13.754  1.00  0.00     0.000 C 
BRANCH   5   6
ATOM      6  C   UNL     1      25.254   5.531  14.939  1.00  0.00     0.000 C 
BRANCH   6   7
ATOM      7  C   UNL     1      25.584   7.021  15.125  1.00  0.00     0.000 C 
BRANCH   7   8
ATOM      8  C   UNL     1      25.211   7.863  13.891  1.00  0.00     0.000 C 
BRANCH   8   9
ATOM      9  C   UNL     1      23.915   8.678  14.075  1.00  0.00     0.000 C 
BRANCH   9  10
ATOM     10  C   UNL     1      24.193  10.127  14.516  1.00  0.00     0.000 C 
BRANCH  10  11
ATOM     11  C   UNL     1      24.568  11.044  13.341  1.00  0.00     0.000 C 
BRANCH  11  12
ATOM     12  C   UNL     1      25.685  12.040  13.705  1.00  0.00     0.000 C 
BRANCH  12  13
ATOM     13  C   UNL     1      25.422  13.451  13.149  1.00  0.00     0.006 C 
BRANCH  13  14
ATOM     14  C   UNL     1      24.438  14.246  14.021  1.00  0.00     0.053 C 
BRANCH  14  15
ATOM     15  C   UNL     1      24.741  15.710  13.956  1.00  0.00     0.041 C 
ATOM     16  O   UNL     1      23.841  16.558  14.204  1.00  0.00    -0.550 OA
ATOM     17  O   UNL     1      26.021  16.135  13.628  1.00  0.00    -0.550 OA
ENDBRANCH  14  15
ENDBRANCH  13  14
ENDBRANCH  12  13
ENDBRANCH  11  12
ENDBRANCH  10  11
ENDBRANCH   9  10
ENDBRANCH   8   9
ENDBRANCH   7   8
ENDBRANCH   6   7
ENDBRANCH   5   6
ENDBRANCH   4   5
ENDBRANCH   3   4
ENDBRANCH   2   3
ENDBRANCH   1   2
BRANCH   1  18
ATOM     18  C   UNL     1      24.910   7.480  10.760  1.00  0.00     0.000 C 
BRANCH  18  19
ATOM     19  C   UNL     1      23.596   7.634   9.978  1.00  0.00     0.000 C 
BRANCH  19  20
ATOM     20  C   UNL     1      23.405   9.089   9.522  1.00  0.00     0.000 C 
BRANCH  20  21
ATOM     21  C   UNL     1      22.353   9.851  10.349  1.00  0.00     0.000 C 
BRANCH  21  22
ATOM     22  C   UNL     1      21.365   8.963  11.132  1.00  0.00     0.000 C 
BRANCH  22  23
ATOM     23  C   UNL     1      19.955   8.856  10.524  1.00  0.00     0.000 C 
BRANCH  23  24
ATOM     24  C   UNL     1      18.947   8.168  11.458  1.00  0.00    -0.000 C 
BRANCH  24  25
ATOM     25  C   UNL     1      19.126   6.644  11.425  1.00  0.00    -0.000 C 
BRANCH  25  26
ATOM     26  C   UNL     1      18.897   6.044  10.026  1.00  0.00    -0.000 C 
BRANCH  26  27
ATOM     27  C   UNL     1      20.184   5.665   9.260  1.00  0.00    -0.000 C 
BRANCH  27  28
ATOM     28  C   UNL     1      20.512   6.556   8.046  1.00  0.00    -0.000 C 
BRANCH  28  29
ATOM     29  C   UNL     1      19.261   7.158   7.386  1.00  0.00    -0.000 C 
BRANCH  29  30
ATOM     30  C   UNL     1      19.474   8.644   7.061  1.00  0.00    -0.000 C 
BRANCH  30  31
ATOM     31  C   UNL     1      20.963   9.009   6.946  1.00  0.00    -0.003 C 
ATOM     32  C   UNL     1      21.235  10.046   5.856  1.00  0.00     0.004 C 
ENDBRANCH  30  31
ENDBRANCH  29  30
ENDBRANCH  28  29
ENDBRANCH  27  28
ENDBRANCH  26  27
ENDBRANCH  25  26
ENDBRANCH  24  25
ENDBRANCH  23  24
ENDBRANCH  22  23
ENDBRANCH  21  22
ENDBRANCH  20  21
ENDBRANCH  19  20
ENDBRANCH  18  19
ENDBRANCH   1  18
TORSDOF 28
ENDMDL
MODEL 3
REMARK VINA RESULT:    -2.245      1.585      3.990
REMARK INTER + INTRA:          -9.583
REMARK INTER:                  -7.480
REMARK INTRA:                  -2.103
REMARK UNBOUND:                -3.663
REMARK SMILES CCCCCCCCCCCCCCCCCCCCCCCCCCCCCC(=O)[O-]
REMARK SMILES IDX 16 1 17 2 18 3 19 4 20 5 21 6 22 7 23 8 24 9 25 10 26 11
REMARK SMILES IDX 27 12 28 13 29 14 30 15 31 16 32 17 15 18 14 19 13 20 12 21
REMARK SMILES IDX 11 22 10 23 9 24 8 25 7 26 6 27 5 28 4 29 3 30 2 31 1 32
REMARK H PARENT
REMARK Flexibility Score: inf
ROOT
ATOM      1  C   UNL     1      22.096   7.507  12.826  1.00  0.00     0.000 C 
ENDROOT
BRANCH   1   2
ATOM      2  C   UNL     1      23.434   8.268  12.884  1.00  0.00     0.000 C 
BRANCH   2   3
ATOM      3  C   UNL     1      23.353   9.541  13.749  1.00  0.00     0.000 C 
BRANCH   3   4
ATOM      4  C   UNL     1      24.666  10.349  13.847  1.00  0.00     0.000 C 
BRANCH   4   5
ATOM      5  C   UNL     1      24.606  11.622  14.722  1.00  0.00     0.000 C 
BRANCH   5   6
ATOM      6  C   UNL     1      24.816  12.938  13.950  1.00  0.00     0.000 C 
BRANCH   6   7
ATOM      7  C   UNL     1      25.856  13.854  14.617  1.00  0.00     0.000 C 
BRANCH   7   8
ATOM      8  C   UNL     1      25.339  15.292  14.800  1.00  0.00     0.000 C 
BRANCH   8   9
ATOM      9  C   UNL     1      23.817  15.370  15.038  1.00  0.00     0.000 C 
BRANCH   9  10
ATOM     10  C   UNL     1      23.313  16.822  15.124  1.00  0.00     0.000 C 
BRANCH  10  11
ATOM     11  C   UNL     1      22.054  17.067  14.277  1.00  0.00     0.000 C 
BRANCH  11  12
ATOM     12  C   UNL     1      21.263  18.304  14.741  1.00  0.00     0.000 C 
BRANCH  12  13
ATOM     13  C   UNL     1      20.087  18.637  13.806  1.00  0.00     0.006 C 
BRANCH  13  14
ATOM     14  C   UNL     1      20.050  20.125  13.424  1.00  0.00     0.053 C 
BRANCH  14  15
ATOM     15  C   UNL     1      20.485  20.315  12.005  1.00  0.00     0.041 C 
ATOM     16  O   UNL     1      19.730  20.898  11.180  1.00  0.00    -0.550 OA
ATOM     17  O   UNL     1      21.728  19.851  11.597  1.00  0.00    -0.550 OA
ENDBRANCH  14  15
ENDBRANCH  13  14
ENDBRANCH  12  13
ENDBRANCH  11  12
ENDBRANCH  10  11
ENDBRANCH   9  10
ENDBRANCH   8   9
ENDBRANCH   7   8
ENDBRANCH   6   7
ENDBRANCH   5   6
ENDBRANCH   4   5
ENDBRANCH   3   4
ENDBRANCH   2   3
ENDBRANCH   1   2
BRANCH   1  18
ATOM     18  C   UNL     1      21.125   8.087  11.784  1.00  0.00     0.000 C 
BRANCH  18  19
ATOM     19  C   UNL     1      19.890   7.202  11.558  1.00  0.00     0.000 C 
BRANCH  19  20
ATOM     20  C   UNL     1      19.242   7.514  10.199  1.00  0.00     0.000 C 
BRANCH  20  21
ATOM     21  C   UNL     1      19.627   6.510   9.098  1.00  0.00     0.000 C 
BRANCH  21  22
ATOM     22  C   UNL     1      20.528   7.075   7.980  1.00  0.00     0.000 C 
BRANCH  22  23
ATOM     23  C   UNL     1      20.293   8.555   7.632  1.00  0.00     0.000 C 
BRANCH  23  24
ATOM     24  C   UNL     1      21.139   9.516   8.481  1.00  0.00    -0.000 C 
BRANCH  24  25
ATOM     25  C   UNL     1      22.608   9.074   8.505  1.00  0.00    -0.000 C 
BRANCH  25  26
ATOM     26  C   UNL     1      23.300   9.365   9.849  1.00  0.00    -0.000 C 
BRANCH  26  27
ATOM     27  C   UNL     1      24.799   8.999   9.904  1.00  0.00    -0.000 C 
BRANCH  27  28
ATOM     28  C   UNL     1      25.152   7.594   9.379  1.00  0.00    -0.000 C 
BRANCH  28  29
ATOM     29  C   UNL     1      26.060   6.804  10.335  1.00  0.00    -0.000 C 
BRANCH  29  30
ATOM     30  C   UNL     1      25.275   5.690  11.043  1.00  0.00    -0.000 C 
BRANCH  30  31
ATOM     31  C   UNL     1      25.714   5.504  12.505  1.00  0.00    -0.003 C 
ATOM     32  C   UNL     1      24.676   4.758  13.344  1.00  0.00     0.004 C 
ENDBRANCH  30  31
ENDBRANCH  29  30
ENDBRANCH  28  29
ENDBRANCH  27  28
ENDBRANCH  26  27
ENDBRANCH  25  26
ENDBRANCH  24  25
ENDBRANCH  23  24
ENDBRANCH  22  23
ENDBRANCH  21  22
ENDBRANCH  20  21
ENDBRANCH  19  20
ENDBRANCH  18  19
ENDBRANCH   1  18
TORSDOF 28
ENDMDL
MODEL 4
REMARK VINA RESULT:    -1.913      1.438      2.217
REMARK INTER + INTRA:          -8.707
REMARK INTER:                  -6.119
REMARK INTRA:                  -2.587
REMARK UNBOUND:                -3.663
REMARK SMILES CCCCCCCCCCCCCCCCCCCCCCCCCCCCCC(=O)[O-]
REMARK SMILES IDX 16 1 17 2 18 3 19 4 20 5 21 6 22 7 23 8 24 9 25 10 26 11
REMARK SMILES IDX 27 12 28 13 29 14 30 15 31 16 32 17 15 18 14 19 13 20 12 21
REMARK SMILES IDX 11 22 10 23 9 24 8 25 7 26 6 27 5 28 4 29 3 30 2 31 1 32
REMARK H PARENT
REMARK Flexibility Score: inf
ROOT
ATOM      1  C   UNL     1      20.905   8.779   7.324  1.00  0.00     0.000 C 
ENDROOT
BRANCH   1   2
ATOM      2  C   UNL     1      21.778   9.729   8.165  1.00  0.00     0.000 C 
BRANCH   2   3
ATOM      3  C   UNL     1      23.153   9.122   8.506  1.00  0.00     0.000 C 
BRANCH   3   4
ATOM      4  C   UNL     1      23.635   9.368   9.954  1.00  0.00     0.000 C 
BRANCH   4   5
ATOM      5  C   UNL     1      25.147   9.166  10.200  1.00  0.00     0.000 C 
BRANCH   5   6
ATOM      6  C   UNL     1      25.491   8.508  11.549  1.00  0.00     0.000 C 
BRANCH   6   7
ATOM      7  C   UNL     1      25.999   9.521  12.588  1.00  0.00     0.000 C 
BRANCH   7   8
ATOM      8  C   UNL     1      26.125   8.907  13.994  1.00  0.00     0.000 C 
BRANCH   8   9
ATOM      9  C   UNL     1      25.305   9.655  15.065  1.00  0.00     0.000 C 
BRANCH   9  10
ATOM     10  C   UNL     1      25.501  11.180  14.990  1.00  0.00     0.000 C 
BRANCH  10  11
ATOM     11  C   UNL     1      24.289  11.907  14.387  1.00  0.00     0.000 C 
BRANCH  11  12
ATOM     12  C   UNL     1      24.165  13.359  14.882  1.00  0.00     0.000 C 
BRANCH  12  13
ATOM     13  C   UNL     1      25.523  14.083  14.935  1.00  0.00     0.006 C 
BRANCH  13  14
ATOM     14  C   UNL     1      25.511  15.402  14.147  1.00  0.00     0.053 C 
BRANCH  14  15
ATOM     15  C   UNL     1      24.359  16.258  14.570  1.00  0.00     0.041 C 
ATOM     16  O   UNL     1      23.352  15.740  15.124  1.00  0.00    -0.550 OA
ATOM     17  O   UNL     1      24.404  17.628  14.356  1.00  0.00    -0.550 OA
ENDBRANCH  14  15
ENDBRANCH  13  14
ENDBRANCH  12  13
ENDBRANCH  11  12
ENDBRANCH  10  11
ENDBRANCH   9  10
ENDBRANCH   8   9
ENDBRANCH   7   8
ENDBRANCH   6   7
ENDBRANCH   5   6
ENDBRANCH   4   5
ENDBRANCH   3   4
ENDBRANCH   2   3
ENDBRANCH   1   2
BRANCH   1  18
ATOM     18  C   UNL     1      19.503   8.573   7.921  1.00  0.00     0.000 C 
BRANCH  18  19
ATOM     19  C   UNL     1      19.021   7.117   7.830  1.00  0.00     0.000 C 
BRANCH  19  20
ATOM     20  C   UNL     1      20.177   6.146   8.121  1.00  0.00     0.000 C 
BRANCH  20  21
ATOM     21  C   UNL     1      20.010   5.384   9.448  1.00  0.00     0.000 C 
BRANCH  21  22
ATOM     22  C   UNL     1      18.745   5.742  10.255  1.00  0.00     0.000 C 
BRANCH  22  23
ATOM     23  C   UNL     1      18.995   6.533  11.551  1.00  0.00     0.000 C 
BRANCH  23  24
ATOM     24  C   UNL     1      18.842   8.051  11.370  1.00  0.00    -0.000 C 
BRANCH  24  25
ATOM     25  C   UNL     1      20.204   8.752  11.467  1.00  0.00    -0.000 C 
BRANCH  25  26
ATOM     26  C   UNL     1      21.359   7.779  11.764  1.00  0.00    -0.000 C 
BRANCH  26  27
ATOM     27  C   UNL     1      22.334   8.241  12.870  1.00  0.00    -0.000 C 
BRANCH  27  28
ATOM     28  C   UNL     1      23.041   7.108  13.637  1.00  0.00    -0.000 C 
BRANCH  28  29
ATOM     29  C   UNL     1      23.226   5.835  12.796  1.00  0.00    -0.000 C 
BRANCH  29  30
ATOM     30  C   UNL     1      23.677   4.658  13.673  1.00  0.00    -0.000 C 
BRANCH  30  31
ATOM     31  C   UNL     1      25.195   4.422  13.599  1.00  0.00    -0.003 C 
ATOM     32  C   UNL     1      25.582   2.971  13.884  1.00  0.00     0.004 C 
ENDBRANCH  30  31
ENDBRANCH  29  30
ENDBRANCH  28  29
ENDBRANCH  27  28
ENDBRANCH  26  27
ENDBRANCH  25  26
ENDBRANCH  24  25
ENDBRANCH  23  24
ENDBRANCH  22  23
ENDBRANCH  21  22
ENDBRANCH  20  21
ENDBRANCH  19  20
ENDBRANCH  18  19
ENDBRANCH   1  18
TORSDOF 28
ENDMDL
MODEL 5
REMARK VINA RESULT:    -1.844      1.252      2.241
REMARK INTER + INTRA:          -8.525
REMARK INTER:                  -7.283
REMARK INTRA:                  -1.242
REMARK UNBOUND:                -3.663
REMARK SMILES CCCCCCCCCCCCCCCCCCCCCCCCCCCCCC(=O)[O-]
REMARK SMILES IDX 16 1 17 2 18 3 19 4 20 5 21 6 22 7 23 8 24 9 25 10 26 11
REMARK SMILES IDX 27 12 28 13 29 14 30 15 31 16 32 17 15 18 14 19 13 20 12 21
REMARK SMILES IDX 11 22 10 23 9 24 8 25 7 26 6 27 5 28 4 29 3 30 2 31 1 32
REMARK H PARENT
REMARK Flexibility Score: inf
ROOT
ATOM      1  C   UNL     1      21.174   8.889   7.669  1.00  0.00     0.000 C 
ENDROOT
BRANCH   1   2
ATOM      2  C   UNL     1      22.204   9.858   8.278  1.00  0.00     0.000 C 
BRANCH   2   3
ATOM      3  C   UNL     1      23.169   9.158   9.255  1.00  0.00     0.000 C 
BRANCH   3   4
ATOM      4  C   UNL     1      23.544   9.983  10.507  1.00  0.00     0.000 C 
BRANCH   4   5
ATOM      5  C   UNL     1      24.758   9.466  11.312  1.00  0.00     0.000 C 
BRANCH   5   6
ATOM      6  C   UNL     1      24.747   9.854  12.802  1.00  0.00     0.000 C 
BRANCH   6   7
ATOM      7  C   UNL     1      25.991  10.660  13.211  1.00  0.00     0.000 C 
BRANCH   7   8
ATOM      8  C   UNL     1      25.732  11.560  14.433  1.00  0.00     0.000 C 
BRANCH   8   9
ATOM      9  C   UNL     1      26.089  13.040  14.191  1.00  0.00     0.000 C 
BRANCH   9  10
ATOM     10  C   UNL     1      25.055  13.752  13.300  1.00  0.00     0.000 C 
BRANCH  10  11
ATOM     11  C   UNL     1      24.124  14.681  14.095  1.00  0.00     0.000 C 
BRANCH  11  12
ATOM     12  C   UNL     1      24.682  16.111  14.219  1.00  0.00     0.000 C 
BRANCH  12  13
ATOM     13  C   UNL     1      23.819  17.006  15.125  1.00  0.00     0.006 C 
BRANCH  13  14
ATOM     14  C   UNL     1      23.677  18.432  14.571  1.00  0.00     0.053 C 
BRANCH  14  15
ATOM     15  C   UNL     1      22.314  18.637  13.990  1.00  0.00     0.041 C 
ATOM     16  O   UNL     1      21.397  17.798  14.206  1.00  0.00    -0.550 OA
ATOM     17  O   UNL     1      22.057  19.759  13.214  1.00  0.00    -0.550 OA
ENDBRANCH  14  15
ENDBRANCH  13  14
ENDBRANCH  12  13
ENDBRANCH  11  12
ENDBRANCH  10  11
ENDBRANCH   9  10
ENDBRANCH   8   9
ENDBRANCH   7   8
ENDBRANCH   6   7
ENDBRANCH   5   6
ENDBRANCH   4   5
ENDBRANCH   3   4
ENDBRANCH   2   3
ENDBRANCH   1   2
BRANCH   1  18
ATOM     18  C   UNL     1      19.744   9.456   7.680  1.00  0.00     0.000 C 
BRANCH  18  19
ATOM     19  C   UNL     1      18.726   8.525   7.004  1.00  0.00     0.000 C 
BRANCH  19  20
ATOM     20  C   UNL     1      19.427   7.283   6.430  1.00  0.00     0.000 C 
BRANCH  20  21
ATOM     21  C   UNL     1      19.739   6.216   7.495  1.00  0.00     0.000 C 
BRANCH  21  22
ATOM     22  C   UNL     1      19.234   6.540   8.917  1.00  0.00     0.000 C 
BRANCH  22  23
ATOM     23  C   UNL     1      19.503   5.454   9.973  1.00  0.00     0.000 C 
BRANCH  23  24
ATOM     24  C   UNL     1      19.167   5.908  11.402  1.00  0.00    -0.000 C 
BRANCH  24  25
ATOM     25  C   UNL     1      18.858   7.411  11.439  1.00  0.00    -0.000 C 
BRANCH  25  26
ATOM     26  C   UNL     1      20.112   8.285  11.257  1.00  0.00    -0.000 C 
BRANCH  26  27
ATOM     27  C   UNL     1      21.221   8.061  12.310  1.00  0.00    -0.000 C 
BRANCH  27  28
ATOM     28  C   UNL     1      22.026   6.757  12.150  1.00  0.00    -0.000 C 
BRANCH  28  29
ATOM     29  C   UNL     1      23.280   6.712  13.037  1.00  0.00    -0.000 C 
BRANCH  29  30
ATOM     30  C   UNL     1      24.065   5.411  12.810  1.00  0.00    -0.000 C 
BRANCH  30  31
ATOM     31  C   UNL     1      23.652   4.300  13.790  1.00  0.00    -0.003 C 
ATOM     32  C   UNL     1      24.753   3.263  14.006  1.00  0.00     0.004 C 
ENDBRANCH  30  31
ENDBRANCH  29  30
ENDBRANCH  28  29
ENDBRANCH  27  28
ENDBRANCH  26  27
ENDBRANCH  25  26
ENDBRANCH  24  25
ENDBRANCH  23  24
ENDBRANCH  22  23
ENDBRANCH  21  22
ENDBRANCH  20  21
ENDBRANCH  19  20
ENDBRANCH  18  19
ENDBRANCH   1  18
TORSDOF 28
ENDMDL
MODEL 6
REMARK VINA RESULT:    -1.548      4.218      8.461
REMARK INTER + INTRA:          -7.744
REMARK INTER:                  -6.771
REMARK INTRA:                  -0.973
REMARK UNBOUND:                -3.663
REMARK SMILES CCCCCCCCCCCCCCCCCCCCCCCCCCCCCC(=O)[O-]
REMARK SMILES IDX 16 1 17 2 18 3 19 4 20 5 21 6 22 7 23 8 24 9 25 10 26 11
REMARK SMILES IDX 27 12 28 13 29 14 30 15 31 16 32 17 15 18 14 19 13 20 12 21
REMARK SMILES IDX 11 22 10 23 9 24 8 25 7 26 6 27 5 28 4 29 3 30 2 31 1 32
REMARK H PARENT
REMARK Flexibility Score: inf
ROOT
ATOM      1  C   UNL     1      19.395   8.239   8.802  1.00  0.00     0.000 C 
ENDROOT
BRANCH   1   2
ATOM      2  C   UNL     1      19.433   6.750   8.412  1.00  0.00     0.000 C 
BRANCH   2   3
ATOM      3  C   UNL     1      19.485   5.819   9.640  1.00  0.00     0.000 C 
BRANCH   3   4
ATOM      4  C   UNL     1      19.862   6.512  10.969  1.00  0.00     0.000 C 
BRANCH   4   5
ATOM      5  C   UNL     1      21.355   6.878  11.134  1.00  0.00     0.000 C 
BRANCH   5   6
ATOM      6  C   UNL     1      22.007   6.334  12.418  1.00  0.00     0.000 C 
BRANCH   6   7
ATOM      7  C   UNL     1      23.172   7.211  12.906  1.00  0.00     0.000 C 
BRANCH   7   8
ATOM      8  C   UNL     1      22.701   8.358  13.817  1.00  0.00     0.000 C 
BRANCH   8   9
ATOM      9  C   UNL     1      23.512   8.475  15.124  1.00  0.00     0.000 C 
BRANCH   9  10
ATOM     10  C   UNL     1      24.864   9.179  14.911  1.00  0.00     0.000 C 
BRANCH  10  11
ATOM     11  C   UNL     1      26.063   8.242  15.125  1.00  0.00     0.000 C 
BRANCH  11  12
ATOM     12  C   UNL     1      26.124   7.114  14.078  1.00  0.00     0.000 C 
BRANCH  12  13
ATOM     13  C   UNL     1      25.897   5.723  14.695  1.00  0.00     0.006 C 
BRANCH  13  14
ATOM     14  C   UNL     1      25.899   4.609  13.638  1.00  0.00     0.053 C 
BRANCH  14  15
ATOM     15  C   UNL     1      24.749   3.676  13.852  1.00  0.00     0.041 C 
ATOM     16  O   UNL     1      23.870   3.940  14.717  1.00  0.00    -0.550 OA
ATOM     17  O   UNL     1      24.648   2.520  13.091  1.00  0.00    -0.550 OA
ENDBRANCH  14  15
ENDBRANCH  13  14
ENDBRANCH  12  13
ENDBRANCH  11  12
ENDBRANCH  10  11
ENDBRANCH   9  10
ENDBRANCH   8   9
ENDBRANCH   7   8
ENDBRANCH   6   7
ENDBRANCH   5   6
ENDBRANCH   4   5
ENDBRANCH   3   4
ENDBRANCH   2   3
ENDBRANCH   1   2
BRANCH   1  18
ATOM     18  C   UNL     1      20.619   9.020   8.293  1.00  0.00     0.000 C 
BRANCH  18  19
ATOM     19  C   UNL     1      21.952   8.365   8.687  1.00  0.00     0.000 C 
BRANCH  19  20
ATOM     20  C   UNL     1      22.793   9.326   9.544  1.00  0.00     0.000 C 
BRANCH  20  21
ATOM     21  C   UNL     1      24.294   8.985   9.543  1.00  0.00     0.000 C 
BRANCH  21  22
ATOM     22  C   UNL     1      25.120   9.653  10.662  1.00  0.00     0.000 C 
BRANCH  22  23
ATOM     23  C   UNL     1      24.327  10.582  11.598  1.00  0.00     0.000 C 
BRANCH  23  24
ATOM     24  C   UNL     1      25.017  10.804  12.952  1.00  0.00    -0.000 C 
BRANCH  24  25
ATOM     25  C   UNL     1      25.392  12.281  13.137  1.00  0.00    -0.000 C 
BRANCH  25  26
ATOM     26  C   UNL     1      26.125  12.551  14.464  1.00  0.00    -0.000 C 
BRANCH  26  27
ATOM     27  C   UNL     1      25.846  13.934  15.093  1.00  0.00    -0.000 C 
BRANCH  27  28
ATOM     28  C   UNL     1      25.703  15.095  14.090  1.00  0.00    -0.000 C 
BRANCH  28  29
ATOM     29  C   UNL     1      24.341  15.802  14.177  1.00  0.00    -0.000 C 
BRANCH  29  30
ATOM     30  C   UNL     1      24.514  17.329  14.175  1.00  0.00    -0.000 C 
BRANCH  30  31
ATOM     31  C   UNL     1      23.320  18.053  14.819  1.00  0.00    -0.003 C 
ATOM     32  C   UNL     1      22.077  17.169  14.917  1.00  0.00     0.004 C 
ENDBRANCH  30  31
ENDBRANCH  29  30
ENDBRANCH  28  29
ENDBRANCH  27  28
ENDBRANCH  26  27
ENDBRANCH  25  26
ENDBRANCH  24  25
ENDBRANCH  23  24
ENDBRANCH  22  23
ENDBRANCH  21  22
ENDBRANCH  20  21
ENDBRANCH  19  20
ENDBRANCH  18  19
ENDBRANCH   1  18
TORSDOF 28
ENDMDL
MODEL 7
REMARK VINA RESULT:    -1.434      4.570      9.868
REMARK INTER + INTRA:          -7.445
REMARK INTER:                  -5.655
REMARK INTRA:                  -1.790
REMARK UNBOUND:                -3.663
REMARK SMILES CCCCCCCCCCCCCCCCCCCCCCCCCCCCCC(=O)[O-]
REMARK SMILES IDX 16 1 17 2 18 3 19 4 20 5 21 6 22 7 23 8 24 9 25 10 26 11
REMARK SMILES IDX 27 12 28 13 29 14 30 15 31 16 32 17 15 18 14 19 13 20 12 21
REMARK SMILES IDX 11 22 10 23 9 24 8 25 7 26 6 27 5 28 4 29 3 30 2 31 1 32
REMARK H PARENT
REMARK Flexibility Score: inf
ROOT
ATOM      1  C   UNL     1      23.038   9.870   9.356  1.00  0.00     0.000 C 
ENDROOT
BRANCH   1   2
ATOM      2  C   UNL     1      22.370   8.764   8.518  1.00  0.00     0.000 C 
BRANCH   2   3
ATOM      3  C   UNL     1      20.831   8.825   8.578  1.00  0.00     0.000 C 
BRANCH   3   4
ATOM      4  C   UNL     1      20.244   9.162   9.968  1.00  0.00     0.000 C 
BRANCH   4   5
ATOM      5  C   UNL     1      20.982   8.540  11.175  1.00  0.00     0.000 C 
BRANCH   5   6
ATOM      6  C   UNL     1      20.480   7.141  11.578  1.00  0.00     0.000 C 
BRANCH   6   7
ATOM      7  C   UNL     1      21.546   6.051  11.377  1.00  0.00     0.000 C 
BRANCH   7   8
ATOM      8  C   UNL     1      22.960   6.540  11.740  1.00  0.00     0.000 C 
BRANCH   8   9
ATOM      9  C   UNL     1      23.254   6.497  13.253  1.00  0.00     0.000 C 
BRANCH   9  10
ATOM     10  C   UNL     1      24.140   7.670  13.709  1.00  0.00     0.000 C 
BRANCH  10  11
ATOM     11  C   UNL     1      25.054   7.302  14.888  1.00  0.00     0.000 C 
BRANCH  11  12
ATOM     12  C   UNL     1      26.053   6.186  14.533  1.00  0.00     0.000 C 
BRANCH  12  13
ATOM     13  C   UNL     1      25.474   4.779  14.768  1.00  0.00     0.006 C 
BRANCH  13  14
ATOM     14  C   UNL     1      26.125   3.723  13.861  1.00  0.00     0.053 C 
BRANCH  14  15
ATOM     15  C   UNL     1      25.147   2.641  13.528  1.00  0.00     0.041 C 
ATOM     16  O   UNL     1      25.505   1.651  12.833  1.00  0.00    -0.550 OA
ATOM     17  O   UNL     1      23.842   2.725  13.992  1.00  0.00    -0.550 OA
ENDBRANCH  14  15
ENDBRANCH  13  14
ENDBRANCH  12  13
ENDBRANCH  11  12
ENDBRANCH  10  11
ENDBRANCH   9  10
ENDBRANCH   8   9
ENDBRANCH   7   8
ENDBRANCH   6   7
ENDBRANCH   5   6
ENDBRANCH   4   5
ENDBRANCH   3   4
ENDBRANCH   2   3
ENDBRANCH   1   2
BRANCH   1  18
ATOM     18  C   UNL     1      24.264   9.367  10.137  1.00  0.00     0.000 C 
BRANCH  18  19
ATOM     19  C   UNL     1      24.266   9.821  11.606  1.00  0.00     0.000 C 
BRANCH  19  20
ATOM     20  C   UNL     1      25.377  10.854  11.850  1.00  0.00     0.000 C 
BRANCH  20  21
ATOM     21  C   UNL     1      26.113  10.650  13.187  1.00  0.00     0.000 C 
BRANCH  21  22
ATOM     22  C   UNL     1      26.007  11.825  14.181  1.00  0.00     0.000 C 
BRANCH  22  23
ATOM     23  C   UNL     1      24.577  12.191  14.617  1.00  0.00     0.000 C 
BRANCH  23  24
ATOM     24  C   UNL     1      24.441  13.651  15.075  1.00  0.00    -0.000 C 
BRANCH  24  25
ATOM     25  C   UNL     1      24.511  14.607  13.877  1.00  0.00    -0.000 C 
BRANCH  25  26
ATOM     26  C   UNL     1      24.712  16.075  14.294  1.00  0.00    -0.000 C 
BRANCH  26  27
ATOM     27  C   UNL     1      23.427  16.808  14.740  1.00  0.00    -0.000 C 
BRANCH  27  28
ATOM     28  C   UNL     1      23.547  18.341  14.839  1.00  0.00    -0.000 C 
BRANCH  28  29
ATOM     29  C   UNL     1      22.336  19.079  14.246  1.00  0.00    -0.000 C 
BRANCH  29  30
ATOM     30  C   UNL     1      21.036  18.306  14.516  1.00  0.00    -0.000 C 
BRANCH  30  31
ATOM     31  C   UNL     1      20.181  18.142  13.250  1.00  0.00    -0.003 C 
ATOM     32  C   UNL     1      20.274  19.347  12.313  1.00  0.00     0.004 C 
ENDBRANCH  30  31
ENDBRANCH  29  30
ENDBRANCH  28  29
ENDBRANCH  27  28
ENDBRANCH  26  27
ENDBRANCH  25  26
ENDBRANCH  24  25
ENDBRANCH  23  24
ENDBRANCH  22  23
ENDBRANCH  21  22
ENDBRANCH  20  21
ENDBRANCH  19  20
ENDBRANCH  18  19
ENDBRANCH   1  18
TORSDOF 28
ENDMDL
MODEL 8
REMARK VINA RESULT:    -1.117      7.121     12.006
REMARK INTER + INTRA:          -6.608
REMARK INTER:                  -4.537
REMARK INTRA:                  -2.071
REMARK UNBOUND:                -3.663
REMARK SMILES CCCCCCCCCCCCCCCCCCCCCCCCCCCCCC(=O)[O-]
REMARK SMILES IDX 16 1 17 2 18 3 19 4 20 5 21 6 22 7 23 8 24 9 25 10 26 11
REMARK SMILES IDX 27 12 28 13 29 14 30 15 31 16 32 17 15 18 14 19 13 20 12 21
REMARK SMILES IDX 11 22 10 23 9 24 8 25 7 26 6 27 5 28 4 29 3 30 2 31 1 32
REMARK H PARENT
REMARK Flexibility Score: inf
ROOT
ATOM      1  C   UNL     1      19.525   6.797  10.263  1.00  0.00     0.000 C 
ENDROOT
BRANCH   1   2
ATOM      2  C   UNL     1      18.631   5.569  10.522  1.00  0.00     0.000 C 
BRANCH   2   3
ATOM      3  C   UNL     1      17.664   5.286   9.355  1.00  0.00     0.000 C 
BRANCH   3   4
ATOM      4  C   UNL     1      16.226   4.907   9.777  1.00  0.00     0.000 C 
BRANCH   4   5
ATOM      5  C   UNL     1      15.382   4.186   8.701  1.00  0.00     0.000 C 
BRANCH   5   6
ATOM      6  C   UNL     1      14.916   2.773   9.098  1.00  0.00     0.000 C 
BRANCH   6   7
ATOM      7  C   UNL     1      13.885   2.194   8.115  1.00  0.00     0.000 C 
BRANCH   7   8
ATOM      8  C   UNL     1      14.416   0.955   7.371  1.00  0.00     0.000 C 
BRANCH   8   9
ATOM      9  C   UNL     1      15.945   0.972   7.166  1.00  0.00     0.000 C 
BRANCH   9  10
ATOM     10  C   UNL     1      16.335   0.964   5.676  1.00  0.00     0.000 C 
BRANCH  10  11
ATOM     11  C   UNL     1      17.447   1.972   5.347  1.00  0.00     0.000 C 
BRANCH  11  12
ATOM     12  C   UNL     1      17.348   2.509   3.907  1.00  0.00     0.000 C 
BRANCH  12  13
ATOM     13  C   UNL     1      18.672   2.373   3.135  1.00  0.00     0.006 C 
BRANCH  13  14
ATOM     14  C   UNL     1      18.571   1.367   1.978  1.00  0.00     0.053 C 
BRANCH  14  15
ATOM     15  C   UNL     1      19.888   1.233   1.281  1.00  0.00     0.041 C 
ATOM     16  O   UNL     1      20.964   1.277   1.938  1.00  0.00    -0.550 OA
ATOM     17  O   UNL     1      19.925   1.053  -0.095  1.00  0.00    -0.550 OA
ENDBRANCH  14  15
ENDBRANCH  13  14
ENDBRANCH  12  13
ENDBRANCH  11  12
ENDBRANCH  10  11
ENDBRANCH   9  10
ENDBRANCH   8   9
ENDBRANCH   7   8
ENDBRANCH   6   7
ENDBRANCH   5   6
ENDBRANCH   4   5
ENDBRANCH   3   4
ENDBRANCH   2   3
ENDBRANCH   1   2
BRANCH   1  18
ATOM     18  C   UNL     1      20.571   6.551   9.163  1.00  0.00     0.000 C 
BRANCH  18  19
ATOM     19  C   UNL     1      21.529   7.737   8.971  1.00  0.00     0.000 C 
BRANCH  19  20
ATOM     20  C   UNL     1      21.210   8.857   9.976  1.00  0.00     0.000 C 
BRANCH  20  21
ATOM     21  C   UNL     1      22.460   9.618  10.453  1.00  0.00     0.000 C 
BRANCH  21  22
ATOM     22  C   UNL     1      23.806   8.939  10.126  1.00  0.00     0.000 C 
BRANCH  22  23
ATOM     23  C   UNL     1      25.002   9.408  10.974  1.00  0.00     0.000 C 
BRANCH  23  24
ATOM     24  C   UNL     1      24.793  10.799  11.593  1.00  0.00    -0.000 C 
BRANCH  24  25
ATOM     25  C   UNL     1      24.947  10.746  13.119  1.00  0.00    -0.000 C 
BRANCH  25  26
ATOM     26  C   UNL     1      24.165   9.585  13.759  1.00  0.00    -0.000 C 
BRANCH  26  27
ATOM     27  C   UNL     1      25.012   8.628  14.628  1.00  0.00    -0.000 C 
BRANCH  27  28
ATOM     28  C   UNL     1      25.469   7.335  13.926  1.00  0.00    -0.000 C 
BRANCH  28  29
ATOM     29  C   UNL     1      24.301   6.520  13.347  1.00  0.00    -0.000 C 
BRANCH  29  30
ATOM     30  C   UNL     1      24.736   5.078  13.045  1.00  0.00    -0.000 C 
BRANCH  30  31
ATOM     31  C   UNL     1      23.855   4.040  13.760  1.00  0.00    -0.003 C 
ATOM     32  C   UNL     1      24.551   2.689  13.926  1.00  0.00     0.004 C 
ENDBRANCH  30  31
ENDBRANCH  29  30
ENDBRANCH  28  29
ENDBRANCH  27  28
ENDBRANCH  26  27
ENDBRANCH  25  26
ENDBRANCH  24  25
ENDBRANCH  23  24
ENDBRANCH  22  23
ENDBRANCH  21  22
ENDBRANCH  20  21
ENDBRANCH  19  20
ENDBRANCH  18  19
ENDBRANCH   1  18
TORSDOF 28
ENDMDL
MODEL 9
REMARK VINA RESULT:    -0.811      8.281     12.791
REMARK INTER + INTRA:          -5.801
REMARK INTER:                  -3.696
REMARK INTRA:                  -2.105
REMARK UNBOUND:                -3.663
REMARK SMILES CCCCCCCCCCCCCCCCCCCCCCCCCCCCCC(=O)[O-]
REMARK SMILES IDX 16 1 17 2 18 3 19 4 20 5 21 6 22 7 23 8 24 9 25 10 26 11
REMARK SMILES IDX 27 12 28 13 29 14 30 15 31 16 32 17 15 18 14 19 13 20 12 21
REMARK SMILES IDX 11 22 10 23 9 24 8 25 7 26 6 27 5 28 4 29 3 30 2 31 1 32
REMARK H PARENT
REMARK Flexibility Score: inf
ROOT
ATOM      1  C   UNL     1      19.006   7.441   6.866  1.00  0.00     0.000 C 
ENDROOT
BRANCH   1   2
ATOM      2  C   UNL     1      19.083   5.944   6.510  1.00  0.00     0.000 C 
BRANCH   2   3
ATOM      3  C   UNL     1      18.760   5.671   5.028  1.00  0.00     0.000 C 
BRANCH   3   4
ATOM      4  C   UNL     1      19.073   4.236   4.545  1.00  0.00     0.000 C 
BRANCH   4   5
ATOM      5  C   UNL     1      18.028   3.607   3.595  1.00  0.00     0.000 C 
BRANCH   5   6
ATOM      6  C   UNL     1      17.602   2.177   3.974  1.00  0.00     0.000 C 
BRANCH   6   7
ATOM      7  C   UNL     1      18.145   1.121   2.998  1.00  0.00     0.000 C 
BRANCH   7   8
ATOM      8  C   UNL     1      19.002   1.741   1.880  1.00  0.00     0.000 C 
BRANCH   8   9
ATOM      9  C   UNL     1      20.469   1.267   1.898  1.00  0.00     0.000 C 
BRANCH   9  10
ATOM     10  C   UNL     1      21.039   1.075   0.480  1.00  0.00     0.000 C 
BRANCH  10  11
ATOM     11  C   UNL     1      22.564   1.252   0.423  1.00  0.00     0.000 C 
BRANCH  11  12
ATOM     12  C   UNL     1      23.101   1.280  -1.020  1.00  0.00     0.000 C 
BRANCH  12  13
ATOM     13  C   UNL     1      22.104   1.909  -2.009  1.00  0.00     0.006 C 
BRANCH  13  14
ATOM     14  C   UNL     1      22.782   2.362  -3.311  1.00  0.00     0.053 C 
BRANCH  14  15
ATOM     15  C   UNL     1      23.437   3.694  -3.128  1.00  0.00     0.041 C 
ATOM     16  O   UNL     1      24.600   3.898  -3.571  1.00  0.00    -0.550 OA
ATOM     17  O   UNL     1      22.758   4.712  -2.472  1.00  0.00    -0.550 OA
ENDBRANCH  14  15
ENDBRANCH  13  14
ENDBRANCH  12  13
ENDBRANCH  11  12
ENDBRANCH  10  11
ENDBRANCH   9  10
ENDBRANCH   8   9
ENDBRANCH   7   8
ENDBRANCH   6   7
ENDBRANCH   5   6
ENDBRANCH   4   5
ENDBRANCH   3   4
ENDBRANCH   2   3
ENDBRANCH   1   2
BRANCH   1  18
ATOM     18  C   UNL     1      20.272   7.950   7.576  1.00  0.00     0.000 C 
BRANCH  18  19
ATOM     19  C   UNL     1      20.222   7.757   9.100  1.00  0.00     0.000 C 
BRANCH  19  20
ATOM     20  C   UNL     1      21.609   7.990   9.720  1.00  0.00     0.000 C 
BRANCH  20  21
ATOM     21  C   UNL     1      22.193   9.377   9.396  1.00  0.00     0.000 C 
BRANCH  21  22
ATOM     22  C   UNL     1      23.458   9.758  10.194  1.00  0.00     0.000 C 
BRANCH  22  23
ATOM     23  C   UNL     1      24.636   8.777  10.065  1.00  0.00     0.000 C 
BRANCH  23  24
ATOM     24  C   UNL     1      25.808   9.117  11.000  1.00  0.00    -0.000 C 
BRANCH  24  25
ATOM     25  C   UNL     1      25.600  10.488  11.658  1.00  0.00    -0.000 C 
BRANCH  25  26
ATOM     26  C   UNL     1      25.164  10.386  13.131  1.00  0.00    -0.000 C 
BRANCH  26  27
ATOM     27  C   UNL     1      25.018   8.945  13.669  1.00  0.00    -0.000 C 
BRANCH  27  28
ATOM     28  C   UNL     1      23.583   8.384  13.663  1.00  0.00    -0.000 C 
BRANCH  28  29
ATOM     29  C   UNL     1      23.509   6.924  13.188  1.00  0.00    -0.000 C 
BRANCH  29  30
ATOM     30  C   UNL     1      24.902   6.276  13.190  1.00  0.00    -0.000 C 
BRANCH  30  31
ATOM     31  C   UNL     1      24.923   4.939  13.948  1.00  0.00    -0.003 C 
ATOM     32  C   UNL     1      23.603   4.175  13.836  1.00  0.00     0.004 C 
ENDBRANCH  30  31
ENDBRANCH  29  30
ENDBRANCH  28  29
ENDBRANCH  27  28
ENDBRANCH  26  27
ENDBRANCH  25  26
ENDBRANCH  24  25
ENDBRANCH  23  24
ENDBRANCH  22  23
ENDBRANCH  21  22
ENDBRANCH  20  21
ENDBRANCH  19  20
ENDBRANCH  18  19
ENDBRANCH   1  18
TORSDOF 28
ENDMDL
