MODEL 1
REMARK VINA RESULT:    -3.539      0.000      0.000
REMARK INTER + INTRA:          -3.119
REMARK INTER:                  -4.056
REMARK INTRA:                   0.938
REMARK UNBOUND:                 0.938
REMARK SMILES O=C([O-])C=Cc1ccc(O)cc1
REMARK SMILES IDX 6 1 7 2 12 3 8 4 11 5 9 6 5 7 4 8 2 9 1 10 3 11 10 12
REMARK H PARENT 10 13
REMARK Flexibility Score: inf
ROOT
ATOM      1  C   UNL     1       8.503   4.183  17.970  1.00  0.00    -0.025 A 
ATOM      2  C   UNL     1       7.140   4.535  17.975  1.00  0.00     0.012 A 
ATOM      3  C   UNL     1       9.470   5.185  18.132  1.00  0.00     0.012 A 
ATOM      4  C   UNL     1       6.759   5.875  18.089  1.00  0.00     0.047 A 
ATOM      5  C   UNL     1       9.087   6.525  18.245  1.00  0.00     0.047 A 
ATOM      6  C   UNL     1       7.729   6.874  18.220  1.00  0.00     0.115 A 
ENDROOT
BRANCH   1   7
ATOM      7  C   UNL     1       8.928   2.770  17.905  1.00  0.00     0.010 C 
ATOM      8  C   UNL     1       8.175   1.714  18.252  1.00  0.00     0.025 C 
BRANCH   8   9
ATOM      9  C   UNL     1       6.737   1.752  18.586  1.00  0.00     0.064 C 
ATOM     10  O   UNL     1       5.880   1.165  17.875  1.00  0.00    -0.545 OA
ATOM     11  O   UNL     1       6.331   2.393  19.749  1.00  0.00    -0.545 OA
ENDBRANCH   8   9
ENDBRANCH   1   7
BRANCH   6  12
ATOM     12  O   UNL     1       7.335   8.205  18.330  1.00  0.00    -0.508 OA
ATOM     13  H   UNL     1       7.894   8.883  18.836  1.00  0.00     0.293 HD
ENDBRANCH   6  12
TORSDOF 3
ENDMDL
MODEL 2
REMARK VINA RESULT:    -3.493      0.110      1.402
REMARK INTER + INTRA:          -3.066
REMARK INTER:                  -3.988
REMARK INTRA:                   0.922
REMARK UNBOUND:                 0.938
REMARK SMILES O=C([O-])C=Cc1ccc(O)cc1
REMARK SMILES IDX 6 1 7 2 12 3 8 4 11 5 9 6 5 7 4 8 2 9 1 10 3 11 10 12
REMARK H PARENT 10 13
REMARK Flexibility Score: inf
ROOT
ATOM      1  C   UNL     1       8.494   4.091  18.060  1.00  0.00    -0.025 A 
ATOM      2  C   UNL     1       9.466   5.101  18.191  1.00  0.00     0.012 A 
ATOM      3  C   UNL     1       7.145   4.452  17.936  1.00  0.00     0.012 A 
ATOM      4  C   UNL     1       9.084   6.444  18.247  1.00  0.00     0.047 A 
ATOM      5  C   UNL     1       6.764   5.796  17.992  1.00  0.00     0.047 A 
ATOM      6  C   UNL     1       7.733   6.796  18.152  1.00  0.00     0.115 A 
ENDROOT
BRANCH   1   7
ATOM      7  C   UNL     1       8.878   2.670  17.944  1.00  0.00     0.010 C 
ATOM      8  C   UNL     1       8.094   1.625  18.252  1.00  0.00     0.025 C 
BRANCH   8   9
ATOM      9  C   UNL     1       6.658   1.693  18.588  1.00  0.00     0.064 C 
ATOM     10  O   UNL     1       5.787   1.127  17.875  1.00  0.00    -0.545 OA
ATOM     11  O   UNL     1       6.266   2.337  19.753  1.00  0.00    -0.545 OA
ENDBRANCH   8   9
ENDBRANCH   1   7
BRANCH   6  12
ATOM     12  O   UNL     1       7.367   8.138  18.211  1.00  0.00    -0.508 OA
ATOM     13  H   UNL     1       7.943   8.864  17.800  1.00  0.00     0.293 HD
ENDBRANCH   6  12
TORSDOF 3
ENDMDL
MODEL 3
REMARK VINA RESULT:    -2.747      0.970      4.531
REMARK INTER + INTRA:          -2.211
REMARK INTER:                  -3.595
REMARK INTRA:                   1.384
REMARK UNBOUND:                 0.938
REMARK SMILES O=C([O-])C=Cc1ccc(O)cc1
REMARK SMILES IDX 6 1 7 2 12 3 8 4 11 5 9 6 5 7 4 8 2 9 1 10 3 11 10 12
REMARK H PARENT 10 13
REMARK Flexibility Score: inf
ROOT
ATOM      1  C   UNL     1       8.362   4.272  18.320  1.00  0.00    -0.025 A 
ATOM      2  C   UNL     1       7.121   4.462  18.955  1.00  0.00     0.012 A 
ATOM      3  C   UNL     1       8.749   2.977  17.947  1.00  0.00     0.012 A 
ATOM      4  C   UNL     1       6.308   3.366  19.257  1.00  0.00     0.047 A 
ATOM      5  C   UNL     1       7.935   1.881  18.250  1.00  0.00     0.047 A 
ATOM      6  C   UNL     1       6.713   2.073  18.910  1.00  0.00     0.115 A 
ENDROOT
BRANCH   1   7
ATOM      7  C   UNL     1       9.213   5.419  17.943  1.00  0.00     0.010 C 
ATOM      8  C   UNL     1       8.811   6.698  17.880  1.00  0.00     0.025 C 
BRANCH   8   9
ATOM      9  C   UNL     1       7.510   7.218  18.346  1.00  0.00     0.064 C 
ATOM     10  O   UNL     1       6.424   6.790  17.875  1.00  0.00    -0.545 OA
ATOM     11  O   UNL     1       7.483   8.150  19.374  1.00  0.00    -0.545 OA
ENDBRANCH   8   9
ENDBRANCH   1   7
BRANCH   6  12
ATOM     12  O   UNL     1       5.894   0.989  19.218  1.00  0.00    -0.508 OA
ATOM     13  H   UNL     1       4.891   1.095  19.318  1.00  0.00     0.293 HD
ENDBRANCH   6  12
TORSDOF 3
ENDMDL
MODEL 4
REMARK VINA RESULT:    -1.074      1.448      2.345
REMARK INTER + INTRA:          -0.294
REMARK INTER:                  -1.712
REMARK INTRA:                   1.418
REMARK UNBOUND:                 0.938
REMARK SMILES O=C([O-])C=Cc1ccc(O)cc1
REMARK SMILES IDX 6 1 7 2 12 3 8 4 11 5 9 6 5 7 4 8 2 9 1 10 3 11 10 12
REMARK H PARENT 10 13
REMARK Flexibility Score: inf
ROOT
ATOM      1  C   UNL     1       7.175   4.516  18.212  1.00  0.00    -0.025 A 
ATOM      2  C   UNL     1       8.564   4.517  17.989  1.00  0.00     0.012 A 
ATOM      3  C   UNL     1       6.491   5.739  18.276  1.00  0.00     0.012 A 
ATOM      4  C   UNL     1       9.260   5.724  17.885  1.00  0.00     0.047 A 
ATOM      5  C   UNL     1       7.189   6.946  18.172  1.00  0.00     0.047 A 
ATOM      6  C   UNL     1       8.578   6.941  17.980  1.00  0.00     0.115 A 
ENDROOT
BRANCH   1   7
ATOM      7  C   UNL     1       6.409   3.254  18.271  1.00  0.00     0.010 C 
ATOM      8  C   UNL     1       6.940   2.027  18.390  1.00  0.00     0.025 C 
BRANCH   8   9
ATOM      9  C   UNL     1       8.359   1.724  18.663  1.00  0.00     0.064 C 
ATOM     10  O   UNL     1       9.020   2.377  19.512  1.00  0.00    -0.545 OA
ATOM     11  O   UNL     1       8.956   0.649  18.019  1.00  0.00    -0.545 OA
ENDBRANCH   8   9
ENDBRANCH   1   7
BRANCH   6  12
ATOM     12  O   UNL     1       9.285   8.136  17.876  1.00  0.00    -0.508 OA
ATOM     13  H   UNL     1      10.062   8.347  18.491  1.00  0.00     0.293 HD
ENDBRANCH   6  12
TORSDOF 3
ENDMDL
