MODEL 1
REMARK VINA RESULT:    27.227      0.000      0.000
REMARK INTER + INTRA:          29.391
REMARK INTER:                  29.615
REMARK INTRA:                  -0.224
REMARK UNBOUND:                -0.224
REMARK SMILES C[C@H]1[C@@H](C)CC[C@@]2(C(=O)[O-])CC[C@]3(C)C(=CC[C@@H]4[C@]5(C)CC[C@@H](O)C(C)(C)[C@H]5CC[C@@]43C)[C@@H]12
REMARK SMILES IDX 7 1 6 2 11 3 33 4 5 5 12 6 15 7 2 8 3 9 13 10 16 11 1 12
REMARK SMILES IDX 4 13 14 14 31 15 17 16 18 17 30 18 32 19 19 20 29 21 28 22
REMARK SMILES IDX 21 23 20 24 25 25 22 26 23 27 26 28 27 29 8 30 9 31 10 32
REMARK SMILES IDX 24 33
REMARK H PARENT 24 34
REMARK Flexibility Score: inf
ROOT
ATOM      1  C   UNL     1      19.827  -9.545  18.757  1.00  0.00     0.017 C 
ATOM      2  C   UNL     1      20.639 -10.771  19.307  1.00  0.00     0.014 C 
ATOM      3  C   UNL     1      18.973  -8.932  19.925  1.00  0.00     0.014 C 
ATOM      4  C   UNL     1      20.807  -8.493  18.096  1.00  0.00     0.030 C 
ATOM      5  C   UNL     1      21.834 -11.125  18.421  1.00  0.00     0.004 C 
ATOM      6  C   UNL     1      19.044  -7.404  20.125  1.00  0.00     0.013 C 
ATOM      7  C   UNL     1      20.256  -7.061  17.977  1.00  0.00    -0.063 C 
ATOM      8  C   UNL     1      22.278  -8.557  18.629  1.00  0.00    -0.003 C 
ATOM      9  C   UNL     1      22.880  -9.981  18.351  1.00  0.00    -0.011 C 
ATOM     10  C   UNL     1      19.094  -6.546  18.819  1.00  0.00    -0.006 C 
ATOM     11  C   UNL     1      20.746  -6.296  16.989  1.00  0.00    -0.027 C 
ATOM     12  C   UNL     1      22.436  -8.067  20.084  1.00  0.00     0.008 C 
ATOM     13  C   UNL     1      24.125 -10.313  19.188  1.00  0.00     0.008 C 
ATOM     14  C   UNL     1      17.784  -6.810  18.014  1.00  0.00     0.017 C 
ATOM     15  C   UNL     1      19.261  -4.958  19.112  1.00  0.00    -0.020 C 
ATOM     16  C   UNL     1      20.379  -4.865  16.745  1.00  0.00     0.032 C 
ATOM     17  C   UNL     1      19.383  -4.163  17.735  1.00  0.00     0.006 C 
ATOM     18  C   UNL     1      20.544  -4.643  19.943  1.00  0.00     0.008 C 
ATOM     19  C   UNL     1      18.025  -4.477  19.947  1.00  0.00     0.012 C 
ATOM     20  C   UNL     1      19.700  -2.590  17.867  1.00  0.00    -0.025 C 
ATOM     21  C   UNL     1      20.849  -3.140  20.123  1.00  0.00     0.005 C 
ATOM     22  C   UNL     1      20.987  -2.406  18.766  1.00  0.00     0.003 C 
ATOM     23  C   UNL     1      19.976  -1.954  16.457  1.00  0.00     0.010 C 
ATOM     24  C   UNL     1      18.441  -1.849  18.437  1.00  0.00     0.012 C 
ATOM     25  C   UNL     1      21.572  -0.936  18.844  1.00  0.00    -0.006 C 
ATOM     26  C   UNL     1      20.500  -0.509  16.516  1.00  0.00     0.033 C 
ATOM     27  C   UNL     1      21.767  -0.401  17.385  1.00  0.00     0.120 C 
ATOM     28  C   UNL     1      20.701   0.033  19.686  1.00  0.00     0.014 C 
ATOM     29  C   UNL     1      22.978  -0.969  19.510  1.00  0.00     0.014 C 
ENDROOT
BRANCH   1  30
ATOM     30  C   UNL     1      18.855 -10.114  17.712  1.00  0.00     0.048 C 
ATOM     31  O   UNL     1      17.998 -10.992  18.006  1.00  0.00    -0.550 OA
ATOM     32  O   UNL     1      18.917  -9.671  16.393  1.00  0.00    -0.550 OA
ENDBRANCH   1  30
BRANCH  27  33
ATOM     33  O   UNL     1      22.274   0.914  17.367  1.00  0.00    -0.393 OA
ATOM     34  H   UNL     1      21.593   1.513  17.769  1.00  0.00     0.210 HD
ENDBRANCH  27  33
TORSDOF 2
ENDMDL
