MODEL 1
REMARK VINA RESULT:    -4.593      0.000      0.000
REMARK INTER + INTRA:          -8.807
REMARK INTER:                  -7.278
REMARK INTRA:                  -1.529
REMARK UNBOUND:                -1.529
REMARK SMILES CCCCCCCCCCCC(=O)[O-]
REMARK SMILES IDX 7 1 8 2 9 3 10 4 11 5 12 6 13 7 14 8 6 9 5 10 4 11 3 12 2 13
REMARK SMILES IDX 1 14
REMARK H PARENT
REMARK Flexibility Score: inf
ROOT
ATOM      1  C   UNL     1     103.003 108.003 230.455  1.00  0.00     0.000 C 
ENDROOT
BRANCH   1   2
ATOM      2  C   UNL     1     102.244 106.863 231.151  1.00  0.00     0.000 C 
BRANCH   2   3
ATOM      3  C   UNL     1     103.219 105.840 231.747  1.00  0.00     0.000 C 
BRANCH   3   4
ATOM      4  C   UNL     1     102.780 104.405 231.419  1.00  0.00     0.006 C 
BRANCH   4   5
ATOM      5  C   UNL     1     103.961 103.517 231.000  1.00  0.00     0.053 C 
BRANCH   5   6
ATOM      6  C   UNL     1     103.572 102.073 230.926  1.00  0.00     0.041 C 
ATOM      7  O   UNL     1     102.357 101.746 230.883  1.00  0.00    -0.550 OA
ATOM      8  O   UNL     1     104.552 101.090 230.871  1.00  0.00    -0.550 OA
ENDBRANCH   5   6
ENDBRANCH   4   5
ENDBRANCH   3   4
ENDBRANCH   2   3
ENDBRANCH   1   2
BRANCH   1   9
ATOM      9  C   UNL     1     104.471 107.651 230.168  1.00  0.00     0.000 C 
BRANCH   9  10
ATOM     10  C   UNL     1     104.717 107.307 228.689  1.00  0.00    -0.000 C 
BRANCH  10  11
ATOM     11  C   UNL     1     105.341 105.913 228.495  1.00  0.00    -0.000 C 
BRANCH  11  12
ATOM     12  C   UNL     1     104.574 104.978 227.543  1.00  0.00    -0.000 C 
BRANCH  12  13
ATOM     13  C   UNL     1     103.240 105.571 227.067  1.00  0.00    -0.003 C 
ATOM     14  C   UNL     1     102.058 104.874 227.734  1.00  0.00     0.004 C 
ENDBRANCH  12  13
ENDBRANCH  11  12
ENDBRANCH  10  11
ENDBRANCH   9  10
ENDBRANCH   1   9
TORSDOF 10
ENDMDL
MODEL 2
REMARK VINA RESULT:    -4.576      1.120      3.569
REMARK INTER + INTRA:          -8.780
REMARK INTER:                  -7.075
REMARK INTRA:                  -1.704
REMARK UNBOUND:                -1.529
REMARK SMILES CCCCCCCCCCCC(=O)[O-]
REMARK SMILES IDX 7 1 8 2 9 3 10 4 11 5 12 6 13 7 14 8 6 9 5 10 4 11 3 12 2 13
REMARK SMILES IDX 1 14
REMARK H PARENT
REMARK Flexibility Score: inf
ROOT
ATOM      1  C   UNL     1     103.823 105.129 227.354  1.00  0.00     0.000 C 
ENDROOT
BRANCH   1   2
ATOM      2  C   UNL     1     104.571 106.229 228.123  1.00  0.00     0.000 C 
BRANCH   2   3
ATOM      3  C   UNL     1     105.352 105.639 229.304  1.00  0.00     0.000 C 
BRANCH   3   4
ATOM      4  C   UNL     1     105.075 104.135 229.451  1.00  0.00     0.006 C 
BRANCH   4   5
ATOM      5  C   UNL     1     104.329 103.806 230.751  1.00  0.00     0.053 C 
BRANCH   5   6
ATOM      6  C   UNL     1     103.830 102.394 230.763  1.00  0.00     0.041 C 
ATOM      7  O   UNL     1     104.510 101.477 230.234  1.00  0.00    -0.550 OA
ATOM      8  O   UNL     1     102.627 102.085 231.388  1.00  0.00    -0.550 OA
ENDBRANCH   5   6
ENDBRANCH   4   5
ENDBRANCH   3   4
ENDBRANCH   2   3
ENDBRANCH   1   2
BRANCH   1   9
ATOM      9  C   UNL     1     102.297 105.306 227.398  1.00  0.00     0.000 C 
BRANCH   9  10
ATOM     10  C   UNL     1     101.597 104.195 228.200  1.00  0.00    -0.000 C 
BRANCH  10  11
ATOM     11  C   UNL     1     100.965 104.707 229.507  1.00  0.00    -0.000 C 
BRANCH  11  12
ATOM     12  C   UNL     1     101.062 106.227 229.730  1.00  0.00    -0.000 C 
BRANCH  12  13
ATOM     13  C   UNL     1     101.878 106.598 230.976  1.00  0.00    -0.003 C 
ATOM     14  C   UNL     1     102.690 107.869 230.744  1.00  0.00     0.004 C 
ENDBRANCH  12  13
ENDBRANCH  11  12
ENDBRANCH  10  11
ENDBRANCH   9  10
ENDBRANCH   1   9
TORSDOF 10
ENDMDL
MODEL 3
REMARK VINA RESULT:    -4.534      2.999      4.659
REMARK INTER + INTRA:          -8.714
REMARK INTER:                  -7.448
REMARK INTRA:                  -1.266
REMARK UNBOUND:                -1.529
REMARK SMILES CCCCCCCCCCCC(=O)[O-]
REMARK SMILES IDX 7 1 8 2 9 3 10 4 11 5 12 6 13 7 14 8 6 9 5 10 4 11 3 12 2 13
REMARK SMILES IDX 1 14
REMARK H PARENT
REMARK Flexibility Score: inf
ROOT
ATOM      1  C   UNL     1     103.617 107.105 231.352  1.00  0.00     0.000 C 
ENDROOT
BRANCH   1   2
ATOM      2  C   UNL     1     104.884 107.934 231.098  1.00  0.00     0.000 C 
BRANCH   2   3
ATOM      3  C   UNL     1     105.742 107.301 229.995  1.00  0.00     0.000 C 
BRANCH   3   4
ATOM      4  C   UNL     1     104.881 106.909 228.784  1.00  0.00     0.006 C 
BRANCH   4   5
ATOM      5  C   UNL     1     104.973 105.410 228.467  1.00  0.00     0.053 C 
BRANCH   5   6
ATOM      6  C   UNL     1     104.530 105.110 227.068  1.00  0.00     0.041 C 
ATOM      7  O   UNL     1     103.446 105.577 226.633  1.00  0.00    -0.550 OA
ATOM      8  O   UNL     1     105.333 104.341 226.234  1.00  0.00    -0.550 OA
ENDBRANCH   5   6
ENDBRANCH   4   5
ENDBRANCH   3   4
ENDBRANCH   2   3
ENDBRANCH   1   2
BRANCH   1   9
ATOM      9  C   UNL     1     103.874 105.892 232.261  1.00  0.00     0.000 C 
BRANCH   9  10
ATOM     10  C   UNL     1     104.836 106.215 233.418  1.00  0.00    -0.000 C 
BRANCH  10  11
ATOM     11  C   UNL     1     106.114 105.357 233.391  1.00  0.00    -0.000 C 
BRANCH  11  12
ATOM     12  C   UNL     1     106.238 104.405 232.188  1.00  0.00    -0.000 C 
BRANCH  12  13
ATOM     13  C   UNL     1     107.647 104.388 231.581  1.00  0.00    -0.003 C 
ATOM     14  C   UNL     1     107.678 103.583 230.285  1.00  0.00     0.004 C 
ENDBRANCH  12  13
ENDBRANCH  11  12
ENDBRANCH  10  11
ENDBRANCH   9  10
ENDBRANCH   1   9
TORSDOF 10
ENDMDL
MODEL 4
REMARK VINA RESULT:    -4.522      2.233      4.371
REMARK INTER + INTRA:          -8.695
REMARK INTER:                  -7.678
REMARK INTRA:                  -1.017
REMARK UNBOUND:                -1.529
REMARK SMILES CCCCCCCCCCCC(=O)[O-]
REMARK SMILES IDX 7 1 8 2 9 3 10 4 11 5 12 6 13 7 14 8 6 9 5 10 4 11 3 12 2 13
REMARK SMILES IDX 1 14
REMARK H PARENT
REMARK Flexibility Score: inf
ROOT
ATOM      1  C   UNL     1     105.762 107.405 230.045  1.00  0.00     0.000 C 
ENDROOT
BRANCH   1   2
ATOM      2  C   UNL     1     104.938 107.397 228.748  1.00  0.00     0.000 C 
BRANCH   2   3
ATOM      3  C   UNL     1     104.953 106.008 228.098  1.00  0.00     0.000 C 
BRANCH   3   4
ATOM      4  C   UNL     1     103.825 105.127 228.655  1.00  0.00     0.006 C 
BRANCH   4   5
ATOM      5  C   UNL     1     102.621 105.054 227.706  1.00  0.00     0.053 C 
BRANCH   5   6
ATOM      6  C   UNL     1     101.361 104.698 228.433  1.00  0.00     0.041 C 
ATOM      7  O   UNL     1     101.051 103.491 228.609  1.00  0.00    -0.550 OA
ATOM      8  O   UNL     1     100.545 105.700 228.944  1.00  0.00    -0.550 OA
ENDBRANCH   5   6
ENDBRANCH   4   5
ENDBRANCH   3   4
ENDBRANCH   2   3
ENDBRANCH   1   2
BRANCH   1   9
ATOM      9  C   UNL     1     104.935 107.825 231.271  1.00  0.00     0.000 C 
BRANCH   9  10
ATOM     10  C   UNL     1     104.925 106.750 232.372  1.00  0.00    -0.000 C 
BRANCH  10  11
ATOM     11  C   UNL     1     103.593 105.983 232.447  1.00  0.00    -0.000 C 
BRANCH  11  12
ATOM     12  C   UNL     1     102.383 106.709 231.832  1.00  0.00    -0.000 C 
BRANCH  12  13
ATOM     13  C   UNL     1     101.043 106.244 232.419  1.00  0.00    -0.003 C 
ATOM     14  C   UNL     1     100.810 106.846 233.802  1.00  0.00     0.004 C 
ENDBRANCH  12  13
ENDBRANCH  11  12
ENDBRANCH  10  11
ENDBRANCH   9  10
ENDBRANCH   1   9
TORSDOF 10
ENDMDL
MODEL 5
REMARK VINA RESULT:    -4.515      1.796      2.671
REMARK INTER + INTRA:          -8.684
REMARK INTER:                  -7.582
REMARK INTRA:                  -1.102
REMARK UNBOUND:                -1.529
REMARK SMILES CCCCCCCCCCCC(=O)[O-]
REMARK SMILES IDX 7 1 8 2 9 3 10 4 11 5 12 6 13 7 14 8 6 9 5 10 4 11 3 12 2 13
REMARK SMILES IDX 1 14
REMARK H PARENT
REMARK Flexibility Score: inf
ROOT
ATOM      1  C   UNL     1     104.011 105.859 232.488  1.00  0.00     0.000 C 
ENDROOT
BRANCH   1   2
ATOM      2  C   UNL     1     105.255 106.148 233.342  1.00  0.00     0.000 C 
BRANCH   2   3
ATOM      3  C   UNL     1     106.282 105.016 233.216  1.00  0.00     0.000 C 
BRANCH   3   4
ATOM      4  C   UNL     1     106.172 104.322 231.850  1.00  0.00     0.006 C 
BRANCH   4   5
ATOM      5  C   UNL     1     106.242 102.793 231.968  1.00  0.00     0.053 C 
BRANCH   5   6
ATOM      6  C   UNL     1     105.233 102.121 231.088  1.00  0.00     0.041 C 
ATOM      7  O   UNL     1     105.215 100.867 230.988  1.00  0.00    -0.550 OA
ATOM      8  O   UNL     1     104.291 102.879 230.403  1.00  0.00    -0.550 OA
ENDBRANCH   5   6
ENDBRANCH   4   5
ENDBRANCH   3   4
ENDBRANCH   2   3
ENDBRANCH   1   2
BRANCH   1   9
ATOM      9  C   UNL     1     103.735 106.958 231.450  1.00  0.00     0.000 C 
BRANCH   9  10
ATOM     10  C   UNL     1     104.945 107.885 231.236  1.00  0.00    -0.000 C 
BRANCH  10  11
ATOM     11  C   UNL     1     105.721 107.568 229.945  1.00  0.00    -0.000 C 
BRANCH  11  12
ATOM     12  C   UNL     1     104.851 107.162 228.741  1.00  0.00    -0.000 C 
BRANCH  12  13
ATOM     13  C   UNL     1     105.100 105.718 228.283  1.00  0.00    -0.003 C 
ATOM     14  C   UNL     1     104.018 105.255 227.311  1.00  0.00     0.004 C 
ENDBRANCH  12  13
ENDBRANCH  11  12
ENDBRANCH  10  11
ENDBRANCH   9  10
ENDBRANCH   1   9
TORSDOF 10
ENDMDL
MODEL 6
REMARK VINA RESULT:    -4.511      1.563      2.464
REMARK INTER + INTRA:          -8.678
REMARK INTER:                  -6.975
REMARK INTRA:                  -1.703
REMARK UNBOUND:                -1.529
REMARK SMILES CCCCCCCCCCCC(=O)[O-]
REMARK SMILES IDX 7 1 8 2 9 3 10 4 11 5 12 6 13 7 14 8 6 9 5 10 4 11 3 12 2 13
REMARK SMILES IDX 1 14
REMARK H PARENT
REMARK Flexibility Score: inf
ROOT
ATOM      1  C   UNL     1     104.489 106.464 232.345  1.00  0.00     0.000 C 
ENDROOT
BRANCH   1   2
ATOM      2  C   UNL     1     102.967 106.272 232.436  1.00  0.00     0.000 C 
BRANCH   2   3
ATOM      3  C   UNL     1     102.256 106.964 231.267  1.00  0.00     0.000 C 
BRANCH   3   4
ATOM      4  C   UNL     1     101.654 105.933 230.300  1.00  0.00     0.006 C 
BRANCH   4   5
ATOM      5  C   UNL     1     101.722 104.505 230.858  1.00  0.00     0.053 C 
BRANCH   5   6
ATOM      6  C   UNL     1     102.063 103.508 229.793  1.00  0.00     0.041 C 
ATOM      7  O   UNL     1     103.061 102.754 229.928  1.00  0.00    -0.550 OA
ATOM      8  O   UNL     1     101.258 103.390 228.666  1.00  0.00    -0.550 OA
ENDBRANCH   5   6
ENDBRANCH   4   5
ENDBRANCH   3   4
ENDBRANCH   2   3
ENDBRANCH   1   2
BRANCH   1   9
ATOM      9  C   UNL     1     105.224 105.184 231.916  1.00  0.00     0.000 C 
BRANCH   9  10
ATOM     10  C   UNL     1     105.852 105.305 230.517  1.00  0.00    -0.000 C 
BRANCH  10  11
ATOM     11  C   UNL     1     105.732 106.722 229.927  1.00  0.00    -0.000 C 
BRANCH  11  12
ATOM     12  C   UNL     1     104.919 106.822 228.624  1.00  0.00    -0.000 C 
BRANCH  12  13
ATOM     13  C   UNL     1     104.700 105.461 227.949  1.00  0.00    -0.003 C 
ATOM     14  C   UNL     1     103.535 105.517 226.964  1.00  0.00     0.004 C 
ENDBRANCH  12  13
ENDBRANCH  11  12
ENDBRANCH  10  11
ENDBRANCH   9  10
ENDBRANCH   1   9
TORSDOF 10
ENDMDL
MODEL 7
REMARK VINA RESULT:    -4.489      1.638      3.949
REMARK INTER + INTRA:          -8.643
REMARK INTER:                  -7.251
REMARK INTRA:                  -1.391
REMARK UNBOUND:                -1.529
REMARK SMILES CCCCCCCCCCCC(=O)[O-]
REMARK SMILES IDX 7 1 8 2 9 3 10 4 11 5 12 6 13 7 14 8 6 9 5 10 4 11 3 12 2 13
REMARK SMILES IDX 1 14
REMARK H PARENT
REMARK Flexibility Score: inf
ROOT
ATOM      1  C   UNL     1     105.573 107.466 229.957  1.00  0.00     0.000 C 
ENDROOT
BRANCH   1   2
ATOM      2  C   UNL     1     105.019 106.867 228.655  1.00  0.00     0.000 C 
BRANCH   2   3
ATOM      3  C   UNL     1     105.278 105.357 228.593  1.00  0.00     0.000 C 
BRANCH   3   4
ATOM      4  C   UNL     1     105.867 104.844 229.916  1.00  0.00     0.006 C 
BRANCH   4   5
ATOM      5  C   UNL     1     105.985 103.314 229.945  1.00  0.00     0.053 C 
BRANCH   5   6
ATOM      6  C   UNL     1     105.497 102.744 231.241  1.00  0.00     0.041 C 
ATOM      7  O   UNL     1     106.255 102.713 232.245  1.00  0.00    -0.550 OA
ATOM      8  O   UNL     1     104.193 102.276 231.349  1.00  0.00    -0.550 OA
ENDBRANCH   5   6
ENDBRANCH   4   5
ENDBRANCH   3   4
ENDBRANCH   2   3
ENDBRANCH   1   2
BRANCH   1   9
ATOM      9  C   UNL     1     104.510 108.239 230.754  1.00  0.00     0.000 C 
BRANCH   9  10
ATOM     10  C   UNL     1     103.088 107.700 230.518  1.00  0.00    -0.000 C 
BRANCH  10  11
ATOM     11  C   UNL     1     102.496 107.012 231.761  1.00  0.00    -0.000 C 
BRANCH  11  12
ATOM     12  C   UNL     1     103.285 105.794 232.274  1.00  0.00    -0.000 C 
BRANCH  12  13
ATOM     13  C   UNL     1     103.964 106.047 233.628  1.00  0.00    -0.003 C 
ATOM     14  C   UNL     1     105.482 105.947 233.510  1.00  0.00     0.004 C 
ENDBRANCH  12  13
ENDBRANCH  11  12
ENDBRANCH  10  11
ENDBRANCH   9  10
ENDBRANCH   1   9
TORSDOF 10
ENDMDL
MODEL 8
REMARK VINA RESULT:    -4.487      2.313      3.292
REMARK INTER + INTRA:          -8.640
REMARK INTER:                  -6.975
REMARK INTRA:                  -1.665
REMARK UNBOUND:                -1.529
REMARK SMILES CCCCCCCCCCCC(=O)[O-]
REMARK SMILES IDX 7 1 8 2 9 3 10 4 11 5 12 6 13 7 14 8 6 9 5 10 4 11 3 12 2 13
REMARK SMILES IDX 1 14
REMARK H PARENT
REMARK Flexibility Score: inf
ROOT
ATOM      1  C   UNL     1     104.979 108.008 231.200  1.00  0.00     0.000 C 
ENDROOT
BRANCH   1   2
ATOM      2  C   UNL     1     104.892 106.851 232.207  1.00  0.00     0.000 C 
BRANCH   2   3
ATOM      3  C   UNL     1     103.509 106.190 232.165  1.00  0.00     0.000 C 
BRANCH   3   4
ATOM      4  C   UNL     1     102.470 107.127 231.530  1.00  0.00     0.006 C 
BRANCH   4   5
ATOM      5  C   UNL     1     101.584 106.404 230.506  1.00  0.00     0.053 C 
BRANCH   5   6
ATOM      6  C   UNL     1     100.513 105.594 231.170  1.00  0.00     0.041 C 
ATOM      7  O   UNL     1     100.174 104.480 230.692  1.00  0.00    -0.550 OA
ATOM      8  O   UNL     1      99.913 106.056 232.335  1.00  0.00    -0.550 OA
ENDBRANCH   5   6
ENDBRANCH   4   5
ENDBRANCH   3   4
ENDBRANCH   2   3
ENDBRANCH   1   2
BRANCH   1   9
ATOM      9  C   UNL     1     105.752 107.629 229.927  1.00  0.00     0.000 C 
BRANCH   9  10
ATOM     10  C   UNL     1     104.898 107.768 228.654  1.00  0.00    -0.000 C 
BRANCH  10  11
ATOM     11  C   UNL     1     104.410 106.413 228.110  1.00  0.00    -0.000 C 
BRANCH  11  12
ATOM     12  C   UNL     1     105.327 105.215 228.415  1.00  0.00    -0.000 C 
BRANCH  12  13
ATOM     13  C   UNL     1     104.650 104.150 229.289  1.00  0.00    -0.003 C 
ATOM     14  C   UNL     1     105.603 103.631 230.362  1.00  0.00     0.004 C 
ENDBRANCH  12  13
ENDBRANCH  11  12
ENDBRANCH  10  11
ENDBRANCH   9  10
ENDBRANCH   1   9
TORSDOF 10
ENDMDL
MODEL 9
REMARK VINA RESULT:    -4.422      2.454      4.005
REMARK INTER + INTRA:          -8.536
REMARK INTER:                  -6.885
REMARK INTRA:                  -1.651
REMARK UNBOUND:                -1.529
REMARK SMILES CCCCCCCCCCCC(=O)[O-]
REMARK SMILES IDX 7 1 8 2 9 3 10 4 11 5 12 6 13 7 14 8 6 9 5 10 4 11 3 12 2 13
REMARK SMILES IDX 1 14
REMARK H PARENT
REMARK Flexibility Score: inf
ROOT
ATOM      1  C   UNL     1     101.584 105.103 227.825  1.00  0.00     0.000 C 
ENDROOT
BRANCH   1   2
ATOM      2  C   UNL     1     101.855 104.027 228.888  1.00  0.00     0.000 C 
BRANCH   2   3
ATOM      3  C   UNL     1     101.364 104.482 230.268  1.00  0.00     0.000 C 
BRANCH   3   4
ATOM      4  C   UNL     1     101.165 106.005 230.306  1.00  0.00     0.006 C 
BRANCH   4   5
ATOM      5  C   UNL     1     101.953 106.666 231.446  1.00  0.00     0.053 C 
BRANCH   5   6
ATOM      6  C   UNL     1     101.347 106.372 232.784  1.00  0.00     0.041 C 
ATOM      7  O   UNL     1     100.143 106.657 233.010  1.00  0.00    -0.550 OA
ATOM      8  O   UNL     1     102.105 105.752 233.770  1.00  0.00    -0.550 OA
ENDBRANCH   5   6
ENDBRANCH   4   5
ENDBRANCH   3   4
ENDBRANCH   2   3
ENDBRANCH   1   2
BRANCH   1   9
ATOM      9  C   UNL     1     102.832 105.449 226.999  1.00  0.00     0.000 C 
BRANCH   9  10
ATOM     10  C   UNL     1     104.139 105.221 227.780  1.00  0.00    -0.000 C 
BRANCH  10  11
ATOM     11  C   UNL     1     104.682 106.509 228.426  1.00  0.00    -0.000 C 
BRANCH  11  12
ATOM     12  C   UNL     1     105.243 106.341 229.850  1.00  0.00    -0.000 C 
BRANCH  12  13
ATOM     13  C   UNL     1     105.641 104.893 230.170  1.00  0.00    -0.003 C 
ATOM     14  C   UNL     1     104.920 104.388 231.417  1.00  0.00     0.004 C 
ENDBRANCH  12  13
ENDBRANCH  11  12
ENDBRANCH  10  11
ENDBRANCH   9  10
ENDBRANCH   1   9
TORSDOF 10
ENDMDL
