MODEL 1
REMARK VINA RESULT:    -5.603      0.000      0.000
REMARK INTER + INTRA:         -11.499
REMARK INTER:                 -10.517
REMARK INTRA:                  -0.982
REMARK UNBOUND:                -0.982
REMARK SMILES CCCCCCCCC=CCCCCCCCC(=O)[O-]
REMARK SMILES IDX 10 1 9 2 11 3 12 4 13 5 14 6 15 7 16 8 17 9 18 10 19 11
REMARK SMILES IDX 20 12 8 13 7 14 6 15 5 16 4 17 3 18 2 19 1 20
REMARK H PARENT
REMARK Flexibility Score: inf
ROOT
ATOM      1  C   UNL     1      43.863  53.734  35.130  1.00  0.00    -0.031 C 
ATOM      2  C   UNL     1      43.388  54.142  36.316  1.00  0.00    -0.031 C 
ENDROOT
BRANCH   1   3
ATOM      3  C   UNL     1      43.551  52.367  34.585  1.00  0.00     0.027 C 
BRANCH   3   4
ATOM      4  C   UNL     1      42.509  51.652  35.456  1.00  0.00     0.004 C 
BRANCH   4   5
ATOM      5  C   UNL     1      41.067  51.909  34.989  1.00  0.00     0.000 C 
BRANCH   5   6
ATOM      6  C   UNL     1      40.999  52.530  33.585  1.00  0.00     0.000 C 
BRANCH   6   7
ATOM      7  C   UNL     1      39.938  51.828  32.725  1.00  0.00     0.000 C 
BRANCH   7   8
ATOM      8  C   UNL     1      40.463  50.546  32.049  1.00  0.00     0.006 C 
BRANCH   8   9
ATOM      9  C   UNL     1      39.571  50.033  30.907  1.00  0.00     0.053 C 
BRANCH   9  10
ATOM     10  C   UNL     1      38.650  48.935  31.344  1.00  0.00     0.041 C 
ATOM     11  O   UNL     1      38.722  48.477  32.515  1.00  0.00    -0.550 OA
ATOM     12  O   UNL     1      37.700  48.428  30.465  1.00  0.00    -0.550 OA
ENDBRANCH   9  10
ENDBRANCH   8   9
ENDBRANCH   7   8
ENDBRANCH   6   7
ENDBRANCH   5   6
ENDBRANCH   4   5
ENDBRANCH   3   4
ENDBRANCH   1   3
BRANCH   2  13
ATOM     13  C   UNL     1      43.746  55.483  36.895  1.00  0.00     0.027 C 
BRANCH  13  14
ATOM     14  C   UNL     1      44.854  55.369  37.955  1.00  0.00     0.004 C 
BRANCH  14  15
ATOM     15  C   UNL     1      46.209  55.973  37.531  1.00  0.00     0.000 C 
BRANCH  15  16
ATOM     16  C   UNL     1      46.221  57.504  37.368  1.00  0.00     0.000 C 
BRANCH  16  17
ATOM     17  C   UNL     1      46.541  58.243  38.679  1.00  0.00    -0.000 C 
BRANCH  17  18
ATOM     18  C   UNL     1      45.294  58.875  39.320  1.00  0.00    -0.000 C 
BRANCH  18  19
ATOM     19  C   UNL     1      44.730  58.035  40.476  1.00  0.00    -0.003 C 
ATOM     20  C   UNL     1      44.882  58.762  41.808  1.00  0.00     0.004 C 
ENDBRANCH  18  19
ENDBRANCH  17  18
ENDBRANCH  16  17
ENDBRANCH  15  16
ENDBRANCH  14  15
ENDBRANCH  13  14
ENDBRANCH   2  13
TORSDOF 15
ENDMDL
MODEL 2
REMARK VINA RESULT:    -5.546      8.459     13.404
REMARK INTER + INTRA:         -11.392
REMARK INTER:                 -10.216
REMARK INTRA:                  -1.176
REMARK UNBOUND:                -0.982
REMARK SMILES CCCCCCCCC=CCCCCCCCC(=O)[O-]
REMARK SMILES IDX 10 1 9 2 11 3 12 4 13 5 14 6 15 7 16 8 17 9 18 10 19 11
REMARK SMILES IDX 20 12 8 13 7 14 6 15 5 16 4 17 3 18 2 19 1 20
REMARK H PARENT
REMARK Flexibility Score: inf
ROOT
ATOM      1  C   UNL     1      45.713  43.104  30.468  1.00  0.00    -0.031 C 
ATOM      2  C   UNL     1      45.162  42.112  29.754  1.00  0.00    -0.031 C 
ENDROOT
BRANCH   1   3
ATOM      3  C   UNL     1      45.846  43.017  31.964  1.00  0.00     0.027 C 
BRANCH   3   4
ATOM      4  C   UNL     1      46.640  44.209  32.517  1.00  0.00     0.004 C 
BRANCH   4   5
ATOM      5  C   UNL     1      46.013  44.800  33.790  1.00  0.00     0.000 C 
BRANCH   5   6
ATOM      6  C   UNL     1      46.721  46.080  34.262  1.00  0.00     0.000 C 
BRANCH   6   7
ATOM      7  C   UNL     1      45.947  46.742  35.411  1.00  0.00     0.000 C 
BRANCH   7   8
ATOM      8  C   UNL     1      46.039  48.280  35.391  1.00  0.00     0.006 C 
BRANCH   8   9
ATOM      9  C   UNL     1      47.471  48.822  35.547  1.00  0.00     0.053 C 
BRANCH   9  10
ATOM     10  C   UNL     1      47.862  49.745  34.435  1.00  0.00     0.041 C 
ATOM     11  O   UNL     1      48.667  49.360  33.546  1.00  0.00    -0.550 OA
ATOM     12  O   UNL     1      47.325  51.024  34.367  1.00  0.00    -0.550 OA
ENDBRANCH   9  10
ENDBRANCH   8   9
ENDBRANCH   7   8
ENDBRANCH   6   7
ENDBRANCH   5   6
ENDBRANCH   4   5
ENDBRANCH   3   4
ENDBRANCH   1   3
BRANCH   2  13
ATOM     13  C   UNL     1      44.971  42.218  28.265  1.00  0.00     0.027 C 
BRANCH  13  14
ATOM     14  C   UNL     1      44.011  43.360  27.894  1.00  0.00     0.004 C 
BRANCH  14  15
ATOM     15  C   UNL     1      43.965  43.693  26.388  1.00  0.00     0.000 C 
BRANCH  15  16
ATOM     16  C   UNL     1      44.739  44.956  25.973  1.00  0.00     0.000 C 
BRANCH  16  17
ATOM     17  C   UNL     1      46.207  44.667  25.612  1.00  0.00    -0.000 C 
BRANCH  17  18
ATOM     18  C   UNL     1      47.171  44.974  26.770  1.00  0.00    -0.000 C 
BRANCH  18  19
ATOM     19  C   UNL     1      46.625  46.038  27.733  1.00  0.00    -0.003 C 
ATOM     20  C   UNL     1      47.708  47.043  28.111  1.00  0.00     0.004 C 
ENDBRANCH  18  19
ENDBRANCH  17  18
ENDBRANCH  16  17
ENDBRANCH  15  16
ENDBRANCH  14  15
ENDBRANCH  13  14
ENDBRANCH   2  13
TORSDOF 15
ENDMDL
MODEL 3
REMARK VINA RESULT:    -5.531      8.902     11.161
REMARK INTER + INTRA:         -11.364
REMARK INTER:                  -9.706
REMARK INTRA:                  -1.658
REMARK UNBOUND:                -0.982
REMARK SMILES CCCCCCCCC=CCCCCCCCC(=O)[O-]
REMARK SMILES IDX 10 1 9 2 11 3 12 4 13 5 14 6 15 7 16 8 17 9 18 10 19 11
REMARK SMILES IDX 20 12 8 13 7 14 6 15 5 16 4 17 3 18 2 19 1 20
REMARK H PARENT
REMARK Flexibility Score: inf
ROOT
ATOM      1  C   UNL     1      49.228  47.396  37.279  1.00  0.00    -0.031 C 
ATOM      2  C   UNL     1      50.241  48.270  37.188  1.00  0.00    -0.031 C 
ENDROOT
BRANCH   1   3
ATOM      3  C   UNL     1      48.804  46.820  38.602  1.00  0.00     0.027 C 
BRANCH   3   4
ATOM      4  C   UNL     1      47.905  45.591  38.405  1.00  0.00     0.004 C 
BRANCH   4   5
ATOM      5  C   UNL     1      46.913  45.389  39.563  1.00  0.00     0.000 C 
BRANCH   5   6
ATOM      6  C   UNL     1      47.521  44.605  40.736  1.00  0.00     0.000 C 
BRANCH   6   7
ATOM      7  C   UNL     1      46.503  43.615  41.320  1.00  0.00     0.000 C 
BRANCH   7   8
ATOM      8  C   UNL     1      46.785  42.155  40.918  1.00  0.00     0.006 C 
BRANCH   8   9
ATOM      9  C   UNL     1      45.694  41.530  40.031  1.00  0.00     0.053 C 
BRANCH   9  10
ATOM     10  C   UNL     1      44.408  41.313  40.767  1.00  0.00     0.041 C 
ATOM     11  O   UNL     1      44.360  40.511  41.736  1.00  0.00    -0.550 OA
ATOM     12  O   UNL     1      43.265  42.010  40.395  1.00  0.00    -0.550 OA
ENDBRANCH   9  10
ENDBRANCH   8   9
ENDBRANCH   7   8
ENDBRANCH   6   7
ENDBRANCH   5   6
ENDBRANCH   4   5
ENDBRANCH   3   4
ENDBRANCH   1   3
BRANCH   2  13
ATOM     13  C   UNL     1      50.710  48.804  35.862  1.00  0.00     0.027 C 
BRANCH  13  14
ATOM     14  C   UNL     1      50.272  50.261  35.646  1.00  0.00     0.004 C 
BRANCH  14  15
ATOM     15  C   UNL     1      48.907  50.422  34.945  1.00  0.00     0.000 C 
BRANCH  15  16
ATOM     16  C   UNL     1      48.614  49.392  33.839  1.00  0.00     0.000 C 
BRANCH  16  17
ATOM     17  C   UNL     1      47.511  48.393  34.228  1.00  0.00    -0.000 C 
BRANCH  17  18
ATOM     18  C   UNL     1      46.554  48.955  35.293  1.00  0.00    -0.000 C 
BRANCH  18  19
ATOM     19  C   UNL     1      45.444  47.965  35.677  1.00  0.00    -0.003 C 
ATOM     20  C   UNL     1      45.857  46.531  35.365  1.00  0.00     0.004 C 
ENDBRANCH  18  19
ENDBRANCH  17  18
ENDBRANCH  16  17
ENDBRANCH  15  16
ENDBRANCH  14  15
ENDBRANCH  13  14
ENDBRANCH   2  13
TORSDOF 15
ENDMDL
MODEL 4
REMARK VINA RESULT:    -5.486      8.481     11.759
REMARK INTER + INTRA:         -11.279
REMARK INTER:                  -9.526
REMARK INTRA:                  -1.753
REMARK UNBOUND:                -0.982
REMARK SMILES CCCCCCCCC=CCCCCCCCC(=O)[O-]
REMARK SMILES IDX 10 1 9 2 11 3 12 4 13 5 14 6 15 7 16 8 17 9 18 10 19 11
REMARK SMILES IDX 20 12 8 13 7 14 6 15 5 16 4 17 3 18 2 19 1 20
REMARK H PARENT
REMARK Flexibility Score: inf
ROOT
ATOM      1  C   UNL     1      49.852  49.726  35.782  1.00  0.00    -0.031 C 
ATOM      2  C   UNL     1      49.246  50.611  34.977  1.00  0.00    -0.031 C 
ENDROOT
BRANCH   1   3
ATOM      3  C   UNL     1      51.278  49.913  36.224  1.00  0.00     0.027 C 
BRANCH   3   4
ATOM      4  C   UNL     1      51.410  49.743  37.744  1.00  0.00     0.004 C 
BRANCH   4   5
ATOM      5  C   UNL     1      51.799  51.050  38.455  1.00  0.00     0.000 C 
BRANCH   5   6
ATOM      6  C   UNL     1      51.778  50.923  39.986  1.00  0.00     0.000 C 
BRANCH   6   7
ATOM      7  C   UNL     1      51.077  49.627  40.419  1.00  0.00     0.000 C 
BRANCH   7   8
ATOM      8  C   UNL     1      50.532  49.690  41.859  1.00  0.00     0.006 C 
BRANCH   8   9
ATOM      9  C   UNL     1      49.057  49.270  41.986  1.00  0.00     0.053 C 
BRANCH   9  10
ATOM     10  C   UNL     1      48.896  47.802  42.233  1.00  0.00     0.041 C 
ATOM     11  O   UNL     1      47.754  47.273  42.180  1.00  0.00    -0.550 OA
ATOM     12  O   UNL     1      50.006  47.012  42.504  1.00  0.00    -0.550 OA
ENDBRANCH   9  10
ENDBRANCH   8   9
ENDBRANCH   7   8
ENDBRANCH   6   7
ENDBRANCH   5   6
ENDBRANCH   4   5
ENDBRANCH   3   4
ENDBRANCH   1   3
BRANCH   2  13
ATOM     13  C   UNL     1      47.841  50.400  34.482  1.00  0.00     0.027 C 
BRANCH  13  14
ATOM     14  C   UNL     1      47.465  48.910  34.453  1.00  0.00     0.004 C 
BRANCH  14  15
ATOM     15  C   UNL     1      46.243  48.541  35.320  1.00  0.00     0.000 C 
BRANCH  15  16
ATOM     16  C   UNL     1      45.846  47.054  35.293  1.00  0.00     0.000 C 
BRANCH  16  17
ATOM     17  C   UNL     1      46.908  46.139  35.928  1.00  0.00    -0.000 C 
BRANCH  17  18
ATOM     18  C   UNL     1      47.386  46.651  37.297  1.00  0.00    -0.000 C 
BRANCH  18  19
ATOM     19  C   UNL     1      48.915  46.760  37.391  1.00  0.00    -0.003 C 
ATOM     20  C   UNL     1      49.372  46.810  38.845  1.00  0.00     0.004 C 
ENDBRANCH  18  19
ENDBRANCH  17  18
ENDBRANCH  16  17
ENDBRANCH  15  16
ENDBRANCH  14  15
ENDBRANCH  13  14
ENDBRANCH   2  13
TORSDOF 15
ENDMDL
MODEL 5
REMARK VINA RESULT:    -5.479      8.162     11.221
REMARK INTER + INTRA:         -11.266
REMARK INTER:                  -8.408
REMARK INTRA:                  -2.858
REMARK UNBOUND:                -0.982
REMARK SMILES CCCCCCCCC=CCCCCCCCC(=O)[O-]
REMARK SMILES IDX 10 1 9 2 11 3 12 4 13 5 14 6 15 7 16 8 17 9 18 10 19 11
REMARK SMILES IDX 20 12 8 13 7 14 6 15 5 16 4 17 3 18 2 19 1 20
REMARK H PARENT
REMARK Flexibility Score: inf
ROOT
ATOM      1  C   UNL     1      47.471  50.020  34.705  1.00  0.00    -0.031 C 
ATOM      2  C   UNL     1      47.171  48.961  35.472  1.00  0.00    -0.031 C 
ENDROOT
BRANCH   1   3
ATOM      3  C   UNL     1      48.822  50.678  34.766  1.00  0.00     0.027 C 
BRANCH   3   4
ATOM      4  C   UNL     1      49.919  49.654  35.094  1.00  0.00     0.004 C 
BRANCH   4   5
ATOM      5  C   UNL     1      50.851  50.125  36.223  1.00  0.00     0.000 C 
BRANCH   5   6
ATOM      6  C   UNL     1      50.945  49.115  37.377  1.00  0.00     0.000 C 
BRANCH   6   7
ATOM      7  C   UNL     1      50.215  47.810  37.024  1.00  0.00     0.000 C 
BRANCH   7   8
ATOM      8  C   UNL     1      49.677  47.068  38.263  1.00  0.00     0.006 C 
BRANCH   8   9
ATOM      9  C   UNL     1      48.195  46.673  38.158  1.00  0.00     0.053 C 
BRANCH   9  10
ATOM     10  C   UNL     1      47.931  45.287  38.661  1.00  0.00     0.041 C 
ATOM     11  O   UNL     1      48.648  44.326  38.276  1.00  0.00    -0.550 OA
ATOM     12  O   UNL     1      46.905  45.057  39.570  1.00  0.00    -0.550 OA
ENDBRANCH   9  10
ENDBRANCH   8   9
ENDBRANCH   7   8
ENDBRANCH   6   7
ENDBRANCH   5   6
ENDBRANCH   4   5
ENDBRANCH   3   4
ENDBRANCH   1   3
BRANCH   2  13
ATOM     13  C   UNL     1      45.803  48.337  35.461  1.00  0.00     0.027 C 
BRANCH  13  14
ATOM     14  C   UNL     1      45.875  46.804  35.556  1.00  0.00     0.004 C 
BRANCH  14  15
ATOM     15  C   UNL     1      46.561  46.120  34.355  1.00  0.00     0.000 C 
BRANCH  15  16
ATOM     16  C   UNL     1      47.758  45.218  34.712  1.00  0.00     0.000 C 
BRANCH  16  17
ATOM     17  C   UNL     1      49.092  45.749  34.159  1.00  0.00    -0.000 C 
BRANCH  17  18
ATOM     18  C   UNL     1      48.898  46.773  33.029  1.00  0.00    -0.000 C 
BRANCH  18  19
ATOM     19  C   UNL     1      50.212  47.135  32.321  1.00  0.00    -0.003 C 
ATOM     20  C   UNL     1      50.103  48.485  31.619  1.00  0.00     0.004 C 
ENDBRANCH  18  19
ENDBRANCH  17  18
ENDBRANCH  16  17
ENDBRANCH  15  16
ENDBRANCH  14  15
ENDBRANCH  13  14
ENDBRANCH   2  13
TORSDOF 15
ENDMDL
MODEL 6
REMARK VINA RESULT:    -5.456      7.946      9.491
REMARK INTER + INTRA:         -11.223
REMARK INTER:                  -9.756
REMARK INTRA:                  -1.467
REMARK UNBOUND:                -0.982
REMARK SMILES CCCCCCCCC=CCCCCCCCC(=O)[O-]
REMARK SMILES IDX 10 1 9 2 11 3 12 4 13 5 14 6 15 7 16 8 17 9 18 10 19 11
REMARK SMILES IDX 20 12 8 13 7 14 6 15 5 16 4 17 3 18 2 19 1 20
REMARK H PARENT
REMARK Flexibility Score: inf
ROOT
ATOM      1  C   UNL     1      52.337  50.876  38.287  1.00  0.00    -0.031 C 
ATOM      2  C   UNL     1      51.902  50.907  39.555  1.00  0.00    -0.031 C 
ENDROOT
BRANCH   1   3
ATOM      3  C   UNL     1      51.405  51.108  37.129  1.00  0.00     0.027 C 
BRANCH   3   4
ATOM      4  C   UNL     1      51.268  49.844  36.269  1.00  0.00     0.004 C 
BRANCH   4   5
ATOM      5  C   UNL     1      49.816  49.568  35.845  1.00  0.00     0.000 C 
BRANCH   5   6
ATOM      6  C   UNL     1      49.236  50.679  34.955  1.00  0.00     0.000 C 
BRANCH   6   7
ATOM      7  C   UNL     1      47.785  50.365  34.563  1.00  0.00     0.000 C 
BRANCH   7   8
ATOM      8  C   UNL     1      47.485  48.854  34.526  1.00  0.00     0.006 C 
BRANCH   8   9
ATOM      9  C   UNL     1      46.247  48.444  35.343  1.00  0.00     0.053 C 
BRANCH   9  10
ATOM     10  C   UNL     1      46.260  46.994  35.719  1.00  0.00     0.041 C 
ATOM     11  O   UNL     1      46.634  46.642  36.868  1.00  0.00    -0.550 OA
ATOM     12  O   UNL     1      45.841  46.032  34.808  1.00  0.00    -0.550 OA
ENDBRANCH   9  10
ENDBRANCH   8   9
ENDBRANCH   7   8
ENDBRANCH   6   7
ENDBRANCH   5   6
ENDBRANCH   4   5
ENDBRANCH   3   4
ENDBRANCH   1   3
BRANCH   2  13
ATOM     13  C   UNL     1      52.815  50.615  40.714  1.00  0.00     0.027 C 
BRANCH  13  14
ATOM     14  C   UNL     1      53.022  51.852  41.602  1.00  0.00     0.004 C 
BRANCH  14  15
ATOM     15  C   UNL     1      52.638  51.649  43.083  1.00  0.00     0.000 C 
BRANCH  15  16
ATOM     16  C   UNL     1      51.169  51.953  43.426  1.00  0.00     0.000 C 
BRANCH  16  17
ATOM     17  C   UNL     1      50.346  50.685  43.714  1.00  0.00    -0.000 C 
BRANCH  17  18
ATOM     18  C   UNL     1      49.569  50.193  42.481  1.00  0.00    -0.000 C 
BRANCH  18  19
ATOM     19  C   UNL     1      49.832  48.714  42.163  1.00  0.00    -0.003 C 
ATOM     20  C   UNL     1      51.019  48.184  42.961  1.00  0.00     0.004 C 
ENDBRANCH  18  19
ENDBRANCH  17  18
ENDBRANCH  16  17
ENDBRANCH  15  16
ENDBRANCH  14  15
ENDBRANCH  13  14
ENDBRANCH   2  13
TORSDOF 15
ENDMDL
MODEL 7
REMARK VINA RESULT:    -5.428      1.545      3.179
REMARK INTER + INTRA:         -11.171
REMARK INTER:                  -9.483
REMARK INTRA:                  -1.688
REMARK UNBOUND:                -0.982
REMARK SMILES CCCCCCCCC=CCCCCCCCC(=O)[O-]
REMARK SMILES IDX 10 1 9 2 11 3 12 4 13 5 14 6 15 7 16 8 17 9 18 10 19 11
REMARK SMILES IDX 20 12 8 13 7 14 6 15 5 16 4 17 3 18 2 19 1 20
REMARK H PARENT
REMARK Flexibility Score: inf
ROOT
ATOM      1  C   UNL     1      41.470  52.442  35.865  1.00  0.00    -0.031 C 
ATOM      2  C   UNL     1      42.490  51.596  35.659  1.00  0.00    -0.031 C 
ENDROOT
BRANCH   1   3
ATOM      3  C   UNL     1      40.142  51.962  36.384  1.00  0.00     0.027 C 
BRANCH   3   4
ATOM      4  C   UNL     1      39.048  52.111  35.318  1.00  0.00     0.004 C 
BRANCH   4   5
ATOM      5  C   UNL     1      39.542  52.840  34.057  1.00  0.00     0.000 C 
BRANCH   5   6
ATOM      6  C   UNL     1      39.372  52.002  32.780  1.00  0.00     0.000 C 
BRANCH   6   7
ATOM      7  C   UNL     1      40.402  50.864  32.729  1.00  0.00     0.000 C 
BRANCH   7   8
ATOM      8  C   UNL     1      40.416  50.126  31.377  1.00  0.00     0.006 C 
BRANCH   8   9
ATOM      9  C   UNL     1      39.194  50.422  30.491  1.00  0.00     0.053 C 
BRANCH   9  10
ATOM     10  C   UNL     1      38.177  49.324  30.527  1.00  0.00     0.041 C 
ATOM     11  O   UNL     1      37.740  48.902  31.630  1.00  0.00    -0.550 OA
ATOM     12  O   UNL     1      37.695  48.779  29.343  1.00  0.00    -0.550 OA
ENDBRANCH   9  10
ENDBRANCH   8   9
ENDBRANCH   7   8
ENDBRANCH   6   7
ENDBRANCH   5   6
ENDBRANCH   4   5
ENDBRANCH   3   4
ENDBRANCH   1   3
BRANCH   2  13
ATOM     13  C   UNL     1      43.800  52.060  35.083  1.00  0.00     0.027 C 
BRANCH  13  14
ATOM     14  C   UNL     1      43.596  52.949  33.846  1.00  0.00     0.004 C 
BRANCH  14  15
ATOM     15  C   UNL     1      43.980  54.429  34.051  1.00  0.00     0.000 C 
BRANCH  15  16
ATOM     16  C   UNL     1      42.978  55.258  34.875  1.00  0.00     0.000 C 
BRANCH  16  17
ATOM     17  C   UNL     1      43.653  56.085  35.983  1.00  0.00    -0.000 C 
BRANCH  17  18
ATOM     18  C   UNL     1      44.594  55.241  36.859  1.00  0.00    -0.000 C 
BRANCH  18  19
ATOM     19  C   UNL     1      44.550  55.646  38.340  1.00  0.00    -0.003 C 
ATOM     20  C   UNL     1      45.380  56.900  38.591  1.00  0.00     0.004 C 
ENDBRANCH  18  19
ENDBRANCH  17  18
ENDBRANCH  16  17
ENDBRANCH  15  16
ENDBRANCH  14  15
ENDBRANCH  13  14
ENDBRANCH   2  13
TORSDOF 15
ENDMDL
MODEL 8
REMARK VINA RESULT:    -5.428      8.593     11.436
REMARK INTER + INTRA:         -11.170
REMARK INTER:                  -9.573
REMARK INTRA:                  -1.597
REMARK UNBOUND:                -0.982
REMARK SMILES CCCCCCCCC=CCCCCCCCC(=O)[O-]
REMARK SMILES IDX 10 1 9 2 11 3 12 4 13 5 14 6 15 7 16 8 17 9 18 10 19 11
REMARK SMILES IDX 20 12 8 13 7 14 6 15 5 16 4 17 3 18 2 19 1 20
REMARK H PARENT
REMARK Flexibility Score: inf
ROOT
ATOM      1  C   UNL     1      45.464  43.558  30.212  1.00  0.00    -0.031 C 
ATOM      2  C   UNL     1      46.740  43.785  30.554  1.00  0.00    -0.031 C 
ENDROOT
BRANCH   1   3
ATOM      3  C   UNL     1      45.103  42.912  28.902  1.00  0.00     0.027 C 
BRANCH   3   4
ATOM      4  C   UNL     1      44.006  43.708  28.180  1.00  0.00     0.004 C 
BRANCH   4   5
ATOM      5  C   UNL     1      44.079  43.566  26.651  1.00  0.00     0.000 C 
BRANCH   5   6
ATOM      6  C   UNL     1      45.523  43.497  26.129  1.00  0.00     0.000 C 
BRANCH   6   7
ATOM      7  C   UNL     1      46.112  44.905  25.958  1.00  0.00     0.000 C 
BRANCH   7   8
ATOM      8  C   UNL     1      47.294  45.182  26.906  1.00  0.00     0.006 C 
BRANCH   8   9
ATOM      9  C   UNL     1      47.069  46.372  27.854  1.00  0.00     0.053 C 
BRANCH   9  10
ATOM     10  C   UNL     1      48.349  46.923  28.401  1.00  0.00     0.041 C 
ATOM     11  O   UNL     1      48.955  46.319  29.326  1.00  0.00    -0.550 OA
ATOM     12  O   UNL     1      48.885  48.095  27.881  1.00  0.00    -0.550 OA
ENDBRANCH   9  10
ENDBRANCH   8   9
ENDBRANCH   7   8
ENDBRANCH   6   7
ENDBRANCH   5   6
ENDBRANCH   4   5
ENDBRANCH   3   4
ENDBRANCH   1   3
BRANCH   2  13
ATOM     13  C   UNL     1      47.106  44.486  31.834  1.00  0.00     0.027 C 
BRANCH  13  14
ATOM     14  C   UNL     1      46.101  44.182  32.957  1.00  0.00     0.004 C 
BRANCH  14  15
ATOM     15  C   UNL     1      46.583  44.569  34.371  1.00  0.00     0.000 C 
BRANCH  15  16
ATOM     16  C   UNL     1      46.812  46.075  34.594  1.00  0.00     0.000 C 
BRANCH  16  17
ATOM     17  C   UNL     1      45.603  46.774  35.242  1.00  0.00    -0.000 C 
BRANCH  17  18
ATOM     18  C   UNL     1      45.849  48.273  35.483  1.00  0.00    -0.000 C 
BRANCH  18  19
ATOM     19  C   UNL     1      47.325  48.667  35.326  1.00  0.00    -0.003 C 
ATOM     20  C   UNL     1      47.459  50.040  34.676  1.00  0.00     0.004 C 
ENDBRANCH  18  19
ENDBRANCH  17  18
ENDBRANCH  16  17
ENDBRANCH  15  16
ENDBRANCH  14  15
ENDBRANCH  13  14
ENDBRANCH   2  13
TORSDOF 15
ENDMDL
MODEL 9
REMARK VINA RESULT:    -5.425      9.387     11.445
REMARK INTER + INTRA:         -11.164
REMARK INTER:                  -9.011
REMARK INTRA:                  -2.154
REMARK UNBOUND:                -0.982
REMARK SMILES CCCCCCCCC=CCCCCCCCC(=O)[O-]
REMARK SMILES IDX 10 1 9 2 11 3 12 4 13 5 14 6 15 7 16 8 17 9 18 10 19 11
REMARK SMILES IDX 20 12 8 13 7 14 6 15 5 16 4 17 3 18 2 19 1 20
REMARK H PARENT
REMARK Flexibility Score: inf
ROOT
ATOM      1  C   UNL     1      49.728  47.309  32.722  1.00  0.00    -0.031 C 
ATOM      2  C   UNL     1      48.480  46.852  32.900  1.00  0.00    -0.031 C 
ENDROOT
BRANCH   1   3
ATOM      3  C   UNL     1      50.015  48.481  31.822  1.00  0.00     0.027 C 
BRANCH   3   4
ATOM      4  C   UNL     1      51.143  48.152  30.833  1.00  0.00     0.004 C 
BRANCH   4   5
ATOM      5  C   UNL     1      50.712  47.141  29.757  1.00  0.00     0.000 C 
BRANCH   5   6
ATOM      6  C   UNL     1      49.366  47.500  29.109  1.00  0.00     0.000 C 
BRANCH   6   7
ATOM      7  C   UNL     1      49.563  48.476  27.940  1.00  0.00     0.000 C 
BRANCH   7   8
ATOM      8  C   UNL     1      50.840  48.191  27.126  1.00  0.00     0.006 C 
BRANCH   8   9
ATOM      9  C   UNL     1      51.723  49.429  26.896  1.00  0.00     0.053 C 
BRANCH   9  10
ATOM     10  C   UNL     1      52.949  49.430  27.756  1.00  0.00     0.041 C 
ATOM     11  O   UNL     1      53.289  50.474  28.373  1.00  0.00    -0.550 OA
ATOM     12  O   UNL     1      53.709  48.275  27.892  1.00  0.00    -0.550 OA
ENDBRANCH   9  10
ENDBRANCH   8   9
ENDBRANCH   7   8
ENDBRANCH   6   7
ENDBRANCH   5   6
ENDBRANCH   4   5
ENDBRANCH   3   4
ENDBRANCH   1   3
BRANCH   2  13
ATOM     13  C   UNL     1      48.192  45.644  33.749  1.00  0.00     0.027 C 
BRANCH  13  14
ATOM     14  C   UNL     1      47.555  46.031  35.093  1.00  0.00     0.004 C 
BRANCH  14  15
ATOM     15  C   UNL     1      46.108  46.557  34.988  1.00  0.00     0.000 C 
BRANCH  15  16
ATOM     16  C   UNL     1      45.909  48.017  35.431  1.00  0.00     0.000 C 
BRANCH  16  17
ATOM     17  C   UNL     1      47.237  48.756  35.673  1.00  0.00    -0.000 C 
BRANCH  17  18
ATOM     18  C   UNL     1      47.422  49.961  34.737  1.00  0.00    -0.000 C 
BRANCH  18  19
ATOM     19  C   UNL     1      48.853  50.520  34.761  1.00  0.00    -0.003 C 
ATOM     20  C   UNL     1      49.768  49.647  35.613  1.00  0.00     0.004 C 
ENDBRANCH  18  19
ENDBRANCH  17  18
ENDBRANCH  16  17
ENDBRANCH  15  16
ENDBRANCH  14  15
ENDBRANCH  13  14
ENDBRANCH   2  13
TORSDOF 15
ENDMDL
