MODEL 1
REMARK VINA RESULT:    -6.276      0.000      0.000
REMARK INTER + INTRA:          -7.604
REMARK INTER:                  -7.560
REMARK INTRA:                  -0.044
REMARK UNBOUND:                -0.044
REMARK SMILES O=c1c(O)c(-c2ccc(O)c(O)c2)oc2cc(O)cc(O)c12
REMARK SMILES IDX 5 1 3 2 2 3 1 4 22 5 20 6 19 7 17 8 16 9 15 10 14 11 6 12
REMARK SMILES IDX 7 13 8 14 9 15 13 16 11 17 10 18 12 20 4 22 21 24 18 26
REMARK H PARENT 10 19 12 21 4 23 21 25 18 27
REMARK Flexibility Score: inf
ROOT
ATOM      1  C   UNL     1     141.355 153.502 120.592  1.00  0.00     0.180 A 
ATOM      2  C   UNL     1     142.415 152.667 120.201  1.00  0.00     0.208 A 
ATOM      3  C   UNL     1     142.152 151.316 119.925  1.00  0.00     0.238 A 
ATOM      4  O   UNL     1     143.114 150.561 119.628  1.00  0.00    -0.285 OA
ATOM      5  C   UNL     1     140.829 150.821 120.028  1.00  0.00     0.111 A 
ATOM      6  C   UNL     1     140.441 149.479 119.733  1.00  0.00     0.134 A 
ATOM      7  C   UNL     1     139.128 149.068 119.996  1.00  0.00     0.093 A 
ATOM      8  C   UNL     1     138.175 149.963 120.480  1.00  0.00     0.123 A 
ATOM      9  C   UNL     1     138.530 151.292 120.715  1.00  0.00     0.094 A 
ATOM     10  C   UNL     1     139.839 151.724 120.497  1.00  0.00     0.146 A 
ATOM     11  O   UNL     1     140.138 152.994 120.744  1.00  0.00    -0.452 OA
ENDROOT
BRANCH   1  12
ATOM     12  C   UNL     1     141.550 154.943 120.876  1.00  0.00     0.025 A 
ATOM     13  C   UNL     1     140.818 155.896 120.152  1.00  0.00     0.016 A 
ATOM     14  C   UNL     1     141.003 157.260 120.390  1.00  0.00     0.051 A 
ATOM     15  C   UNL     1     141.932 157.693 121.341  1.00  0.00     0.157 A 
ATOM     16  C   UNL     1     142.500 155.380 121.818  1.00  0.00     0.062 A 
ATOM     17  C   UNL     1     142.688 156.750 122.056  1.00  0.00     0.158 A 
BRANCH  15  18
ATOM     18  O   UNL     1     142.092 159.062 121.558  1.00  0.00    -0.504 OA
ATOM     19  H   UNL     1     141.317 159.660 121.819  1.00  0.00     0.293 HD
ENDBRANCH  15  18
BRANCH  17  20
ATOM     20  O   UNL     1     143.626 157.175 122.996  1.00  0.00    -0.504 OA
ATOM     21  H   UNL     1     144.436 156.613 123.230  1.00  0.00     0.293 HD
ENDBRANCH  17  20
ENDBRANCH   1  12
BRANCH   2  22
ATOM     22  O   UNL     1     143.717 153.171 120.127  1.00  0.00    -0.502 OA
ATOM     23  H   UNL     1     144.425 152.953 120.817  1.00  0.00     0.293 HD
ENDBRANCH   2  22
BRANCH   6  24
ATOM     24  O   UNL     1     141.291 148.529 119.161  1.00  0.00    -0.507 OA
ATOM     25  H   UNL     1     141.164 148.119 118.249  1.00  0.00     0.293 HD
ENDBRANCH   6  24
BRANCH   8  26
ATOM     26  O   UNL     1     136.875 149.522 120.714  1.00  0.00    -0.508 OA
ATOM     27  H   UNL     1     136.358 148.998 120.017  1.00  0.00     0.293 HD
ENDBRANCH   8  26
TORSDOF 6
ENDMDL
MODEL 2
REMARK VINA RESULT:    -5.861      1.471      6.817
REMARK INTER + INTRA:          -7.105
REMARK INTER:                  -7.162
REMARK INTRA:                   0.057
REMARK UNBOUND:                -0.044
REMARK SMILES O=c1c(O)c(-c2ccc(O)c(O)c2)oc2cc(O)cc(O)c12
REMARK SMILES IDX 5 1 3 2 2 3 1 4 22 5 20 6 19 7 17 8 16 9 15 10 14 11 6 12
REMARK SMILES IDX 7 13 8 14 9 15 13 16 11 17 10 18 12 20 4 22 21 24 18 26
REMARK H PARENT 10 19 12 21 4 23 21 25 18 27
REMARK Flexibility Score: inf
ROOT
ATOM      1  C   UNL     1     140.944 153.653 120.496  1.00  0.00     0.180 A 
ATOM      2  C   UNL     1     142.019 154.043 121.313  1.00  0.00     0.208 A 
ATOM      3  C   UNL     1     142.240 155.411 121.541  1.00  0.00     0.238 A 
ATOM      4  O   UNL     1     143.235 155.756 122.230  1.00  0.00    -0.285 OA
ATOM      5  C   UNL     1     141.374 156.370 120.963  1.00  0.00     0.111 A 
ATOM      6  C   UNL     1     141.479 157.780 121.160  1.00  0.00     0.134 A 
ATOM      7  C   UNL     1     140.648 158.642 120.433  1.00  0.00     0.093 A 
ATOM      8  C   UNL     1     139.674 158.145 119.569  1.00  0.00     0.123 A 
ATOM      9  C   UNL     1     139.522 156.766 119.415  1.00  0.00     0.094 A 
ATOM     10  C   UNL     1     140.360 155.882 120.098  1.00  0.00     0.146 A 
ATOM     11  O   UNL     1     140.190 154.578 119.915  1.00  0.00    -0.452 OA
ENDROOT
BRANCH   1  12
ATOM     12  C   UNL     1     140.634 152.230 120.229  1.00  0.00     0.025 A 
ATOM     13  C   UNL     1     139.323 151.762 120.411  1.00  0.00     0.016 A 
ATOM     14  C   UNL     1     139.014 150.418 120.185  1.00  0.00     0.051 A 
ATOM     15  C   UNL     1     140.010 149.519 119.791  1.00  0.00     0.157 A 
ATOM     16  C   UNL     1     141.639 151.320 119.853  1.00  0.00     0.062 A 
ATOM     17  C   UNL     1     141.331 149.970 119.628  1.00  0.00     0.158 A 
BRANCH  15  18
ATOM     18  O   UNL     1     139.670 148.185 119.570  1.00  0.00    -0.504 OA
ATOM     19  H   UNL     1     140.364 147.447 119.562  1.00  0.00     0.293 HD
ENDBRANCH  15  18
BRANCH  17  20
ATOM     20  O   UNL     1     142.331 149.076 119.248  1.00  0.00    -0.504 OA
ATOM     21  H   UNL     1     142.817 149.167 118.364  1.00  0.00     0.293 HD
ENDBRANCH  17  20
ENDBRANCH   1  12
BRANCH   2  22
ATOM     22  O   UNL     1     142.875 153.081 121.857  1.00  0.00    -0.502 OA
ATOM     23  H   UNL     1     142.675 152.603 122.726  1.00  0.00     0.293 HD
ENDBRANCH   2  22
BRANCH   6  24
ATOM     24  O   UNL     1     142.357 158.377 122.069  1.00  0.00    -0.507 OA
ATOM     25  H   UNL     1     143.227 158.822 121.820  1.00  0.00     0.293 HD
ENDBRANCH   6  24
BRANCH   8  26
ATOM     26  O   UNL     1     138.854 159.032 118.875  1.00  0.00    -0.508 OA
ATOM     27  H   UNL     1     139.125 159.996 118.721  1.00  0.00     0.293 HD
ENDBRANCH   8  26
TORSDOF 6
ENDMDL
MODEL 3
REMARK VINA RESULT:    -5.856      3.388      9.055
REMARK INTER + INTRA:          -7.098
REMARK INTER:                  -6.901
REMARK INTRA:                  -0.197
REMARK UNBOUND:                -0.044
REMARK SMILES O=c1c(O)c(-c2ccc(O)c(O)c2)oc2cc(O)cc(O)c12
REMARK SMILES IDX 5 1 3 2 2 3 1 4 22 5 20 6 19 7 17 8 16 9 15 10 14 11 6 12
REMARK SMILES IDX 7 13 8 14 9 15 13 16 11 17 10 18 12 20 4 22 21 24 18 26
REMARK H PARENT 10 19 12 21 4 23 21 25 18 27
REMARK Flexibility Score: inf
ROOT
ATOM      1  C   UNL     1     138.811 147.623 120.529  1.00  0.00     0.180 A 
ATOM      2  C   UNL     1     137.996 148.471 121.299  1.00  0.00     0.208 A 
ATOM      3  C   UNL     1     138.335 149.829 121.404  1.00  0.00     0.238 A 
ATOM      4  O   UNL     1     137.632 150.573 122.137  1.00  0.00    -0.285 OA
ATOM      5  C   UNL     1     139.474 150.326 120.725  1.00  0.00     0.111 A 
ATOM      6  C   UNL     1     139.888 151.693 120.729  1.00  0.00     0.134 A 
ATOM      7  C   UNL     1     141.104 152.046 120.132  1.00  0.00     0.093 A 
ATOM      8  C   UNL     1     141.887 151.098 119.475  1.00  0.00     0.123 A 
ATOM      9  C   UNL     1     141.462 149.770 119.415  1.00  0.00     0.094 A 
ATOM     10  C   UNL     1     140.272 149.379 120.032  1.00  0.00     0.146 A 
ATOM     11  O   UNL     1     139.909 148.104 119.960  1.00  0.00    -0.452 OA
ENDROOT
BRANCH   1  12
ATOM     12  C   UNL     1     138.505 146.185 120.352  1.00  0.00     0.025 A 
ATOM     13  C   UNL     1     138.059 145.721 119.105  1.00  0.00     0.016 A 
ATOM     14  C   UNL     1     137.744 144.372 118.922  1.00  0.00     0.051 A 
ATOM     15  C   UNL     1     137.856 143.470 119.984  1.00  0.00     0.157 A 
ATOM     16  C   UNL     1     138.596 145.280 121.426  1.00  0.00     0.062 A 
ATOM     17  C   UNL     1     138.279 143.925 121.244  1.00  0.00     0.158 A 
BRANCH  15  18
ATOM     18  O   UNL     1     137.538 142.129 119.771  1.00  0.00    -0.504 OA
ATOM     19  H   UNL     1     136.738 141.847 119.216  1.00  0.00     0.293 HD
ENDBRANCH  15  18
BRANCH  17  20
ATOM     20  O   UNL     1     138.379 143.033 122.312  1.00  0.00    -0.504 OA
ATOM     21  H   UNL     1     138.456 142.034 122.163  1.00  0.00     0.293 HD
ENDBRANCH  17  20
ENDBRANCH   1  12
BRANCH   2  22
ATOM     22  O   UNL     1     136.888 147.956 121.978  1.00  0.00    -0.502 OA
ATOM     23  H   UNL     1     136.955 147.557 122.905  1.00  0.00     0.293 HD
ENDBRANCH   2  22
BRANCH   6  24
ATOM     24  O   UNL     1     139.134 152.734 121.278  1.00  0.00    -0.507 OA
ATOM     25  H   UNL     1     138.231 153.029 120.941  1.00  0.00     0.293 HD
ENDBRANCH   6  24
BRANCH   8  26
ATOM     26  O   UNL     1     143.083 151.490 118.878  1.00  0.00    -0.508 OA
ATOM     27  H   UNL     1     143.937 151.589 119.415  1.00  0.00     0.293 HD
ENDBRANCH   8  26
TORSDOF 6
ENDMDL
MODEL 4
REMARK VINA RESULT:    -5.761      2.228      7.721
REMARK INTER + INTRA:          -6.985
REMARK INTER:                  -7.040
REMARK INTRA:                   0.055
REMARK UNBOUND:                -0.044
REMARK SMILES O=c1c(O)c(-c2ccc(O)c(O)c2)oc2cc(O)cc(O)c12
REMARK SMILES IDX 5 1 3 2 2 3 1 4 22 5 20 6 19 7 17 8 16 9 15 10 14 11 6 12
REMARK SMILES IDX 7 13 8 14 9 15 13 16 11 17 10 18 12 20 4 22 21 24 18 26
REMARK H PARENT 10 19 12 21 4 23 21 25 18 27
REMARK Flexibility Score: inf
ROOT
ATOM      1  C   UNL     1     139.269 150.463 120.216  1.00  0.00     0.180 A 
ATOM      2  C   UNL     1     138.296 151.468 120.078  1.00  0.00     0.208 A 
ATOM      3  C   UNL     1     138.708 152.806 119.973  1.00  0.00     0.238 A 
ATOM      4  O   UNL     1     137.831 153.706 119.904  1.00  0.00    -0.285 OA
ATOM      5  C   UNL     1     140.088 153.121 119.991  1.00  0.00     0.111 A 
ATOM      6  C   UNL     1     140.621 154.438 119.851  1.00  0.00     0.134 A 
ATOM      7  C   UNL     1     141.996 154.647 120.015  1.00  0.00     0.093 A 
ATOM      8  C   UNL     1     142.864 153.582 120.248  1.00  0.00     0.123 A 
ATOM      9  C   UNL     1     142.361 152.283 120.327  1.00  0.00     0.094 A 
ATOM     10  C   UNL     1     140.991 152.046 120.204  1.00  0.00     0.146 A 
ATOM     11  O   UNL     1     140.551 150.796 120.296  1.00  0.00    -0.452 OA
ENDROOT
BRANCH   1  12
ATOM     12  C   UNL     1     138.913 149.029 120.309  1.00  0.00     0.025 A 
ATOM     13  C   UNL     1     137.935 148.617 121.227  1.00  0.00     0.016 A 
ATOM     14  C   UNL     1     137.599 147.266 121.346  1.00  0.00     0.051 A 
ATOM     15  C   UNL     1     138.245 146.305 120.562  1.00  0.00     0.157 A 
ATOM     16  C   UNL     1     139.577 148.059 119.536  1.00  0.00     0.062 A 
ATOM     17  C   UNL     1     139.243 146.701 119.655  1.00  0.00     0.158 A 
BRANCH  15  18
ATOM     18  O   UNL     1     137.887 144.965 120.701  1.00  0.00    -0.504 OA
ATOM     19  H   UNL     1     138.470 144.300 121.195  1.00  0.00     0.293 HD
ENDBRANCH  15  18
BRANCH  17  20
ATOM     20  O   UNL     1     139.901 145.747 118.881  1.00  0.00    -0.504 OA
ATOM     21  H   UNL     1     140.243 144.882 119.282  1.00  0.00     0.293 HD
ENDBRANCH  17  20
ENDBRANCH   1  12
BRANCH   2  22
ATOM     22  O   UNL     1     136.938 151.137 120.085  1.00  0.00    -0.502 OA
ATOM     23  H   UNL     1     136.593 150.244 119.755  1.00  0.00     0.293 HD
ENDBRANCH   2  22
BRANCH   6  24
ATOM     24  O   UNL     1     139.852 155.560 119.527  1.00  0.00    -0.507 OA
ATOM     25  H   UNL     1     138.866 155.654 119.715  1.00  0.00     0.293 HD
ENDBRANCH   6  24
BRANCH   8  26
ATOM     26  O   UNL     1     144.228 153.826 120.390  1.00  0.00    -0.508 OA
ATOM     27  H   UNL     1     144.599 154.769 120.423  1.00  0.00     0.293 HD
ENDBRANCH   8  26
TORSDOF 6
ENDMDL
MODEL 5
REMARK VINA RESULT:    -5.640      1.816      7.051
REMARK INTER + INTRA:          -6.838
REMARK INTER:                  -7.313
REMARK INTRA:                   0.475
REMARK UNBOUND:                -0.044
REMARK SMILES O=c1c(O)c(-c2ccc(O)c(O)c2)oc2cc(O)cc(O)c12
REMARK SMILES IDX 5 1 3 2 2 3 1 4 22 5 20 6 19 7 17 8 16 9 15 10 14 11 6 12
REMARK SMILES IDX 7 13 8 14 9 15 13 16 11 17 10 18 12 20 4 22 21 24 18 26
REMARK H PARENT 10 19 12 21 4 23 21 25 18 27
REMARK Flexibility Score: inf
ROOT
ATOM      1  C   UNL     1     140.267 150.731 120.222  1.00  0.00     0.180 A 
ATOM      2  C   UNL     1     141.604 150.828 119.800  1.00  0.00     0.208 A 
ATOM      3  C   UNL     1     142.295 152.033 119.999  1.00  0.00     0.238 A 
ATOM      4  O   UNL     1     143.475 152.131 119.571  1.00  0.00    -0.285 OA
ATOM      5  C   UNL     1     141.647 153.121 120.632  1.00  0.00     0.111 A 
ATOM      6  C   UNL     1     142.265 154.376 120.922  1.00  0.00     0.134 A 
ATOM      7  C   UNL     1     141.489 155.424 121.432  1.00  0.00     0.093 A 
ATOM      8  C   UNL     1     140.138 155.246 121.724  1.00  0.00     0.123 A 
ATOM      9  C   UNL     1     139.539 154.005 121.501  1.00  0.00     0.094 A 
ATOM     10  C   UNL     1     140.276 152.951 120.959  1.00  0.00     0.146 A 
ATOM     11  O   UNL     1     139.666 151.789 120.752  1.00  0.00    -0.452 OA
ENDROOT
BRANCH   1  12
ATOM     12  C   UNL     1     139.480 149.486 120.068  1.00  0.00     0.025 A 
ATOM     13  C   UNL     1     138.152 149.447 120.520  1.00  0.00     0.016 A 
ATOM     14  C   UNL     1     137.399 148.276 120.403  1.00  0.00     0.051 A 
ATOM     15  C   UNL     1     137.964 147.123 119.850  1.00  0.00     0.157 A 
ATOM     16  C   UNL     1     140.054 148.320 119.531  1.00  0.00     0.062 A 
ATOM     17  C   UNL     1     139.300 147.142 119.415  1.00  0.00     0.158 A 
BRANCH  15  18
ATOM     18  O   UNL     1     137.187 145.970 119.744  1.00  0.00    -0.504 OA
ATOM     19  H   UNL     1     137.588 145.042 119.810  1.00  0.00     0.293 HD
ENDBRANCH  15  18
BRANCH  17  20
ATOM     20  O   UNL     1     139.874 145.992 118.875  1.00  0.00    -0.504 OA
ATOM     21  H   UNL     1     139.635 145.665 117.947  1.00  0.00     0.293 HD
ENDBRANCH  17  20
ENDBRANCH   1  12
BRANCH   2  22
ATOM     22  O   UNL     1     142.218 149.749 119.158  1.00  0.00    -0.502 OA
ATOM     23  H   UNL     1     143.152 149.437 119.391  1.00  0.00     0.293 HD
ENDBRANCH   2  22
BRANCH   6  24
ATOM     24  O   UNL     1     143.628 154.631 120.752  1.00  0.00    -0.507 OA
ATOM     25  H   UNL     1     144.186 154.290 119.985  1.00  0.00     0.293 HD
ENDBRANCH   6  24
BRANCH   8  26
ATOM     26  O   UNL     1     139.402 156.307 122.246  1.00  0.00    -0.508 OA
ATOM     27  H   UNL     1     139.819 156.985 122.873  1.00  0.00     0.293 HD
ENDBRANCH   8  26
TORSDOF 6
ENDMDL
MODEL 6
REMARK VINA RESULT:    -5.535      1.489      1.564
REMARK INTER + INTRA:          -6.712
REMARK INTER:                  -6.587
REMARK INTRA:                  -0.125
REMARK UNBOUND:                -0.044
REMARK SMILES O=c1c(O)c(-c2ccc(O)c(O)c2)oc2cc(O)cc(O)c12
REMARK SMILES IDX 5 1 3 2 2 3 1 4 22 5 20 6 19 7 17 8 16 9 15 10 14 11 6 12
REMARK SMILES IDX 7 13 8 14 9 15 13 16 11 17 10 18 12 20 4 22 21 24 18 26
REMARK H PARENT 10 19 12 21 4 23 21 25 18 27
REMARK Flexibility Score: inf
ROOT
ATOM      1  C   UNL     1     140.578 153.293 120.290  1.00  0.00     0.180 A 
ATOM      2  C   UNL     1     141.817 152.631 120.244  1.00  0.00     0.208 A 
ATOM      3  C   UNL     1     141.842 151.249 120.002  1.00  0.00     0.238 A 
ATOM      4  O   UNL     1     142.951 150.652 120.015  1.00  0.00    -0.285 OA
ATOM      5  C   UNL     1     140.630 150.548 119.793  1.00  0.00     0.111 A 
ATOM      6  C   UNL     1     140.540 149.153 119.500  1.00  0.00     0.134 A 
ATOM      7  C   UNL     1     139.282 148.540 119.443  1.00  0.00     0.093 A 
ATOM      8  C   UNL     1     138.112 149.281 119.602  1.00  0.00     0.123 A 
ATOM      9  C   UNL     1     138.187 150.656 119.830  1.00  0.00     0.094 A 
ATOM     10  C   UNL     1     139.427 151.289 119.928  1.00  0.00     0.146 A 
ATOM     11  O   UNL     1     139.456 152.597 120.156  1.00  0.00    -0.452 OA
ENDROOT
BRANCH   1  12
ATOM     12  C   UNL     1     140.472 154.753 120.516  1.00  0.00     0.025 A 
ATOM     13  C   UNL     1     141.069 155.638 119.605  1.00  0.00     0.016 A 
ATOM     14  C   UNL     1     140.999 157.018 119.812  1.00  0.00     0.051 A 
ATOM     15  C   UNL     1     140.348 157.534 120.936  1.00  0.00     0.157 A 
ATOM     16  C   UNL     1     139.835 155.271 121.658  1.00  0.00     0.062 A 
ATOM     17  C   UNL     1     139.767 156.657 121.868  1.00  0.00     0.158 A 
BRANCH  15  18
ATOM     18  O   UNL     1     140.292 158.916 121.114  1.00  0.00    -0.504 OA
ATOM     19  H   UNL     1     140.800 159.557 120.514  1.00  0.00     0.293 HD
ENDBRANCH  15  18
BRANCH  17  20
ATOM     20  O   UNL     1     139.128 157.164 122.999  1.00  0.00    -0.504 OA
ATOM     21  H   UNL     1     138.208 157.587 122.945  1.00  0.00     0.293 HD
ENDBRANCH  17  20
ENDBRANCH   1  12
BRANCH   2  22
ATOM     22  O   UNL     1     143.001 153.338 120.474  1.00  0.00    -0.502 OA
ATOM     23  H   UNL     1     143.915 152.914 120.379  1.00  0.00     0.293 HD
ENDBRANCH   2  22
BRANCH   6  24
ATOM     24  O   UNL     1     141.645 148.340 119.234  1.00  0.00    -0.507 OA
ATOM     25  H   UNL     1     142.490 148.649 118.779  1.00  0.00     0.293 HD
ENDBRANCH   6  24
BRANCH   8  26
ATOM     26  O   UNL     1     136.877 148.640 119.523  1.00  0.00    -0.508 OA
ATOM     27  H   UNL     1     136.101 148.908 120.116  1.00  0.00     0.293 HD
ENDBRANCH   8  26
TORSDOF 6
ENDMDL
MODEL 7
REMARK VINA RESULT:    -5.384      2.403      6.592
REMARK INTER + INTRA:          -6.530
REMARK INTER:                  -6.444
REMARK INTRA:                  -0.086
REMARK UNBOUND:                -0.044
REMARK SMILES O=c1c(O)c(-c2ccc(O)c(O)c2)oc2cc(O)cc(O)c12
REMARK SMILES IDX 5 1 3 2 2 3 1 4 22 5 20 6 19 7 17 8 16 9 15 10 14 11 6 12
REMARK SMILES IDX 7 13 8 14 9 15 13 16 11 17 10 18 12 20 4 22 21 24 18 26
REMARK H PARENT 10 19 12 21 4 23 21 25 18 27
REMARK Flexibility Score: inf
ROOT
ATOM      1  C   UNL     1     140.404 154.064 120.576  1.00  0.00     0.180 A 
ATOM      2  C   UNL     1     141.065 155.135 119.952  1.00  0.00     0.208 A 
ATOM      3  C   UNL     1     140.800 156.444 120.384  1.00  0.00     0.238 A 
ATOM      4  O   UNL     1     141.355 157.403 119.786  1.00  0.00    -0.285 OA
ATOM      5  C   UNL     1     139.889 156.665 121.446  1.00  0.00     0.111 A 
ATOM      6  C   UNL     1     139.576 157.946 121.992  1.00  0.00     0.134 A 
ATOM      7  C   UNL     1     138.562 158.057 122.952  1.00  0.00     0.093 A 
ATOM      8  C   UNL     1     137.898 156.930 123.433  1.00  0.00     0.123 A 
ATOM      9  C   UNL     1     138.238 155.666 122.949  1.00  0.00     0.094 A 
ATOM     10  C   UNL     1     139.219 155.526 121.965  1.00  0.00     0.146 A 
ATOM     11  O   UNL     1     139.506 154.307 121.523  1.00  0.00    -0.452 OA
ENDROOT
BRANCH   1  12
ATOM     12  C   UNL     1     140.649 152.655 120.192  1.00  0.00     0.025 A 
ATOM     13  C   UNL     1     139.562 151.828 119.868  1.00  0.00     0.016 A 
ATOM     14  C   UNL     1     139.770 150.490 119.523  1.00  0.00     0.051 A 
ATOM     15  C   UNL     1     141.061 149.954 119.513  1.00  0.00     0.157 A 
ATOM     16  C   UNL     1     141.946 152.109 120.201  1.00  0.00     0.062 A 
ATOM     17  C   UNL     1     142.155 150.765 119.858  1.00  0.00     0.158 A 
BRANCH  15  18
ATOM     18  O   UNL     1     141.237 148.615 119.162  1.00  0.00    -0.504 OA
ATOM     19  H   UNL     1     141.129 147.864 119.833  1.00  0.00     0.293 HD
ENDBRANCH  15  18
BRANCH  17  20
ATOM     20  O   UNL     1     143.444 150.233 119.863  1.00  0.00    -0.504 OA
ATOM     21  H   UNL     1     143.964 150.109 120.724  1.00  0.00     0.293 HD
ENDBRANCH  17  20
ENDBRANCH   1  12
BRANCH   2  22
ATOM     22  O   UNL     1     141.944 154.897 118.892  1.00  0.00    -0.502 OA
ATOM     23  H   UNL     1     142.567 154.100 118.869  1.00  0.00     0.293 HD
ENDBRANCH   2  22
BRANCH   6  24
ATOM     24  O   UNL     1     140.243 159.125 121.647  1.00  0.00    -0.507 OA
ATOM     25  H   UNL     1     139.883 159.827 121.020  1.00  0.00     0.293 HD
ENDBRANCH   6  24
BRANCH   8  26
ATOM     26  O   UNL     1     136.906 157.078 124.400  1.00  0.00    -0.508 OA
ATOM     27  H   UNL     1     135.954 156.774 124.234  1.00  0.00     0.293 HD
ENDBRANCH   8  26
TORSDOF 6
ENDMDL
MODEL 8
REMARK VINA RESULT:    -5.377      1.576      7.241
REMARK INTER + INTRA:          -6.522
REMARK INTER:                  -6.410
REMARK INTRA:                  -0.112
REMARK UNBOUND:                -0.044
REMARK SMILES O=c1c(O)c(-c2ccc(O)c(O)c2)oc2cc(O)cc(O)c12
REMARK SMILES IDX 5 1 3 2 2 3 1 4 22 5 20 6 19 7 17 8 16 9 15 10 14 11 6 12
REMARK SMILES IDX 7 13 8 14 9 15 13 16 11 17 10 18 12 20 4 22 21 24 18 26
REMARK H PARENT 10 19 12 21 4 23 21 25 18 27
REMARK Flexibility Score: inf
ROOT
ATOM      1  C   UNL     1     140.192 152.609 120.026  1.00  0.00     0.180 A 
ATOM      2  C   UNL     1     139.164 153.419 119.516  1.00  0.00     0.208 A 
ATOM      3  C   UNL     1     139.247 154.810 119.683  1.00  0.00     0.238 A 
ATOM      4  O   UNL     1     138.297 155.526 119.272  1.00  0.00    -0.285 OA
ATOM      5  C   UNL     1     140.365 155.375 120.343  1.00  0.00     0.111 A 
ATOM      6  C   UNL     1     140.572 156.775 120.532  1.00  0.00     0.134 A 
ATOM      7  C   UNL     1     141.648 157.213 121.314  1.00  0.00     0.093 A 
ATOM      8  C   UNL     1     142.559 156.310 121.858  1.00  0.00     0.123 A 
ATOM      9  C   UNL     1     142.399 154.942 121.629  1.00  0.00     0.094 A 
ATOM     10  C   UNL     1     141.316 154.471 120.884  1.00  0.00     0.146 A 
ATOM     11  O   UNL     1     141.194 153.162 120.698  1.00  0.00    -0.452 OA
ENDROOT
BRANCH   1  12
ATOM     12  C   UNL     1     140.187 151.136 119.869  1.00  0.00     0.025 A 
ATOM     13  C   UNL     1     141.200 150.517 119.120  1.00  0.00     0.016 A 
ATOM     14  C   UNL     1     141.201 149.131 118.941  1.00  0.00     0.051 A 
ATOM     15  C   UNL     1     140.185 148.346 119.493  1.00  0.00     0.157 A 
ATOM     16  C   UNL     1     139.153 150.347 120.406  1.00  0.00     0.062 A 
ATOM     17  C   UNL     1     139.152 148.955 120.225  1.00  0.00     0.158 A 
BRANCH  15  18
ATOM     18  O   UNL     1     140.215 146.965 119.299  1.00  0.00    -0.504 OA
ATOM     19  H   UNL     1     140.829 146.529 118.621  1.00  0.00     0.293 HD
ENDBRANCH  15  18
BRANCH  17  20
ATOM     20  O   UNL     1     138.128 148.179 120.766  1.00  0.00    -0.504 OA
ATOM     21  H   UNL     1     138.152 147.167 120.728  1.00  0.00     0.293 HD
ENDBRANCH  17  20
ENDBRANCH   1  12
BRANCH   2  22
ATOM     22  O   UNL     1     138.058 152.839 118.887  1.00  0.00    -0.502 OA
ATOM     23  H   UNL     1     137.261 153.381 118.579  1.00  0.00     0.293 HD
ENDBRANCH   2  22
BRANCH   6  24
ATOM     24  O   UNL     1     139.773 157.767 119.956  1.00  0.00    -0.507 OA
ATOM     25  H   UNL     1     138.811 157.642 119.683  1.00  0.00     0.293 HD
ENDBRANCH   6  24
BRANCH   8  26
ATOM     26  O   UNL     1     143.627 156.783 122.617  1.00  0.00    -0.508 OA
ATOM     27  H   UNL     1     144.440 156.207 122.807  1.00  0.00     0.293 HD
ENDBRANCH   8  26
TORSDOF 6
ENDMDL
MODEL 9
REMARK VINA RESULT:    -5.197      1.691      3.175
REMARK INTER + INTRA:          -6.305
REMARK INTER:                  -6.004
REMARK INTRA:                  -0.301
REMARK UNBOUND:                -0.044
REMARK SMILES O=c1c(O)c(-c2ccc(O)c(O)c2)oc2cc(O)cc(O)c12
REMARK SMILES IDX 5 1 3 2 2 3 1 4 22 5 20 6 19 7 17 8 16 9 15 10 14 11 6 12
REMARK SMILES IDX 7 13 8 14 9 15 13 16 11 17 10 18 12 20 4 22 21 24 18 26
REMARK H PARENT 10 19 12 21 4 23 21 25 18 27
REMARK Flexibility Score: inf
ROOT
ATOM      1  C   UNL     1     139.518 153.280 121.071  1.00  0.00     0.180 A 
ATOM      2  C   UNL     1     138.395 153.025 121.875  1.00  0.00     0.208 A 
ATOM      3  C   UNL     1     137.913 151.711 121.976  1.00  0.00     0.238 A 
ATOM      4  O   UNL     1     136.875 151.497 122.655  1.00  0.00    -0.285 OA
ATOM      5  C   UNL     1     138.571 150.665 121.285  1.00  0.00     0.111 A 
ATOM      6  C   UNL     1     138.194 149.289 121.347  1.00  0.00     0.134 A 
ATOM      7  C   UNL     1     138.835 148.360 120.518  1.00  0.00     0.093 A 
ATOM      8  C   UNL     1     139.880 148.743 119.680  1.00  0.00     0.123 A 
ATOM      9  C   UNL     1     140.297 150.075 119.655  1.00  0.00     0.094 A 
ATOM     10  C   UNL     1     139.653 151.032 120.443  1.00  0.00     0.146 A 
ATOM     11  O   UNL     1     140.073 152.290 120.382  1.00  0.00    -0.452 OA
ENDROOT
BRANCH   1  12
ATOM     12  C   UNL     1     140.098 154.636 120.934  1.00  0.00     0.025 A 
ATOM     13  C   UNL     1     139.543 155.535 120.010  1.00  0.00     0.016 A 
ATOM     14  C   UNL     1     140.088 156.812 119.850  1.00  0.00     0.051 A 
ATOM     15  C   UNL     1     141.204 157.204 120.596  1.00  0.00     0.157 A 
ATOM     16  C   UNL     1     141.233 155.024 121.669  1.00  0.00     0.062 A 
ATOM     17  C   UNL     1     141.783 156.305 121.508  1.00  0.00     0.158 A 
BRANCH  15  18
ATOM     18  O   UNL     1     141.724 158.485 120.417  1.00  0.00    -0.504 OA
ATOM     19  H   UNL     1     142.423 158.688 119.711  1.00  0.00     0.293 HD
ENDBRANCH  15  18
BRANCH  17  20
ATOM     20  O   UNL     1     142.904 156.684 122.245  1.00  0.00    -0.504 OA
ATOM     21  H   UNL     1     143.181 156.187 123.084  1.00  0.00     0.293 HD
ENDBRANCH  17  20
ENDBRANCH   1  12
BRANCH   2  22
ATOM     22  O   UNL     1     137.747 154.076 122.533  1.00  0.00    -0.502 OA
ATOM     23  H   UNL     1     137.385 154.884 122.042  1.00  0.00     0.293 HD
ENDBRANCH   2  22
BRANCH   6  24
ATOM     24  O   UNL     1     137.223 148.785 122.218  1.00  0.00    -0.507 OA
ATOM     25  H   UNL     1     137.388 148.071 122.910  1.00  0.00     0.293 HD
ENDBRANCH   6  24
BRANCH   8  26
ATOM     26  O   UNL     1     140.506 147.788 118.881  1.00  0.00    -0.508 OA
ATOM     27  H   UNL     1     140.021 147.339 118.112  1.00  0.00     0.293 HD
ENDBRANCH   8  26
TORSDOF 6
ENDMDL
