MODEL 1
REMARK VINA RESULT:    -4.253      0.000      0.000
REMARK INTER + INTRA:          -5.299
REMARK INTER:                  -4.998
REMARK INTRA:                  -0.301
REMARK UNBOUND:                -0.301
REMARK SMILES O=c1cc(-c2ccc(O)c(O)c2)oc2cc(O)cc(O)c12
REMARK SMILES IDX 4 1 3 2 2 3 1 4 21 5 19 6 18 7 16 8 15 9 14 10 13 11 5 12
REMARK SMILES IDX 6 13 7 14 8 15 12 16 10 17 9 18 11 20 20 22 17 24
REMARK H PARENT 9 19 11 21 20 23 17 25
REMARK Flexibility Score: inf
ROOT
ATOM      1  C   UNL     1     -23.025  -8.729  -4.833  1.00  0.00     0.138 A 
ATOM      2  C   UNL     1     -21.630  -8.644  -4.693  1.00  0.00     0.100 A 
ATOM      3  C   UNL     1     -20.840  -8.422  -5.823  1.00  0.00     0.197 A 
ATOM      4  O   UNL     1     -19.588  -8.347  -5.687  1.00  0.00    -0.289 OA
ATOM      5  C   UNL     1     -21.451  -8.282  -7.084  1.00  0.00     0.107 A 
ATOM      6  C   UNL     1     -20.725  -8.056  -8.277  1.00  0.00     0.134 A 
ATOM      7  C   UNL     1     -21.410  -7.922  -9.493  1.00  0.00     0.093 A 
ATOM      8  C   UNL     1     -22.807  -8.009  -9.538  1.00  0.00     0.123 A 
ATOM      9  C   UNL     1     -23.527  -8.232  -8.364  1.00  0.00     0.094 A 
ATOM     10  C   UNL     1     -22.863  -8.369  -7.141  1.00  0.00     0.146 A 
ATOM     11  O   UNL     1     -23.573  -8.582  -6.038  1.00  0.00    -0.456 OA
ENDROOT
BRANCH   1  12
ATOM     12  C   UNL     1     -23.915  -8.962  -3.668  1.00  0.00     0.021 A 
ATOM     13  C   UNL     1     -23.558  -9.839  -2.627  1.00  0.00     0.016 A 
ATOM     14  C   UNL     1     -24.420 -10.047  -1.548  1.00  0.00     0.051 A 
ATOM     15  C   UNL     1     -25.654  -9.395  -1.490  1.00  0.00     0.157 A 
ATOM     16  C   UNL     1     -25.165  -8.318  -3.612  1.00  0.00     0.062 A 
ATOM     17  C   UNL     1     -26.031  -8.527  -2.529  1.00  0.00     0.158 A 
BRANCH  15  18
ATOM     18  O   UNL     1     -26.493  -9.622  -0.400  1.00  0.00    -0.504 OA
ATOM     19  H   UNL     1     -27.419 -10.017  -0.506  1.00  0.00     0.293 HD
ENDBRANCH  15  18
BRANCH  17  20
ATOM     20  O   UNL     1     -27.263  -7.875  -2.481  1.00  0.00    -0.504 OA
ATOM     21  H   UNL     1     -27.791  -7.675  -3.323  1.00  0.00     0.293 HD
ENDBRANCH  17  20
ENDBRANCH   1  12
BRANCH   6  22
ATOM     22  O   UNL     1     -19.332  -7.964  -8.262  1.00  0.00    -0.507 OA
ATOM     23  H   UNL     1     -18.748  -8.764  -8.051  1.00  0.00     0.293 HD
ENDBRANCH   6  22
BRANCH   8  24
ATOM     24  O   UNL     1     -23.487  -7.875 -10.746  1.00  0.00    -0.508 OA
ATOM     25  H   UNL     1     -24.165  -7.136 -10.895  1.00  0.00     0.293 HD
ENDBRANCH   8  24
TORSDOF 5
ENDMDL
MODEL 2
REMARK VINA RESULT:    -4.175      4.137      7.889
REMARK INTER + INTRA:          -5.208
REMARK INTER:                  -4.891
REMARK INTRA:                  -0.317
REMARK UNBOUND:                -0.301
REMARK SMILES O=c1cc(-c2ccc(O)c(O)c2)oc2cc(O)cc(O)c12
REMARK SMILES IDX 4 1 3 2 2 3 1 4 21 5 19 6 18 7 16 8 15 9 14 10 13 11 5 12
REMARK SMILES IDX 6 13 7 14 8 15 12 16 10 17 9 18 11 20 20 22 17 24
REMARK H PARENT 9 19 11 21 20 23 17 25
REMARK Flexibility Score: inf
ROOT
ATOM      1  C   UNL     1     -20.872  -9.036  -9.386  1.00  0.00     0.138 A 
ATOM      2  C   UNL     1     -21.343  -8.419  -8.216  1.00  0.00     0.100 A 
ATOM      3  C   UNL     1     -22.708  -8.451  -7.926  1.00  0.00     0.197 A 
ATOM      4  O   UNL     1     -23.122  -7.894  -6.873  1.00  0.00    -0.289 OA
ATOM      5  C   UNL     1     -23.592  -9.105  -8.806  1.00  0.00     0.107 A 
ATOM      6  C   UNL     1     -24.988  -9.184  -8.587  1.00  0.00     0.134 A 
ATOM      7  C   UNL     1     -25.799  -9.859  -9.510  1.00  0.00     0.093 A 
ATOM      8  C   UNL     1     -25.242 -10.458 -10.646  1.00  0.00     0.123 A 
ATOM      9  C   UNL     1     -23.866 -10.383 -10.866  1.00  0.00     0.094 A 
ATOM     10  C   UNL     1     -23.039  -9.713  -9.959  1.00  0.00     0.146 A 
ATOM     11  O   UNL     1     -21.733  -9.655 -10.193  1.00  0.00    -0.456 OA
ENDROOT
BRANCH   1  12
ATOM     12  C   UNL     1     -19.431  -9.035  -9.746  1.00  0.00     0.021 A 
ATOM     13  C   UNL     1     -18.502  -8.216  -9.078  1.00  0.00     0.016 A 
ATOM     14  C   UNL     1     -17.154  -8.228  -9.444  1.00  0.00     0.051 A 
ATOM     15  C   UNL     1     -16.710  -9.047 -10.486  1.00  0.00     0.157 A 
ATOM     16  C   UNL     1     -18.981  -9.847 -10.804  1.00  0.00     0.062 A 
ATOM     17  C   UNL     1     -17.628  -9.860 -11.172  1.00  0.00     0.158 A 
BRANCH  15  18
ATOM     18  O   UNL     1     -15.359  -9.038 -10.829  1.00  0.00    -0.504 OA
ATOM     19  H   UNL     1     -14.669  -9.574 -10.316  1.00  0.00     0.293 HD
ENDBRANCH  15  18
BRANCH  17  20
ATOM     20  O   UNL     1     -17.193 -10.676 -12.215  1.00  0.00    -0.504 OA
ATOM     21  H   UNL     1     -17.369 -11.674 -12.217  1.00  0.00     0.293 HD
ENDBRANCH  17  20
ENDBRANCH   1  12
BRANCH   6  22
ATOM     22  O   UNL     1     -25.572  -8.597  -7.463  1.00  0.00    -0.507 OA
ATOM     23  H   UNL     1     -25.067  -8.501  -6.590  1.00  0.00     0.293 HD
ENDBRANCH   6  22
BRANCH   8  24
ATOM     24  O   UNL     1     -26.048 -11.128 -11.562  1.00  0.00    -0.508 OA
ATOM     25  H   UNL     1     -26.937 -11.534 -11.290  1.00  0.00     0.293 HD
ENDBRANCH   8  24
TORSDOF 5
ENDMDL
MODEL 3
REMARK VINA RESULT:    -4.081      2.726      8.442
REMARK INTER + INTRA:          -5.097
REMARK INTER:                  -4.783
REMARK INTRA:                  -0.315
REMARK UNBOUND:                -0.301
REMARK SMILES O=c1cc(-c2ccc(O)c(O)c2)oc2cc(O)cc(O)c12
REMARK SMILES IDX 4 1 3 2 2 3 1 4 21 5 19 6 18 7 16 8 15 9 14 10 13 11 5 12
REMARK SMILES IDX 6 13 7 14 8 15 12 16 10 17 9 18 11 20 20 22 17 24
REMARK H PARENT 9 19 11 21 20 23 17 25
REMARK Flexibility Score: inf
ROOT
ATOM      1  C   UNL     1     -20.073  -8.480  -8.681  1.00  0.00     0.138 A 
ATOM      2  C   UNL     1     -21.459  -8.643  -8.836  1.00  0.00     0.100 A 
ATOM      3  C   UNL     1     -22.279  -8.653  -7.706  1.00  0.00     0.197 A 
ATOM      4  O   UNL     1     -23.522  -8.798  -7.854  1.00  0.00    -0.289 OA
ATOM      5  C   UNL     1     -21.706  -8.494  -6.429  1.00  0.00     0.107 A 
ATOM      6  C   UNL     1     -22.463  -8.493  -5.234  1.00  0.00     0.134 A 
ATOM      7  C   UNL     1     -21.817  -8.324  -4.001  1.00  0.00     0.093 A 
ATOM      8  C   UNL     1     -20.429  -8.155  -3.941  1.00  0.00     0.123 A 
ATOM      9  C   UNL     1     -19.677  -8.156  -5.117  1.00  0.00     0.094 A 
ATOM     10  C   UNL     1     -20.302  -8.324  -6.356  1.00  0.00     0.146 A 
ATOM     11  O   UNL     1     -19.563  -8.323  -7.461  1.00  0.00    -0.456 OA
ENDROOT
BRANCH   1  12
ATOM     12  C   UNL     1     -19.152  -8.461  -9.846  1.00  0.00     0.021 A 
ATOM     13  C   UNL     1     -19.626  -8.300 -11.162  1.00  0.00     0.016 A 
ATOM     14  C   UNL     1     -18.739  -8.296 -12.240  1.00  0.00     0.051 A 
ATOM     15  C   UNL     1     -17.367  -8.460 -12.029  1.00  0.00     0.157 A 
ATOM     16  C   UNL     1     -17.772  -8.640  -9.641  1.00  0.00     0.062 A 
ATOM     17  C   UNL     1     -16.880  -8.635 -10.724  1.00  0.00     0.158 A 
BRANCH  15  18
ATOM     18  O   UNL     1     -16.505  -8.451 -13.125  1.00  0.00    -0.504 OA
ATOM     19  H   UNL     1     -16.202  -7.590 -13.564  1.00  0.00     0.293 HD
ENDBRANCH  15  18
BRANCH  17  20
ATOM     20  O   UNL     1     -15.513  -8.804 -10.505  1.00  0.00    -0.504 OA
ATOM     21  H   UNL     1     -14.960  -8.101 -10.028  1.00  0.00     0.293 HD
ENDBRANCH  17  20
ENDBRANCH   1  12
BRANCH   6  22
ATOM     22  O   UNL     1     -23.850  -8.657  -5.263  1.00  0.00    -0.507 OA
ATOM     23  H   UNL     1     -24.412  -8.586  -4.424  1.00  0.00     0.293 HD
ENDBRANCH   6  22
BRANCH   8  24
ATOM     24  O   UNL     1     -19.786  -7.987  -2.716  1.00  0.00    -0.508 OA
ATOM     25  H   UNL     1     -18.799  -8.186  -2.603  1.00  0.00     0.293 HD
ENDBRANCH   8  24
TORSDOF 5
ENDMDL
MODEL 4
REMARK VINA RESULT:    -4.034      2.895      8.112
REMARK INTER + INTRA:          -5.042
REMARK INTER:                  -4.754
REMARK INTRA:                  -0.288
REMARK UNBOUND:                -0.301
REMARK SMILES O=c1cc(-c2ccc(O)c(O)c2)oc2cc(O)cc(O)c12
REMARK SMILES IDX 4 1 3 2 2 3 1 4 21 5 19 6 18 7 16 8 15 9 14 10 13 11 5 12
REMARK SMILES IDX 6 13 7 14 8 15 12 16 10 17 9 18 11 20 20 22 17 24
REMARK H PARENT 9 19 11 21 20 23 17 25
REMARK Flexibility Score: inf
ROOT
ATOM      1  C   UNL     1     -20.931  -8.903  -9.535  1.00  0.00     0.138 A 
ATOM      2  C   UNL     1     -21.914  -9.163 -10.503  1.00  0.00     0.100 A 
ATOM      3  C   UNL     1     -23.262  -9.124 -10.140  1.00  0.00     0.197 A 
ATOM      4  O   UNL     1     -24.138  -9.358 -11.016  1.00  0.00    -0.289 OA
ATOM      5  C   UNL     1     -23.616  -8.820  -8.810  1.00  0.00     0.107 A 
ATOM      6  C   UNL     1     -24.955  -8.760  -8.359  1.00  0.00     0.134 A 
ATOM      7  C   UNL     1     -25.224  -8.446  -7.019  1.00  0.00     0.093 A 
ATOM      8  C   UNL     1     -24.180  -8.188  -6.124  1.00  0.00     0.123 A 
ATOM      9  C   UNL     1     -22.857  -8.246  -6.564  1.00  0.00     0.094 A 
ATOM     10  C   UNL     1     -22.567  -8.559  -7.895  1.00  0.00     0.146 A 
ATOM     11  O   UNL     1     -21.299  -8.609  -8.289  1.00  0.00    -0.456 OA
ENDROOT
BRANCH   1  12
ATOM     12  C   UNL     1     -19.483  -8.929  -9.863  1.00  0.00     0.021 A 
ATOM     13  C   UNL     1     -18.545  -8.172  -9.136  1.00  0.00     0.016 A 
ATOM     14  C   UNL     1     -17.190  -8.207  -9.473  1.00  0.00     0.051 A 
ATOM     15  C   UNL     1     -16.747  -8.989 -10.544  1.00  0.00     0.157 A 
ATOM     16  C   UNL     1     -19.033  -9.702 -10.949  1.00  0.00     0.062 A 
ATOM     17  C   UNL     1     -17.672  -9.739 -11.288  1.00  0.00     0.158 A 
BRANCH  15  18
ATOM     18  O   UNL     1     -15.389  -9.005 -10.856  1.00  0.00    -0.504 OA
ATOM     19  H   UNL     1     -15.054  -9.179 -11.796  1.00  0.00     0.293 HD
ENDBRANCH  15  18
BRANCH  17  20
ATOM     20  O   UNL     1     -17.238 -10.518 -12.360  1.00  0.00    -0.504 OA
ATOM     21  H   UNL     1     -16.372 -11.043 -12.319  1.00  0.00     0.293 HD
ENDBRANCH  17  20
ENDBRANCH   1  12
BRANCH   6  22
ATOM     22  O   UNL     1     -26.018  -9.011  -9.230  1.00  0.00    -0.507 OA
ATOM     23  H   UNL     1     -26.079  -8.566 -10.137  1.00  0.00     0.293 HD
ENDBRANCH   6  22
BRANCH   8  24
ATOM     24  O   UNL     1     -24.447  -7.875  -4.793  1.00  0.00    -0.508 OA
ATOM     25  H   UNL     1     -25.171  -7.213  -4.539  1.00  0.00     0.293 HD
ENDBRANCH   8  24
TORSDOF 5
ENDMDL
MODEL 5
REMARK VINA RESULT:    -4.024      1.796      6.784
REMARK INTER + INTRA:          -5.030
REMARK INTER:                  -4.713
REMARK INTRA:                  -0.316
REMARK UNBOUND:                -0.301
REMARK SMILES O=c1cc(-c2ccc(O)c(O)c2)oc2cc(O)cc(O)c12
REMARK SMILES IDX 4 1 3 2 2 3 1 4 21 5 19 6 18 7 16 8 15 9 14 10 13 11 5 12
REMARK SMILES IDX 6 13 7 14 8 15 12 16 10 17 9 18 11 20 20 22 17 24
REMARK H PARENT 9 19 11 21 20 23 17 25
REMARK Flexibility Score: inf
ROOT
ATOM      1  C   UNL     1     -21.686  -8.433  -5.764  1.00  0.00     0.138 A 
ATOM      2  C   UNL     1     -20.815  -8.194  -4.689  1.00  0.00     0.100 A 
ATOM      3  C   UNL     1     -21.332  -8.088  -3.397  1.00  0.00     0.197 A 
ATOM      4  O   UNL     1     -20.542  -7.875  -2.438  1.00  0.00    -0.289 OA
ATOM      5  C   UNL     1     -22.719  -8.228  -3.189  1.00  0.00     0.107 A 
ATOM      6  C   UNL     1     -23.325  -8.135  -1.913  1.00  0.00     0.134 A 
ATOM      7  C   UNL     1     -24.712  -8.290  -1.790  1.00  0.00     0.093 A 
ATOM      8  C   UNL     1     -25.505  -8.539  -2.917  1.00  0.00     0.123 A 
ATOM      9  C   UNL     1     -24.912  -8.631  -4.177  1.00  0.00     0.094 A 
ATOM     10  C   UNL     1     -23.530  -8.478  -4.322  1.00  0.00     0.146 A 
ATOM     11  O   UNL     1     -22.991  -8.569  -5.533  1.00  0.00    -0.456 OA
ENDROOT
BRANCH   1  12
ATOM     12  C   UNL     1     -21.193  -8.555  -7.159  1.00  0.00     0.021 A 
ATOM     13  C   UNL     1     -19.893  -8.156  -7.523  1.00  0.00     0.016 A 
ATOM     14  C   UNL     1     -19.459  -8.273  -8.845  1.00  0.00     0.051 A 
ATOM     15  C   UNL     1     -20.312  -8.780  -9.829  1.00  0.00     0.157 A 
ATOM     16  C   UNL     1     -22.052  -9.052  -8.156  1.00  0.00     0.062 A 
ATOM     17  C   UNL     1     -21.617  -9.170  -9.484  1.00  0.00     0.158 A 
BRANCH  15  18
ATOM     18  O   UNL     1     -19.850  -8.886 -11.140  1.00  0.00    -0.504 OA
ATOM     19  H   UNL     1     -19.816  -9.772 -11.629  1.00  0.00     0.293 HD
ENDBRANCH  15  18
BRANCH  17  20
ATOM     20  O   UNL     1     -22.475  -9.673 -10.461  1.00  0.00    -0.504 OA
ATOM     21  H   UNL     1     -22.141  -9.921 -11.386  1.00  0.00     0.293 HD
ENDBRANCH  17  20
ENDBRANCH   1  12
BRANCH   6  22
ATOM     22  O   UNL     1     -22.559  -7.889  -0.772  1.00  0.00    -0.507 OA
ATOM     23  H   UNL     1     -21.629  -7.492  -0.829  1.00  0.00     0.293 HD
ENDBRANCH   6  22
BRANCH   8  24
ATOM     24  O   UNL     1     -26.884  -8.694  -2.794  1.00  0.00    -0.508 OA
ATOM     25  H   UNL     1     -27.312  -8.964  -1.915  1.00  0.00     0.293 HD
ENDBRANCH   8  24
TORSDOF 5
ENDMDL
MODEL 6
REMARK VINA RESULT:    -3.904      2.751      5.309
REMARK INTER + INTRA:          -4.889
REMARK INTER:                  -4.574
REMARK INTRA:                  -0.316
REMARK UNBOUND:                -0.301
REMARK SMILES O=c1cc(-c2ccc(O)c(O)c2)oc2cc(O)cc(O)c12
REMARK SMILES IDX 4 1 3 2 2 3 1 4 21 5 19 6 18 7 16 8 15 9 14 10 13 11 5 12
REMARK SMILES IDX 6 13 7 14 8 15 12 16 10 17 9 18 11 20 20 22 17 24
REMARK H PARENT 9 19 11 21 20 23 17 25
REMARK Flexibility Score: inf
ROOT
ATOM      1  C   UNL     1     -20.575  -8.419  -8.196  1.00  0.00     0.138 A 
ATOM      2  C   UNL     1     -21.374  -8.310  -9.345  1.00  0.00     0.100 A 
ATOM      3  C   UNL     1     -20.765  -8.203 -10.597  1.00  0.00     0.197 A 
ATOM      4  O   UNL     1     -21.491  -8.106 -11.623  1.00  0.00    -0.289 OA
ATOM      5  C   UNL     1     -19.360  -8.212 -10.690  1.00  0.00     0.107 A 
ATOM      6  C   UNL     1     -18.663  -8.108 -11.917  1.00  0.00     0.134 A 
ATOM      7  C   UNL     1     -17.261  -8.129 -11.924  1.00  0.00     0.093 A 
ATOM      8  C   UNL     1     -16.543  -8.254 -10.729  1.00  0.00     0.123 A 
ATOM      9  C   UNL     1     -17.226  -8.357  -9.516  1.00  0.00     0.094 A 
ATOM     10  C   UNL     1     -18.623  -8.336  -9.487  1.00  0.00     0.146 A 
ATOM     11  O   UNL     1     -19.249  -8.434  -8.318  1.00  0.00    -0.456 OA
ENDROOT
BRANCH   1  12
ATOM     12  C   UNL     1     -21.167  -8.537  -6.839  1.00  0.00     0.021 A 
ATOM     13  C   UNL     1     -22.516  -8.219  -6.590  1.00  0.00     0.016 A 
ATOM     14  C   UNL     1     -23.044  -8.329  -5.301  1.00  0.00     0.051 A 
ATOM     15  C   UNL     1     -22.238  -8.748  -4.239  1.00  0.00     0.157 A 
ATOM     16  C   UNL     1     -20.358  -8.944  -5.763  1.00  0.00     0.062 A 
ATOM     17  C   UNL     1     -20.887  -9.055  -4.469  1.00  0.00     0.158 A 
BRANCH  15  18
ATOM     18  O   UNL     1     -22.794  -8.849  -2.964  1.00  0.00    -0.504 OA
ATOM     19  H   UNL     1     -22.626  -8.154  -2.247  1.00  0.00     0.293 HD
ENDBRANCH  15  18
BRANCH  17  20
ATOM     20  O   UNL     1     -20.076  -9.469  -3.413  1.00  0.00    -0.504 OA
ATOM     21  H   UNL     1     -19.326 -10.137  -3.550  1.00  0.00     0.293 HD
ENDBRANCH  17  20
ENDBRANCH   1  12
BRANCH   6  22
ATOM     22  O   UNL     1     -19.352  -7.983 -13.125  1.00  0.00    -0.507 OA
ATOM     23  H   UNL     1     -20.260  -7.536 -13.177  1.00  0.00     0.293 HD
ENDBRANCH   6  22
BRANCH   8  24
ATOM     24  O   UNL     1     -15.150  -8.276 -10.737  1.00  0.00    -0.508 OA
ATOM     25  H   UNL     1     -14.609  -7.859  -9.988  1.00  0.00     0.293 HD
ENDBRANCH   8  24
TORSDOF 5
ENDMDL
MODEL 7
REMARK VINA RESULT:    -3.887      5.891     10.355
REMARK INTER + INTRA:          -4.869
REMARK INTER:                  -4.566
REMARK INTRA:                  -0.303
REMARK UNBOUND:                -0.301
REMARK SMILES O=c1cc(-c2ccc(O)c(O)c2)oc2cc(O)cc(O)c12
REMARK SMILES IDX 4 1 3 2 2 3 1 4 21 5 19 6 18 7 16 8 15 9 14 10 13 11 5 12
REMARK SMILES IDX 6 13 7 14 8 15 12 16 10 17 9 18 11 20 20 22 17 24
REMARK H PARENT 9 19 11 21 20 23 17 25
REMARK Flexibility Score: inf
ROOT
ATOM      1  C   UNL     1     -15.480  -8.428 -10.106  1.00  0.00     0.138 A 
ATOM      2  C   UNL     1     -15.896  -8.342 -11.445  1.00  0.00     0.100 A 
ATOM      3  C   UNL     1     -17.253  -8.188 -11.733  1.00  0.00     0.197 A 
ATOM      4  O   UNL     1     -17.618  -8.110 -12.937  1.00  0.00    -0.289 OA
ATOM      5  C   UNL     1     -18.185  -8.116 -10.678  1.00  0.00     0.107 A 
ATOM      6  C   UNL     1     -19.577  -7.961 -10.882  1.00  0.00     0.134 A 
ATOM      7  C   UNL     1     -20.438  -7.893  -9.778  1.00  0.00     0.093 A 
ATOM      8  C   UNL     1     -19.934  -7.975  -8.474  1.00  0.00     0.123 A 
ATOM      9  C   UNL     1     -18.562  -8.129  -8.268  1.00  0.00     0.094 A 
ATOM     10  C   UNL     1     -17.687  -8.200  -9.355  1.00  0.00     0.146 A 
ATOM     11  O   UNL     1     -16.385  -8.347  -9.132  1.00  0.00    -0.456 OA
ENDROOT
BRANCH   1  12
ATOM     12  C   UNL     1     -14.051  -8.591  -9.739  1.00  0.00     0.021 A 
ATOM     13  C   UNL     1     -13.019  -8.025 -10.512  1.00  0.00     0.016 A 
ATOM     14  C   UNL     1     -11.682  -8.203 -10.150  1.00  0.00     0.051 A 
ATOM     15  C   UNL     1     -11.348  -8.953  -9.019  1.00  0.00     0.157 A 
ATOM     16  C   UNL     1     -13.708  -9.357  -8.610  1.00  0.00     0.062 A 
ATOM     17  C   UNL     1     -12.366  -9.535  -8.245  1.00  0.00     0.158 A 
BRANCH  15  18
ATOM     18  O   UNL     1     -10.005  -9.113  -8.682  1.00  0.00    -0.504 OA
ATOM     19  H   UNL     1      -9.678  -9.043  -7.726  1.00  0.00     0.293 HD
ENDBRANCH  15  18
BRANCH  17  20
ATOM     20  O   UNL     1     -12.040 -10.289  -7.118  1.00  0.00    -0.504 OA
ATOM     21  H   UNL     1     -11.977 -11.300  -7.156  1.00  0.00     0.293 HD
ENDBRANCH  17  20
ENDBRANCH   1  12
BRANCH   6  22
ATOM     22  O   UNL     1     -20.108  -7.875 -12.171  1.00  0.00    -0.507 OA
ATOM     23  H   UNL     1     -20.297  -8.701 -12.725  1.00  0.00     0.293 HD
ENDBRANCH   6  22
BRANCH   8  24
ATOM     24  O   UNL     1     -20.790  -7.907  -7.377  1.00  0.00    -0.508 OA
ATOM     25  H   UNL     1     -21.302  -7.061  -7.156  1.00  0.00     0.293 HD
ENDBRANCH   8  24
TORSDOF 5
ENDMDL
MODEL 8
REMARK VINA RESULT:    -3.815      5.311      6.680
REMARK INTER + INTRA:          -4.784
REMARK INTER:                  -4.519
REMARK INTRA:                  -0.265
REMARK UNBOUND:                -0.301
REMARK SMILES O=c1cc(-c2ccc(O)c(O)c2)oc2cc(O)cc(O)c12
REMARK SMILES IDX 4 1 3 2 2 3 1 4 21 5 19 6 18 7 16 8 15 9 14 10 13 11 5 12
REMARK SMILES IDX 6 13 7 14 8 15 12 16 10 17 9 18 11 20 20 22 17 24
REMARK H PARENT 9 19 11 21 20 23 17 25
REMARK Flexibility Score: inf
ROOT
ATOM      1  C   UNL     1     -21.698  -8.997 -10.248  1.00  0.00     0.138 A 
ATOM      2  C   UNL     1     -21.271  -8.764  -8.930  1.00  0.00     0.100 A 
ATOM      3  C   UNL     1     -19.929  -8.470  -8.685  1.00  0.00     0.197 A 
ATOM      4  O   UNL     1     -19.555  -8.262  -7.499  1.00  0.00    -0.289 OA
ATOM      5  C   UNL     1     -19.023  -8.406  -9.762  1.00  0.00     0.107 A 
ATOM      6  C   UNL     1     -17.647  -8.116  -9.602  1.00  0.00     0.134 A 
ATOM      7  C   UNL     1     -16.811  -8.066 -10.726  1.00  0.00     0.093 A 
ATOM      8  C   UNL     1     -17.325  -8.299 -12.007  1.00  0.00     0.123 A 
ATOM      9  C   UNL     1     -18.681  -8.587 -12.171  1.00  0.00     0.094 A 
ATOM     10  C   UNL     1     -19.531  -8.642 -11.062  1.00  0.00     0.146 A 
ATOM     11  O   UNL     1     -20.817  -8.920 -11.245  1.00  0.00    -0.456 OA
ENDROOT
BRANCH   1  12
ATOM     12  C   UNL     1     -23.113  -9.312 -10.568  1.00  0.00     0.021 A 
ATOM     13  C   UNL     1     -23.890  -8.473 -11.389  1.00  0.00     0.016 A 
ATOM     14  C   UNL     1     -25.222  -8.789 -11.666  1.00  0.00     0.051 A 
ATOM     15  C   UNL     1     -25.805  -9.938 -11.125  1.00  0.00     0.157 A 
ATOM     16  C   UNL     1     -23.709 -10.460 -10.016  1.00  0.00     0.062 A 
ATOM     17  C   UNL     1     -25.046 -10.778 -10.294  1.00  0.00     0.158 A 
BRANCH  15  18
ATOM     18  O   UNL     1     -27.136 -10.228 -11.420  1.00  0.00    -0.504 OA
ATOM     19  H   UNL     1     -27.497 -10.203 -12.366  1.00  0.00     0.293 HD
ENDBRANCH  15  18
BRANCH  17  20
ATOM     20  O   UNL     1     -25.622 -11.924  -9.747  1.00  0.00    -0.504 OA
ATOM     21  H   UNL     1     -25.382 -12.247  -8.816  1.00  0.00     0.293 HD
ENDBRANCH  17  20
ENDBRANCH   1  12
BRANCH   6  22
ATOM     22  O   UNL     1     -17.107  -7.877  -8.336  1.00  0.00    -0.507 OA
ATOM     23  H   UNL     1     -17.230  -8.531  -7.573  1.00  0.00     0.293 HD
ENDBRANCH   6  22
BRANCH   8  24
ATOM     24  O   UNL     1     -16.495  -8.249 -13.125  1.00  0.00    -0.508 OA
ATOM     25  H   UNL     1     -16.121  -9.092 -13.547  1.00  0.00     0.293 HD
ENDBRANCH   8  24
TORSDOF 5
ENDMDL
MODEL 9
REMARK VINA RESULT:    -3.797      1.690      7.349
REMARK INTER + INTRA:          -4.764
REMARK INTER:                  -4.455
REMARK INTRA:                  -0.309
REMARK UNBOUND:                -0.301
REMARK SMILES O=c1cc(-c2ccc(O)c(O)c2)oc2cc(O)cc(O)c12
REMARK SMILES IDX 4 1 3 2 2 3 1 4 21 5 19 6 18 7 16 8 15 9 14 10 13 11 5 12
REMARK SMILES IDX 6 13 7 14 8 15 12 16 10 17 9 18 11 20 20 22 17 24
REMARK H PARENT 9 19 11 21 20 23 17 25
REMARK Flexibility Score: inf
ROOT
ATOM      1  C   UNL     1     -23.567  -8.523  -6.842  1.00  0.00     0.138 A 
ATOM      2  C   UNL     1     -24.929  -8.288  -7.090  1.00  0.00     0.100 A 
ATOM      3  C   UNL     1     -25.810  -8.160  -6.015  1.00  0.00     0.197 A 
ATOM      4  O   UNL     1     -27.031  -7.948  -6.247  1.00  0.00    -0.289 OA
ATOM      5  C   UNL     1     -25.321  -8.264  -4.698  1.00  0.00     0.107 A 
ATOM      6  C   UNL     1     -26.144  -8.148  -3.553  1.00  0.00     0.134 A 
ATOM      7  C   UNL     1     -25.578  -8.259  -2.276  1.00  0.00     0.093 A 
ATOM      8  C   UNL     1     -24.205  -8.482  -2.121  1.00  0.00     0.123 A 
ATOM      9  C   UNL     1     -23.388  -8.598  -3.247  1.00  0.00     0.094 A 
ATOM     10  C   UNL     1     -23.933  -8.492  -4.530  1.00  0.00     0.146 A 
ATOM     11  O   UNL     1     -23.135  -8.607  -5.585  1.00  0.00    -0.456 OA
ENDROOT
BRANCH   1  12
ATOM     12  C   UNL     1     -22.584  -8.666  -7.946  1.00  0.00     0.021 A 
ATOM     13  C   UNL     1     -22.963  -9.128  -9.220  1.00  0.00     0.016 A 
ATOM     14  C   UNL     1     -22.016  -9.263 -10.237  1.00  0.00     0.051 A 
ATOM     15  C   UNL     1     -20.674  -8.949 -10.002  1.00  0.00     0.157 A 
ATOM     16  C   UNL     1     -21.230  -8.366  -7.710  1.00  0.00     0.062 A 
ATOM     17  C   UNL     1     -20.278  -8.500  -8.731  1.00  0.00     0.158 A 
BRANCH  15  18
ATOM     18  O   UNL     1     -19.751  -9.093 -11.036  1.00  0.00    -0.504 OA
ATOM     19  H   UNL     1     -18.752  -9.065 -10.875  1.00  0.00     0.293 HD
ENDBRANCH  15  18
BRANCH  17  20
ATOM     20  O   UNL     1     -18.940  -8.189  -8.487  1.00  0.00    -0.504 OA
ATOM     21  H   UNL     1     -18.304  -8.866  -8.081  1.00  0.00     0.293 HD
ENDBRANCH  17  20
ENDBRANCH   1  12
BRANCH   6  22
ATOM     22  O   UNL     1     -27.517  -7.925  -3.677  1.00  0.00    -0.507 OA
ATOM     23  H   UNL     1     -28.192  -8.669  -3.548  1.00  0.00     0.293 HD
ENDBRANCH   6  22
BRANCH   8  24
ATOM     24  O   UNL     1     -23.642  -8.592  -0.851  1.00  0.00    -0.508 OA
ATOM     25  H   UNL     1     -24.217  -8.710  -0.024  1.00  0.00     0.293 HD
ENDBRANCH   8  24
TORSDOF 5
ENDMDL
