MODEL 1
REMARK VINA RESULT:    -6.566      0.000      0.000
REMARK INTER + INTRA:         -17.668
REMARK INTER:                 -14.243
REMARK INTRA:                  -3.425
REMARK UNBOUND:                -3.425
REMARK SMILES CCCCCCCCCCCCCCCCCCCCCC(=O)[O-]
REMARK SMILES IDX 12 1 11 2 10 3 9 4 8 5 7 6 6 7 5 8 4 9 3 10 2 11 1 12 13 13
REMARK SMILES IDX 14 14 15 15 16 16 17 17 18 18 19 19 20 20 21 21 22 22 23 23
REMARK SMILES IDX 24 24
REMARK H PARENT
REMARK Flexibility Score: inf
ROOT
ATOM      1  C   UNL     1     -19.090 -11.776  -0.236  1.00  0.00     0.000 C 
ENDROOT
BRANCH   1   2
ATOM      2  C   UNL     1     -18.756 -13.087  -0.970  1.00  0.00     0.000 C 
BRANCH   2   3
ATOM      3  C   UNL     1     -19.095 -13.029  -2.469  1.00  0.00     0.000 C 
BRANCH   3   4
ATOM      4  C   UNL     1     -18.635 -14.286  -3.228  1.00  0.00    -0.000 C 
BRANCH   4   5
ATOM      5  C   UNL     1     -17.158 -14.632  -2.968  1.00  0.00    -0.000 C 
BRANCH   5   6
ATOM      6  C   UNL     1     -16.146 -13.568  -3.441  1.00  0.00    -0.000 C 
BRANCH   6   7
ATOM      7  C   UNL     1     -15.102 -13.142  -2.389  1.00  0.00    -0.000 C 
BRANCH   7   8
ATOM      8  C   UNL     1     -15.376 -11.788  -1.711  1.00  0.00    -0.000 C 
BRANCH   8   9
ATOM      9  C   UNL     1     -15.313 -11.865  -0.179  1.00  0.00    -0.000 C 
BRANCH   9  10
ATOM     10  C   UNL     1     -14.872 -13.262   0.282  1.00  0.00    -0.000 C 
BRANCH  10  11
ATOM     11  C   UNL     1     -15.972 -14.001   1.061  1.00  0.00    -0.003 C 
ATOM     12  C   UNL     1     -15.537 -14.384   2.475  1.00  0.00     0.004 C 
ENDBRANCH  10  11
ENDBRANCH   9  10
ENDBRANCH   8   9
ENDBRANCH   7   8
ENDBRANCH   6   7
ENDBRANCH   5   6
ENDBRANCH   4   5
ENDBRANCH   3   4
ENDBRANCH   2   3
ENDBRANCH   1   2
BRANCH   1  13
ATOM     13  C   UNL     1     -18.923 -10.532  -1.130  1.00  0.00     0.000 C 
BRANCH  13  14
ATOM     14  C   UNL     1     -19.095  -9.185  -0.404  1.00  0.00     0.000 C 
BRANCH  14  15
ATOM     15  C   UNL     1     -18.267  -9.097   0.889  1.00  0.00     0.000 C 
BRANCH  15  16
ATOM     16  C   UNL     1     -17.897  -7.651   1.257  1.00  0.00     0.000 C 
BRANCH  16  17
ATOM     17  C   UNL     1     -16.445  -7.297   0.902  1.00  0.00     0.000 C 
BRANCH  17  18
ATOM     18  C   UNL     1     -15.703  -8.517   0.344  1.00  0.00     0.000 C 
BRANCH  18  19
ATOM     19  C   UNL     1     -15.026  -8.185  -0.995  1.00  0.00     0.000 C 
BRANCH  19  20
ATOM     20  C   UNL     1     -15.979  -7.500  -1.986  1.00  0.00     0.006 C 
BRANCH  20  21
ATOM     21  C   UNL     1     -16.733  -8.502  -2.869  1.00  0.00     0.053 C 
BRANCH  21  22
ATOM     22  C   UNL     1     -16.079  -8.612  -4.210  1.00  0.00     0.041 C 
ATOM     23  O   UNL     1     -16.496  -7.922  -5.178  1.00  0.00    -0.550 OA
ATOM     24  O   UNL     1     -15.040  -9.514  -4.405  1.00  0.00    -0.550 OA
ENDBRANCH  21  22
ENDBRANCH  20  21
ENDBRANCH  19  20
ENDBRANCH  18  19
ENDBRANCH  17  18
ENDBRANCH  16  17
ENDBRANCH  15  16
ENDBRANCH  14  15
ENDBRANCH  13  14
ENDBRANCH   1  13
TORSDOF 20
ENDMDL
MODEL 2
REMARK VINA RESULT:    -6.518      2.376      6.353
REMARK INTER + INTRA:         -17.564
REMARK INTER:                 -14.163
REMARK INTRA:                  -3.401
REMARK UNBOUND:                -3.425
REMARK SMILES CCCCCCCCCCCCCCCCCCCCCC(=O)[O-]
REMARK SMILES IDX 12 1 11 2 10 3 9 4 8 5 7 6 6 7 5 8 4 9 3 10 2 11 1 12 13 13
REMARK SMILES IDX 14 14 15 15 16 16 17 17 18 18 19 19 20 20 21 21 22 22 23 23
REMARK SMILES IDX 24 24
REMARK H PARENT
REMARK Flexibility Score: inf
ROOT
ATOM      1  C   UNL     1     -18.409 -10.637  -1.243  1.00  0.00     0.000 C 
ENDROOT
BRANCH   1   2
ATOM      2  C   UNL     1     -18.835  -9.285  -0.644  1.00  0.00     0.000 C 
BRANCH   2   3
ATOM      3  C   UNL     1     -18.290  -9.070   0.778  1.00  0.00     0.000 C 
BRANCH   3   4
ATOM      4  C   UNL     1     -17.654  -7.681   0.964  1.00  0.00    -0.000 C 
BRANCH   4   5
ATOM      5  C   UNL     1     -16.179  -7.639   0.526  1.00  0.00    -0.000 C 
BRANCH   5   6
ATOM      6  C   UNL     1     -15.423  -8.979   0.648  1.00  0.00    -0.000 C 
BRANCH   6   7
ATOM      7  C   UNL     1     -14.892  -9.556  -0.679  1.00  0.00    -0.000 C 
BRANCH   7   8
ATOM      8  C   UNL     1     -14.328  -8.515  -1.662  1.00  0.00    -0.000 C 
BRANCH   8   9
ATOM      9  C   UNL     1     -14.263  -9.031  -3.106  1.00  0.00    -0.000 C 
BRANCH   9  10
ATOM     10  C   UNL     1     -15.643  -9.516  -3.577  1.00  0.00    -0.000 C 
BRANCH  10  11
ATOM     11  C   UNL     1     -16.669  -8.376  -3.668  1.00  0.00    -0.003 C 
ATOM     12  C   UNL     1     -16.797  -7.810  -5.083  1.00  0.00     0.004 C 
ENDBRANCH  10  11
ENDBRANCH   9  10
ENDBRANCH   8   9
ENDBRANCH   7   8
ENDBRANCH   6   7
ENDBRANCH   5   6
ENDBRANCH   4   5
ENDBRANCH   3   4
ENDBRANCH   2   3
ENDBRANCH   1   2
BRANCH   1  13
ATOM     13  C   UNL     1     -18.793 -11.833  -0.350  1.00  0.00     0.000 C 
BRANCH  13  14
ATOM     14  C   UNL     1     -19.361 -13.049  -1.105  1.00  0.00     0.000 C 
BRANCH  14  15
ATOM     15  C   UNL     1     -19.049 -13.012  -2.611  1.00  0.00     0.000 C 
BRANCH  15  16
ATOM     16  C   UNL     1     -18.595 -14.376  -3.155  1.00  0.00     0.000 C 
BRANCH  16  17
ATOM     17  C   UNL     1     -17.081 -14.598  -3.024  1.00  0.00     0.000 C 
BRANCH  17  18
ATOM     18  C   UNL     1     -16.315 -13.283  -3.213  1.00  0.00     0.000 C 
BRANCH  18  19
ATOM     19  C   UNL     1     -15.422 -12.987  -1.999  1.00  0.00     0.000 C 
BRANCH  19  20
ATOM     20  C   UNL     1     -15.302 -14.185  -1.045  1.00  0.00     0.006 C 
BRANCH  20  21
ATOM     21  C   UNL     1     -16.160 -14.025   0.217  1.00  0.00     0.053 C 
BRANCH  21  22
ATOM     22  C   UNL     1     -15.292 -13.764   1.407  1.00  0.00     0.041 C 
ATOM     23  O   UNL     1     -15.575 -14.277   2.523  1.00  0.00    -0.550 OA
ATOM     24  O   UNL     1     -14.200 -12.913   1.298  1.00  0.00    -0.550 OA
ENDBRANCH  21  22
ENDBRANCH  20  21
ENDBRANCH  19  20
ENDBRANCH  18  19
ENDBRANCH  17  18
ENDBRANCH  16  17
ENDBRANCH  15  16
ENDBRANCH  14  15
ENDBRANCH  13  14
ENDBRANCH   1  13
TORSDOF 20
ENDMDL
MODEL 3
REMARK VINA RESULT:    -6.430      1.054      2.019
REMARK INTER + INTRA:         -17.373
REMARK INTER:                 -14.115
REMARK INTRA:                  -3.258
REMARK UNBOUND:                -3.425
REMARK SMILES CCCCCCCCCCCCCCCCCCCCCC(=O)[O-]
REMARK SMILES IDX 12 1 11 2 10 3 9 4 8 5 7 6 6 7 5 8 4 9 3 10 2 11 1 12 13 13
REMARK SMILES IDX 14 14 15 15 16 16 17 17 18 18 19 19 20 20 21 21 22 22 23 23
REMARK SMILES IDX 24 24
REMARK H PARENT
REMARK Flexibility Score: inf
ROOT
ATOM      1  C   UNL     1     -18.898 -10.102  -0.971  1.00  0.00     0.000 C 
ENDROOT
BRANCH   1   2
ATOM      2  C   UNL     1     -18.664 -11.331  -0.074  1.00  0.00     0.000 C 
BRANCH   2   3
ATOM      3  C   UNL     1     -19.002 -12.653  -0.783  1.00  0.00     0.000 C 
BRANCH   3   4
ATOM      4  C   UNL     1     -18.615 -12.641  -2.272  1.00  0.00    -0.000 C 
BRANCH   4   5
ATOM      5  C   UNL     1     -18.885 -13.987  -2.969  1.00  0.00    -0.000 C 
BRANCH   5   6
ATOM      6  C   UNL     1     -17.665 -14.927  -3.066  1.00  0.00    -0.000 C 
BRANCH   6   7
ATOM      7  C   UNL     1     -16.319 -14.299  -2.655  1.00  0.00    -0.000 C 
BRANCH   7   8
ATOM      8  C   UNL     1     -15.856 -14.630  -1.225  1.00  0.00    -0.000 C 
BRANCH   8   9
ATOM      9  C   UNL     1     -14.481 -14.034  -0.890  1.00  0.00    -0.000 C 
BRANCH   9  10
ATOM     10  C   UNL     1     -14.498 -13.362   0.491  1.00  0.00    -0.000 C 
BRANCH  10  11
ATOM     11  C   UNL     1     -15.814 -13.598   1.247  1.00  0.00    -0.003 C 
ATOM     12  C   UNL     1     -15.632 -14.469   2.490  1.00  0.00     0.004 C 
ENDBRANCH  10  11
ENDBRANCH   9  10
ENDBRANCH   8   9
ENDBRANCH   7   8
ENDBRANCH   6   7
ENDBRANCH   5   6
ENDBRANCH   4   5
ENDBRANCH   3   4
ENDBRANCH   2   3
ENDBRANCH   1   2
BRANCH   1  13
ATOM     13  C   UNL     1     -19.052  -8.797  -0.165  1.00  0.00     0.000 C 
BRANCH  13  14
ATOM     14  C   UNL     1     -18.224  -8.735   1.132  1.00  0.00     0.000 C 
BRANCH  14  15
ATOM     15  C   UNL     1     -17.216  -7.573   1.139  1.00  0.00     0.000 C 
BRANCH  15  16
ATOM     16  C   UNL     1     -15.994  -7.845   0.248  1.00  0.00     0.000 C 
BRANCH  16  17
ATOM     17  C   UNL     1     -15.582  -9.325   0.234  1.00  0.00     0.000 C 
BRANCH  17  18
ATOM     18  C   UNL     1     -14.749  -9.652  -1.011  1.00  0.00     0.000 C 
BRANCH  18  19
ATOM     19  C   UNL     1     -15.314 -10.877  -1.745  1.00  0.00     0.000 C 
BRANCH  19  20
ATOM     20  C   UNL     1     -15.675 -10.577  -3.208  1.00  0.00     0.006 C 
BRANCH  20  21
ATOM     21  C   UNL     1     -15.109  -9.236  -3.693  1.00  0.00     0.053 C 
BRANCH  21  22
ATOM     22  C   UNL     1     -16.216  -8.256  -3.926  1.00  0.00     0.041 C 
ATOM     23  O   UNL     1     -16.734  -7.642  -2.956  1.00  0.00    -0.550 OA
ATOM     24  O   UNL     1     -16.711  -8.060  -5.210  1.00  0.00    -0.550 OA
ENDBRANCH  21  22
ENDBRANCH  20  21
ENDBRANCH  19  20
ENDBRANCH  18  19
ENDBRANCH  17  18
ENDBRANCH  16  17
ENDBRANCH  15  16
ENDBRANCH  14  15
ENDBRANCH  13  14
ENDBRANCH   1  13
TORSDOF 20
ENDMDL
MODEL 4
REMARK VINA RESULT:    -6.268      2.368      6.286
REMARK INTER + INTRA:         -17.021
REMARK INTER:                 -13.816
REMARK INTRA:                  -3.205
REMARK UNBOUND:                -3.425
REMARK SMILES CCCCCCCCCCCCCCCCCCCCCC(=O)[O-]
REMARK SMILES IDX 12 1 11 2 10 3 9 4 8 5 7 6 6 7 5 8 4 9 3 10 2 11 1 12 13 13
REMARK SMILES IDX 14 14 15 15 16 16 17 17 18 18 19 19 20 20 21 21 22 22 23 23
REMARK SMILES IDX 24 24
REMARK H PARENT
REMARK Flexibility Score: inf
ROOT
ATOM      1  C   UNL     1     -19.765 -11.522  -0.601  1.00  0.00     0.000 C 
ENDROOT
BRANCH   1   2
ATOM      2  C   UNL     1     -18.970 -10.422  -1.327  1.00  0.00     0.000 C 
BRANCH   2   3
ATOM      3  C   UNL     1     -18.937  -9.100  -0.541  1.00  0.00     0.000 C 
BRANCH   3   4
ATOM      4  C   UNL     1     -18.118  -9.205   0.757  1.00  0.00    -0.000 C 
BRANCH   4   5
ATOM      5  C   UNL     1     -17.772  -7.829   1.355  1.00  0.00    -0.000 C 
BRANCH   5   6
ATOM      6  C   UNL     1     -16.329  -7.348   1.096  1.00  0.00    -0.000 C 
BRANCH   6   7
ATOM      7  C   UNL     1     -15.477  -8.279   0.210  1.00  0.00    -0.000 C 
BRANCH   7   8
ATOM      8  C   UNL     1     -15.508  -7.953  -1.294  1.00  0.00    -0.000 C 
BRANCH   8   9
ATOM      9  C   UNL     1     -14.452  -8.728  -2.094  1.00  0.00    -0.000 C 
BRANCH   9  10
ATOM     10  C   UNL     1     -14.908  -8.936  -3.546  1.00  0.00    -0.000 C 
BRANCH  10  11
ATOM     11  C   UNL     1     -16.400  -8.630  -3.745  1.00  0.00    -0.003 C 
ATOM     12  C   UNL     1     -16.685  -7.918  -5.068  1.00  0.00     0.004 C 
ENDBRANCH  10  11
ENDBRANCH   9  10
ENDBRANCH   8   9
ENDBRANCH   7   8
ENDBRANCH   6   7
ENDBRANCH   5   6
ENDBRANCH   4   5
ENDBRANCH   3   4
ENDBRANCH   2   3
ENDBRANCH   1   2
BRANCH   1  13
ATOM     13  C   UNL     1     -19.385 -12.940  -1.069  1.00  0.00     0.000 C 
BRANCH  13  14
ATOM     14  C   UNL     1     -19.041 -13.057  -2.566  1.00  0.00     0.000 C 
BRANCH  14  15
ATOM     15  C   UNL     1     -18.699 -14.497  -2.986  1.00  0.00     0.000 C 
BRANCH  15  16
ATOM     16  C   UNL     1     -17.185 -14.730  -3.117  1.00  0.00     0.000 C 
BRANCH  16  17
ATOM     17  C   UNL     1     -16.392 -13.426  -3.283  1.00  0.00     0.000 C 
BRANCH  17  18
ATOM     18  C   UNL     1     -15.247 -13.346  -2.267  1.00  0.00     0.000 C 
BRANCH  18  19
ATOM     19  C   UNL     1     -15.273 -12.009  -1.510  1.00  0.00     0.000 C 
BRANCH  19  20
ATOM     20  C   UNL     1     -16.099 -12.077  -0.217  1.00  0.00     0.006 C 
BRANCH  20  21
ATOM     21  C   UNL     1     -16.182 -13.497   0.358  1.00  0.00     0.053 C 
BRANCH  21  22
ATOM     22  C   UNL     1     -15.248 -13.646   1.517  1.00  0.00     0.041 C 
ATOM     23  O   UNL     1     -14.114 -13.097   1.492  1.00  0.00    -0.550 OA
ATOM     24  O   UNL     1     -15.608 -14.433   2.604  1.00  0.00    -0.550 OA
ENDBRANCH  21  22
ENDBRANCH  20  21
ENDBRANCH  19  20
ENDBRANCH  18  19
ENDBRANCH  17  18
ENDBRANCH  16  17
ENDBRANCH  15  16
ENDBRANCH  14  15
ENDBRANCH  13  14
ENDBRANCH   1  13
TORSDOF 20
ENDMDL
MODEL 5
REMARK VINA RESULT:    -6.255      2.322      5.965
REMARK INTER + INTRA:         -16.993
REMARK INTER:                 -13.421
REMARK INTRA:                  -3.573
REMARK UNBOUND:                -3.425
REMARK SMILES CCCCCCCCCCCCCCCCCCCCCC(=O)[O-]
REMARK SMILES IDX 12 1 11 2 10 3 9 4 8 5 7 6 6 7 5 8 4 9 3 10 2 11 1 12 13 13
REMARK SMILES IDX 14 14 15 15 16 16 17 17 18 18 19 19 20 20 21 21 22 22 23 23
REMARK SMILES IDX 24 24
REMARK H PARENT
REMARK Flexibility Score: inf
ROOT
ATOM      1  C   UNL     1     -14.853  -8.991  -0.738  1.00  0.00     0.000 C 
ENDROOT
BRANCH   1   2
ATOM      2  C   UNL     1     -15.525  -9.030   0.646  1.00  0.00     0.000 C 
BRANCH   2   3
ATOM      3  C   UNL     1     -16.067  -7.659   1.081  1.00  0.00     0.000 C 
BRANCH   3   4
ATOM      4  C   UNL     1     -17.603  -7.588   1.034  1.00  0.00    -0.000 C 
BRANCH   4   5
ATOM      5  C   UNL     1     -18.258  -8.974   0.890  1.00  0.00    -0.000 C 
BRANCH   5   6
ATOM      6  C   UNL     1     -19.156  -9.146  -0.353  1.00  0.00    -0.000 C 
BRANCH   6   7
ATOM      7  C   UNL     1     -18.988 -10.482  -1.103  1.00  0.00    -0.000 C 
BRANCH   7   8
ATOM      8  C   UNL     1     -19.054 -11.738  -0.217  1.00  0.00    -0.000 C 
BRANCH   8   9
ATOM      9  C   UNL     1     -19.380 -13.012  -1.010  1.00  0.00    -0.000 C 
BRANCH   9  10
ATOM     10  C   UNL     1     -18.930 -12.876  -2.472  1.00  0.00    -0.000 C 
BRANCH  10  11
ATOM     11  C   UNL     1     -18.927 -14.221  -3.216  1.00  0.00    -0.003 C 
ATOM     12  C   UNL     1     -17.684 -15.058  -2.915  1.00  0.00     0.004 C 
ENDBRANCH  10  11
ENDBRANCH   9  10
ENDBRANCH   8   9
ENDBRANCH   7   8
ENDBRANCH   6   7
ENDBRANCH   5   6
ENDBRANCH   4   5
ENDBRANCH   3   4
ENDBRANCH   2   3
ENDBRANCH   1   2
BRANCH   1  13
ATOM     13  C   UNL     1     -15.401  -7.863  -1.635  1.00  0.00     0.000 C 
BRANCH  13  14
ATOM     14  C   UNL     1     -16.458  -8.309  -2.663  1.00  0.00     0.000 C 
BRANCH  14  15
ATOM     15  C   UNL     1     -15.845  -8.672  -4.026  1.00  0.00     0.000 C 
BRANCH  15  16
ATOM     16  C   UNL     1     -15.153 -10.044  -4.016  1.00  0.00     0.000 C 
BRANCH  16  17
ATOM     17  C   UNL     1     -15.950 -11.110  -3.249  1.00  0.00     0.000 C 
BRANCH  17  18
ATOM     18  C   UNL     1     -15.340 -12.503  -3.451  1.00  0.00     0.000 C 
BRANCH  18  19
ATOM     19  C   UNL     1     -14.788 -13.059  -2.129  1.00  0.00     0.000 C 
BRANCH  19  20
ATOM     20  C   UNL     1     -15.581 -12.574  -0.906  1.00  0.00     0.006 C 
BRANCH  20  21
ATOM     21  C   UNL     1     -15.954 -13.717   0.047  1.00  0.00     0.053 C 
BRANCH  21  22
ATOM     22  C   UNL     1     -15.173 -13.612   1.319  1.00  0.00     0.041 C 
ATOM     23  O   UNL     1     -15.526 -14.266   2.336  1.00  0.00    -0.550 OA
ATOM     24  O   UNL     1     -14.084 -12.752   1.397  1.00  0.00    -0.550 OA
ENDBRANCH  21  22
ENDBRANCH  20  21
ENDBRANCH  19  20
ENDBRANCH  18  19
ENDBRANCH  17  18
ENDBRANCH  16  17
ENDBRANCH  15  16
ENDBRANCH  14  15
ENDBRANCH  13  14
ENDBRANCH   1  13
TORSDOF 20
ENDMDL
MODEL 6
REMARK VINA RESULT:    -6.217      2.433      6.332
REMARK INTER + INTRA:         -16.912
REMARK INTER:                 -13.683
REMARK INTRA:                  -3.230
REMARK UNBOUND:                -3.425
REMARK SMILES CCCCCCCCCCCCCCCCCCCCCC(=O)[O-]
REMARK SMILES IDX 12 1 11 2 10 3 9 4 8 5 7 6 6 7 5 8 4 9 3 10 2 11 1 12 13 13
REMARK SMILES IDX 14 14 15 15 16 16 17 17 18 18 19 19 20 20 21 21 22 22 23 23
REMARK SMILES IDX 24 24
REMARK H PARENT
REMARK Flexibility Score: inf
ROOT
ATOM      1  C   UNL     1     -19.037  -9.417  -0.696  1.00  0.00     0.000 C 
ENDROOT
BRANCH   1   2
ATOM      2  C   UNL     1     -19.006  -8.400   0.459  1.00  0.00     0.000 C 
BRANCH   2   3
ATOM      3  C   UNL     1     -17.691  -8.446   1.253  1.00  0.00     0.000 C 
BRANCH   3   4
ATOM      4  C   UNL     1     -16.734  -7.301   0.880  1.00  0.00    -0.000 C 
BRANCH   4   5
ATOM      5  C   UNL     1     -15.723  -7.701  -0.210  1.00  0.00    -0.000 C 
BRANCH   5   6
ATOM      6  C   UNL     1     -14.935  -8.996   0.074  1.00  0.00    -0.000 C 
BRANCH   6   7
ATOM      7  C   UNL     1     -14.378  -9.712  -1.173  1.00  0.00    -0.000 C 
BRANCH   7   8
ATOM      8  C   UNL     1     -15.214 -10.908  -1.664  1.00  0.00    -0.000 C 
BRANCH   8   9
ATOM      9  C   UNL     1     -15.641 -10.775  -3.132  1.00  0.00    -0.000 C 
BRANCH   9  10
ATOM     10  C   UNL     1     -15.394  -9.349  -3.647  1.00  0.00    -0.000 C 
BRANCH  10  11
ATOM     11  C   UNL     1     -16.695  -8.550  -3.817  1.00  0.00    -0.003 C 
ATOM     12  C   UNL     1     -16.704  -7.698  -5.086  1.00  0.00     0.004 C 
ENDBRANCH  10  11
ENDBRANCH   9  10
ENDBRANCH   8   9
ENDBRANCH   7   8
ENDBRANCH   6   7
ENDBRANCH   5   6
ENDBRANCH   4   5
ENDBRANCH   3   4
ENDBRANCH   2   3
ENDBRANCH   1   2
BRANCH   1  13
ATOM     13  C   UNL     1     -18.210 -10.683  -0.399  1.00  0.00     0.000 C 
BRANCH  13  14
ATOM     14  C   UNL     1     -19.030 -11.894   0.084  1.00  0.00     0.000 C 
BRANCH  14  15
ATOM     15  C   UNL     1     -19.528 -12.774  -1.074  1.00  0.00     0.000 C 
BRANCH  15  16
ATOM     16  C   UNL     1     -18.640 -12.664  -2.324  1.00  0.00     0.000 C 
BRANCH  16  17
ATOM     17  C   UNL     1     -18.456 -14.007  -3.046  1.00  0.00     0.000 C 
BRANCH  17  18
ATOM     18  C   UNL     1     -16.972 -14.382  -3.139  1.00  0.00     0.000 C 
BRANCH  18  19
ATOM     19  C   UNL     1     -16.506 -15.107  -1.868  1.00  0.00     0.000 C 
BRANCH  19  20
ATOM     20  C   UNL     1     -15.662 -14.209  -0.951  1.00  0.00     0.006 C 
BRANCH  20  21
ATOM     21  C   UNL     1     -16.353 -13.912   0.386  1.00  0.00     0.053 C 
BRANCH  21  22
ATOM     22  C   UNL     1     -15.337 -13.718   1.467  1.00  0.00     0.041 C 
ATOM     23  O   UNL     1     -14.317 -13.008   1.258  1.00  0.00    -0.550 OA
ATOM     24  O   UNL     1     -15.489 -14.362   2.689  1.00  0.00    -0.550 OA
ENDBRANCH  21  22
ENDBRANCH  20  21
ENDBRANCH  19  20
ENDBRANCH  18  19
ENDBRANCH  17  18
ENDBRANCH  16  17
ENDBRANCH  15  16
ENDBRANCH  14  15
ENDBRANCH  13  14
ENDBRANCH   1  13
TORSDOF 20
ENDMDL
MODEL 7
REMARK VINA RESULT:    -5.899      0.833      2.669
REMARK INTER + INTRA:         -16.220
REMARK INTER:                 -12.742
REMARK INTRA:                  -3.478
REMARK UNBOUND:                -3.425
REMARK SMILES CCCCCCCCCCCCCCCCCCCCCC(=O)[O-]
REMARK SMILES IDX 12 1 11 2 10 3 9 4 8 5 7 6 6 7 5 8 4 9 3 10 2 11 1 12 13 13
REMARK SMILES IDX 14 14 15 15 16 16 17 17 18 18 19 19 20 20 21 21 22 22 23 23
REMARK SMILES IDX 24 24
REMARK H PARENT
REMARK Flexibility Score: inf
ROOT
ATOM      1  C   UNL     1     -18.332 -11.309  -1.169  1.00  0.00     0.000 C 
ENDROOT
BRANCH   1   2
ATOM      2  C   UNL     1     -18.265 -12.505  -0.202  1.00  0.00     0.000 C 
BRANCH   2   3
ATOM      3  C   UNL     1     -16.916 -12.598   0.530  1.00  0.00     0.000 C 
BRANCH   3   4
ATOM      4  C   UNL     1     -16.157 -13.896   0.205  1.00  0.00    -0.000 C 
BRANCH   4   5
ATOM      5  C   UNL     1     -14.781 -13.637  -0.435  1.00  0.00    -0.000 C 
BRANCH   5   6
ATOM      6  C   UNL     1     -14.610 -12.241  -1.070  1.00  0.00    -0.000 C 
BRANCH   6   7
ATOM      7  C   UNL     1     -15.423 -12.002  -2.358  1.00  0.00    -0.000 C 
BRANCH   7   8
ATOM      8  C   UNL     1     -15.394 -13.161  -3.370  1.00  0.00    -0.000 C 
BRANCH   8   9
ATOM      9  C   UNL     1     -16.793 -13.694  -3.708  1.00  0.00    -0.000 C 
BRANCH   9  10
ATOM     10  C   UNL     1     -17.095 -14.978  -2.921  1.00  0.00    -0.000 C 
BRANCH  10  11
ATOM     11  C   UNL     1     -18.598 -15.180  -2.675  1.00  0.00    -0.003 C 
ATOM     12  C   UNL     1     -19.445 -14.028  -3.218  1.00  0.00     0.004 C 
ENDBRANCH  10  11
ENDBRANCH   9  10
ENDBRANCH   8   9
ENDBRANCH   7   8
ENDBRANCH   6   7
ENDBRANCH   5   6
ENDBRANCH   4   5
ENDBRANCH   3   4
ENDBRANCH   2   3
ENDBRANCH   1   2
BRANCH   1  13
ATOM     13  C   UNL     1     -19.528 -10.379  -0.886  1.00  0.00     0.000 C 
BRANCH  13  14
ATOM     14  C   UNL     1     -19.157  -9.012  -0.281  1.00  0.00     0.000 C 
BRANCH  14  15
ATOM     15  C   UNL     1     -18.218  -9.134   0.931  1.00  0.00     0.000 C 
BRANCH  15  16
ATOM     16  C   UNL     1     -17.667  -7.775   1.391  1.00  0.00     0.000 C 
BRANCH  16  17
ATOM     17  C   UNL     1     -16.254  -7.492   0.858  1.00  0.00     0.000 C 
BRANCH  17  18
ATOM     18  C   UNL     1     -15.589  -8.778   0.355  1.00  0.00     0.000 C 
BRANCH  18  19
ATOM     19  C   UNL     1     -15.022  -8.588  -1.060  1.00  0.00     0.000 C 
BRANCH  19  20
ATOM     20  C   UNL     1     -15.915  -7.701  -1.941  1.00  0.00     0.006 C 
BRANCH  20  21
ATOM     21  C   UNL     1     -16.807  -8.514  -2.888  1.00  0.00     0.053 C 
BRANCH  21  22
ATOM     22  C   UNL     1     -16.197  -8.578  -4.253  1.00  0.00     0.041 C 
ATOM     23  O   UNL     1     -16.712  -7.938  -5.208  1.00  0.00    -0.550 OA
ATOM     24  O   UNL     1     -15.089  -9.385  -4.482  1.00  0.00    -0.550 OA
ENDBRANCH  21  22
ENDBRANCH  20  21
ENDBRANCH  19  20
ENDBRANCH  18  19
ENDBRANCH  17  18
ENDBRANCH  16  17
ENDBRANCH  15  16
ENDBRANCH  14  15
ENDBRANCH  13  14
ENDBRANCH   1  13
TORSDOF 20
ENDMDL
MODEL 8
REMARK VINA RESULT:    -5.796      1.715      4.739
REMARK INTER + INTRA:         -15.997
REMARK INTER:                 -12.557
REMARK INTRA:                  -3.440
REMARK UNBOUND:                -3.425
REMARK SMILES CCCCCCCCCCCCCCCCCCCCCC(=O)[O-]
REMARK SMILES IDX 12 1 11 2 10 3 9 4 8 5 7 6 6 7 5 8 4 9 3 10 2 11 1 12 13 13
REMARK SMILES IDX 14 14 15 15 16 16 17 17 18 18 19 19 20 20 21 21 22 22 23 23
REMARK SMILES IDX 24 24
REMARK H PARENT
REMARK Flexibility Score: inf
ROOT
ATOM      1  C   UNL     1     -15.933  -8.005   1.106  1.00  0.00     0.000 C 
ENDROOT
BRANCH   1   2
ATOM      2  C   UNL     1     -15.292  -7.657  -0.249  1.00  0.00     0.000 C 
BRANCH   2   3
ATOM      3  C   UNL     1     -16.335  -7.371  -1.342  1.00  0.00     0.000 C 
BRANCH   3   4
ATOM      4  C   UNL     1     -15.913  -7.915  -2.718  1.00  0.00    -0.000 C 
BRANCH   4   5
ATOM      5  C   UNL     1     -16.735  -9.142  -3.151  1.00  0.00    -0.000 C 
BRANCH   5   6
ATOM      6  C   UNL     1     -15.944 -10.464  -3.226  1.00  0.00    -0.000 C 
BRANCH   6   7
ATOM      7  C   UNL     1     -15.052 -10.765  -2.005  1.00  0.00    -0.000 C 
BRANCH   7   8
ATOM      8  C   UNL     1     -15.762 -11.481  -0.841  1.00  0.00    -0.000 C 
BRANCH   8   9
ATOM      9  C   UNL     1     -14.931 -11.488   0.450  1.00  0.00    -0.000 C 
BRANCH   9  10
ATOM     10  C   UNL     1     -14.631 -12.925   0.900  1.00  0.00    -0.000 C 
BRANCH  10  11
ATOM     11  C   UNL     1     -15.891 -13.675   1.360  1.00  0.00    -0.003 C 
ATOM     12  C   UNL     1     -15.637 -14.563   2.578  1.00  0.00     0.004 C 
ENDBRANCH  10  11
ENDBRANCH   9  10
ENDBRANCH   8   9
ENDBRANCH   7   8
ENDBRANCH   6   7
ENDBRANCH   5   6
ENDBRANCH   4   5
ENDBRANCH   3   4
ENDBRANCH   2   3
ENDBRANCH   1   2
BRANCH   1  13
ATOM     13  C   UNL     1     -17.466  -7.846   1.099  1.00  0.00     0.000 C 
BRANCH  13  14
ATOM     14  C   UNL     1     -18.252  -9.152   0.880  1.00  0.00     0.000 C 
BRANCH  14  15
ATOM     15  C   UNL     1     -19.216  -9.072  -0.316  1.00  0.00     0.000 C 
BRANCH  15  16
ATOM     16  C   UNL     1     -19.408 -10.429  -1.012  1.00  0.00     0.000 C 
BRANCH  16  17
ATOM     17  C   UNL     1     -19.094 -11.621  -0.095  1.00  0.00     0.000 C 
BRANCH  17  18
ATOM     18  C   UNL     1     -19.092 -12.936  -0.884  1.00  0.00     0.000 C 
BRANCH  18  19
ATOM     19  C   UNL     1     -18.900 -12.676  -2.386  1.00  0.00     0.000 C 
BRANCH  19  20
ATOM     20  C   UNL     1     -19.002 -13.959  -3.225  1.00  0.00     0.006 C 
BRANCH  20  21
ATOM     21  C   UNL     1     -17.976 -15.021  -2.809  1.00  0.00     0.053 C 
BRANCH  21  22
ATOM     22  C   UNL     1     -16.590 -14.461  -2.874  1.00  0.00     0.041 C 
ATOM     23  O   UNL     1     -16.237 -13.756  -3.856  1.00  0.00    -0.550 OA
ATOM     24  O   UNL     1     -15.672 -14.760  -1.875  1.00  0.00    -0.550 OA
ENDBRANCH  21  22
ENDBRANCH  20  21
ENDBRANCH  19  20
ENDBRANCH  18  19
ENDBRANCH  17  18
ENDBRANCH  16  17
ENDBRANCH  15  16
ENDBRANCH  14  15
ENDBRANCH  13  14
ENDBRANCH   1  13
TORSDOF 20
ENDMDL
MODEL 9
REMARK VINA RESULT:    -5.705      2.078      4.231
REMARK INTER + INTRA:         -15.801
REMARK INTER:                 -12.909
REMARK INTRA:                  -2.891
REMARK UNBOUND:                -3.425
REMARK SMILES CCCCCCCCCCCCCCCCCCCCCC(=O)[O-]
REMARK SMILES IDX 12 1 11 2 10 3 9 4 8 5 7 6 6 7 5 8 4 9 3 10 2 11 1 12 13 13
REMARK SMILES IDX 14 14 15 15 16 16 17 17 18 18 19 19 20 20 21 21 22 22 23 23
REMARK SMILES IDX 24 24
REMARK H PARENT
REMARK Flexibility Score: inf
ROOT
ATOM      1  C   UNL     1     -15.841  -7.392  -1.681  1.00  0.00     0.000 C 
ENDROOT
BRANCH   1   2
ATOM      2  C   UNL     1     -16.731  -8.189  -2.652  1.00  0.00     0.000 C 
BRANCH   2   3
ATOM      3  C   UNL     1     -16.083  -8.372  -4.034  1.00  0.00     0.000 C 
BRANCH   3   4
ATOM      4  C   UNL     1     -14.907  -9.364  -4.009  1.00  0.00    -0.000 C 
BRANCH   4   5
ATOM      5  C   UNL     1     -15.341 -10.809  -4.314  1.00  0.00    -0.000 C 
BRANCH   5   6
ATOM      6  C   UNL     1     -15.475 -11.724  -3.079  1.00  0.00    -0.000 C 
BRANCH   6   7
ATOM      7  C   UNL     1     -15.006 -11.103  -1.748  1.00  0.00    -0.000 C 
BRANCH   7   8
ATOM      8  C   UNL     1     -15.031 -12.057  -0.540  1.00  0.00    -0.000 C 
BRANCH   8   9
ATOM      9  C   UNL     1     -15.139 -13.533  -0.948  1.00  0.00    -0.000 C 
BRANCH   9  10
ATOM     10  C   UNL     1     -15.760 -14.369   0.181  1.00  0.00    -0.000 C 
BRANCH  10  11
ATOM     11  C   UNL     1     -15.576 -13.723   1.563  1.00  0.00    -0.003 C 
ATOM     12  C   UNL     1     -15.751 -14.721   2.709  1.00  0.00     0.004 C 
ENDBRANCH  10  11
ENDBRANCH   9  10
ENDBRANCH   8   9
ENDBRANCH   7   8
ENDBRANCH   6   7
ENDBRANCH   5   6
ENDBRANCH   4   5
ENDBRANCH   3   4
ENDBRANCH   2   3
ENDBRANCH   1   2
BRANCH   1  13
ATOM     13  C   UNL     1     -15.120  -8.290  -0.658  1.00  0.00     0.000 C 
BRANCH  13  14
ATOM     14  C   UNL     1     -15.820  -8.407   0.709  1.00  0.00     0.000 C 
BRANCH  14  15
ATOM     15  C   UNL     1     -17.137  -7.616   0.771  1.00  0.00     0.000 C 
BRANCH  15  16
ATOM     16  C   UNL     1     -18.331  -8.488   1.194  1.00  0.00     0.000 C 
BRANCH  16  17
ATOM     17  C   UNL     1     -19.342  -8.709   0.059  1.00  0.00     0.000 C 
BRANCH  17  18
ATOM     18  C   UNL     1     -18.922  -9.885  -0.829  1.00  0.00     0.000 C 
BRANCH  18  19
ATOM     19  C   UNL     1     -18.509 -11.097   0.020  1.00  0.00     0.000 C 
BRANCH  19  20
ATOM     20  C   UNL     1     -18.796 -12.435  -0.679  1.00  0.00     0.006 C 
BRANCH  20  21
ATOM     21  C   UNL     1     -18.596 -12.363  -2.198  1.00  0.00     0.053 C 
BRANCH  21  22
ATOM     22  C   UNL     1     -18.711 -13.727  -2.804  1.00  0.00     0.041 C 
ATOM     23  O   UNL     1     -19.824 -14.144  -3.219  1.00  0.00    -0.550 OA
ATOM     24  O   UNL     1     -17.598 -14.557  -2.865  1.00  0.00    -0.550 OA
ENDBRANCH  21  22
ENDBRANCH  20  21
ENDBRANCH  19  20
ENDBRANCH  18  19
ENDBRANCH  17  18
ENDBRANCH  16  17
ENDBRANCH  15  16
ENDBRANCH  14  15
ENDBRANCH  13  14
ENDBRANCH   1  13
TORSDOF 20
ENDMDL
