MODEL 1
REMARK VINA RESULT:    -0.882      0.000      0.000
REMARK INTER + INTRA:          -1.038
REMARK INTER:                  -1.062
REMARK INTRA:                   0.025
REMARK UNBOUND:                 0.025
REMARK SMILES Oc1cc(O)c2cc(O)c(-c3ccc(O)c(O)c3)[o+]c2c1
REMARK SMILES IDX 10 1 19 2 20 3 21 4 2 5 3 6 4 7 6 8 7 9 8 10 11 11 12 12
REMARK SMILES IDX 13 13 14 14 18 15 16 16 15 17 17 19 9 21 1 23 5 25
REMARK H PARENT 15 18 17 20 9 22 1 24 5 26
REMARK Flexibility Score: inf
ROOT
ATOM      1  C   UNL     1      11.970  32.553 -16.116  1.00  0.00     0.402 A 
ATOM      2  O   UNL     1      10.863  32.710 -15.395  1.00  0.00    -0.202 OA
ATOM      3  C   UNL     1       9.640  32.597 -15.902  1.00  0.00     0.368 A 
ATOM      4  C   UNL     1       8.537  32.776 -15.064  1.00  0.00     0.162 A 
ATOM      5  C   UNL     1       7.241  32.659 -15.568  1.00  0.00     0.128 A 
ATOM      6  C   UNL     1       7.044  32.361 -16.921  1.00  0.00     0.093 A 
ATOM      7  C   UNL     1       8.134  32.176 -17.782  1.00  0.00     0.136 A 
ATOM      8  C   UNL     1       9.453  32.296 -17.272  1.00  0.00     0.125 A 
ATOM      9  C   UNL     1      10.603  32.141 -18.064  1.00  0.00     0.078 A 
ATOM     10  C   UNL     1      11.870  32.279 -17.492  1.00  0.00     0.223 A 
ENDROOT
BRANCH   1  11
ATOM     11  C   UNL     1      13.276  32.695 -15.433  1.00  0.00     0.087 A 
ATOM     12  C   UNL     1      13.515  31.987 -14.245  1.00  0.00     0.022 A 
ATOM     13  C   UNL     1      14.748  32.090 -13.594  1.00  0.00     0.051 A 
ATOM     14  C   UNL     1      15.764  32.890 -14.131  1.00  0.00     0.157 A 
ATOM     15  C   UNL     1      14.307  33.482 -15.979  1.00  0.00     0.068 A 
ATOM     16  C   UNL     1      15.545  33.584 -15.327  1.00  0.00     0.158 A 
BRANCH  14  17
ATOM     17  O   UNL     1      16.994  32.998 -13.484  1.00  0.00    -0.504 OA
ATOM     18  H   UNL     1      17.616  33.780 -13.654  1.00  0.00     0.293 HD
ENDBRANCH  14  17
BRANCH  16  19
ATOM     19  O   UNL     1      16.563  34.369 -15.866  1.00  0.00    -0.504 OA
ATOM     20  H   UNL     1      16.423  34.913 -16.710  1.00  0.00     0.293 HD
ENDBRANCH  16  19
ENDBRANCH   1  11
BRANCH  10  21
ATOM     21  O   UNL     1      13.012  32.175 -18.287  1.00  0.00    -0.500 OA
ATOM     22  H   UNL     1      13.368  31.277 -18.593  1.00  0.00     0.294 HD
ENDBRANCH  10  21
BRANCH   5  23
ATOM     23  O   UNL     1       6.154  32.842 -14.716  1.00  0.00    -0.507 OA
ATOM     24  H   UNL     1       5.962  33.739 -14.287  1.00  0.00     0.293 HD
ENDBRANCH   5  23
BRANCH   7  25
ATOM     25  O   UNL     1       7.853  31.877 -19.118  1.00  0.00    -0.507 OA
ATOM     26  H   UNL     1       7.121  32.315 -19.658  1.00  0.00     0.293 HD
ENDBRANCH   7  25
TORSDOF 6
ENDMDL
MODEL 2
REMARK VINA RESULT:     0.877      0.716      1.463
REMARK INTER + INTRA:           1.081
REMARK INTER:                   0.855
REMARK INTRA:                   0.226
REMARK UNBOUND:                 0.025
REMARK SMILES Oc1cc(O)c2cc(O)c(-c3ccc(O)c(O)c3)[o+]c2c1
REMARK SMILES IDX 10 1 19 2 20 3 21 4 2 5 3 6 4 7 6 8 7 9 8 10 11 11 12 12
REMARK SMILES IDX 13 13 14 14 18 15 16 16 15 17 17 19 9 21 1 23 5 25
REMARK H PARENT 15 18 17 20 9 22 1 24 5 26
REMARK Flexibility Score: inf
ROOT
ATOM      1  C   UNL     1      12.321  32.648 -16.450  1.00  0.00     0.402 A 
ATOM      2  O   UNL     1      11.269  32.794 -15.648  1.00  0.00    -0.202 OA
ATOM      3  C   UNL     1      10.013  32.656 -16.060  1.00  0.00     0.368 A 
ATOM      4  C   UNL     1       8.974  32.825 -15.142  1.00  0.00     0.162 A 
ATOM      5  C   UNL     1       7.646  32.683 -15.545  1.00  0.00     0.128 A 
ATOM      6  C   UNL     1       7.352  32.368 -16.877  1.00  0.00     0.093 A 
ATOM      7  C   UNL     1       8.376  32.192 -17.816  1.00  0.00     0.136 A 
ATOM      8  C   UNL     1       9.727  32.339 -17.410  1.00  0.00     0.125 A 
ATOM      9  C   UNL     1      10.817  32.195 -18.285  1.00  0.00     0.078 A 
ATOM     10  C   UNL     1      12.121  32.358 -17.813  1.00  0.00     0.223 A 
ENDROOT
BRANCH   1  11
ATOM     11  C   UNL     1      13.672  32.818 -15.870  1.00  0.00     0.087 A 
ATOM     12  C   UNL     1      14.686  33.407 -16.641  1.00  0.00     0.022 A 
ATOM     13  C   UNL     1      15.964  33.596 -16.106  1.00  0.00     0.051 A 
ATOM     14  C   UNL     1      16.241  33.213 -14.788  1.00  0.00     0.157 A 
ATOM     15  C   UNL     1      13.950  32.454 -14.539  1.00  0.00     0.068 A 
ATOM     16  C   UNL     1      15.231  32.645 -14.002  1.00  0.00     0.158 A 
BRANCH  14  17
ATOM     17  O   UNL     1      17.514  33.398 -14.252  1.00  0.00    -0.504 OA
ATOM     18  H   UNL     1      17.985  32.662 -13.738  1.00  0.00     0.293 HD
ENDBRANCH  14  17
BRANCH  16  19
ATOM     19  O   UNL     1      15.506  32.278 -12.685  1.00  0.00    -0.504 OA
ATOM     20  H   UNL     1      16.435  31.996 -12.397  1.00  0.00     0.293 HD
ENDBRANCH  16  19
ENDBRANCH   1  11
BRANCH  10  21
ATOM     21  O   UNL     1      13.201  32.265 -18.691  1.00  0.00    -0.500 OA
ATOM     22  H   UNL     1      13.726  33.082 -18.979  1.00  0.00     0.294 HD
ENDBRANCH  10  21
BRANCH   5  23
ATOM     23  O   UNL     1       6.623  32.857 -14.615  1.00  0.00    -0.507 OA
ATOM     24  H   UNL     1       6.818  32.953 -13.625  1.00  0.00     0.293 HD
ENDBRANCH   5  23
BRANCH   7  25
ATOM     25  O   UNL     1       7.999  31.876 -19.125  1.00  0.00    -0.507 OA
ATOM     26  H   UNL     1       7.076  32.025 -19.504  1.00  0.00     0.293 HD
ENDBRANCH   7  25
TORSDOF 6
ENDMDL
MODEL 3
REMARK VINA RESULT:     1.473      1.357      6.879
REMARK INTER + INTRA:           1.799
REMARK INTER:                   1.517
REMARK INTRA:                   0.282
REMARK UNBOUND:                 0.025
REMARK SMILES Oc1cc(O)c2cc(O)c(-c3ccc(O)c(O)c3)[o+]c2c1
REMARK SMILES IDX 10 1 19 2 20 3 21 4 2 5 3 6 4 7 6 8 7 9 8 10 11 11 12 12
REMARK SMILES IDX 13 13 14 14 18 15 16 16 15 17 17 19 9 21 1 23 5 25
REMARK H PARENT 15 18 17 20 9 22 1 24 5 26
REMARK Flexibility Score: inf
ROOT
ATOM      1  C   UNL     1      12.325  32.387 -16.739  1.00  0.00     0.402 A 
ATOM      2  O   UNL     1      12.941  32.647 -15.588  1.00  0.00    -0.202 OA
ATOM      3  C   UNL     1      14.258  32.782 -15.479  1.00  0.00     0.368 A 
ATOM      4  C   UNL     1      14.813  33.059 -14.227  1.00  0.00     0.162 A 
ATOM      5  C   UNL     1      16.192  33.210 -14.084  1.00  0.00     0.128 A 
ATOM      6  C   UNL     1      17.027  33.083 -15.201  1.00  0.00     0.093 A 
ATOM      7  C   UNL     1      16.495  32.807 -16.467  1.00  0.00     0.136 A 
ATOM      8  C   UNL     1      15.093  32.651 -16.615  1.00  0.00     0.125 A 
ATOM      9  C   UNL     1      14.474  32.359 -17.842  1.00  0.00     0.078 A 
ATOM     10  C   UNL     1      13.086  32.215 -17.910  1.00  0.00     0.223 A 
ENDROOT
BRANCH   1  11
ATOM     11  C   UNL     1      10.849  32.268 -16.732  1.00  0.00     0.087 A 
ATOM     12  C   UNL     1      10.182  32.015 -15.523  1.00  0.00     0.022 A 
ATOM     13  C   UNL     1       8.788  31.920 -15.490  1.00  0.00     0.051 A 
ATOM     14  C   UNL     1       8.041  32.092 -16.662  1.00  0.00     0.157 A 
ATOM     15  C   UNL     1      10.093  32.461 -17.903  1.00  0.00     0.068 A 
ATOM     16  C   UNL     1       8.694  32.367 -17.869  1.00  0.00     0.158 A 
BRANCH  14  17
ATOM     17  O   UNL     1       6.651  31.995 -16.634  1.00  0.00    -0.504 OA
ATOM     18  H   UNL     1       6.146  31.414 -17.293  1.00  0.00     0.293 HD
ENDBRANCH  14  17
BRANCH  16  19
ATOM     19  O   UNL     1       7.947  32.552 -19.032  1.00  0.00    -0.504 OA
ATOM     20  H   UNL     1       8.082  33.361 -19.626  1.00  0.00     0.293 HD
ENDBRANCH  16  19
ENDBRANCH   1  11
BRANCH  10  21
ATOM     21  O   UNL     1      12.475  31.876 -19.118  1.00  0.00    -0.500 OA
ATOM     22  H   UNL     1      12.974  31.924 -19.998  1.00  0.00     0.294 HD
ENDBRANCH  10  21
BRANCH   5  23
ATOM     23  O   UNL     1      16.726  33.485 -12.827  1.00  0.00    -0.507 OA
ATOM     24  H   UNL     1      16.945  34.431 -12.540  1.00  0.00     0.293 HD
ENDBRANCH   5  23
BRANCH   7  25
ATOM     25  O   UNL     1      17.395  32.699 -17.532  1.00  0.00    -0.507 OA
ATOM     26  H   UNL     1      17.806  33.487 -18.011  1.00  0.00     0.293 HD
ENDBRANCH   7  25
TORSDOF 6
ENDMDL
