MODEL 1
REMARK VINA RESULT:    -4.422      0.000      0.000
REMARK INTER + INTRA:          -7.992
REMARK INTER:                  -7.007
REMARK INTRA:                  -0.984
REMARK UNBOUND:                -0.984
REMARK SMILES CCCCCCCCCCCC(=O)[O-]
REMARK SMILES IDX 7 1 8 2 9 3 10 4 11 5 12 6 13 7 14 8 6 9 5 10 4 11 3 12 2 13
REMARK SMILES IDX 1 14
REMARK H PARENT
REMARK Flexibility Score: inf
ROOT
ATOM      1  C   UNL     1     -30.401 -23.656  15.017  1.00  0.00     0.000 C 
ENDROOT
BRANCH   1   2
ATOM      2  C   UNL     1     -30.919 -24.021  16.422  1.00  0.00     0.000 C 
BRANCH   2   3
ATOM      3  C   UNL     1     -29.937 -23.737  17.573  1.00  0.00     0.000 C 
BRANCH   3   4
ATOM      4  C   UNL     1     -29.084 -22.481  17.333  1.00  0.00     0.006 C 
BRANCH   4   5
ATOM      5  C   UNL     1     -29.431 -21.350  18.309  1.00  0.00     0.053 C 
BRANCH   5   6
ATOM      6  C   UNL     1     -29.957 -20.142  17.595  1.00  0.00     0.041 C 
ATOM      7  O   UNL     1     -29.622 -18.988  17.969  1.00  0.00    -0.550 OA
ATOM      8  O   UNL     1     -30.795 -20.293  16.497  1.00  0.00    -0.550 OA
ENDBRANCH   5   6
ENDBRANCH   4   5
ENDBRANCH   3   4
ENDBRANCH   2   3
ENDBRANCH   1   2
BRANCH   1   9
ATOM      9  C   UNL     1     -29.872 -24.841  14.185  1.00  0.00     0.000 C 
BRANCH   9  10
ATOM     10  C   UNL     1     -28.506 -25.393  14.633  1.00  0.00    -0.000 C 
BRANCH  10  11
ATOM     11  C   UNL     1     -27.369 -24.373  14.471  1.00  0.00    -0.000 C 
BRANCH  11  12
ATOM     12  C   UNL     1     -26.435 -24.395  15.689  1.00  0.00    -0.000 C 
BRANCH  12  13
ATOM     13  C   UNL     1     -25.030 -24.917  15.349  1.00  0.00    -0.003 C 
ATOM     14  C   UNL     1     -24.408 -25.726  16.486  1.00  0.00     0.004 C 
ENDBRANCH  12  13
ENDBRANCH  11  12
ENDBRANCH  10  11
ENDBRANCH   9  10
ENDBRANCH   1   9
TORSDOF 10
ENDMDL
MODEL 2
REMARK VINA RESULT:    -4.416     10.279     12.200
REMARK INTER + INTRA:          -7.982
REMARK INTER:                  -7.234
REMARK INTRA:                  -0.748
REMARK UNBOUND:                -0.984
REMARK SMILES CCCCCCCCCCCC(=O)[O-]
REMARK SMILES IDX 7 1 8 2 9 3 10 4 11 5 12 6 13 7 14 8 6 9 5 10 4 11 3 12 2 13
REMARK SMILES IDX 1 14
REMARK H PARENT
REMARK Flexibility Score: inf
ROOT
ATOM      1  C   UNL     1     -20.569 -24.370  14.008  1.00  0.00     0.000 C 
ENDROOT
BRANCH   1   2
ATOM      2  C   UNL     1     -19.163 -24.273  14.633  1.00  0.00     0.000 C 
BRANCH   2   3
ATOM      3  C   UNL     1     -18.473 -25.624  14.896  1.00  0.00     0.000 C 
BRANCH   3   4
ATOM      4  C   UNL     1     -17.119 -25.751  14.178  1.00  0.00     0.006 C 
BRANCH   4   5
ATOM      5  C   UNL     1     -17.184 -25.257  12.727  1.00  0.00     0.053 C 
BRANCH   5   6
ATOM      6  C   UNL     1     -15.940 -25.602  11.967  1.00  0.00     0.041 C 
ATOM      7  O   UNL     1     -14.815 -25.219  12.382  1.00  0.00    -0.550 OA
ATOM      8  O   UNL     1     -16.022 -26.372  10.813  1.00  0.00    -0.550 OA
ENDBRANCH   5   6
ENDBRANCH   4   5
ENDBRANCH   3   4
ENDBRANCH   2   3
ENDBRANCH   1   2
BRANCH   1   9
ATOM      9  C   UNL     1     -20.794 -23.494  12.760  1.00  0.00     0.000 C 
BRANCH   9  10
ATOM     10  C   UNL     1     -19.872 -22.264  12.653  1.00  0.00    -0.000 C 
BRANCH  10  11
ATOM     11  C   UNL     1     -19.108 -22.206  11.322  1.00  0.00    -0.000 C 
BRANCH  11  12
ATOM     12  C   UNL     1     -19.805 -21.263  10.330  1.00  0.00    -0.000 C 
BRANCH  12  13
ATOM     13  C   UNL     1     -20.140 -21.951   8.997  1.00  0.00    -0.003 C 
ATOM     14  C   UNL     1     -21.399 -21.386   8.340  1.00  0.00     0.004 C 
ENDBRANCH  12  13
ENDBRANCH  11  12
ENDBRANCH  10  11
ENDBRANCH   9  10
ENDBRANCH   1   9
TORSDOF 10
ENDMDL
MODEL 3
REMARK VINA RESULT:    -4.408      1.629      3.800
REMARK INTER + INTRA:          -7.969
REMARK INTER:                  -6.668
REMARK INTRA:                  -1.301
REMARK UNBOUND:                -0.984
REMARK SMILES CCCCCCCCCCCC(=O)[O-]
REMARK SMILES IDX 7 1 8 2 9 3 10 4 11 5 12 6 13 7 14 8 6 9 5 10 4 11 3 12 2 13
REMARK SMILES IDX 1 14
REMARK H PARENT
REMARK Flexibility Score: inf
ROOT
ATOM      1  C   UNL     1     -28.078 -25.034  15.865  1.00  0.00     0.000 C 
ENDROOT
BRANCH   1   2
ATOM      2  C   UNL     1     -28.532 -23.794  16.659  1.00  0.00     0.000 C 
BRANCH   2   3
ATOM      3  C   UNL     1     -29.735 -24.022  17.591  1.00  0.00     0.000 C 
BRANCH   3   4
ATOM      4  C   UNL     1     -30.235 -22.724  18.248  1.00  0.00     0.006 C 
BRANCH   4   5
ATOM      5  C   UNL     1     -29.310 -21.535  17.960  1.00  0.00     0.053 C 
BRANCH   5   6
ATOM      6  C   UNL     1     -30.054 -20.389  17.346  1.00  0.00     0.041 C 
ATOM      7  O   UNL     1     -29.840 -19.211  17.736  1.00  0.00    -0.550 OA
ATOM      8  O   UNL     1     -30.965 -20.619  16.323  1.00  0.00    -0.550 OA
ENDBRANCH   5   6
ENDBRANCH   4   5
ENDBRANCH   3   4
ENDBRANCH   2   3
ENDBRANCH   1   2
BRANCH   1   9
ATOM      9  C   UNL     1     -28.926 -25.364  14.620  1.00  0.00     0.000 C 
BRANCH   9  10
ATOM     10  C   UNL     1     -29.411 -24.140  13.821  1.00  0.00    -0.000 C 
BRANCH  10  11
ATOM     11  C   UNL     1     -30.914 -23.874  13.993  1.00  0.00    -0.000 C 
BRANCH  11  12
ATOM     12  C   UNL     1     -31.675 -25.180  14.263  1.00  0.00    -0.000 C 
BRANCH  12  13
ATOM     13  C   UNL     1     -32.755 -25.021  15.345  1.00  0.00    -0.003 C 
ATOM     14  C   UNL     1     -32.950 -23.568  15.778  1.00  0.00     0.004 C 
ENDBRANCH  12  13
ENDBRANCH  11  12
ENDBRANCH  10  11
ENDBRANCH   9  10
ENDBRANCH   1   9
TORSDOF 10
ENDMDL
MODEL 4
REMARK VINA RESULT:    -4.336     11.513     13.139
REMARK INTER + INTRA:          -7.855
REMARK INTER:                  -7.387
REMARK INTRA:                  -0.468
REMARK UNBOUND:                -0.984
REMARK SMILES CCCCCCCCCCCC(=O)[O-]
REMARK SMILES IDX 7 1 8 2 9 3 10 4 11 5 12 6 13 7 14 8 6 9 5 10 4 11 3 12 2 13
REMARK SMILES IDX 1 14
REMARK H PARENT
REMARK Flexibility Score: inf
ROOT
ATOM      1  C   UNL     1     -25.093 -28.370   4.848  1.00  0.00     0.000 C 
ENDROOT
BRANCH   1   2
ATOM      2  C   UNL     1     -25.538 -29.231   6.047  1.00  0.00     0.000 C 
BRANCH   2   3
ATOM      3  C   UNL     1     -27.053 -29.231   6.321  1.00  0.00     0.000 C 
BRANCH   3   4
ATOM      4  C   UNL     1     -27.388 -29.132   7.818  1.00  0.00     0.006 C 
BRANCH   4   5
ATOM      5  C   UNL     1     -26.178 -28.700   8.655  1.00  0.00     0.053 C 
BRANCH   5   6
ATOM      6  C   UNL     1     -26.294 -27.276   9.105  1.00  0.00     0.041 C 
ATOM      7  O   UNL     1     -27.071 -26.969  10.047  1.00  0.00    -0.550 OA
ATOM      8  O   UNL     1     -25.521 -26.291   8.502  1.00  0.00    -0.550 OA
ENDBRANCH   5   6
ENDBRANCH   4   5
ENDBRANCH   3   4
ENDBRANCH   2   3
ENDBRANCH   1   2
BRANCH   1   9
ATOM      9  C   UNL     1     -24.290 -29.118   3.765  1.00  0.00     0.000 C 
BRANCH   9  10
ATOM     10  C   UNL     1     -23.293 -30.163   4.299  1.00  0.00    -0.000 C 
BRANCH  10  11
ATOM     11  C   UNL     1     -22.007 -30.242   3.462  1.00  0.00    -0.000 C 
BRANCH  11  12
ATOM     12  C   UNL     1     -21.526 -31.694   3.333  1.00  0.00    -0.000 C 
BRANCH  12  13
ATOM     13  C   UNL     1     -22.501 -32.571   2.530  1.00  0.00    -0.003 C 
ATOM     14  C   UNL     1     -21.836 -33.821   1.955  1.00  0.00     0.004 C 
ENDBRANCH  12  13
ENDBRANCH  11  12
ENDBRANCH  10  11
ENDBRANCH   9  10
ENDBRANCH   1   9
TORSDOF 10
ENDMDL
MODEL 5
REMARK VINA RESULT:    -4.304     12.222     14.469
REMARK INTER + INTRA:          -7.805
REMARK INTER:                  -7.113
REMARK INTRA:                  -0.692
REMARK UNBOUND:                -0.984
REMARK SMILES CCCCCCCCCCCC(=O)[O-]
REMARK SMILES IDX 7 1 8 2 9 3 10 4 11 5 12 6 13 7 14 8 6 9 5 10 4 11 3 12 2 13
REMARK SMILES IDX 1 14
REMARK H PARENT
REMARK Flexibility Score: inf
ROOT
ATOM      1  C   UNL     1     -25.135 -28.471   5.259  1.00  0.00     0.000 C 
ENDROOT
BRANCH   1   2
ATOM      2  C   UNL     1     -24.603 -29.109   3.961  1.00  0.00     0.000 C 
BRANCH   2   3
ATOM      3  C   UNL     1     -23.075 -29.042   3.781  1.00  0.00     0.000 C 
BRANCH   3   4
ATOM      4  C   UNL     1     -22.316 -29.911   4.798  1.00  0.00     0.006 C 
BRANCH   4   5
ATOM      5  C   UNL     1     -22.530 -31.410   4.553  1.00  0.00     0.053 C 
BRANCH   5   6
ATOM      6  C   UNL     1     -21.908 -31.856   3.264  1.00  0.00     0.041 C 
ATOM      7  O   UNL     1     -20.696 -31.614   3.027  1.00  0.00    -0.550 OA
ATOM      8  O   UNL     1     -22.663 -32.563   2.337  1.00  0.00    -0.550 OA
ENDBRANCH   5   6
ENDBRANCH   4   5
ENDBRANCH   3   4
ENDBRANCH   2   3
ENDBRANCH   1   2
BRANCH   1   9
ATOM      9  C   UNL     1     -25.822 -29.446   6.237  1.00  0.00     0.000 C 
BRANCH   9  10
ATOM     10  C   UNL     1     -27.327 -29.201   6.449  1.00  0.00    -0.000 C 
BRANCH  10  11
ATOM     11  C   UNL     1     -27.666 -28.782   7.887  1.00  0.00    -0.000 C 
BRANCH  11  12
ATOM     12  C   UNL     1     -26.391 -28.469   8.682  1.00  0.00    -0.000 C 
BRANCH  12  13
ATOM     13  C   UNL     1     -26.273 -26.980   9.048  1.00  0.00    -0.003 C 
ATOM     14  C   UNL     1     -27.569 -26.407   9.621  1.00  0.00     0.004 C 
ENDBRANCH  12  13
ENDBRANCH  11  12
ENDBRANCH  10  11
ENDBRANCH   9  10
ENDBRANCH   1   9
TORSDOF 10
ENDMDL
MODEL 6
REMARK VINA RESULT:    -4.300     14.087     16.300
REMARK INTER + INTRA:          -7.798
REMARK INTER:                  -7.256
REMARK INTRA:                  -0.542
REMARK UNBOUND:                -0.984
REMARK SMILES CCCCCCCCCCCC(=O)[O-]
REMARK SMILES IDX 7 1 8 2 9 3 10 4 11 5 12 6 13 7 14 8 6 9 5 10 4 11 3 12 2 13
REMARK SMILES IDX 1 14
REMARK H PARENT
REMARK Flexibility Score: inf
ROOT
ATOM      1  C   UNL     1     -22.897 -27.027   3.719  1.00  0.00     0.000 C 
ENDROOT
BRANCH   1   2
ATOM      2  C   UNL     1     -22.323 -26.046   2.678  1.00  0.00     0.000 C 
BRANCH   2   3
ATOM      3  C   UNL     1     -21.745 -26.704   1.412  1.00  0.00     0.000 C 
BRANCH   3   4
ATOM      4  C   UNL     1     -20.233 -26.471   1.256  1.00  0.00     0.006 C 
BRANCH   4   5
ATOM      5  C   UNL     1     -19.410 -27.355   2.202  1.00  0.00     0.053 C 
BRANCH   5   6
ATOM      6  C   UNL     1     -17.961 -27.373   1.824  1.00  0.00     0.041 C 
ATOM      7  O   UNL     1     -17.563 -28.091   0.870  1.00  0.00    -0.550 OA
ATOM      8  O   UNL     1     -17.053 -26.575   2.509  1.00  0.00    -0.550 OA
ENDBRANCH   5   6
ENDBRANCH   4   5
ENDBRANCH   3   4
ENDBRANCH   2   3
ENDBRANCH   1   2
BRANCH   1   9
ATOM      9  C   UNL     1     -23.258 -28.424   3.175  1.00  0.00     0.000 C 
BRANCH   9  10
ATOM     10  C   UNL     1     -24.393 -29.142   3.929  1.00  0.00    -0.000 C 
BRANCH  10  11
ATOM     11  C   UNL     1     -24.259 -29.031   5.454  1.00  0.00    -0.000 C 
BRANCH  11  12
ATOM     12  C   UNL     1     -25.546 -28.471   6.078  1.00  0.00    -0.000 C 
BRANCH  12  13
ATOM     13  C   UNL     1     -26.540 -29.574   6.475  1.00  0.00    -0.003 C 
ATOM     14  C   UNL     1     -27.977 -29.249   6.069  1.00  0.00     0.004 C 
ENDBRANCH  12  13
ENDBRANCH  11  12
ENDBRANCH  10  11
ENDBRANCH   9  10
ENDBRANCH   1   9
TORSDOF 10
ENDMDL
MODEL 7
REMARK VINA RESULT:    -4.296     11.189     13.533
REMARK INTER + INTRA:          -7.792
REMARK INTER:                  -6.999
REMARK INTRA:                  -0.792
REMARK UNBOUND:                -0.984
REMARK SMILES CCCCCCCCCCCC(=O)[O-]
REMARK SMILES IDX 7 1 8 2 9 3 10 4 11 5 12 6 13 7 14 8 6 9 5 10 4 11 3 12 2 13
REMARK SMILES IDX 1 14
REMARK H PARENT
REMARK Flexibility Score: inf
ROOT
ATOM      1  C   UNL     1     -23.120 -29.714   5.045  1.00  0.00     0.000 C 
ENDROOT
BRANCH   1   2
ATOM      2  C   UNL     1     -22.818 -31.213   4.849  1.00  0.00     0.000 C 
BRANCH   2   3
ATOM      3  C   UNL     1     -23.056 -32.093   6.089  1.00  0.00     0.000 C 
BRANCH   3   4
ATOM      4  C   UNL     1     -22.892 -31.321   7.409  1.00  0.00     0.006 C 
BRANCH   4   5
ATOM      5  C   UNL     1     -21.895 -32.000   8.356  1.00  0.00     0.053 C 
BRANCH   5   6
ATOM      6  C   UNL     1     -22.440 -32.115   9.747  1.00  0.00     0.041 C 
ATOM      7  O   UNL     1     -23.051 -31.147  10.271  1.00  0.00    -0.550 OA
ATOM      8  O   UNL     1     -22.297 -33.302  10.454  1.00  0.00    -0.550 OA
ENDBRANCH   5   6
ENDBRANCH   4   5
ENDBRANCH   3   4
ENDBRANCH   2   3
ENDBRANCH   1   2
BRANCH   1   9
ATOM      9  C   UNL     1     -24.348 -29.185   4.277  1.00  0.00     0.000 C 
BRANCH   9  10
ATOM     10  C   UNL     1     -25.457 -28.583   5.158  1.00  0.00    -0.000 C 
BRANCH  10  11
ATOM     11  C   UNL     1     -25.934 -29.544   6.256  1.00  0.00    -0.000 C 
BRANCH  11  12
ATOM     12  C   UNL     1     -27.368 -29.210   6.693  1.00  0.00    -0.000 C 
BRANCH  12  13
ATOM     13  C   UNL     1     -27.445 -28.729   8.151  1.00  0.00    -0.003 C 
ATOM     14  C   UNL     1     -26.098 -28.801   8.869  1.00  0.00     0.004 C 
ENDBRANCH  12  13
ENDBRANCH  11  12
ENDBRANCH  10  11
ENDBRANCH   9  10
ENDBRANCH   1   9
TORSDOF 10
ENDMDL
MODEL 8
REMARK VINA RESULT:    -4.292      9.572     11.143
REMARK INTER + INTRA:          -7.786
REMARK INTER:                  -6.877
REMARK INTRA:                  -0.909
REMARK UNBOUND:                -0.984
REMARK SMILES CCCCCCCCCCCC(=O)[O-]
REMARK SMILES IDX 7 1 8 2 9 3 10 4 11 5 12 6 13 7 14 8 6 9 5 10 4 11 3 12 2 13
REMARK SMILES IDX 1 14
REMARK H PARENT
REMARK Flexibility Score: inf
ROOT
ATOM      1  C   UNL     1     -19.504 -23.769  14.099  1.00  0.00     0.000 C 
ENDROOT
BRANCH   1   2
ATOM      2  C   UNL     1     -19.404 -23.334  12.624  1.00  0.00     0.000 C 
BRANCH   2   3
ATOM      3  C   UNL     1     -19.820 -21.878  12.345  1.00  0.00     0.000 C 
BRANCH   3   4
ATOM      4  C   UNL     1     -18.951 -21.206  11.269  1.00  0.00     0.006 C 
BRANCH   4   5
ATOM      5  C   UNL     1     -19.789 -20.652  10.110  1.00  0.00     0.053 C 
BRANCH   5   6
ATOM      6  C   UNL     1     -20.208 -21.734   9.162  1.00  0.00     0.041 C 
ATOM      7  O   UNL     1     -19.444 -22.707   8.932  1.00  0.00    -0.550 OA
ATOM      8  O   UNL     1     -21.456 -21.679   8.553  1.00  0.00    -0.550 OA
ENDBRANCH   5   6
ENDBRANCH   4   5
ENDBRANCH   3   4
ENDBRANCH   2   3
ENDBRANCH   1   2
BRANCH   1   9
ATOM      9  C   UNL     1     -20.246 -25.098  14.344  1.00  0.00     0.000 C 
BRANCH   9  10
ATOM     10  C   UNL     1     -19.402 -26.202  15.006  1.00  0.00    -0.000 C 
BRANCH  10  11
ATOM     11  C   UNL     1     -17.981 -25.738  15.356  1.00  0.00    -0.000 C 
BRANCH  11  12
ATOM     12  C   UNL     1     -16.931 -26.574  14.609  1.00  0.00    -0.000 C 
BRANCH  12  13
ATOM     13  C   UNL     1     -17.092 -26.498  13.082  1.00  0.00    -0.003 C 
ATOM     14  C   UNL     1     -16.291 -25.354  12.461  1.00  0.00     0.004 C 
ENDBRANCH  12  13
ENDBRANCH  11  12
ENDBRANCH  10  11
ENDBRANCH   9  10
ENDBRANCH   1   9
TORSDOF 10
ENDMDL
MODEL 9
REMARK VINA RESULT:    -4.237      4.438      6.827
REMARK INTER + INTRA:          -7.698
REMARK INTER:                  -7.105
REMARK INTRA:                  -0.593
REMARK UNBOUND:                -0.984
REMARK SMILES CCCCCCCCCCCC(=O)[O-]
REMARK SMILES IDX 7 1 8 2 9 3 10 4 11 5 12 6 13 7 14 8 6 9 5 10 4 11 3 12 2 13
REMARK SMILES IDX 1 14
REMARK H PARENT
REMARK Flexibility Score: inf
ROOT
ATOM      1  C   UNL     1     -26.700 -24.508  14.678  1.00  0.00     0.000 C 
ENDROOT
BRANCH   1   2
ATOM      2  C   UNL     1     -25.654 -24.044  15.711  1.00  0.00     0.000 C 
BRANCH   2   3
ATOM      3  C   UNL     1     -24.561 -25.076  16.039  1.00  0.00     0.000 C 
BRANCH   3   4
ATOM      4  C   UNL     1     -25.025 -26.135  17.054  1.00  0.00     0.006 C 
BRANCH   4   5
ATOM      5  C   UNL     1     -24.014 -26.329  18.191  1.00  0.00     0.053 C 
BRANCH   5   6
ATOM      6  C   UNL     1     -23.321 -27.654  18.098  1.00  0.00     0.041 C 
ATOM      7  O   UNL     1     -23.174 -28.368  19.124  1.00  0.00    -0.550 OA
ATOM      8  O   UNL     1     -22.862 -28.113  16.869  1.00  0.00    -0.550 OA
ENDBRANCH   5   6
ENDBRANCH   4   5
ENDBRANCH   3   4
ENDBRANCH   2   3
ENDBRANCH   1   2
BRANCH   1   9
ATOM      9  C   UNL     1     -28.066 -24.918  15.265  1.00  0.00     0.000 C 
BRANCH   9  10
ATOM     10  C   UNL     1     -28.819 -23.796  16.004  1.00  0.00    -0.000 C 
BRANCH  10  11
ATOM     11  C   UNL     1     -29.218 -24.188  17.434  1.00  0.00    -0.000 C 
BRANCH  11  12
ATOM     12  C   UNL     1     -30.012 -23.061  18.110  1.00  0.00    -0.000 C 
BRANCH  12  13
ATOM     13  C   UNL     1     -29.853 -21.712  17.390  1.00  0.00    -0.003 C 
ATOM     14  C   UNL     1     -29.615 -20.551  18.355  1.00  0.00     0.004 C 
ENDBRANCH  12  13
ENDBRANCH  11  12
ENDBRANCH  10  11
ENDBRANCH   9  10
ENDBRANCH   1   9
TORSDOF 10
ENDMDL
