MODEL 1
REMARK VINA RESULT:     0.000      0.000      0.000
REMARK INTER + INTRA:          -2.543
REMARK INTER:                   0.000
REMARK INTRA:                  -2.543
REMARK UNBOUND:                -2.543
REMARK SMILES CCCCCCCCCCCCCC(=O)[O-]
REMARK SMILES IDX 8 1 9 2 10 3 11 4 12 5 13 6 14 7 15 8 16 9 7 10 6 11 5 12
REMARK SMILES IDX 4 13 3 14 2 15 1 16
REMARK H PARENT
REMARK Flexibility Score: inf
ROOT
ATOM      1  C   UNL     1     175.405 190.007 194.366  1.00  0.00     0.000 C 
ENDROOT
BRANCH   1   2
ATOM      2  C   UNL     1     176.552 189.773 193.370  1.00  0.00     0.000 C 
BRANCH   2   3
ATOM      3  C   UNL     1     177.542 190.947 193.388  1.00  0.00     0.000 C 
BRANCH   3   4
ATOM      4  C   UNL     1     178.929 190.556 193.930  1.00  0.00     0.000 C 
BRANCH   4   5
ATOM      5  C   UNL     1     179.562 191.576 194.894  1.00  0.00     0.006 C 
BRANCH   5   6
ATOM      6  C   UNL     1     178.821 192.919 194.914  1.00  0.00     0.053 C 
BRANCH   6   7
ATOM      7  C   UNL     1     178.680 193.417 196.318  1.00  0.00     0.041 C 
ATOM      8  O   UNL     1     179.496 193.051 197.205  1.00  0.00    -0.550 OA
ATOM      9  O   UNL     1     177.619 194.246 196.659  1.00  0.00    -0.550 OA
ENDBRANCH   6   7
ENDBRANCH   5   6
ENDBRANCH   4   5
ENDBRANCH   3   4
ENDBRANCH   2   3
ENDBRANCH   1   2
BRANCH   1  10
ATOM     10  C   UNL     1     175.440 191.411 194.992  1.00  0.00     0.000 C 
BRANCH  10  11
ATOM     11  C   UNL     1     175.522 191.370 196.527  1.00  0.00    -0.000 C 
BRANCH  11  12
ATOM     12  C   UNL     1     176.078 190.036 197.063  1.00  0.00    -0.000 C 
BRANCH  12  13
ATOM     13  C   UNL     1     177.516 190.096 197.610  1.00  0.00    -0.000 C 
BRANCH  13  14
ATOM     14  C   UNL     1     178.363 188.878 197.207  1.00  0.00    -0.000 C 
BRANCH  14  15
ATOM     15  C   UNL     1     177.545 187.815 196.458  1.00  0.00    -0.003 C 
ATOM     16  C   UNL     1     178.334 187.141 195.335  1.00  0.00     0.004 C 
ENDBRANCH  14  15
ENDBRANCH  13  14
ENDBRANCH  12  13
ENDBRANCH  11  12
ENDBRANCH  10  11
ENDBRANCH   1  10
TORSDOF 12
ENDMDL
MODEL 2
REMARK VINA RESULT:     0.000      7.113      8.986
REMARK INTER + INTRA:          -2.543
REMARK INTER:                   0.000
REMARK INTRA:                  -2.543
REMARK UNBOUND:                -2.543
REMARK SMILES CCCCCCCCCCCCCC(=O)[O-]
REMARK SMILES IDX 8 1 9 2 10 3 11 4 12 5 13 6 14 7 15 8 16 9 7 10 6 11 5 12
REMARK SMILES IDX 4 13 3 14 2 15 1 16
REMARK H PARENT
REMARK Flexibility Score: inf
ROOT
ATOM      1  C   UNL     1     180.235 186.365 193.728  1.00  0.00     0.000 C 
ENDROOT
BRANCH   1   2
ATOM      2  C   UNL     1     180.345 186.306 192.197  1.00  0.00     0.000 C 
BRANCH   2   3
ATOM      3  C   UNL     1     180.824 184.922 191.735  1.00  0.00     0.000 C 
BRANCH   3   4
ATOM      4  C   UNL     1     182.233 184.950 191.113  1.00  0.00     0.000 C 
BRANCH   4   5
ATOM      5  C   UNL     1     183.155 183.793 191.539  1.00  0.00     0.006 C 
BRANCH   5   6
ATOM      6  C   UNL     1     182.419 182.700 192.324  1.00  0.00     0.053 C 
BRANCH   6   7
ATOM      7  C   UNL     1     183.270 182.202 193.450  1.00  0.00     0.041 C 
ATOM      8  O   UNL     1     182.736 181.675 194.462  1.00  0.00    -0.550 OA
ATOM      9  O   UNL     1     184.648 182.365 193.405  1.00  0.00    -0.550 OA
ENDBRANCH   6   7
ENDBRANCH   5   6
ENDBRANCH   4   5
ENDBRANCH   3   4
ENDBRANCH   2   3
ENDBRANCH   1   2
BRANCH   1  10
ATOM     10  C   UNL     1     180.352 184.981 194.386  1.00  0.00     0.000 C 
BRANCH  10  11
ATOM     11  C   UNL     1     181.515 184.902 195.389  1.00  0.00    -0.000 C 
BRANCH  11  12
ATOM     12  C   UNL     1     182.526 186.053 195.229  1.00  0.00    -0.000 C 
BRANCH  12  13
ATOM     13  C   UNL     1     183.913 185.641 194.701  1.00  0.00    -0.000 C 
BRANCH  13  14
ATOM     14  C   UNL     1     184.450 186.592 193.619  1.00  0.00    -0.000 C 
BRANCH  14  15
ATOM     15  C   UNL     1     183.599 187.863 193.478  1.00  0.00    -0.003 C 
ATOM     16  C   UNL     1     183.483 188.343 192.031  1.00  0.00     0.004 C 
ENDBRANCH  14  15
ENDBRANCH  13  14
ENDBRANCH  12  13
ENDBRANCH  11  12
ENDBRANCH  10  11
ENDBRANCH   1  10
TORSDOF 12
ENDMDL
MODEL 3
REMARK VINA RESULT:     0.003      8.831     10.508
REMARK INTER + INTRA:          -2.538
REMARK INTER:                   0.000
REMARK INTRA:                  -2.538
REMARK UNBOUND:                -2.543
REMARK SMILES CCCCCCCCCCCCCC(=O)[O-]
REMARK SMILES IDX 8 1 9 2 10 3 11 4 12 5 13 6 14 7 15 8 16 9 7 10 6 11 5 12
REMARK SMILES IDX 4 13 3 14 2 15 1 16
REMARK H PARENT
REMARK Flexibility Score: inf
ROOT
ATOM      1  C   UNL     1     183.719 186.821 193.081  1.00  0.00     0.000 C 
ENDROOT
BRANCH   1   2
ATOM      2  C   UNL     1     184.403 186.687 191.711  1.00  0.00     0.000 C 
BRANCH   2   3
ATOM      3  C   UNL     1     185.679 185.840 191.816  1.00  0.00     0.000 C 
BRANCH   3   4
ATOM      4  C   UNL     1     185.551 184.468 191.128  1.00  0.00     0.000 C 
BRANCH   4   5
ATOM      5  C   UNL     1     186.190 183.295 191.893  1.00  0.00     0.006 C 
BRANCH   5   6
ATOM      6  C   UNL     1     186.980 183.746 193.128  1.00  0.00     0.053 C 
BRANCH   6   7
ATOM      7  C   UNL     1     186.733 182.816 194.274  1.00  0.00     0.041 C 
ATOM      8  O   UNL     1     186.919 183.205 195.457  1.00  0.00    -0.550 OA
ATOM      9  O   UNL     1     186.346 181.504 194.034  1.00  0.00    -0.550 OA
ENDBRANCH   6   7
ENDBRANCH   5   6
ENDBRANCH   4   5
ENDBRANCH   3   4
ENDBRANCH   2   3
ENDBRANCH   1   2
BRANCH   1  10
ATOM     10  C   UNL     1     184.619 186.366 194.241  1.00  0.00     0.000 C 
BRANCH  10  11
ATOM     11  C   UNL     1     183.991 185.231 195.066  1.00  0.00    -0.000 C 
BRANCH  11  12
ATOM     12  C   UNL     1     182.805 184.555 194.351  1.00  0.00    -0.000 C 
BRANCH  12  13
ATOM     13  C   UNL     1     183.052 183.105 193.896  1.00  0.00    -0.000 C 
BRANCH  13  14
ATOM     14  C   UNL     1     182.508 182.817 192.487  1.00  0.00    -0.000 C 
BRANCH  14  15
ATOM     15  C   UNL     1     181.660 183.974 191.937  1.00  0.00    -0.003 C 
ATOM     16  C   UNL     1     181.895 184.227 190.448  1.00  0.00     0.004 C 
ENDBRANCH  14  15
ENDBRANCH  13  14
ENDBRANCH  12  13
ENDBRANCH  11  12
ENDBRANCH  10  11
ENDBRANCH   1  10
TORSDOF 12
ENDMDL
MODEL 4
REMARK VINA RESULT:     0.004      6.589      8.803
REMARK INTER + INTRA:          -2.536
REMARK INTER:                   0.000
REMARK INTRA:                  -2.536
REMARK UNBOUND:                -2.543
REMARK SMILES CCCCCCCCCCCCCC(=O)[O-]
REMARK SMILES IDX 8 1 9 2 10 3 11 4 12 5 13 6 14 7 15 8 16 9 7 10 6 11 5 12
REMARK SMILES IDX 4 13 3 14 2 15 1 16
REMARK H PARENT
REMARK Flexibility Score: inf
ROOT
ATOM      1  C   UNL     1     185.794 190.613 195.689  1.00  0.00     0.000 C 
ENDROOT
BRANCH   1   2
ATOM      2  C   UNL     1     186.100 191.979 195.056  1.00  0.00     0.000 C 
BRANCH   2   3
ATOM      3  C   UNL     1     186.509 191.823 193.584  1.00  0.00     0.000 C 
BRANCH   3   4
ATOM      4  C   UNL     1     185.439 192.337 192.603  1.00  0.00     0.000 C 
BRANCH   4   5
ATOM      5  C   UNL     1     185.228 191.462 191.354  1.00  0.00     0.006 C 
BRANCH   5   6
ATOM      6  C   UNL     1     186.247 190.321 191.244  1.00  0.00     0.053 C 
BRANCH   6   7
ATOM      7  C   UNL     1     185.579 189.068 190.774  1.00  0.00     0.041 C 
ATOM      8  O   UNL     1     186.105 187.946 191.001  1.00  0.00    -0.550 OA
ATOM      9  O   UNL     1     184.401 189.140 190.042  1.00  0.00    -0.550 OA
ENDBRANCH   6   7
ENDBRANCH   5   6
ENDBRANCH   4   5
ENDBRANCH   3   4
ENDBRANCH   2   3
ENDBRANCH   1   2
BRANCH   1  10
ATOM     10  C   UNL     1     186.310 189.438 194.843  1.00  0.00     0.000 C 
BRANCH  10  11
ATOM     11  C   UNL     1     185.190 188.461 194.445  1.00  0.00    -0.000 C 
BRANCH  11  12
ATOM     12  C   UNL     1     183.780 189.037 194.678  1.00  0.00    -0.000 C 
BRANCH  12  13
ATOM     13  C   UNL     1     182.966 189.318 193.402  1.00  0.00    -0.000 C 
BRANCH  13  14
ATOM     14  C   UNL     1     182.226 190.665 193.446  1.00  0.00    -0.000 C 
BRANCH  14  15
ATOM     15  C   UNL     1     182.253 191.305 194.843  1.00  0.00    -0.003 C 
ATOM     16  C   UNL     1     182.463 192.818 194.799  1.00  0.00     0.004 C 
ENDBRANCH  14  15
ENDBRANCH  13  14
ENDBRANCH  12  13
ENDBRANCH  11  12
ENDBRANCH  10  11
ENDBRANCH   1  10
TORSDOF 12
ENDMDL
MODEL 5
REMARK VINA RESULT:     0.008     10.883     12.974
REMARK INTER + INTRA:          -2.528
REMARK INTER:                   0.000
REMARK INTRA:                  -2.528
REMARK UNBOUND:                -2.543
REMARK SMILES CCCCCCCCCCCCCC(=O)[O-]
REMARK SMILES IDX 8 1 9 2 10 3 11 4 12 5 13 6 14 7 15 8 16 9 7 10 6 11 5 12
REMARK SMILES IDX 4 13 3 14 2 15 1 16
REMARK H PARENT
REMARK Flexibility Score: inf
ROOT
ATOM      1  C   UNL     1     183.932 188.399 188.600  1.00  0.00     0.000 C 
ENDROOT
BRANCH   1   2
ATOM      2  C   UNL     1     185.235 187.829 189.183  1.00  0.00     0.000 C 
BRANCH   2   3
ATOM      3  C   UNL     1     185.259 186.298 189.081  1.00  0.00     0.000 C 
BRANCH   3   4
ATOM      4  C   UNL     1     186.353 185.774 188.132  1.00  0.00     0.000 C 
BRANCH   4   5
ATOM      5  C   UNL     1     185.917 184.620 187.211  1.00  0.00     0.006 C 
BRANCH   5   6
ATOM      6  C   UNL     1     184.508 184.104 187.525  1.00  0.00     0.053 C 
BRANCH   6   7
ATOM      7  C   UNL     1     183.796 183.727 186.265  1.00  0.00     0.041 C 
ATOM      8  O   UNL     1     184.441 183.578 185.193  1.00  0.00    -0.550 OA
ATOM      9  O   UNL     1     182.414 183.589 186.260  1.00  0.00    -0.550 OA
ENDBRANCH   6   7
ENDBRANCH   5   6
ENDBRANCH   4   5
ENDBRANCH   3   4
ENDBRANCH   2   3
ENDBRANCH   1   2
BRANCH   1  10
ATOM     10  C   UNL     1     182.886 187.309 188.310  1.00  0.00     0.000 C 
BRANCH  10  11
ATOM     11  C   UNL     1     182.492 187.252 186.825  1.00  0.00    -0.000 C 
BRANCH  11  12
ATOM     12  C   UNL     1     183.473 188.013 185.913  1.00  0.00    -0.000 C 
BRANCH  12  13
ATOM     13  C   UNL     1     184.315 187.130 184.973  1.00  0.00    -0.000 C 
BRANCH  13  14
ATOM     14  C   UNL     1     185.789 187.563 184.903  1.00  0.00    -0.000 C 
BRANCH  14  15
ATOM     15  C   UNL     1     186.044 188.896 185.622  1.00  0.00    -0.003 C 
ATOM     16  C   UNL     1     187.399 188.939 186.330  1.00  0.00     0.004 C 
ENDBRANCH  14  15
ENDBRANCH  13  14
ENDBRANCH  12  13
ENDBRANCH  11  12
ENDBRANCH  10  11
ENDBRANCH   1  10
TORSDOF 12
ENDMDL
MODEL 6
REMARK VINA RESULT:     0.015      8.239     10.165
REMARK INTER + INTRA:          -2.517
REMARK INTER:                   0.000
REMARK INTRA:                  -2.517
REMARK UNBOUND:                -2.543
REMARK SMILES CCCCCCCCCCCCCC(=O)[O-]
REMARK SMILES IDX 8 1 9 2 10 3 11 4 12 5 13 6 14 7 15 8 16 9 7 10 6 11 5 12
REMARK SMILES IDX 4 13 3 14 2 15 1 16
REMARK H PARENT
REMARK Flexibility Score: inf
ROOT
ATOM      1  C   UNL     1     175.369 180.585 190.223  1.00  0.00     0.000 C 
ENDROOT
BRANCH   1   2
ATOM      2  C   UNL     1     174.009 181.301 190.228  1.00  0.00     0.000 C 
BRANCH   2   3
ATOM      3  C   UNL     1     174.004 182.476 189.240  1.00  0.00     0.000 C 
BRANCH   3   4
ATOM      4  C   UNL     1     173.905 183.847 189.935  1.00  0.00     0.000 C 
BRANCH   4   5
ATOM      5  C   UNL     1     174.788 184.950 189.325  1.00  0.00     0.006 C 
BRANCH   5   6
ATOM      6  C   UNL     1     175.572 184.477 188.095  1.00  0.00     0.053 C 
BRANCH   6   7
ATOM      7  C   UNL     1     176.836 185.264 187.946  1.00  0.00     0.041 C 
ATOM      8  O   UNL     1     177.925 184.675 187.713  1.00  0.00    -0.550 OA
ATOM      9  O   UNL     1     176.821 186.642 188.115  1.00  0.00    -0.550 OA
ENDBRANCH   6   7
ENDBRANCH   5   6
ENDBRANCH   4   5
ENDBRANCH   3   4
ENDBRANCH   2   3
ENDBRANCH   1   2
BRANCH   1  10
ATOM     10  C   UNL     1     176.229 180.953 189.002  1.00  0.00     0.000 C 
BRANCH  10  11
ATOM     11  C   UNL     1     177.589 181.551 189.398  1.00  0.00    -0.000 C 
BRANCH  11  12
ATOM     12  C   UNL     1     177.651 181.975 190.878  1.00  0.00    -0.000 C 
BRANCH  12  13
ATOM     13  C   UNL     1     177.731 183.493 191.123  1.00  0.00    -0.000 C 
BRANCH  13  14
ATOM     14  C   UNL     1     176.823 183.964 192.271  1.00  0.00    -0.000 C 
BRANCH  14  15
ATOM     15  C   UNL     1     176.209 182.794 193.053  1.00  0.00    -0.003 C 
ATOM     16  C   UNL     1     174.756 183.045 193.456  1.00  0.00     0.004 C 
ENDBRANCH  14  15
ENDBRANCH  13  14
ENDBRANCH  12  13
ENDBRANCH  11  12
ENDBRANCH  10  11
ENDBRANCH   1  10
TORSDOF 12
ENDMDL
MODEL 7
REMARK VINA RESULT:     0.015     10.347     12.218
REMARK INTER + INTRA:          -2.517
REMARK INTER:                   0.000
REMARK INTRA:                  -2.517
REMARK UNBOUND:                -2.543
REMARK SMILES CCCCCCCCCCCCCC(=O)[O-]
REMARK SMILES IDX 8 1 9 2 10 3 11 4 12 5 13 6 14 7 15 8 16 9 7 10 6 11 5 12
REMARK SMILES IDX 4 13 3 14 2 15 1 16
REMARK H PARENT
REMARK Flexibility Score: inf
ROOT
ATOM      1  C   UNL     1     184.581 186.892 190.871  1.00  0.00     0.000 C 
ENDROOT
BRANCH   1   2
ATOM      2  C   UNL     1     184.185 188.197 190.163  1.00  0.00     0.000 C 
BRANCH   2   3
ATOM      3  C   UNL     1     185.360 188.757 189.349  1.00  0.00     0.000 C 
BRANCH   3   4
ATOM      4  C   UNL     1     185.077 188.800 187.835  1.00  0.00     0.000 C 
BRANCH   4   5
ATOM      5  C   UNL     1     186.265 188.403 186.940  1.00  0.00     0.006 C 
BRANCH   5   6
ATOM      6  C   UNL     1     187.511 188.004 187.741  1.00  0.00     0.053 C 
BRANCH   6   7
ATOM      7  C   UNL     1     188.164 186.805 187.129  1.00  0.00     0.041 C 
ATOM      8  O   UNL     1     187.832 186.423 185.975  1.00  0.00    -0.550 OA
ATOM      9  O   UNL     1     189.102 186.080 187.850  1.00  0.00    -0.550 OA
ENDBRANCH   6   7
ENDBRANCH   5   6
ENDBRANCH   4   5
ENDBRANCH   3   4
ENDBRANCH   2   3
ENDBRANCH   1   2
BRANCH   1  10
ATOM     10  C   UNL     1     186.099 186.651 190.869  1.00  0.00     0.000 C 
BRANCH  10  11
ATOM     11  C   UNL     1     186.485 185.325 190.192  1.00  0.00    -0.000 C 
BRANCH  11  12
ATOM     12  C   UNL     1     185.307 184.663 189.452  1.00  0.00    -0.000 C 
BRANCH  12  13
ATOM     13  C   UNL     1     185.484 184.521 187.929  1.00  0.00    -0.000 C 
BRANCH  13  14
ATOM     14  C   UNL     1     184.371 185.217 187.128  1.00  0.00    -0.000 C 
BRANCH  14  15
ATOM     15  C   UNL     1     183.055 185.315 187.914  1.00  0.00    -0.003 C 
ATOM     16  C   UNL     1     182.190 186.499 187.480  1.00  0.00     0.004 C 
ENDBRANCH  14  15
ENDBRANCH  13  14
ENDBRANCH  12  13
ENDBRANCH  11  12
ENDBRANCH  10  11
ENDBRANCH   1  10
TORSDOF 12
ENDMDL
MODEL 8
REMARK VINA RESULT:     0.022      7.802      9.786
REMARK INTER + INTRA:          -2.505
REMARK INTER:                   0.000
REMARK INTRA:                  -2.505
REMARK UNBOUND:                -2.543
REMARK SMILES CCCCCCCCCCCCCC(=O)[O-]
REMARK SMILES IDX 8 1 9 2 10 3 11 4 12 5 13 6 14 7 15 8 16 9 7 10 6 11 5 12
REMARK SMILES IDX 4 13 3 14 2 15 1 16
REMARK H PARENT
REMARK Flexibility Score: inf
ROOT
ATOM      1  C   UNL     1     179.558 185.111 186.797  1.00  0.00     0.000 C 
ENDROOT
BRANCH   1   2
ATOM      2  C   UNL     1     179.641 186.523 187.396  1.00  0.00     0.000 C 
BRANCH   2   3
ATOM      3  C   UNL     1     178.753 186.643 188.643  1.00  0.00     0.000 C 
BRANCH   3   4
ATOM      4  C   UNL     1     179.559 186.842 189.940  1.00  0.00     0.000 C 
BRANCH   4   5
ATOM      5  C   UNL     1     179.012 186.093 191.168  1.00  0.00     0.006 C 
BRANCH   5   6
ATOM      6  C   UNL     1     177.762 185.262 190.853  1.00  0.00     0.053 C 
BRANCH   6   7
ATOM      7  C   UNL     1     177.860 183.910 191.488  1.00  0.00     0.041 C 
ATOM      8  O   UNL     1     177.061 182.995 191.156  1.00  0.00    -0.550 OA
ATOM      9  O   UNL     1     178.801 183.675 192.481  1.00  0.00    -0.550 OA
ENDBRANCH   6   7
ENDBRANCH   5   6
ENDBRANCH   4   5
ENDBRANCH   3   4
ENDBRANCH   2   3
ENDBRANCH   1   2
BRANCH   1  10
ATOM     10  C   UNL     1     178.351 184.315 187.317  1.00  0.00     0.000 C 
BRANCH  10  11
ATOM     11  C   UNL     1     178.759 182.985 187.973  1.00  0.00    -0.000 C 
BRANCH  11  12
ATOM     12  C   UNL     1     180.283 182.851 188.160  1.00  0.00    -0.000 C 
BRANCH  12  13
ATOM     13  C   UNL     1     180.757 182.739 189.621  1.00  0.00    -0.000 C 
BRANCH  13  14
ATOM     14  C   UNL     1     181.744 183.850 190.018  1.00  0.00    -0.000 C 
BRANCH  14  15
ATOM     15  C   UNL     1     182.567 184.359 188.825  1.00  0.00    -0.003 C 
ATOM     16  C   UNL     1     182.982 185.823 188.972  1.00  0.00     0.004 C 
ENDBRANCH  14  15
ENDBRANCH  13  14
ENDBRANCH  12  13
ENDBRANCH  11  12
ENDBRANCH  10  11
ENDBRANCH   1  10
TORSDOF 12
ENDMDL
MODEL 9
REMARK VINA RESULT:     0.031      3.797      5.121
REMARK INTER + INTRA:          -2.490
REMARK INTER:                   0.000
REMARK INTRA:                  -2.490
REMARK UNBOUND:                -2.543
REMARK SMILES CCCCCCCCCCCCCC(=O)[O-]
REMARK SMILES IDX 8 1 9 2 10 3 11 4 12 5 13 6 14 7 15 8 16 9 7 10 6 11 5 12
REMARK SMILES IDX 4 13 3 14 2 15 1 16
REMARK H PARENT
REMARK Flexibility Score: inf
ROOT
ATOM      1  C   UNL     1     178.201 190.855 194.133  1.00  0.00     0.000 C 
ENDROOT
BRANCH   1   2
ATOM      2  C   UNL     1     179.073 191.685 195.088  1.00  0.00     0.000 C 
BRANCH   2   3
ATOM      3  C   UNL     1     179.945 192.681 194.310  1.00  0.00     0.000 C 
BRANCH   3   4
ATOM      4  C   UNL     1     181.449 192.519 194.599  1.00  0.00     0.000 C 
BRANCH   4   5
ATOM      5  C   UNL     1     182.297 192.061 193.399  1.00  0.00     0.006 C 
BRANCH   5   6
ATOM      6  C   UNL     1     181.751 192.561 192.056  1.00  0.00     0.053 C 
BRANCH   6   7
ATOM      7  C   UNL     1     182.211 191.674 190.942  1.00  0.00     0.041 C 
ATOM      8  O   UNL     1     183.287 191.028 191.050  1.00  0.00    -0.550 OA
ATOM      9  O   UNL     1     181.479 191.599 189.764  1.00  0.00    -0.550 OA
ENDBRANCH   6   7
ENDBRANCH   5   6
ENDBRANCH   4   5
ENDBRANCH   3   4
ENDBRANCH   2   3
ENDBRANCH   1   2
BRANCH   1  10
ATOM     10  C   UNL     1     178.317 191.317 192.671  1.00  0.00     0.000 C 
BRANCH  10  11
ATOM     11  C   UNL     1     178.823 190.204 191.739  1.00  0.00    -0.000 C 
BRANCH  11  12
ATOM     12  C   UNL     1     179.350 188.974 192.503  1.00  0.00    -0.000 C 
BRANCH  12  13
ATOM     13  C   UNL     1     180.788 188.549 192.151  1.00  0.00    -0.000 C 
BRANCH  13  14
ATOM     14  C   UNL     1     181.713 188.489 193.378  1.00  0.00    -0.000 C 
BRANCH  14  15
ATOM     15  C   UNL     1     180.933 188.434 194.700  1.00  0.00    -0.003 C 
ATOM     16  C   UNL     1     181.694 189.067 195.865  1.00  0.00     0.004 C 
ENDBRANCH  14  15
ENDBRANCH  13  14
ENDBRANCH  12  13
ENDBRANCH  11  12
ENDBRANCH  10  11
ENDBRANCH   1  10
TORSDOF 12
ENDMDL
