MODEL 1
REMARK VINA RESULT:    -4.106      0.000      0.000
REMARK INTER + INTRA:         -13.062
REMARK INTER:                  -9.386
REMARK INTRA:                  -3.676
REMARK UNBOUND:                -3.676
REMARK SMILES CCCCCCCCCCCCCCCCCCCCCCCC(=O)[O-]
REMARK SMILES IDX 13 1 14 2 15 3 16 4 17 5 18 6 19 7 20 8 21 9 22 10 23 11
REMARK SMILES IDX 24 12 25 13 26 14 12 15 11 16 10 17 9 18 8 19 7 20 6 21 5 22
REMARK SMILES IDX 4 23 3 24 2 25 1 26
REMARK H PARENT
REMARK Flexibility Score: inf
ROOT
ATOM      1  C   UNL     1      20.722  23.049  21.346  1.00  0.00     0.000 C 
ENDROOT
BRANCH   1   2
ATOM      2  C   UNL     1      21.080  21.598  20.973  1.00  0.00     0.000 C 
BRANCH   2   3
ATOM      3  C   UNL     1      22.527  21.225  21.334  1.00  0.00     0.000 C 
BRANCH   3   4
ATOM      4  C   UNL     1      22.682  19.744  21.715  1.00  0.00     0.000 C 
BRANCH   4   5
ATOM      5  C   UNL     1      23.846  19.037  20.989  1.00  0.00     0.000 C 
BRANCH   5   6
ATOM      6  C   UNL     1      23.849  17.520  21.236  1.00  0.00     0.000 C 
BRANCH   6   7
ATOM      7  C   UNL     1      23.271  16.769  20.030  1.00  0.00     0.000 C 
BRANCH   7   8
ATOM      8  C   UNL     1      22.032  15.954  20.431  1.00  0.00     0.000 C 
BRANCH   8   9
ATOM      9  C   UNL     1      20.754  16.807  20.505  1.00  0.00     0.000 C 
BRANCH   9  10
ATOM     10  C   UNL     1      19.720  16.356  21.555  1.00  0.00     0.006 C 
BRANCH  10  11
ATOM     11  C   UNL     1      20.274  16.275  22.989  1.00  0.00     0.053 C 
BRANCH  11  12
ATOM     12  C   UNL     1      19.334  16.853  24.007  1.00  0.00     0.041 C 
ATOM     13  O   UNL     1      19.721  17.055  25.188  1.00  0.00    -0.550 OA
ATOM     14  O   UNL     1      18.040  17.203  23.640  1.00  0.00    -0.550 OA
ENDBRANCH  11  12
ENDBRANCH  10  11
ENDBRANCH   9  10
ENDBRANCH   8   9
ENDBRANCH   7   8
ENDBRANCH   6   7
ENDBRANCH   5   6
ENDBRANCH   4   5
ENDBRANCH   3   4
ENDBRANCH   2   3
ENDBRANCH   1   2
BRANCH   1  15
ATOM     15  C   UNL     1      19.220  23.391  21.295  1.00  0.00     0.000 C 
BRANCH  15  16
ATOM     16  C   UNL     1      18.340  22.636  22.310  1.00  0.00     0.000 C 
BRANCH  16  17
ATOM     17  C   UNL     1      17.218  21.787  21.685  1.00  0.00     0.000 C 
BRANCH  17  18
ATOM     18  C   UNL     1      17.371  20.288  21.984  1.00  0.00    -0.000 C 
BRANCH  18  19
ATOM     19  C   UNL     1      18.181  19.591  20.879  1.00  0.00    -0.000 C 
BRANCH  19  20
ATOM     20  C   UNL     1      17.580  19.801  19.480  1.00  0.00    -0.000 C 
BRANCH  20  21
ATOM     21  C   UNL     1      18.544  20.519  18.523  1.00  0.00    -0.000 C 
BRANCH  21  22
ATOM     22  C   UNL     1      17.990  21.890  18.110  1.00  0.00    -0.000 C 
BRANCH  22  23
ATOM     23  C   UNL     1      19.008  22.738  17.326  1.00  0.00    -0.000 C 
BRANCH  23  24
ATOM     24  C   UNL     1      20.487  22.448  17.651  1.00  0.00    -0.000 C 
BRANCH  24  25
ATOM     25  C   UNL     1      21.410  23.678  17.627  1.00  0.00    -0.003 C 
ATOM     26  C   UNL     1      20.769  24.916  18.253  1.00  0.00     0.004 C 
ENDBRANCH  24  25
ENDBRANCH  23  24
ENDBRANCH  22  23
ENDBRANCH  21  22
ENDBRANCH  20  21
ENDBRANCH  19  20
ENDBRANCH  18  19
ENDBRANCH  17  18
ENDBRANCH  16  17
ENDBRANCH  15  16
ENDBRANCH   1  15
TORSDOF 22
ENDMDL
MODEL 2
REMARK VINA RESULT:    -4.090      2.621      5.693
REMARK INTER + INTRA:         -13.027
REMARK INTER:                 -10.013
REMARK INTRA:                  -3.014
REMARK UNBOUND:                -3.676
REMARK SMILES CCCCCCCCCCCCCCCCCCCCCCCC(=O)[O-]
REMARK SMILES IDX 13 1 14 2 15 3 16 4 17 5 18 6 19 7 20 8 21 9 22 10 23 11
REMARK SMILES IDX 24 12 25 13 26 14 12 15 11 16 10 17 9 18 8 19 7 20 6 21 5 22
REMARK SMILES IDX 4 23 3 24 2 25 1 26
REMARK H PARENT
REMARK Flexibility Score: inf
ROOT
ATOM      1  C   UNL     1      19.209  24.377  18.609  1.00  0.00     0.000 C 
ENDROOT
BRANCH   1   2
ATOM      2  C   UNL     1      20.713  24.542  18.323  1.00  0.00     0.000 C 
BRANCH   2   3
ATOM      3  C   UNL     1      21.354  23.275  17.735  1.00  0.00     0.000 C 
BRANCH   3   4
ATOM      4  C   UNL     1      21.957  22.358  18.812  1.00  0.00     0.000 C 
BRANCH   4   5
ATOM      5  C   UNL     1      22.333  23.098  20.113  1.00  0.00     0.000 C 
BRANCH   5   6
ATOM      6  C   UNL     1      21.875  22.337  21.367  1.00  0.00     0.000 C 
BRANCH   6   7
ATOM      7  C   UNL     1      21.719  20.840  21.072  1.00  0.00     0.000 C 
BRANCH   7   8
ATOM      8  C   UNL     1      22.834  20.026  21.746  1.00  0.00     0.000 C 
BRANCH   8   9
ATOM      9  C   UNL     1      22.948  18.596  21.191  1.00  0.00     0.000 C 
BRANCH   9  10
ATOM     10  C   UNL     1      24.370  18.002  21.189  1.00  0.00     0.006 C 
BRANCH  10  11
ATOM     11  C   UNL     1      25.085  18.084  19.828  1.00  0.00     0.053 C 
BRANCH  11  12
ATOM     12  C   UNL     1      24.997  16.804  19.049  1.00  0.00     0.041 C 
ATOM     13  O   UNL     1      25.762  16.601  18.070  1.00  0.00    -0.550 OA
ATOM     14  O   UNL     1      24.093  15.820  19.428  1.00  0.00    -0.550 OA
ENDBRANCH  11  12
ENDBRANCH  10  11
ENDBRANCH   9  10
ENDBRANCH   8   9
ENDBRANCH   7   8
ENDBRANCH   6   7
ENDBRANCH   5   6
ENDBRANCH   4   5
ENDBRANCH   3   4
ENDBRANCH   2   3
ENDBRANCH   1   2
BRANCH   1  15
ATOM     15  C   UNL     1      18.622  22.993  18.270  1.00  0.00     0.000 C 
BRANCH  15  16
ATOM     16  C   UNL     1      18.261  22.116  19.485  1.00  0.00     0.000 C 
BRANCH  16  17
ATOM     17  C   UNL     1      18.412  22.812  20.850  1.00  0.00     0.000 C 
BRANCH  17  18
ATOM     18  C   UNL     1      17.945  21.933  22.020  1.00  0.00    -0.000 C 
BRANCH  18  19
ATOM     19  C   UNL     1      17.056  20.784  21.518  1.00  0.00    -0.000 C 
BRANCH  19  20
ATOM     20  C   UNL     1      17.567  19.403  21.958  1.00  0.00    -0.000 C 
BRANCH  20  21
ATOM     21  C   UNL     1      18.620  18.827  20.999  1.00  0.00    -0.000 C 
BRANCH  21  22
ATOM     22  C   UNL     1      19.408  17.690  21.665  1.00  0.00    -0.000 C 
BRANCH  22  23
ATOM     23  C   UNL     1      18.528  16.480  22.025  1.00  0.00    -0.000 C 
BRANCH  23  24
ATOM     24  C   UNL     1      18.552  16.074  23.513  1.00  0.00    -0.000 C 
BRANCH  24  25
ATOM     25  C   UNL     1      19.802  16.524  24.288  1.00  0.00    -0.003 C 
ATOM     26  C   UNL     1      19.466  17.327  25.545  1.00  0.00     0.004 C 
ENDBRANCH  24  25
ENDBRANCH  23  24
ENDBRANCH  22  23
ENDBRANCH  21  22
ENDBRANCH  20  21
ENDBRANCH  19  20
ENDBRANCH  18  19
ENDBRANCH  17  18
ENDBRANCH  16  17
ENDBRANCH  15  16
ENDBRANCH   1  15
TORSDOF 22
ENDMDL
MODEL 3
REMARK VINA RESULT:    -4.083      0.901      3.343
REMARK INTER + INTRA:         -13.010
REMARK INTER:                  -9.351
REMARK INTRA:                  -3.659
REMARK UNBOUND:                -3.676
REMARK SMILES CCCCCCCCCCCCCCCCCCCCCCCC(=O)[O-]
REMARK SMILES IDX 13 1 14 2 15 3 16 4 17 5 18 6 19 7 20 8 21 9 22 10 23 11
REMARK SMILES IDX 24 12 25 13 26 14 12 15 11 16 10 17 9 18 8 19 7 20 6 21 5 22
REMARK SMILES IDX 4 23 3 24 2 25 1 26
REMARK H PARENT
REMARK Flexibility Score: inf
ROOT
ATOM      1  C   UNL     1      20.448  23.529  21.537  1.00  0.00     0.000 C 
ENDROOT
BRANCH   1   2
ATOM      2  C   UNL     1      20.694  22.101  21.017  1.00  0.00     0.000 C 
BRANCH   2   3
ATOM      3  C   UNL     1      22.177  21.811  20.737  1.00  0.00     0.000 C 
BRANCH   3   4
ATOM      4  C   UNL     1      22.767  20.756  21.687  1.00  0.00     0.000 C 
BRANCH   4   5
ATOM      5  C   UNL     1      22.275  19.321  21.399  1.00  0.00     0.000 C 
BRANCH   5   6
ATOM      6  C   UNL     1      23.433  18.312  21.342  1.00  0.00     0.000 C 
BRANCH   6   7
ATOM      7  C   UNL     1      22.945  16.949  20.835  1.00  0.00     0.000 C 
BRANCH   7   8
ATOM      8  C   UNL     1      21.428  16.802  21.025  1.00  0.00     0.000 C 
BRANCH   8   9
ATOM      9  C   UNL     1      21.042  15.513  21.771  1.00  0.00     0.000 C 
BRANCH   9  10
ATOM     10  C   UNL     1      19.869  15.651  22.761  1.00  0.00     0.006 C 
BRANCH  10  11
ATOM     11  C   UNL     1      19.844  16.986  23.526  1.00  0.00     0.053 C 
BRANCH  11  12
ATOM     12  C   UNL     1      19.309  16.846  24.921  1.00  0.00     0.041 C 
ATOM     13  O   UNL     1      19.871  17.434  25.881  1.00  0.00    -0.550 OA
ATOM     14  O   UNL     1      18.164  16.092  25.155  1.00  0.00    -0.550 OA
ENDBRANCH  11  12
ENDBRANCH  10  11
ENDBRANCH   9  10
ENDBRANCH   8   9
ENDBRANCH   7   8
ENDBRANCH   6   7
ENDBRANCH   5   6
ENDBRANCH   4   5
ENDBRANCH   3   4
ENDBRANCH   2   3
ENDBRANCH   1   2
BRANCH   1  15
ATOM     15  C   UNL     1      19.704  24.465  20.565  1.00  0.00     0.000 C 
BRANCH  15  16
ATOM     16  C   UNL     1      20.605  25.274  19.612  1.00  0.00     0.000 C 
BRANCH  16  17
ATOM     17  C   UNL     1      20.455  24.916  18.123  1.00  0.00     0.000 C 
BRANCH  17  18
ATOM     18  C   UNL     1      21.311  23.707  17.714  1.00  0.00    -0.000 C 
BRANCH  18  19
ATOM     19  C   UNL     1      20.427  22.483  17.432  1.00  0.00    -0.000 C 
BRANCH  19  20
ATOM     20  C   UNL     1      18.934  22.836  17.341  1.00  0.00    -0.000 C 
BRANCH  20  21
ATOM     21  C   UNL     1      18.058  21.941  18.231  1.00  0.00    -0.000 C 
BRANCH  21  22
ATOM     22  C   UNL     1      18.703  20.561  18.427  1.00  0.00    -0.000 C 
BRANCH  22  23
ATOM     23  C   UNL     1      17.851  19.618  19.295  1.00  0.00    -0.000 C 
BRANCH  23  24
ATOM     24  C   UNL     1      18.512  19.167  20.613  1.00  0.00    -0.000 C 
BRANCH  24  25
ATOM     25  C   UNL     1      17.812  19.657  21.892  1.00  0.00    -0.003 C 
ATOM     26  C   UNL     1      17.194  21.045  21.736  1.00  0.00     0.004 C 
ENDBRANCH  24  25
ENDBRANCH  23  24
ENDBRANCH  22  23
ENDBRANCH  21  22
ENDBRANCH  20  21
ENDBRANCH  19  20
ENDBRANCH  18  19
ENDBRANCH  17  18
ENDBRANCH  16  17
ENDBRANCH  15  16
ENDBRANCH   1  15
TORSDOF 22
ENDMDL
MODEL 4
REMARK VINA RESULT:    -4.079      1.336      5.162
REMARK INTER + INTRA:         -13.001
REMARK INTER:                  -9.930
REMARK INTRA:                  -3.071
REMARK UNBOUND:                -3.676
REMARK SMILES CCCCCCCCCCCCCCCCCCCCCCCC(=O)[O-]
REMARK SMILES IDX 13 1 14 2 15 3 16 4 17 5 18 6 19 7 20 8 21 9 22 10 23 11
REMARK SMILES IDX 24 12 25 13 26 14 12 15 11 16 10 17 9 18 8 19 7 20 6 21 5 22
REMARK SMILES IDX 4 23 3 24 2 25 1 26
REMARK H PARENT
REMARK Flexibility Score: inf
ROOT
ATOM      1  C   UNL     1      19.485  24.091  17.976  1.00  0.00     0.000 C 
ENDROOT
BRANCH   1   2
ATOM      2  C   UNL     1      19.895  22.675  17.529  1.00  0.00     0.000 C 
BRANCH   2   3
ATOM      3  C   UNL     1      19.160  21.567  18.300  1.00  0.00     0.000 C 
BRANCH   3   4
ATOM      4  C   UNL     1      17.631  21.719  18.247  1.00  0.00     0.000 C 
BRANCH   4   5
ATOM      5  C   UNL     1      16.882  20.778  19.214  1.00  0.00     0.000 C 
BRANCH   5   6
ATOM      6  C   UNL     1      16.946  21.270  20.669  1.00  0.00     0.000 C 
BRANCH   6   7
ATOM      7  C   UNL     1      17.492  20.175  21.593  1.00  0.00     0.000 C 
BRANCH   7   8
ATOM      8  C   UNL     1      17.982  18.964  20.784  1.00  0.00     0.000 C 
BRANCH   8   9
ATOM      9  C   UNL     1      19.208  18.281  21.413  1.00  0.00     0.000 C 
BRANCH   9  10
ATOM     10  C   UNL     1      18.922  16.954  22.142  1.00  0.00     0.006 C 
BRANCH  10  11
ATOM     11  C   UNL     1      18.454  17.124  23.599  1.00  0.00     0.053 C 
BRANCH  11  12
ATOM     12  C   UNL     1      19.507  16.736  24.595  1.00  0.00     0.041 C 
ATOM     13  O   UNL     1      20.217  15.714  24.406  1.00  0.00    -0.550 OA
ATOM     14  O   UNL     1      19.728  17.527  25.717  1.00  0.00    -0.550 OA
ENDBRANCH  11  12
ENDBRANCH  10  11
ENDBRANCH   9  10
ENDBRANCH   8   9
ENDBRANCH   7   8
ENDBRANCH   6   7
ENDBRANCH   5   6
ENDBRANCH   4   5
ENDBRANCH   3   4
ENDBRANCH   2   3
ENDBRANCH   1   2
BRANCH   1  15
ATOM     15  C   UNL     1      20.571  24.882  18.732  1.00  0.00     0.000 C 
BRANCH  15  16
ATOM     16  C   UNL     1      20.281  25.130  20.226  1.00  0.00     0.000 C 
BRANCH  16  17
ATOM     17  C   UNL     1      19.257  24.167  20.854  1.00  0.00     0.000 C 
BRANCH  17  18
ATOM     18  C   UNL     1      19.919  22.962  21.540  1.00  0.00    -0.000 C 
BRANCH  18  19
ATOM     19  C   UNL     1      21.441  23.154  21.631  1.00  0.00    -0.000 C 
BRANCH  19  20
ATOM     20  C   UNL     1      22.215  22.212  20.695  1.00  0.00    -0.000 C 
BRANCH  20  21
ATOM     21  C   UNL     1      21.923  20.729  20.973  1.00  0.00    -0.000 C 
BRANCH  21  22
ATOM     22  C   UNL     1      23.185  20.003  21.461  1.00  0.00    -0.000 C 
BRANCH  22  23
ATOM     23  C   UNL     1      23.058  18.470  21.397  1.00  0.00    -0.000 C 
BRANCH  23  24
ATOM     24  C   UNL     1      24.125  17.761  20.539  1.00  0.00    -0.000 C 
BRANCH  24  25
ATOM     25  C   UNL     1      25.334  18.632  20.156  1.00  0.00    -0.003 C 
ATOM     26  C   UNL     1      26.649  17.855  20.150  1.00  0.00     0.004 C 
ENDBRANCH  24  25
ENDBRANCH  23  24
ENDBRANCH  22  23
ENDBRANCH  21  22
ENDBRANCH  20  21
ENDBRANCH  19  20
ENDBRANCH  18  19
ENDBRANCH  17  18
ENDBRANCH  16  17
ENDBRANCH  15  16
ENDBRANCH   1  15
TORSDOF 22
ENDMDL
MODEL 5
REMARK VINA RESULT:    -4.064      2.108      6.643
REMARK INTER + INTRA:         -12.967
REMARK INTER:                  -9.487
REMARK INTRA:                  -3.481
REMARK UNBOUND:                -3.676
REMARK SMILES CCCCCCCCCCCCCCCCCCCCCCCC(=O)[O-]
REMARK SMILES IDX 13 1 14 2 15 3 16 4 17 5 18 6 19 7 20 8 21 9 22 10 23 11
REMARK SMILES IDX 24 12 25 13 26 14 12 15 11 16 10 17 9 18 8 19 7 20 6 21 5 22
REMARK SMILES IDX 4 23 3 24 2 25 1 26
REMARK H PARENT
REMARK Flexibility Score: inf
ROOT
ATOM      1  C   UNL     1      22.876  20.320  21.660  1.00  0.00     0.000 C 
ENDROOT
BRANCH   1   2
ATOM      2  C   UNL     1      21.863  21.254  20.972  1.00  0.00     0.000 C 
BRANCH   2   3
ATOM      3  C   UNL     1      22.533  22.411  20.215  1.00  0.00     0.000 C 
BRANCH   3   4
ATOM      4  C   UNL     1      21.874  22.693  18.854  1.00  0.00     0.000 C 
BRANCH   4   5
ATOM      5  C   UNL     1      21.226  24.090  18.758  1.00  0.00     0.000 C 
BRANCH   5   6
ATOM      6  C   UNL     1      20.101  24.138  17.712  1.00  0.00     0.000 C 
BRANCH   6   7
ATOM      7  C   UNL     1      19.743  22.727  17.230  1.00  0.00     0.000 C 
BRANCH   7   8
ATOM      8  C   UNL     1      18.425  22.248  17.857  1.00  0.00     0.000 C 
BRANCH   8   9
ATOM      9  C   UNL     1      18.615  21.060  18.815  1.00  0.00     0.000 C 
BRANCH   9  10
ATOM     10  C   UNL     1      18.424  21.381  20.310  1.00  0.00     0.006 C 
BRANCH  10  11
ATOM     11  C   UNL     1      18.310  22.885  20.621  1.00  0.00     0.053 C 
BRANCH  11  12
ATOM     12  C   UNL     1      18.842  23.238  21.979  1.00  0.00     0.041 C 
ATOM     13  O   UNL     1      19.922  23.876  22.093  1.00  0.00    -0.550 OA
ATOM     14  O   UNL     1      18.125  22.894  23.118  1.00  0.00    -0.550 OA
ENDBRANCH  11  12
ENDBRANCH  10  11
ENDBRANCH   9  10
ENDBRANCH   8   9
ENDBRANCH   7   8
ENDBRANCH   6   7
ENDBRANCH   5   6
ENDBRANCH   4   5
ENDBRANCH   3   4
ENDBRANCH   2   3
ENDBRANCH   1   2
BRANCH   1  15
ATOM     15  C   UNL     1      23.729  19.458  20.709  1.00  0.00     0.000 C 
BRANCH  15  16
ATOM     16  C   UNL     1      23.891  17.983  21.126  1.00  0.00     0.000 C 
BRANCH  16  17
ATOM     17  C   UNL     1      23.763  16.969  19.974  1.00  0.00     0.000 C 
BRANCH  17  18
ATOM     18  C   UNL     1      22.794  15.822  20.298  1.00  0.00    -0.000 C 
BRANCH  18  19
ATOM     19  C   UNL     1      21.704  16.287  21.275  1.00  0.00    -0.000 C 
BRANCH  19  20
ATOM     20  C   UNL     1      20.420  16.739  20.562  1.00  0.00    -0.000 C 
BRANCH  20  21
ATOM     21  C   UNL     1      19.936  18.120  21.029  1.00  0.00    -0.000 C 
BRANCH  21  22
ATOM     22  C   UNL     1      18.533  18.032  21.647  1.00  0.00    -0.000 C 
BRANCH  22  23
ATOM     23  C   UNL     1      18.166  16.608  22.102  1.00  0.00    -0.000 C 
BRANCH  23  24
ATOM     24  C   UNL     1      17.596  16.505  23.531  1.00  0.00    -0.000 C 
BRANCH  24  25
ATOM     25  C   UNL     1      18.479  17.122  24.628  1.00  0.00    -0.003 C 
ATOM     26  C   UNL     1      19.828  16.419  24.772  1.00  0.00     0.004 C 
ENDBRANCH  24  25
ENDBRANCH  23  24
ENDBRANCH  22  23
ENDBRANCH  21  22
ENDBRANCH  20  21
ENDBRANCH  19  20
ENDBRANCH  18  19
ENDBRANCH  17  18
ENDBRANCH  16  17
ENDBRANCH  15  16
ENDBRANCH   1  15
TORSDOF 22
ENDMDL
MODEL 6
REMARK VINA RESULT:    -4.031      2.629      5.027
REMARK INTER + INTRA:         -12.890
REMARK INTER:                  -9.293
REMARK INTRA:                  -3.597
REMARK UNBOUND:                -3.676
REMARK SMILES CCCCCCCCCCCCCCCCCCCCCCCC(=O)[O-]
REMARK SMILES IDX 13 1 14 2 15 3 16 4 17 5 18 6 19 7 20 8 21 9 22 10 23 11
REMARK SMILES IDX 24 12 25 13 26 14 12 15 11 16 10 17 9 18 8 19 7 20 6 21 5 22
REMARK SMILES IDX 4 23 3 24 2 25 1 26
REMARK H PARENT
REMARK Flexibility Score: inf
ROOT
ATOM      1  C   UNL     1      18.704  20.194  20.454  1.00  0.00     0.000 C 
ENDROOT
BRANCH   1   2
ATOM      2  C   UNL     1      18.235  18.746  20.688  1.00  0.00     0.000 C 
BRANCH   2   3
ATOM      3  C   UNL     1      17.744  18.499  22.124  1.00  0.00     0.000 C 
BRANCH   3   4
ATOM      4  C   UNL     1      18.293  17.195  22.724  1.00  0.00     0.000 C 
BRANCH   4   5
ATOM      5  C   UNL     1      18.442  16.055  21.695  1.00  0.00     0.000 C 
BRANCH   5   6
ATOM      6  C   UNL     1      19.809  15.360  21.792  1.00  0.00     0.000 C 
BRANCH   6   7
ATOM      7  C   UNL     1      20.858  16.299  22.402  1.00  0.00     0.000 C 
BRANCH   7   8
ATOM      8  C   UNL     1      21.736  16.927  21.309  1.00  0.00     0.000 C 
BRANCH   8   9
ATOM      9  C   UNL     1      21.981  18.430  21.530  1.00  0.00     0.000 C 
BRANCH   9  10
ATOM     10  C   UNL     1      23.399  18.924  21.185  1.00  0.00     0.006 C 
BRANCH  10  11
ATOM     11  C   UNL     1      24.493  17.850  21.330  1.00  0.00     0.053 C 
BRANCH  11  12
ATOM     12  C   UNL     1      25.501  17.896  20.219  1.00  0.00     0.041 C 
ATOM     13  O   UNL     1      25.127  17.864  19.018  1.00  0.00    -0.550 OA
ATOM     14  O   UNL     1      26.855  18.012  20.513  1.00  0.00    -0.550 OA
ENDBRANCH  11  12
ENDBRANCH  10  11
ENDBRANCH   9  10
ENDBRANCH   8   9
ENDBRANCH   7   8
ENDBRANCH   6   7
ENDBRANCH   5   6
ENDBRANCH   4   5
ENDBRANCH   3   4
ENDBRANCH   2   3
ENDBRANCH   1   2
BRANCH   1  15
ATOM     15  C   UNL     1      17.584  21.206  20.142  1.00  0.00     0.000 C 
BRANCH  15  16
ATOM     16  C   UNL     1      17.569  21.745  18.698  1.00  0.00     0.000 C 
BRANCH  16  17
ATOM     17  C   UNL     1      18.770  21.315  17.836  1.00  0.00     0.000 C 
BRANCH  17  18
ATOM     18  C   UNL     1      19.545  22.509  17.259  1.00  0.00    -0.000 C 
BRANCH  18  19
ATOM     19  C   UNL     1      19.111  23.819  17.934  1.00  0.00    -0.000 C 
BRANCH  19  20
ATOM     20  C   UNL     1      20.284  24.786  18.164  1.00  0.00    -0.000 C 
BRANCH  20  21
ATOM     21  C   UNL     1      20.479  25.139  19.647  1.00  0.00    -0.000 C 
BRANCH  21  22
ATOM     22  C   UNL     1      19.503  24.351  20.533  1.00  0.00    -0.000 C 
BRANCH  22  23
ATOM     23  C   UNL     1      20.145  23.855  21.841  1.00  0.00    -0.000 C 
BRANCH  23  24
ATOM     24  C   UNL     1      21.462  23.072  21.666  1.00  0.00    -0.000 C 
BRANCH  24  25
ATOM     25  C   UNL     1      21.459  22.043  20.523  1.00  0.00    -0.003 C 
ATOM     26  C   UNL     1      22.643  22.206  19.572  1.00  0.00     0.004 C 
ENDBRANCH  24  25
ENDBRANCH  23  24
ENDBRANCH  22  23
ENDBRANCH  21  22
ENDBRANCH  20  21
ENDBRANCH  19  20
ENDBRANCH  18  19
ENDBRANCH  17  18
ENDBRANCH  16  17
ENDBRANCH  15  16
ENDBRANCH   1  15
TORSDOF 22
ENDMDL
MODEL 7
REMARK VINA RESULT:    -4.024      2.037      6.570
REMARK INTER + INTRA:         -12.875
REMARK INTER:                  -9.445
REMARK INTRA:                  -3.430
REMARK UNBOUND:                -3.676
REMARK SMILES CCCCCCCCCCCCCCCCCCCCCCCC(=O)[O-]
REMARK SMILES IDX 13 1 14 2 15 3 16 4 17 5 18 6 19 7 20 8 21 9 22 10 23 11
REMARK SMILES IDX 24 12 25 13 26 14 12 15 11 16 10 17 9 18 8 19 7 20 6 21 5 22
REMARK SMILES IDX 4 23 3 24 2 25 1 26
REMARK H PARENT
REMARK Flexibility Score: inf
ROOT
ATOM      1  C   UNL     1      21.816  21.373  21.026  1.00  0.00     0.000 C 
ENDROOT
BRANCH   1   2
ATOM      2  C   UNL     1      22.408  22.598  20.306  1.00  0.00     0.000 C 
BRANCH   2   3
ATOM      3  C   UNL     1      21.945  22.717  18.845  1.00  0.00     0.000 C 
BRANCH   3   4
ATOM      4  C   UNL     1      21.144  24.002  18.577  1.00  0.00     0.000 C 
BRANCH   4   5
ATOM      5  C   UNL     1      19.765  23.747  17.931  1.00  0.00     0.000 C 
BRANCH   5   6
ATOM      6  C   UNL     1      19.631  22.313  17.398  1.00  0.00     0.000 C 
BRANCH   6   7
ATOM      7  C   UNL     1      18.156  21.902  17.299  1.00  0.00     0.000 C 
BRANCH   7   8
ATOM      8  C   UNL     1      17.891  20.610  18.086  1.00  0.00     0.000 C 
BRANCH   8   9
ATOM      9  C   UNL     1      18.860  20.418  19.265  1.00  0.00     0.000 C 
BRANCH   9  10
ATOM     10  C   UNL     1      18.292  20.779  20.651  1.00  0.00     0.006 C 
BRANCH  10  11
ATOM     11  C   UNL     1      17.946  22.269  20.822  1.00  0.00     0.053 C 
BRANCH  11  12
ATOM     12  C   UNL     1      18.377  22.816  22.151  1.00  0.00     0.041 C 
ATOM     13  O   UNL     1      17.800  22.449  23.208  1.00  0.00    -0.550 OA
ATOM     14  O   UNL     1      19.443  23.705  22.226  1.00  0.00    -0.550 OA
ENDBRANCH  11  12
ENDBRANCH  10  11
ENDBRANCH   9  10
ENDBRANCH   8   9
ENDBRANCH   7   8
ENDBRANCH   6   7
ENDBRANCH   5   6
ENDBRANCH   4   5
ENDBRANCH   3   4
ENDBRANCH   2   3
ENDBRANCH   1   2
BRANCH   1  15
ATOM     15  C   UNL     1      22.848  20.415  21.653  1.00  0.00     0.000 C 
BRANCH  15  16
ATOM     16  C   UNL     1      23.618  19.532  20.652  1.00  0.00     0.000 C 
BRANCH  16  17
ATOM     17  C   UNL     1      24.394  18.364  21.286  1.00  0.00     0.000 C 
BRANCH  17  18
ATOM     18  C   UNL     1      25.538  17.858  20.394  1.00  0.00    -0.000 C 
BRANCH  18  19
ATOM     19  C   UNL     1      24.987  17.116  19.167  1.00  0.00    -0.000 C 
BRANCH  19  20
ATOM     20  C   UNL     1      23.972  16.024  19.539  1.00  0.00    -0.000 C 
BRANCH  20  21
ATOM     21  C   UNL     1      22.961  15.746  18.416  1.00  0.00    -0.000 C 
BRANCH  21  22
ATOM     22  C   UNL     1      21.527  15.707  18.963  1.00  0.00    -0.000 C 
BRANCH  22  23
ATOM     23  C   UNL     1      21.436  16.131  20.440  1.00  0.00    -0.000 C 
BRANCH  23  24
ATOM     24  C   UNL     1      20.584  17.388  20.707  1.00  0.00    -0.000 C 
BRANCH  24  25
ATOM     25  C   UNL     1      19.880  17.417  22.074  1.00  0.00    -0.003 C 
ATOM     26  C   UNL     1      20.270  16.242  22.969  1.00  0.00     0.004 C 
ENDBRANCH  24  25
ENDBRANCH  23  24
ENDBRANCH  22  23
ENDBRANCH  21  22
ENDBRANCH  20  21
ENDBRANCH  19  20
ENDBRANCH  18  19
ENDBRANCH  17  18
ENDBRANCH  16  17
ENDBRANCH  15  16
ENDBRANCH   1  15
TORSDOF 22
ENDMDL
MODEL 8
REMARK VINA RESULT:    -3.987      1.204      5.142
REMARK INTER + INTRA:         -12.792
REMARK INTER:                  -9.412
REMARK INTRA:                  -3.380
REMARK UNBOUND:                -3.676
REMARK SMILES CCCCCCCCCCCCCCCCCCCCCCCC(=O)[O-]
REMARK SMILES IDX 13 1 14 2 15 3 16 4 17 5 18 6 19 7 20 8 21 9 22 10 23 11
REMARK SMILES IDX 24 12 25 13 26 14 12 15 11 16 10 17 9 18 8 19 7 20 6 21 5 22
REMARK SMILES IDX 4 23 3 24 2 25 1 26
REMARK H PARENT
REMARK Flexibility Score: inf
ROOT
ATOM      1  C   UNL     1      19.890  25.006  20.070  1.00  0.00     0.000 C 
ENDROOT
BRANCH   1   2
ATOM      2  C   UNL     1      18.846  23.875  20.115  1.00  0.00     0.000 C 
BRANCH   2   3
ATOM      3  C   UNL     1      18.794  23.162  21.476  1.00  0.00     0.000 C 
BRANCH   3   4
ATOM      4  C   UNL     1      18.177  21.756  21.387  1.00  0.00     0.000 C 
BRANCH   4   5
ATOM      5  C   UNL     1      17.753  21.356  19.958  1.00  0.00     0.000 C 
BRANCH   5   6
ATOM      6  C   UNL     1      18.695  20.308  19.344  1.00  0.00     0.000 C 
BRANCH   6   7
ATOM      7  C   UNL     1      18.261  18.889  19.732  1.00  0.00     0.000 C 
BRANCH   7   8
ATOM      8  C   UNL     1      19.160  18.322  20.841  1.00  0.00     0.000 C 
BRANCH   8   9
ATOM      9  C   UNL     1      18.367  17.595  21.940  1.00  0.00     0.000 C 
BRANCH   9  10
ATOM     10  C   UNL     1      18.909  16.208  22.336  1.00  0.00     0.006 C 
BRANCH  10  11
ATOM     11  C   UNL     1      19.902  16.233  23.513  1.00  0.00     0.053 C 
BRANCH  11  12
ATOM     12  C   UNL     1      19.241  16.542  24.824  1.00  0.00     0.041 C 
ATOM     13  O   UNL     1      19.628  17.519  25.518  1.00  0.00    -0.550 OA
ATOM     14  O   UNL     1      18.171  15.771  25.262  1.00  0.00    -0.550 OA
ENDBRANCH  11  12
ENDBRANCH  10  11
ENDBRANCH   9  10
ENDBRANCH   8   9
ENDBRANCH   7   8
ENDBRANCH   6   7
ENDBRANCH   5   6
ENDBRANCH   4   5
ENDBRANCH   3   4
ENDBRANCH   2   3
ENDBRANCH   1   2
BRANCH   1  15
ATOM     15  C   UNL     1      20.958  24.871  18.967  1.00  0.00     0.000 C 
BRANCH  15  16
ATOM     16  C   UNL     1      20.901  23.564  18.153  1.00  0.00     0.000 C 
BRANCH  16  17
ATOM     17  C   UNL     1      21.714  22.398  18.746  1.00  0.00     0.000 C 
BRANCH  17  18
ATOM     18  C   UNL     1      22.573  22.824  19.946  1.00  0.00    -0.000 C 
BRANCH  18  19
ATOM     19  C   UNL     1      22.125  22.098  21.224  1.00  0.00    -0.000 C 
BRANCH  19  20
ATOM     20  C   UNL     1      21.882  20.597  21.000  1.00  0.00    -0.000 C 
BRANCH  20  21
ATOM     21  C   UNL     1      22.894  19.715  21.747  1.00  0.00    -0.000 C 
BRANCH  21  22
ATOM     22  C   UNL     1      24.024  19.262  20.811  1.00  0.00    -0.000 C 
BRANCH  22  23
ATOM     23  C   UNL     1      24.409  17.784  21.007  1.00  0.00    -0.000 C 
BRANCH  23  24
ATOM     24  C   UNL     1      23.700  16.794  20.062  1.00  0.00    -0.000 C 
BRANCH  24  25
ATOM     25  C   UNL     1      22.229  16.506  20.409  1.00  0.00    -0.003 C 
ATOM     26  C   UNL     1      21.497  15.741  19.307  1.00  0.00     0.004 C 
ENDBRANCH  24  25
ENDBRANCH  23  24
ENDBRANCH  22  23
ENDBRANCH  21  22
ENDBRANCH  20  21
ENDBRANCH  19  20
ENDBRANCH  18  19
ENDBRANCH  17  18
ENDBRANCH  16  17
ENDBRANCH  15  16
ENDBRANCH   1  15
TORSDOF 22
ENDMDL
MODEL 9
REMARK VINA RESULT:    -3.973      1.073      3.362
REMARK INTER + INTRA:         -12.758
REMARK INTER:                  -9.432
REMARK INTRA:                  -3.327
REMARK UNBOUND:                -3.676
REMARK SMILES CCCCCCCCCCCCCCCCCCCCCCCC(=O)[O-]
REMARK SMILES IDX 13 1 14 2 15 3 16 4 17 5 18 6 19 7 20 8 21 9 22 10 23 11
REMARK SMILES IDX 24 12 25 13 26 14 12 15 11 16 10 17 9 18 8 19 7 20 6 21 5 22
REMARK SMILES IDX 4 23 3 24 2 25 1 26
REMARK H PARENT
REMARK Flexibility Score: inf
ROOT
ATOM      1  C   UNL     1      21.795  20.375  20.986  1.00  0.00     0.000 C 
ENDROOT
BRANCH   1   2
ATOM      2  C   UNL     1      22.643  19.307  21.702  1.00  0.00     0.000 C 
BRANCH   2   3
ATOM      3  C   UNL     1      24.010  19.081  21.037  1.00  0.00     0.000 C 
BRANCH   3   4
ATOM      4  C   UNL     1      24.380  17.593  20.927  1.00  0.00     0.000 C 
BRANCH   4   5
ATOM      5  C   UNL     1      24.508  17.093  19.472  1.00  0.00     0.000 C 
BRANCH   5   6
ATOM      6  C   UNL     1      23.612  15.876  19.196  1.00  0.00     0.000 C 
BRANCH   6   7
ATOM      7  C   UNL     1      22.150  16.182  19.546  1.00  0.00     0.000 C 
BRANCH   7   8
ATOM      8  C   UNL     1      21.574  15.113  20.487  1.00  0.00     0.000 C 
BRANCH   8   9
ATOM      9  C   UNL     1      20.378  15.623  21.309  1.00  0.00     0.000 C 
BRANCH   9  10
ATOM     10  C   UNL     1      20.704  16.049  22.753  1.00  0.00     0.006 C 
BRANCH  10  11
ATOM     11  C   UNL     1      19.690  17.034  23.364  1.00  0.00     0.053 C 
BRANCH  11  12
ATOM     12  C   UNL     1      19.332  16.693  24.781  1.00  0.00     0.041 C 
ATOM     13  O   UNL     1      18.577  15.717  25.030  1.00  0.00    -0.550 OA
ATOM     14  O   UNL     1      19.864  17.433  25.830  1.00  0.00    -0.550 OA
ENDBRANCH  11  12
ENDBRANCH  10  11
ENDBRANCH   9  10
ENDBRANCH   8   9
ENDBRANCH   7   8
ENDBRANCH   6   7
ENDBRANCH   5   6
ENDBRANCH   4   5
ENDBRANCH   3   4
ENDBRANCH   2   3
ENDBRANCH   1   2
BRANCH   1  15
ATOM     15  C   UNL     1      22.115  21.834  21.367  1.00  0.00     0.000 C 
BRANCH  15  16
ATOM     16  C   UNL     1      22.516  22.747  20.192  1.00  0.00     0.000 C 
BRANCH  16  17
ATOM     17  C   UNL     1      21.535  22.739  19.005  1.00  0.00     0.000 C 
BRANCH  17  18
ATOM     18  C   UNL     1      20.739  24.047  18.884  1.00  0.00    -0.000 C 
BRANCH  18  19
ATOM     19  C   UNL     1      19.399  23.807  18.171  1.00  0.00    -0.000 C 
BRANCH  19  20
ATOM     20  C   UNL     1      19.305  22.409  17.539  1.00  0.00    -0.000 C 
BRANCH  20  21
ATOM     21  C   UNL     1      18.165  21.567  18.131  1.00  0.00    -0.000 C 
BRANCH  21  22
ATOM     22  C   UNL     1      18.715  20.471  19.056  1.00  0.00    -0.000 C 
BRANCH  22  23
ATOM     23  C   UNL     1      18.082  20.496  20.459  1.00  0.00    -0.000 C 
BRANCH  23  24
ATOM     24  C   UNL     1      17.565  21.875  20.917  1.00  0.00    -0.000 C 
BRANCH  24  25
ATOM     25  C   UNL     1      18.126  22.365  22.263  1.00  0.00    -0.003 C 
ATOM     26  C   UNL     1      19.107  23.526  22.111  1.00  0.00     0.004 C 
ENDBRANCH  24  25
ENDBRANCH  23  24
ENDBRANCH  22  23
ENDBRANCH  21  22
ENDBRANCH  20  21
ENDBRANCH  19  20
ENDBRANCH  18  19
ENDBRANCH  17  18
ENDBRANCH  16  17
ENDBRANCH  15  16
ENDBRANCH   1  15
TORSDOF 22
ENDMDL
