MODEL 1
REMARK VINA RESULT:    -3.217      0.000      0.000
REMARK INTER + INTRA:          -4.214
REMARK INTER:                  -3.875
REMARK INTRA:                  -0.339
REMARK UNBOUND:                -0.339
REMARK SMILES Oc1cc(O)c2cc(O)c(-c3ccc(O)c(O)c3)[o+]c2c1.[Cl-]
REMARK SMILES IDX 10 1 19 2 20 3 21 4 2 5 3 6 4 7 6 8 7 9 8 10 11 11 12 12
REMARK SMILES IDX 13 13 14 14 18 15 16 16 15 17 17 19 9 21 1 23 5 25
REMARK H PARENT 15 18 17 20 9 22 1 24 5 26
REMARK Flexibility Score: inf
ROOT
ATOM      1  C   UNL     1     -24.164 -10.226   8.244  1.00  0.00     0.402 A 
ATOM      2  O   UNL     1     -23.999 -10.921   9.367  1.00  0.00    -0.202 OA
ATOM      3  C   UNL     1     -24.040 -12.247   9.416  1.00  0.00     0.368 A 
ATOM      4  C   UNL     1     -23.852 -12.889  10.643  1.00  0.00     0.162 A 
ATOM      5  C   UNL     1     -23.888 -14.283  10.724  1.00  0.00     0.128 A 
ATOM      6  C   UNL     1     -24.112 -15.040   9.572  1.00  0.00     0.093 A 
ATOM      7  C   UNL     1     -24.304 -14.423   8.330  1.00  0.00     0.136 A 
ATOM      8  C   UNL     1     -24.271 -13.006   8.243  1.00  0.00     0.125 A 
ATOM      9  C   UNL     1     -24.466 -12.301   7.045  1.00  0.00     0.078 A 
ATOM     10  C   UNL     1     -24.424 -10.904   7.039  1.00  0.00     0.223 A 
ENDROOT
BRANCH   1  11
ATOM     11  C   UNL     1     -24.086  -8.749   8.317  1.00  0.00     0.087 A 
ATOM     12  C   UNL     1     -22.885  -8.103   7.978  1.00  0.00     0.022 A 
ATOM     13  C   UNL     1     -22.795  -6.710   8.021  1.00  0.00     0.051 A 
ATOM     14  C   UNL     1     -23.903  -5.940   8.385  1.00  0.00     0.157 A 
ATOM     15  C   UNL     1     -25.205  -7.971   8.663  1.00  0.00     0.068 A 
ATOM     16  C   UNL     1     -25.117  -6.572   8.704  1.00  0.00     0.158 A 
BRANCH  14  17
ATOM     17  O   UNL     1     -23.782  -4.551   8.421  1.00  0.00    -0.504 OA
ATOM     18  H   UNL     1     -22.947  -4.075   8.101  1.00  0.00     0.293 HD
ENDBRANCH  14  17
BRANCH  16  19
ATOM     19  O   UNL     1     -26.230  -5.810   9.055  1.00  0.00    -0.504 OA
ATOM     20  H   UNL     1     -26.293  -4.825   8.826  1.00  0.00     0.293 HD
ENDBRANCH  16  19
ENDBRANCH   1  11
BRANCH  10  21
ATOM     21  O   UNL     1     -24.666 -10.202   5.858  1.00  0.00    -0.500 OA
ATOM     22  H   UNL     1     -24.929 -10.675   5.001  1.00  0.00     0.294 HD
ENDBRANCH  10  21
BRANCH   5  23
ATOM     23  O   UNL     1     -23.702 -14.929  11.944  1.00  0.00    -0.507 OA
ATOM     24  H   UNL     1     -23.786 -15.935  12.029  1.00  0.00     0.293 HD
ENDBRANCH   5  23
BRANCH   7  25
ATOM     25  O   UNL     1     -24.519 -15.251   7.225  1.00  0.00    -0.507 OA
ATOM     26  H   UNL     1     -25.350 -15.805   7.080  1.00  0.00     0.293 HD
ENDBRANCH   7  25
TORSDOF 6
ENDMDL
MODEL 2
REMARK VINA RESULT:    -2.780      1.342      3.018
REMARK INTER + INTRA:          -3.688
REMARK INTER:                  -3.336
REMARK INTRA:                  -0.352
REMARK UNBOUND:                -0.339
REMARK SMILES Oc1cc(O)c2cc(O)c(-c3ccc(O)c(O)c3)[o+]c2c1.[Cl-]
REMARK SMILES IDX 10 1 19 2 20 3 21 4 2 5 3 6 4 7 6 8 7 9 8 10 11 11 12 12
REMARK SMILES IDX 13 13 14 14 18 15 16 16 15 17 17 19 9 21 1 23 5 25
REMARK H PARENT 15 18 17 20 9 22 1 24 5 26
REMARK Flexibility Score: inf
ROOT
ATOM      1  C   UNL     1     -24.242 -10.633   8.177  1.00  0.00     0.402 A 
ATOM      2  O   UNL     1     -24.465 -11.145   6.969  1.00  0.00    -0.202 OA
ATOM      3  C   UNL     1     -24.605 -12.447   6.743  1.00  0.00     0.368 A 
ATOM      4  C   UNL     1     -24.840 -12.889   5.439  1.00  0.00     0.162 A 
ATOM      5  C   UNL     1     -24.994 -14.252   5.173  1.00  0.00     0.128 A 
ATOM      6  C   UNL     1     -24.914 -15.177   6.216  1.00  0.00     0.093 A 
ATOM      7  C   UNL     1     -24.679 -14.760   7.532  1.00  0.00     0.136 A 
ATOM      8  C   UNL     1     -24.519 -13.377   7.807  1.00  0.00     0.125 A 
ATOM      9  C   UNL     1     -24.268 -12.869   9.092  1.00  0.00     0.078 A 
ATOM     10  C   UNL     1     -24.117 -11.492   9.284  1.00  0.00     0.223 A 
ENDROOT
BRANCH   1  11
ATOM     11  C   UNL     1     -24.114  -9.163   8.301  1.00  0.00     0.087 A 
ATOM     12  C   UNL     1     -22.885  -8.549   8.009  1.00  0.00     0.022 A 
ATOM     13  C   UNL     1     -22.748  -7.162   8.101  1.00  0.00     0.051 A 
ATOM     14  C   UNL     1     -23.836  -6.366   8.469  1.00  0.00     0.157 A 
ATOM     15  C   UNL     1     -25.214  -8.358   8.652  1.00  0.00     0.068 A 
ATOM     16  C   UNL     1     -25.078  -6.965   8.743  1.00  0.00     0.158 A 
BRANCH  14  17
ATOM     17  O   UNL     1     -23.668  -4.984   8.555  1.00  0.00    -0.504 OA
ATOM     18  H   UNL     1     -23.371  -4.428   7.762  1.00  0.00     0.293 HD
ENDBRANCH  14  17
BRANCH  16  19
ATOM     19  O   UNL     1     -26.171  -6.176   9.097  1.00  0.00    -0.504 OA
ATOM     20  H   UNL     1     -26.951  -6.036   8.466  1.00  0.00     0.293 HD
ENDBRANCH  16  19
ENDBRANCH   1  11
BRANCH  10  21
ATOM     21  O   UNL     1     -23.819 -10.991  10.552  1.00  0.00    -0.500 OA
ATOM     22  H   UNL     1     -23.146 -11.445  11.159  1.00  0.00     0.294 HD
ENDBRANCH  10  21
BRANCH   5  23
ATOM     23  O   UNL     1     -25.228 -14.700   3.875  1.00  0.00    -0.507 OA
ATOM     24  H   UNL     1     -26.043 -14.404   3.350  1.00  0.00     0.293 HD
ENDBRANCH   5  23
BRANCH   7  25
ATOM     25  O   UNL     1     -24.616 -15.748   8.519  1.00  0.00    -0.507 OA
ATOM     26  H   UNL     1     -24.157 -15.635   9.411  1.00  0.00     0.293 HD
ENDBRANCH   7  25
TORSDOF 6
ENDMDL
MODEL 3
REMARK VINA RESULT:    -1.945      1.407      7.016
REMARK INTER + INTRA:          -2.682
REMARK INTER:                  -2.330
REMARK INTRA:                  -0.353
REMARK UNBOUND:                -0.339
REMARK SMILES Oc1cc(O)c2cc(O)c(-c3ccc(O)c(O)c3)[o+]c2c1.[Cl-]
REMARK SMILES IDX 10 1 19 2 20 3 21 4 2 5 3 6 4 7 6 8 7 9 8 10 11 11 12 12
REMARK SMILES IDX 13 13 14 14 18 15 16 16 15 17 17 19 9 21 1 23 5 25
REMARK H PARENT 15 18 17 20 9 22 1 24 5 26
REMARK Flexibility Score: inf
ROOT
ATOM      1  C   UNL     1     -23.550  -9.769   8.780  1.00  0.00     0.402 A 
ATOM      2  O   UNL     1     -24.562  -9.026   9.223  1.00  0.00    -0.202 OA
ATOM      3  C   UNL     1     -24.682  -7.728   8.965  1.00  0.00     0.368 A 
ATOM      4  C   UNL     1     -25.782  -7.033   9.472  1.00  0.00     0.162 A 
ATOM      5  C   UNL     1     -25.935  -5.668   9.214  1.00  0.00     0.128 A 
ATOM      6  C   UNL     1     -24.983  -4.996   8.444  1.00  0.00     0.093 A 
ATOM      7  C   UNL     1     -23.871  -5.669   7.925  1.00  0.00     0.136 A 
ATOM      8  C   UNL     1     -23.710  -7.055   8.186  1.00  0.00     0.125 A 
ATOM      9  C   UNL     1     -22.621  -7.808   7.718  1.00  0.00     0.078 A 
ATOM     10  C   UNL     1     -22.529  -9.170   8.021  1.00  0.00     0.223 A 
ENDROOT
BRANCH   1  11
ATOM     11  C   UNL     1     -23.535 -11.208   9.127  1.00  0.00     0.087 A 
ATOM     12  C   UNL     1     -22.956 -11.621  10.339  1.00  0.00     0.022 A 
ATOM     13  C   UNL     1     -22.948 -12.971  10.695  1.00  0.00     0.051 A 
ATOM     14  C   UNL     1     -23.529 -13.927   9.858  1.00  0.00     0.157 A 
ATOM     15  C   UNL     1     -24.137 -12.170   8.296  1.00  0.00     0.068 A 
ATOM     16  C   UNL     1     -24.131 -13.526   8.653  1.00  0.00     0.158 A 
BRANCH  14  17
ATOM     17  O   UNL     1     -23.503 -15.269  10.239  1.00  0.00    -0.504 OA
ATOM     18  H   UNL     1     -23.389 -15.552  11.205  1.00  0.00     0.293 HD
ENDBRANCH  14  17
BRANCH  16  19
ATOM     19  O   UNL     1     -24.725 -14.473   7.820  1.00  0.00    -0.504 OA
ATOM     20  H   UNL     1     -24.182 -15.200   7.371  1.00  0.00     0.293 HD
ENDBRANCH  16  19
ENDBRANCH   1  11
BRANCH  10  21
ATOM     21  O   UNL     1     -21.422  -9.907   7.597  1.00  0.00    -0.500 OA
ATOM     22  H   UNL     1     -20.899  -9.653   6.768  1.00  0.00     0.294 HD
ENDBRANCH  10  21
BRANCH   5  23
ATOM     23  O   UNL     1     -27.029  -4.968   9.717  1.00  0.00    -0.507 OA
ATOM     24  H   UNL     1     -27.826  -4.740   9.134  1.00  0.00     0.293 HD
ENDBRANCH   5  23
BRANCH   7  25
ATOM     25  O   UNL     1     -22.966  -4.926   7.162  1.00  0.00    -0.507 OA
ATOM     26  H   UNL     1     -22.561  -5.238   6.292  1.00  0.00     0.293 HD
ENDBRANCH   7  25
TORSDOF 6
ENDMDL
MODEL 4
REMARK VINA RESULT:    -0.285      2.413      6.957
REMARK INTER + INTRA:          -0.683
REMARK INTER:                  -0.427
REMARK INTRA:                  -0.255
REMARK UNBOUND:                -0.339
REMARK SMILES Oc1cc(O)c2cc(O)c(-c3ccc(O)c(O)c3)[o+]c2c1.[Cl-]
REMARK SMILES IDX 10 1 19 2 20 3 21 4 2 5 3 6 4 7 6 8 7 9 8 10 11 11 12 12
REMARK SMILES IDX 13 13 14 14 18 15 16 16 15 17 17 19 9 21 1 23 5 25
REMARK H PARENT 15 18 17 20 9 22 1 24 5 26
REMARK Flexibility Score: inf
ROOT
ATOM      1  C   UNL     1     -23.984  -9.987   6.701  1.00  0.00     0.402 A 
ATOM      2  O   UNL     1     -25.051  -9.384   7.219  1.00  0.00    -0.202 OA
ATOM      3  C   UNL     1     -24.991  -8.228   7.871  1.00  0.00     0.368 A 
ATOM      4  C   UNL     1     -26.169  -7.670   8.376  1.00  0.00     0.162 A 
ATOM      5  C   UNL     1     -26.135  -6.454   9.063  1.00  0.00     0.128 A 
ATOM      6  C   UNL     1     -24.919  -5.792   9.246  1.00  0.00     0.093 A 
ATOM      7  C   UNL     1     -23.725  -6.329   8.750  1.00  0.00     0.136 A 
ATOM      8  C   UNL     1     -23.753  -7.566   8.053  1.00  0.00     0.125 A 
ATOM      9  C   UNL     1     -22.606  -8.185   7.533  1.00  0.00     0.078 A 
ATOM     10  C   UNL     1     -22.712  -9.407   6.862  1.00  0.00     0.223 A 
ENDROOT
BRANCH   1  11
ATOM     11  C   UNL     1     -24.181 -11.269   5.987  1.00  0.00     0.087 A 
ATOM     12  C   UNL     1     -23.995 -11.321   4.596  1.00  0.00     0.022 A 
ATOM     13  C   UNL     1     -24.157 -12.524   3.905  1.00  0.00     0.051 A 
ATOM     14  C   UNL     1     -24.491 -13.695   4.592  1.00  0.00     0.157 A 
ATOM     15  C   UNL     1     -24.497 -12.452   6.679  1.00  0.00     0.068 A 
ATOM     16  C   UNL     1     -24.659 -13.662   5.987  1.00  0.00     0.158 A 
BRANCH  14  17
ATOM     17  O   UNL     1     -24.649 -14.881   3.875  1.00  0.00    -0.504 OA
ATOM     18  H   UNL     1     -24.783 -15.774   4.334  1.00  0.00     0.293 HD
ENDBRANCH  14  17
BRANCH  16  19
ATOM     19  O   UNL     1     -24.978 -14.828   6.680  1.00  0.00    -0.504 OA
ATOM     20  H   UNL     1     -24.272 -15.516   6.915  1.00  0.00     0.293 HD
ENDBRANCH  16  19
ENDBRANCH   1  11
BRANCH  10  21
ATOM     21  O   UNL     1     -21.566 -10.047   6.388  1.00  0.00    -0.500 OA
ATOM     22  H   UNL     1     -21.422 -10.219   5.399  1.00  0.00     0.294 HD
ENDBRANCH  10  21
BRANCH   5  23
ATOM     23  O   UNL     1     -27.305  -5.893   9.571  1.00  0.00    -0.507 OA
ATOM     24  H   UNL     1     -28.215  -6.291   9.369  1.00  0.00     0.293 HD
ENDBRANCH   5  23
BRANCH   7  25
ATOM     25  O   UNL     1     -22.551  -5.603   8.971  1.00  0.00    -0.507 OA
ATOM     26  H   UNL     1     -22.437  -4.910   9.695  1.00  0.00     0.293 HD
ENDBRANCH   7  25
TORSDOF 6
ENDMDL
