MODEL 1
REMARK VINA RESULT:     1.294      0.000      0.000
REMARK INTER + INTRA:           2.395
REMARK INTER:                   2.959
REMARK INTRA:                  -0.564
REMARK UNBOUND:                -0.564
REMARK SMILES CCCCCCCCCCCCCCCCCCCCCCCC(=O)[O-]
REMARK SMILES IDX 13 1 14 2 15 3 16 4 17 5 18 6 19 7 20 8 21 9 22 10 23 11
REMARK SMILES IDX 24 12 25 13 26 14 12 15 11 16 10 17 9 18 8 19 7 20 6 21 5 22
REMARK SMILES IDX 4 23 3 24 2 25 1 26
REMARK H PARENT
REMARK Flexibility Score: inf
ROOT
ATOM      1  C   UNL     1      41.124  44.938  20.902  1.00  0.00     0.000 C 
ENDROOT
BRANCH   1   2
ATOM      2  C   UNL     1      40.691  45.320  22.329  1.00  0.00     0.000 C 
BRANCH   2   3
ATOM      3  C   UNL     1      41.034  44.282  23.416  1.00  0.00     0.000 C 
BRANCH   3   4
ATOM      4  C   UNL     1      40.028  44.243  24.587  1.00  0.00     0.000 C 
BRANCH   4   5
ATOM      5  C   UNL     1      39.729  45.641  25.154  1.00  0.00     0.000 C 
BRANCH   5   6
ATOM      6  C   UNL     1      38.210  45.908  25.254  1.00  0.00     0.000 C 
BRANCH   6   7
ATOM      7  C   UNL     1      37.477  45.775  23.907  1.00  0.00     0.000 C 
BRANCH   7   8
ATOM      8  C   UNL     1      36.709  47.036  23.475  1.00  0.00     0.000 C 
BRANCH   8   9
ATOM      9  C   UNL     1      35.182  46.888  23.591  1.00  0.00     0.000 C 
BRANCH   9  10
ATOM     10  C   UNL     1      34.746  46.710  25.055  1.00  0.00     0.006 C 
BRANCH  10  11
ATOM     11  C   UNL     1      33.648  45.649  25.196  1.00  0.00     0.053 C 
BRANCH  11  12
ATOM     12  C   UNL     1      32.809  45.585  23.960  1.00  0.00     0.041 C 
ATOM     13  O   UNL     1      33.271  45.062  22.910  1.00  0.00    -0.550 OA
ATOM     14  O   UNL     1      31.517  46.101  23.957  1.00  0.00    -0.550 OA
ENDBRANCH  11  12
ENDBRANCH  10  11
ENDBRANCH   9  10
ENDBRANCH   8   9
ENDBRANCH   7   8
ENDBRANCH   6   7
ENDBRANCH   5   6
ENDBRANCH   4   5
ENDBRANCH   3   4
ENDBRANCH   2   3
ENDBRANCH   1   2
BRANCH   1  15
ATOM     15  C   UNL     1      41.057  43.425  20.642  1.00  0.00     0.000 C 
BRANCH  15  16
ATOM     16  C   UNL     1      40.931  43.076  19.149  1.00  0.00     0.000 C 
BRANCH  16  17
ATOM     17  C   UNL     1      41.102  41.575  18.835  1.00  0.00     0.000 C 
BRANCH  17  18
ATOM     18  C   UNL     1      40.356  41.086  17.574  1.00  0.00    -0.000 C 
BRANCH  18  19
ATOM     19  C   UNL     1      41.086  40.009  16.746  1.00  0.00    -0.000 C 
BRANCH  19  20
ATOM     20  C   UNL     1      40.417  38.629  16.811  1.00  0.00    -0.000 C 
BRANCH  20  21
ATOM     21  C   UNL     1      39.494  38.523  18.037  1.00  0.00    -0.000 C 
BRANCH  21  22
ATOM     22  C   UNL     1      39.824  37.318  18.938  1.00  0.00    -0.000 C 
BRANCH  22  23
ATOM     23  C   UNL     1      39.171  35.989  18.511  1.00  0.00    -0.000 C 
BRANCH  23  24
ATOM     24  C   UNL     1      38.838  35.071  19.701  1.00  0.00    -0.000 C 
BRANCH  24  25
ATOM     25  C   UNL     1      37.900  35.741  20.721  1.00  0.00    -0.003 C 
ATOM     26  C   UNL     1      37.700  34.904  21.985  1.00  0.00     0.004 C 
ENDBRANCH  24  25
ENDBRANCH  23  24
ENDBRANCH  22  23
ENDBRANCH  21  22
ENDBRANCH  20  21
ENDBRANCH  19  20
ENDBRANCH  18  19
ENDBRANCH  17  18
ENDBRANCH  16  17
ENDBRANCH  15  16
ENDBRANCH   1  15
TORSDOF 22
ENDMDL
MODEL 2
REMARK VINA RESULT:     2.818      2.522      9.438
REMARK INTER + INTRA:           5.879
REMARK INTER:                   5.970
REMARK INTRA:                  -0.091
REMARK UNBOUND:                -0.564
REMARK SMILES CCCCCCCCCCCCCCCCCCCCCCCC(=O)[O-]
REMARK SMILES IDX 13 1 14 2 15 3 16 4 17 5 18 6 19 7 20 8 21 9 22 10 23 11
REMARK SMILES IDX 24 12 25 13 26 14 12 15 11 16 10 17 9 18 8 19 7 20 6 21 5 22
REMARK SMILES IDX 4 23 3 24 2 25 1 26
REMARK H PARENT
REMARK Flexibility Score: inf
ROOT
ATOM      1  C   UNL     1      40.477  42.690  20.213  1.00  0.00     0.000 C 
ENDROOT
BRANCH   1   2
ATOM      2  C   UNL     1      40.740  42.484  18.710  1.00  0.00     0.000 C 
BRANCH   2   3
ATOM      3  C   UNL     1      41.060  41.034  18.296  1.00  0.00     0.000 C 
BRANCH   3   4
ATOM      4  C   UNL     1      40.615  40.677  16.860  1.00  0.00     0.000 C 
BRANCH   4   5
ATOM      5  C   UNL     1      40.741  39.174  16.561  1.00  0.00     0.000 C 
BRANCH   5   6
ATOM      6  C   UNL     1      40.842  38.336  17.856  1.00  0.00     0.000 C 
BRANCH   6   7
ATOM      7  C   UNL     1      39.802  37.205  17.933  1.00  0.00     0.000 C 
BRANCH   7   8
ATOM      8  C   UNL     1      39.954  36.284  19.156  1.00  0.00     0.000 C 
BRANCH   8   9
ATOM      9  C   UNL     1      38.690  35.461  19.460  1.00  0.00     0.000 C 
BRANCH   9  10
ATOM     10  C   UNL     1      37.998  35.949  20.744  1.00  0.00     0.006 C 
BRANCH  10  11
ATOM     11  C   UNL     1      36.948  37.027  20.450  1.00  0.00     0.053 C 
BRANCH  11  12
ATOM     12  C   UNL     1      37.520  38.394  20.651  1.00  0.00     0.041 C 
ATOM     13  O   UNL     1      38.531  38.553  21.388  1.00  0.00    -0.550 OA
ATOM     14  O   UNL     1      36.943  39.498  20.032  1.00  0.00    -0.550 OA
ENDBRANCH  11  12
ENDBRANCH  10  11
ENDBRANCH   9  10
ENDBRANCH   8   9
ENDBRANCH   7   8
ENDBRANCH   6   7
ENDBRANCH   5   6
ENDBRANCH   4   5
ENDBRANCH   3   4
ENDBRANCH   2   3
ENDBRANCH   1   2
BRANCH   1  15
ATOM     15  C   UNL     1      41.094  43.989  20.755  1.00  0.00     0.000 C 
BRANCH  15  16
ATOM     16  C   UNL     1      41.124  45.121  19.714  1.00  0.00     0.000 C 
BRANCH  16  17
ATOM     17  C   UNL     1      41.075  46.539  20.322  1.00  0.00     0.000 C 
BRANCH  17  18
ATOM     18  C   UNL     1      41.094  46.586  21.865  1.00  0.00    -0.000 C 
BRANCH  18  19
ATOM     19  C   UNL     1      40.307  45.464  22.573  1.00  0.00    -0.000 C 
BRANCH  19  20
ATOM     20  C   UNL     1      39.968  45.784  24.035  1.00  0.00    -0.000 C 
BRANCH  20  21
ATOM     21  C   UNL     1      39.270  44.591  24.710  1.00  0.00    -0.000 C 
BRANCH  21  22
ATOM     22  C   UNL     1      37.736  44.734  24.750  1.00  0.00    -0.000 C 
BRANCH  22  23
ATOM     23  C   UNL     1      37.220  46.183  24.851  1.00  0.00    -0.000 C 
BRANCH  23  24
ATOM     24  C   UNL     1      36.385  46.614  23.632  1.00  0.00    -0.000 C 
BRANCH  24  25
ATOM     25  C   UNL     1      35.000  47.157  24.025  1.00  0.00    -0.003 C 
ATOM     26  C   UNL     1      34.284  46.275  25.049  1.00  0.00     0.004 C 
ENDBRANCH  24  25
ENDBRANCH  23  24
ENDBRANCH  22  23
ENDBRANCH  21  22
ENDBRANCH  20  21
ENDBRANCH  19  20
ENDBRANCH  18  19
ENDBRANCH  17  18
ENDBRANCH  16  17
ENDBRANCH  15  16
ENDBRANCH   1  15
TORSDOF 22
ENDMDL
MODEL 3
REMARK VINA RESULT:     3.351      3.910      9.979
REMARK INTER + INTRA:           7.096
REMARK INTER:                   7.473
REMARK INTRA:                  -0.377
REMARK UNBOUND:                -0.564
REMARK SMILES CCCCCCCCCCCCCCCCCCCCCCCC(=O)[O-]
REMARK SMILES IDX 13 1 14 2 15 3 16 4 17 5 18 6 19 7 20 8 21 9 22 10 23 11
REMARK SMILES IDX 24 12 25 13 26 14 12 15 11 16 10 17 9 18 8 19 7 20 6 21 5 22
REMARK SMILES IDX 4 23 3 24 2 25 1 26
REMARK H PARENT
REMARK Flexibility Score: inf
ROOT
ATOM      1  C   UNL     1      40.740  44.400  22.862  1.00  0.00     0.000 C 
ENDROOT
BRANCH   1   2
ATOM      2  C   UNL     1      40.907  45.496  21.794  1.00  0.00     0.000 C 
BRANCH   2   3
ATOM      3  C   UNL     1      41.108  44.980  20.355  1.00  0.00     0.000 C 
BRANCH   3   4
ATOM      4  C   UNL     1      41.125  43.440  20.236  1.00  0.00     0.000 C 
BRANCH   4   5
ATOM      5  C   UNL     1      40.388  42.939  18.982  1.00  0.00     0.000 C 
BRANCH   5   6
ATOM      6  C   UNL     1      40.979  41.610  18.460  1.00  0.00     0.000 C 
BRANCH   6   7
ATOM      7  C   UNL     1      40.197  40.369  18.926  1.00  0.00     0.000 C 
BRANCH   7   8
ATOM      8  C   UNL     1      38.675  40.573  19.011  1.00  0.00     0.000 C 
BRANCH   8   9
ATOM      9  C   UNL     1      37.956  39.469  19.807  1.00  0.00     0.000 C 
BRANCH   9  10
ATOM     10  C   UNL     1      38.168  38.087  19.166  1.00  0.00     0.006 C 
BRANCH  10  11
ATOM     11  C   UNL     1      39.637  37.654  19.219  1.00  0.00     0.053 C 
BRANCH  11  12
ATOM     12  C   UNL     1      40.005  36.869  18.000  1.00  0.00     0.041 C 
ATOM     13  O   UNL     1      40.513  35.722  18.118  1.00  0.00    -0.550 OA
ATOM     14  O   UNL     1      39.791  37.397  16.731  1.00  0.00    -0.550 OA
ENDBRANCH  11  12
ENDBRANCH  10  11
ENDBRANCH   9  10
ENDBRANCH   8   9
ENDBRANCH   7   8
ENDBRANCH   6   7
ENDBRANCH   5   6
ENDBRANCH   4   5
ENDBRANCH   3   4
ENDBRANCH   2   3
ENDBRANCH   1   2
BRANCH   1  15
ATOM     15  C   UNL     1      41.125  44.877  24.272  1.00  0.00     0.000 C 
BRANCH  15  16
ATOM     16  C   UNL     1      40.008  44.659  25.306  1.00  0.00     0.000 C 
BRANCH  16  17
ATOM     17  C   UNL     1      38.963  45.795  25.357  1.00  0.00     0.000 C 
BRANCH  17  18
ATOM     18  C   UNL     1      37.642  45.496  24.616  1.00  0.00    -0.000 C 
BRANCH  18  19
ATOM     19  C   UNL     1      36.360  45.985  25.320  1.00  0.00    -0.000 C 
BRANCH  19  20
ATOM     20  C   UNL     1      35.230  44.946  25.326  1.00  0.00    -0.000 C 
BRANCH  20  21
ATOM     21  C   UNL     1      33.879  45.606  25.648  1.00  0.00    -0.000 C 
BRANCH  21  22
ATOM     22  C   UNL     1      33.639  46.907  24.856  1.00  0.00    -0.000 C 
BRANCH  22  23
ATOM     23  C   UNL     1      33.389  46.712  23.348  1.00  0.00    -0.000 C 
BRANCH  23  24
ATOM     24  C   UNL     1      34.687  46.679  22.521  1.00  0.00    -0.000 C 
BRANCH  24  25
ATOM     25  C   UNL     1      35.537  47.949  22.704  1.00  0.00    -0.003 C 
ATOM     26  C   UNL     1      36.017  48.541  21.378  1.00  0.00     0.004 C 
ENDBRANCH  24  25
ENDBRANCH  23  24
ENDBRANCH  22  23
ENDBRANCH  21  22
ENDBRANCH  20  21
ENDBRANCH  19  20
ENDBRANCH  18  19
ENDBRANCH  17  18
ENDBRANCH  16  17
ENDBRANCH  15  16
ENDBRANCH   1  15
TORSDOF 22
ENDMDL
