MODEL 1
REMARK VINA RESULT:    -6.475      0.000      0.000
REMARK INTER + INTRA:          -8.207
REMARK INTER:                  -7.799
REMARK INTRA:                  -0.407
REMARK UNBOUND:                -0.407
REMARK SMILES O=c1c(O)c(-c2ccc(O)cc2O)oc2cc(O)cc(O)c12
REMARK SMILES IDX 5 1 3 2 2 3 1 4 22 5 20 6 19 7 17 8 16 9 15 10 14 11 6 12
REMARK SMILES IDX 8 13 7 14 9 15 11 16 12 17 10 18 13 20 4 22 21 24 18 26
REMARK H PARENT 10 19 13 21 4 23 21 25 18 27
REMARK Flexibility Score: inf
ROOT
ATOM      1  C   UNL     1     134.828 136.265 142.709  1.00  0.00     0.184 A 
ATOM      2  C   UNL     1     134.917 137.509 143.351  1.00  0.00     0.208 A 
ATOM      3  C   UNL     1     136.184 138.060 143.596  1.00  0.00     0.238 A 
ATOM      4  O   UNL     1     136.260 139.151 144.219  1.00  0.00    -0.285 OA
ATOM      5  C   UNL     1     137.346 137.366 143.178  1.00  0.00     0.111 A 
ATOM      6  C   UNL     1     138.680 137.849 143.337  1.00  0.00     0.134 A 
ATOM      7  C   UNL     1     139.759 137.020 143.005  1.00  0.00     0.093 A 
ATOM      8  C   UNL     1     139.550 135.751 142.458  1.00  0.00     0.123 A 
ATOM      9  C   UNL     1     138.252 135.295 142.245  1.00  0.00     0.094 A 
ATOM     10  C   UNL     1     137.155 136.083 142.599  1.00  0.00     0.146 A 
ATOM     11  O   UNL     1     135.935 135.606 142.389  1.00  0.00    -0.451 OA
ENDROOT
BRANCH   1  12
ATOM     12  C   UNL     1     133.525 135.637 142.408  1.00  0.00     0.063 A 
ATOM     13  C   UNL     1     131.530 134.502 143.213  1.00  0.00     0.047 A 
ATOM     14  C   UNL     1     132.765 135.107 143.463  1.00  0.00     0.020 A 
ATOM     15  C   UNL     1     131.047 134.405 141.905  1.00  0.00     0.119 A 
ATOM     16  C   UNL     1     131.808 134.910 140.844  1.00  0.00     0.093 A 
ATOM     17  C   UNL     1     133.051 135.514 141.086  1.00  0.00     0.130 A 
BRANCH  15  18
ATOM     18  O   UNL     1     129.813 133.803 141.671  1.00  0.00    -0.508 OA
ATOM     19  H   UNL     1     129.333 133.279 142.392  1.00  0.00     0.293 HD
ENDBRANCH  15  18
BRANCH  17  20
ATOM     20  O   UNL     1     133.822 135.969 140.015  1.00  0.00    -0.507 OA
ATOM     21  H   UNL     1     134.683 135.506 139.745  1.00  0.00     0.293 HD
ENDBRANCH  17  20
ENDBRANCH   1  12
BRANCH   2  22
ATOM     22  O   UNL     1     133.755 138.164 143.769  1.00  0.00    -0.502 OA
ATOM     23  H   UNL     1     132.956 137.668 144.145  1.00  0.00     0.293 HD
ENDBRANCH   2  22
BRANCH   6  24
ATOM     24  O   UNL     1     138.996 139.134 143.788  1.00  0.00    -0.507 OA
ATOM     25  H   UNL     1     138.537 139.979 143.483  1.00  0.00     0.293 HD
ENDBRANCH   6  24
BRANCH   8  26
ATOM     26  O   UNL     1     140.630 134.939 142.116  1.00  0.00    -0.508 OA
ATOM     27  H   UNL     1     140.522 133.939 141.990  1.00  0.00     0.293 HD
ENDBRANCH   8  26
TORSDOF 6
ENDMDL
MODEL 2
REMARK VINA RESULT:    -6.362      1.712      6.495
REMARK INTER + INTRA:          -8.071
REMARK INTER:                  -7.645
REMARK INTRA:                  -0.427
REMARK UNBOUND:                -0.407
REMARK SMILES O=c1c(O)c(-c2ccc(O)cc2O)oc2cc(O)cc(O)c12
REMARK SMILES IDX 5 1 3 2 2 3 1 4 22 5 20 6 19 7 17 8 16 9 15 10 14 11 6 12
REMARK SMILES IDX 8 13 7 14 9 15 11 16 12 17 10 18 13 20 4 22 21 24 18 26
REMARK H PARENT 10 19 13 21 4 23 21 25 18 27
REMARK Flexibility Score: inf
ROOT
ATOM      1  C   UNL     1     136.194 135.927 141.909  1.00  0.00     0.184 A 
ATOM      2  C   UNL     1     135.553 136.515 143.010  1.00  0.00     0.208 A 
ATOM      3  C   UNL     1     134.154 136.449 143.098  1.00  0.00     0.238 A 
ATOM      4  O   UNL     1     133.581 137.024 144.060  1.00  0.00    -0.285 OA
ATOM      5  C   UNL     1     133.416 135.781 142.091  1.00  0.00     0.111 A 
ATOM      6  C   UNL     1     131.997 135.618 142.099  1.00  0.00     0.134 A 
ATOM      7  C   UNL     1     131.361 135.053 140.987  1.00  0.00     0.093 A 
ATOM      8  C   UNL     1     132.098 134.587 139.895  1.00  0.00     0.123 A 
ATOM      9  C   UNL     1     133.487 134.688 139.904  1.00  0.00     0.094 A 
ATOM     10  C   UNL     1     134.148 135.279 140.983  1.00  0.00     0.146 A 
ATOM     11  O   UNL     1     135.472 135.365 140.946  1.00  0.00    -0.451 OA
ENDROOT
BRANCH   1  12
ATOM     12  C   UNL     1     137.664 135.946 141.764  1.00  0.00     0.063 A 
ATOM     13  C   UNL     1     139.828 135.048 142.415  1.00  0.00     0.047 A 
ATOM     14  C   UNL     1     138.435 135.053 142.525  1.00  0.00     0.020 A 
ATOM     15  C   UNL     1     140.469 135.945 141.557  1.00  0.00     0.119 A 
ATOM     16  C   UNL     1     139.711 136.856 140.811  1.00  0.00     0.093 A 
ATOM     17  C   UNL     1     138.312 136.871 140.919  1.00  0.00     0.130 A 
BRANCH  15  18
ATOM     18  O   UNL     1     141.858 135.927 141.456  1.00  0.00    -0.508 OA
ATOM     19  H   UNL     1     142.400 136.782 141.438  1.00  0.00     0.293 HD
ENDBRANCH  15  18
BRANCH  17  20
ATOM     20  O   UNL     1     137.571 137.816 140.208  1.00  0.00    -0.507 OA
ATOM     21  H   UNL     1     137.841 138.112 139.277  1.00  0.00     0.293 HD
ENDBRANCH  17  20
ENDBRANCH   1  12
BRANCH   2  22
ATOM     22  O   UNL     1     136.304 137.183 143.980  1.00  0.00    -0.502 OA
ATOM     23  H   UNL     1     137.317 137.207 143.963  1.00  0.00     0.293 HD
ENDBRANCH   2  22
BRANCH   6  24
ATOM     24  O   UNL     1     131.179 135.966 143.177  1.00  0.00    -0.507 OA
ATOM     25  H   UNL     1     131.414 136.649 143.881  1.00  0.00     0.293 HD
ENDBRANCH   6  24
BRANCH   8  26
ATOM     26  O   UNL     1     131.457 134.013 138.799  1.00  0.00    -0.508 OA
ATOM     27  H   UNL     1     131.563 134.391 137.864  1.00  0.00     0.293 HD
ENDBRANCH   8  26
TORSDOF 6
ENDMDL
MODEL 3
REMARK VINA RESULT:    -6.221      4.995      6.540
REMARK INTER + INTRA:          -7.901
REMARK INTER:                  -7.537
REMARK INTRA:                  -0.364
REMARK UNBOUND:                -0.407
REMARK SMILES O=c1c(O)c(-c2ccc(O)cc2O)oc2cc(O)cc(O)c12
REMARK SMILES IDX 5 1 3 2 2 3 1 4 22 5 20 6 19 7 17 8 16 9 15 10 14 11 6 12
REMARK SMILES IDX 8 13 7 14 9 15 11 16 12 17 10 18 13 20 4 22 21 24 18 26
REMARK H PARENT 10 19 13 21 4 23 21 25 18 27
REMARK Flexibility Score: inf
ROOT
ATOM      1  C   UNL     1     131.203 137.724 141.967  1.00  0.00     0.184 A 
ATOM      2  C   UNL     1     130.126 137.821 141.073  1.00  0.00     0.208 A 
ATOM      3  C   UNL     1     130.109 138.869 140.139  1.00  0.00     0.238 A 
ATOM      4  O   UNL     1     129.115 138.982 139.376  1.00  0.00    -0.285 OA
ATOM      5  C   UNL     1     131.180 139.795 140.102  1.00  0.00     0.111 A 
ATOM      6  C   UNL     1     131.286 140.872 139.171  1.00  0.00     0.134 A 
ATOM      7  C   UNL     1     132.323 141.804 139.309  1.00  0.00     0.093 A 
ATOM      8  C   UNL     1     133.292 141.660 140.305  1.00  0.00     0.123 A 
ATOM      9  C   UNL     1     133.229 140.580 141.181  1.00  0.00     0.094 A 
ATOM     10  C   UNL     1     132.188 139.653 141.091  1.00  0.00     0.146 A 
ATOM     11  O   UNL     1     132.160 138.644 141.953  1.00  0.00    -0.451 OA
ENDROOT
BRANCH   1  12
ATOM     12  C   UNL     1     131.290 136.636 142.963  1.00  0.00     0.063 A 
ATOM     13  C   UNL     1     131.455 134.255 143.431  1.00  0.00     0.047 A 
ATOM     14  C   UNL     1     131.376 135.308 142.515  1.00  0.00     0.020 A 
ATOM     15  C   UNL     1     131.433 134.513 144.803  1.00  0.00     0.119 A 
ATOM     16  C   UNL     1     131.324 135.833 145.261  1.00  0.00     0.093 A 
ATOM     17  C   UNL     1     131.240 136.895 144.349  1.00  0.00     0.130 A 
BRANCH  15  18
ATOM     18  O   UNL     1     131.517 133.455 145.704  1.00  0.00    -0.508 OA
ATOM     19  H   UNL     1     132.365 133.267 146.224  1.00  0.00     0.293 HD
ENDBRANCH  15  18
BRANCH  17  20
ATOM     20  O   UNL     1     131.081 138.201 144.816  1.00  0.00    -0.507 OA
ATOM     21  H   UNL     1     131.754 138.928 144.600  1.00  0.00     0.293 HD
ENDBRANCH  17  20
ENDBRANCH   1  12
BRANCH   2  22
ATOM     22  O   UNL     1     129.075 136.904 141.144  1.00  0.00    -0.502 OA
ATOM     23  H   UNL     1     128.103 137.183 141.072  1.00  0.00     0.293 HD
ENDBRANCH   2  22
BRANCH   6  24
ATOM     24  O   UNL     1     130.424 141.054 138.086  1.00  0.00    -0.507 OA
ATOM     25  H   UNL     1     129.455 141.324 138.161  1.00  0.00     0.293 HD
ENDBRANCH   6  24
BRANCH   8  26
ATOM     26  O   UNL     1     134.329 142.584 140.426  1.00  0.00    -0.508 OA
ATOM     27  H   UNL     1     135.283 142.291 140.601  1.00  0.00     0.293 HD
ENDBRANCH   8  26
TORSDOF 6
ENDMDL
MODEL 4
REMARK VINA RESULT:    -6.084      4.519      5.931
REMARK INTER + INTRA:          -7.736
REMARK INTER:                  -7.312
REMARK INTRA:                  -0.424
REMARK UNBOUND:                -0.407
REMARK SMILES O=c1c(O)c(-c2ccc(O)cc2O)oc2cc(O)cc(O)c12
REMARK SMILES IDX 5 1 3 2 2 3 1 4 22 5 20 6 19 7 17 8 16 9 15 10 14 11 6 12
REMARK SMILES IDX 8 13 7 14 9 15 11 16 12 17 10 18 13 20 4 22 21 24 18 26
REMARK H PARENT 10 19 13 21 4 23 21 25 18 27
REMARK Flexibility Score: inf
ROOT
ATOM      1  C   UNL     1     130.625 138.244 141.797  1.00  0.00     0.184 A 
ATOM      2  C   UNL     1     131.141 139.351 141.107  1.00  0.00     0.208 A 
ATOM      3  C   UNL     1     132.190 139.156 140.195  1.00  0.00     0.238 A 
ATOM      4  O   UNL     1     132.685 140.159 139.618  1.00  0.00    -0.285 OA
ATOM      5  C   UNL     1     132.695 137.851 139.973  1.00  0.00     0.111 A 
ATOM      6  C   UNL     1     133.729 137.531 139.042  1.00  0.00     0.134 A 
ATOM      7  C   UNL     1     134.240 136.228 138.999  1.00  0.00     0.093 A 
ATOM      8  C   UNL     1     133.710 135.220 139.809  1.00  0.00     0.123 A 
ATOM      9  C   UNL     1     132.662 135.510 140.678  1.00  0.00     0.094 A 
ATOM     10  C   UNL     1     132.155 136.808 140.769  1.00  0.00     0.146 A 
ATOM     11  O   UNL     1     131.162 137.044 141.619  1.00  0.00    -0.451 OA
ENDROOT
BRANCH   1  12
ATOM     12  C   UNL     1     129.511 138.379 142.758  1.00  0.00     0.063 A 
ATOM     13  C   UNL     1     127.126 138.652 143.150  1.00  0.00     0.047 A 
ATOM     14  C   UNL     1     128.202 138.519 142.268  1.00  0.00     0.020 A 
ATOM     15  C   UNL     1     127.345 138.665 144.530  1.00  0.00     0.119 A 
ATOM     16  C   UNL     1     128.649 138.550 145.028  1.00  0.00     0.093 A 
ATOM     17  C   UNL     1     129.735 138.420 144.150  1.00  0.00     0.130 A 
BRANCH  15  18
ATOM     18  O   UNL     1     126.263 138.795 145.397  1.00  0.00    -0.508 OA
ATOM     19  H   UNL     1     125.560 138.071 145.480  1.00  0.00     0.293 HD
ENDBRANCH  15  18
BRANCH  17  20
ATOM     20  O   UNL     1     131.034 138.356 144.657  1.00  0.00    -0.507 OA
ATOM     21  H   UNL     1     131.241 137.888 145.532  1.00  0.00     0.293 HD
ENDBRANCH  17  20
ENDBRANCH   1  12
BRANCH   2  22
ATOM     22  O   UNL     1     130.635 140.629 141.358  1.00  0.00    -0.502 OA
ATOM     23  H   UNL     1     129.927 141.058 140.774  1.00  0.00     0.293 HD
ENDBRANCH   2  22
BRANCH   6  24
ATOM     24  O   UNL     1     134.264 138.441 138.126  1.00  0.00    -0.507 OA
ATOM     25  H   UNL     1     134.798 139.260 138.375  1.00  0.00     0.293 HD
ENDBRANCH   6  24
BRANCH   8  26
ATOM     26  O   UNL     1     134.215 133.922 139.749  1.00  0.00    -0.508 OA
ATOM     27  H   UNL     1     133.827 133.230 139.117  1.00  0.00     0.293 HD
ENDBRANCH   8  26
TORSDOF 6
ENDMDL
MODEL 5
REMARK VINA RESULT:    -6.025      5.475      8.977
REMARK INTER + INTRA:          -7.665
REMARK INTER:                  -7.404
REMARK INTRA:                  -0.261
REMARK UNBOUND:                -0.407
REMARK SMILES O=c1c(O)c(-c2ccc(O)cc2O)oc2cc(O)cc(O)c12
REMARK SMILES IDX 5 1 3 2 2 3 1 4 22 5 20 6 19 7 17 8 16 9 15 10 14 11 6 12
REMARK SMILES IDX 8 13 7 14 9 15 11 16 12 17 10 18 13 20 4 22 21 24 18 26
REMARK H PARENT 10 19 13 21 4 23 21 25 18 27
REMARK Flexibility Score: inf
ROOT
ATOM      1  C   UNL     1     133.466 141.757 140.705  1.00  0.00     0.184 A 
ATOM      2  C   UNL     1     132.936 142.115 139.456  1.00  0.00     0.208 A 
ATOM      3  C   UNL     1     131.752 141.502 139.018  1.00  0.00     0.238 A 
ATOM      4  O   UNL     1     131.310 141.788 137.875  1.00  0.00    -0.285 OA
ATOM      5  C   UNL     1     131.105 140.550 139.844  1.00  0.00     0.111 A 
ATOM      6  C   UNL     1     129.879 139.896 139.519  1.00  0.00     0.134 A 
ATOM      7  C   UNL     1     129.398 138.877 140.351  1.00  0.00     0.093 A 
ATOM      8  C   UNL     1     130.066 138.535 141.530  1.00  0.00     0.123 A 
ATOM      9  C   UNL     1     131.232 139.208 141.885  1.00  0.00     0.094 A 
ATOM     10  C   UNL     1     131.756 140.204 141.058  1.00  0.00     0.146 A 
ATOM     11  O   UNL     1     132.875 140.814 141.428  1.00  0.00    -0.451 OA
ENDROOT
BRANCH   1  12
ATOM     12  C   UNL     1     134.700 142.376 141.231  1.00  0.00     0.063 A 
ATOM     13  C   UNL     1     136.993 142.113 141.997  1.00  0.00     0.047 A 
ATOM     14  C   UNL     1     135.813 141.560 141.494  1.00  0.00     0.020 A 
ATOM     15  C   UNL     1     137.073 143.483 142.259  1.00  0.00     0.119 A 
ATOM     16  C   UNL     1     135.961 144.302 142.023  1.00  0.00     0.093 A 
ATOM     17  C   UNL     1     134.771 143.754 141.522  1.00  0.00     0.130 A 
BRANCH  15  18
ATOM     18  O   UNL     1     138.257 144.021 142.757  1.00  0.00    -0.508 OA
ATOM     19  H   UNL     1     138.899 143.467 143.310  1.00  0.00     0.293 HD
ENDBRANCH  15  18
BRANCH  17  20
ATOM     20  O   UNL     1     133.654 144.571 141.338  1.00  0.00    -0.507 OA
ATOM     21  H   UNL     1     132.937 144.661 142.049  1.00  0.00     0.293 HD
ENDBRANCH  17  20
ENDBRANCH   1  12
BRANCH   2  22
ATOM     22  O   UNL     1     133.604 143.044 138.654  1.00  0.00    -0.502 OA
ATOM     23  H   UNL     1     133.117 143.770 138.142  1.00  0.00     0.293 HD
ENDBRANCH   2  22
BRANCH   6  24
ATOM     24  O   UNL     1     129.087 140.226 138.415  1.00  0.00    -0.507 OA
ATOM     25  H   UNL     1     129.105 141.116 137.940  1.00  0.00     0.293 HD
ENDBRANCH   6  24
BRANCH   8  26
ATOM     26  O   UNL     1     129.573 137.530 142.360  1.00  0.00    -0.508 OA
ATOM     27  H   UNL     1     130.192 136.934 142.897  1.00  0.00     0.293 HD
ENDBRANCH   8  26
TORSDOF 6
ENDMDL
MODEL 6
REMARK VINA RESULT:    -6.009      2.312      3.882
REMARK INTER + INTRA:          -7.646
REMARK INTER:                  -7.235
REMARK INTRA:                  -0.410
REMARK UNBOUND:                -0.407
REMARK SMILES O=c1c(O)c(-c2ccc(O)cc2O)oc2cc(O)cc(O)c12
REMARK SMILES IDX 5 1 3 2 2 3 1 4 22 5 20 6 19 7 17 8 16 9 15 10 14 11 6 12
REMARK SMILES IDX 8 13 7 14 9 15 11 16 12 17 10 18 13 20 4 22 21 24 18 26
REMARK H PARENT 10 19 13 21 4 23 21 25 18 27
REMARK Flexibility Score: inf
ROOT
ATOM      1  C   UNL     1     133.355 135.787 142.330  1.00  0.00     0.184 A 
ATOM      2  C   UNL     1     132.723 136.289 141.182  1.00  0.00     0.208 A 
ATOM      3  C   UNL     1     133.512 136.762 140.122  1.00  0.00     0.238 A 
ATOM      4  O   UNL     1     132.940 137.261 139.118  1.00  0.00    -0.285 OA
ATOM      5  C   UNL     1     134.924 136.709 140.218  1.00  0.00     0.111 A 
ATOM      6  C   UNL     1     135.822 137.124 139.188  1.00  0.00     0.134 A 
ATOM      7  C   UNL     1     137.199 137.149 139.442  1.00  0.00     0.093 A 
ATOM      8  C   UNL     1     137.714 136.713 140.666  1.00  0.00     0.123 A 
ATOM      9  C   UNL     1     136.849 136.252 141.655  1.00  0.00     0.094 A 
ATOM     10  C   UNL     1     135.469 136.248 141.446  1.00  0.00     0.146 A 
ATOM     11  O   UNL     1     134.679 135.811 142.419  1.00  0.00    -0.451 OA
ENDROOT
BRANCH   1  12
ATOM     12  C   UNL     1     132.584 135.259 143.474  1.00  0.00     0.063 A 
ATOM     13  C   UNL     1     131.496 133.370 144.552  1.00  0.00     0.047 A 
ATOM     14  C   UNL     1     132.229 133.900 143.487  1.00  0.00     0.020 A 
ATOM     15  C   UNL     1     131.093 134.191 145.607  1.00  0.00     0.119 A 
ATOM     16  C   UNL     1     131.421 135.553 145.592  1.00  0.00     0.093 A 
ATOM     17  C   UNL     1     132.153 136.095 144.525  1.00  0.00     0.130 A 
BRANCH  15  18
ATOM     18  O   UNL     1     130.366 133.648 146.663  1.00  0.00    -0.508 OA
ATOM     19  H   UNL     1     130.700 133.697 147.618  1.00  0.00     0.293 HD
ENDBRANCH  15  18
BRANCH  17  20
ATOM     20  O   UNL     1     132.431 137.462 144.497  1.00  0.00    -0.507 OA
ATOM     21  H   UNL     1     132.334 138.041 145.324  1.00  0.00     0.293 HD
ENDBRANCH  17  20
ENDBRANCH   1  12
BRANCH   2  22
ATOM     22  O   UNL     1     131.328 136.346 141.121  1.00  0.00    -0.502 OA
ATOM     23  H   UNL     1     130.807 136.060 140.300  1.00  0.00     0.293 HD
ENDBRANCH   2  22
BRANCH   6  24
ATOM     24  O   UNL     1     135.418 137.490 137.902  1.00  0.00    -0.507 OA
ATOM     25  H   UNL     1     135.688 137.012 137.056  1.00  0.00     0.293 HD
ENDBRANCH   6  24
BRANCH   8  26
ATOM     26  O   UNL     1     139.087 136.727 140.905  1.00  0.00    -0.508 OA
ATOM     27  H   UNL     1     139.598 137.596 141.008  1.00  0.00     0.293 HD
ENDBRANCH   8  26
TORSDOF 6
ENDMDL
MODEL 7
REMARK VINA RESULT:    -5.973      3.635      5.777
REMARK INTER + INTRA:          -7.602
REMARK INTER:                  -7.182
REMARK INTRA:                  -0.419
REMARK UNBOUND:                -0.407
REMARK SMILES O=c1c(O)c(-c2ccc(O)cc2O)oc2cc(O)cc(O)c12
REMARK SMILES IDX 5 1 3 2 2 3 1 4 22 5 20 6 19 7 17 8 16 9 15 10 14 11 6 12
REMARK SMILES IDX 8 13 7 14 9 15 11 16 12 17 10 18 13 20 4 22 21 24 18 26
REMARK H PARENT 10 19 13 21 4 23 21 25 18 27
REMARK Flexibility Score: inf
ROOT
ATOM      1  C   UNL     1     132.331 137.393 142.637  1.00  0.00     0.184 A 
ATOM      2  C   UNL     1     133.594 138.003 142.680  1.00  0.00     0.208 A 
ATOM      3  C   UNL     1     133.854 139.091 141.832  1.00  0.00     0.238 A 
ATOM      4  O   UNL     1     135.004 139.600 141.836  1.00  0.00    -0.285 OA
ATOM      5  C   UNL     1     132.839 139.564 140.964  1.00  0.00     0.111 A 
ATOM      6  C   UNL     1     132.978 140.685 140.091  1.00  0.00     0.134 A 
ATOM      7  C   UNL     1     131.954 140.984 139.183  1.00  0.00     0.093 A 
ATOM      8  C   UNL     1     130.770 140.242 139.163  1.00  0.00     0.123 A 
ATOM      9  C   UNL     1     130.602 139.184 140.052  1.00  0.00     0.094 A 
ATOM     10  C   UNL     1     131.619 138.838 140.945  1.00  0.00     0.146 A 
ATOM     11  O   UNL     1     131.421 137.815 141.767  1.00  0.00    -0.451 OA
ENDROOT
BRANCH   1  12
ATOM     12  C   UNL     1     131.988 136.255 143.514  1.00  0.00     0.063 A 
ATOM     13  C   UNL     1     131.449 135.436 145.740  1.00  0.00     0.047 A 
ATOM     14  C   UNL     1     131.771 136.490 144.882  1.00  0.00     0.020 A 
ATOM     15  C   UNL     1     131.356 134.131 145.248  1.00  0.00     0.119 A 
ATOM     16  C   UNL     1     131.593 133.882 143.890  1.00  0.00     0.093 A 
ATOM     17  C   UNL     1     131.922 134.934 143.023  1.00  0.00     0.130 A 
BRANCH  15  18
ATOM     18  O   UNL     1     131.031 133.091 146.114  1.00  0.00    -0.508 OA
ATOM     19  H   UNL     1     130.188 133.112 146.676  1.00  0.00     0.293 HD
ENDBRANCH  15  18
BRANCH  17  20
ATOM     20  O   UNL     1     132.205 134.667 141.683  1.00  0.00    -0.507 OA
ATOM     21  H   UNL     1     132.534 133.757 141.380  1.00  0.00     0.293 HD
ENDBRANCH  17  20
ENDBRANCH   1  12
BRANCH   2  22
ATOM     22  O   UNL     1     134.582 137.504 143.532  1.00  0.00    -0.502 OA
ATOM     23  H   UNL     1     134.947 138.037 144.313  1.00  0.00     0.293 HD
ENDBRANCH   2  22
BRANCH   6  24
ATOM     24  O   UNL     1     134.080 141.545 140.094  1.00  0.00    -0.507 OA
ATOM     25  H   UNL     1     134.781 141.578 140.819  1.00  0.00     0.293 HD
ENDBRANCH   6  24
BRANCH   8  26
ATOM     26  O   UNL     1     129.750 140.557 138.267  1.00  0.00    -0.508 OA
ATOM     27  H   UNL     1     129.579 139.996 137.440  1.00  0.00     0.293 HD
ENDBRANCH   8  26
TORSDOF 6
ENDMDL
MODEL 8
REMARK VINA RESULT:    -5.948      3.689      7.268
REMARK INTER + INTRA:          -7.572
REMARK INTER:                  -7.152
REMARK INTRA:                  -0.420
REMARK UNBOUND:                -0.407
REMARK SMILES O=c1c(O)c(-c2ccc(O)cc2O)oc2cc(O)cc(O)c12
REMARK SMILES IDX 5 1 3 2 2 3 1 4 22 5 20 6 19 7 17 8 16 9 15 10 14 11 6 12
REMARK SMILES IDX 8 13 7 14 9 15 11 16 12 17 10 18 13 20 4 22 21 24 18 26
REMARK H PARENT 10 19 13 21 4 23 21 25 18 27
REMARK Flexibility Score: inf
ROOT
ATOM      1  C   UNL     1     132.328 137.345 142.255  1.00  0.00     0.184 A 
ATOM      2  C   UNL     1     131.501 137.383 143.387  1.00  0.00     0.208 A 
ATOM      3  C   UNL     1     130.232 137.976 143.284  1.00  0.00     0.238 A 
ATOM      4  O   UNL     1     129.516 138.056 144.316  1.00  0.00    -0.285 OA
ATOM      5  C   UNL     1     129.802 138.505 142.043  1.00  0.00     0.111 A 
ATOM      6  C   UNL     1     128.521 139.092 141.813  1.00  0.00     0.134 A 
ATOM      7  C   UNL     1     128.252 139.701 140.580  1.00  0.00     0.093 A 
ATOM      8  C   UNL     1     129.195 139.687 139.549  1.00  0.00     0.123 A 
ATOM      9  C   UNL     1     130.425 139.065 139.745  1.00  0.00     0.094 A 
ATOM     10  C   UNL     1     130.737 138.480 140.974  1.00  0.00     0.146 A 
ATOM     11  O   UNL     1     131.926 137.908 141.122  1.00  0.00    -0.451 OA
ENDROOT
BRANCH   1  12
ATOM     12  C   UNL     1     133.667 136.721 142.292  1.00  0.00     0.063 A 
ATOM     13  C   UNL     1     136.007 136.863 142.938  1.00  0.00     0.047 A 
ATOM     14  C   UNL     1     134.728 137.422 142.890  1.00  0.00     0.020 A 
ATOM     15  C   UNL     1     136.249 135.607 142.376  1.00  0.00     0.119 A 
ATOM     16  C   UNL     1     135.203 134.911 141.757  1.00  0.00     0.093 A 
ATOM     17  C   UNL     1     133.916 135.466 141.700  1.00  0.00     0.130 A 
BRANCH  15  18
ATOM     18  O   UNL     1     137.528 135.062 142.434  1.00  0.00    -0.508 OA
ATOM     19  H   UNL     1     137.842 134.532 143.238  1.00  0.00     0.293 HD
ENDBRANCH  15  18
BRANCH  17  20
ATOM     20  O   UNL     1     132.895 134.785 141.037  1.00  0.00    -0.507 OA
ATOM     21  H   UNL     1     132.472 133.949 141.426  1.00  0.00     0.293 HD
ENDBRANCH  17  20
ENDBRANCH   1  12
BRANCH   2  22
ATOM     22  O   UNL     1     131.957 136.869 144.604  1.00  0.00    -0.502 OA
ATOM     23  H   UNL     1     132.701 136.184 144.660  1.00  0.00     0.293 HD
ENDBRANCH   2  22
BRANCH   6  24
ATOM     24  O   UNL     1     127.479 139.079 142.743  1.00  0.00    -0.507 OA
ATOM     25  H   UNL     1     127.281 138.318 143.375  1.00  0.00     0.293 HD
ENDBRANCH   6  24
BRANCH   8  26
ATOM     26  O   UNL     1     128.913 140.282 138.321  1.00  0.00    -0.508 OA
ATOM     27  H   UNL     1     127.995 140.658 138.112  1.00  0.00     0.293 HD
ENDBRANCH   8  26
TORSDOF 6
ENDMDL
MODEL 9
REMARK VINA RESULT:    -5.940      2.168      6.911
REMARK INTER + INTRA:          -7.562
REMARK INTER:                  -7.149
REMARK INTRA:                  -0.413
REMARK UNBOUND:                -0.407
REMARK SMILES O=c1c(O)c(-c2ccc(O)cc2O)oc2cc(O)cc(O)c12
REMARK SMILES IDX 5 1 3 2 2 3 1 4 22 5 20 6 19 7 17 8 16 9 15 10 14 11 6 12
REMARK SMILES IDX 8 13 7 14 9 15 11 16 12 17 10 18 13 20 4 22 21 24 18 26
REMARK H PARENT 10 19 13 21 4 23 21 25 18 27
REMARK Flexibility Score: inf
ROOT
ATOM      1  C   UNL     1     134.700 136.080 141.449  1.00  0.00     0.184 A 
ATOM      2  C   UNL     1     133.940 135.140 140.738  1.00  0.00     0.208 A 
ATOM      3  C   UNL     1     132.540 135.223 140.782  1.00  0.00     0.238 A 
ATOM      4  O   UNL     1     131.862 134.346 140.186  1.00  0.00    -0.285 OA
ATOM      5  C   UNL     1     131.919 136.259 141.523  1.00  0.00     0.111 A 
ATOM      6  C   UNL     1     130.509 136.464 141.604  1.00  0.00     0.134 A 
ATOM      7  C   UNL     1     130.002 137.440 142.471  1.00  0.00     0.093 A 
ATOM      8  C   UNL     1     130.858 138.261 143.211  1.00  0.00     0.123 A 
ATOM      9  C   UNL     1     132.237 138.107 143.093  1.00  0.00     0.094 A 
ATOM     10  C   UNL     1     132.772 137.119 142.264  1.00  0.00     0.146 A 
ATOM     11  O   UNL     1     134.092 136.999 142.189  1.00  0.00    -0.451 OA
ENDROOT
BRANCH   1  12
ATOM     12  C   UNL     1     136.178 136.058 141.432  1.00  0.00     0.063 A 
ATOM     13  C   UNL     1     138.256 135.299 142.441  1.00  0.00     0.047 A 
ATOM     14  C   UNL     1     136.859 135.337 142.426  1.00  0.00     0.020 A 
ATOM     15  C   UNL     1     138.989 135.993 141.476  1.00  0.00     0.119 A 
ATOM     16  C   UNL     1     138.320 136.735 140.495  1.00  0.00     0.093 A 
ATOM     17  C   UNL     1     136.918 136.782 140.474  1.00  0.00     0.130 A 
BRANCH  15  18
ATOM     18  O   UNL     1     140.381 135.943 141.501  1.00  0.00    -0.508 OA
ATOM     19  H   UNL     1     140.895 135.230 141.000  1.00  0.00     0.293 HD
ENDBRANCH  15  18
BRANCH  17  20
ATOM     20  O   UNL     1     136.263 137.564 139.522  1.00  0.00    -0.507 OA
ATOM     21  H   UNL     1     135.984 137.186 138.624  1.00  0.00     0.293 HD
ENDBRANCH  17  20
ENDBRANCH   1  12
BRANCH   2  22
ATOM     22  O   UNL     1     134.578 134.118 140.029  1.00  0.00    -0.502 OA
ATOM     23  H   UNL     1     134.752 133.205 140.431  1.00  0.00     0.293 HD
ENDBRANCH   2  22
BRANCH   6  24
ATOM     24  O   UNL     1     129.573 135.760 140.841  1.00  0.00    -0.507 OA
ATOM     25  H   UNL     1     129.757 134.891 140.363  1.00  0.00     0.293 HD
ENDBRANCH   6  24
BRANCH   8  26
ATOM     26  O   UNL     1     130.345 139.240 144.060  1.00  0.00    -0.508 OA
ATOM     27  H   UNL     1     130.914 139.669 144.779  1.00  0.00     0.293 HD
ENDBRANCH   8  26
TORSDOF 6
ENDMDL
