MODEL 1
REMARK VINA RESULT:    -6.611      0.000      0.000
REMARK INTER + INTRA:          -6.502
REMARK INTER:                  -7.191
REMARK INTRA:                   0.689
REMARK UNBOUND:                 0.689
REMARK SMILES CC1(C)CC[C@]2(C(=O)[O-])CC[C@@]3(C)C(=CC[C@H]4[C@@]5(C)CC[C@@H](O)C(C)(C)[C@H]5CC[C@]43C)[C@H]2C1
REMARK SMILES IDX 6 1 5 2 10 3 32 4 4 5 11 6 14 7 33 8 2 9 12 10 15 11 1 12
REMARK SMILES IDX 3 13 13 14 30 15 16 16 17 17 29 18 31 19 18 20 28 21 27 22
REMARK SMILES IDX 20 23 19 24 24 25 21 26 22 27 25 28 26 29 7 30 8 31 9 32
REMARK SMILES IDX 23 33
REMARK H PARENT 23 34
REMARK Flexibility Score: inf
ROOT
ATOM      1  C   UNL     1      45.804 110.091  54.512  1.00  0.00     0.017 C 
ATOM      2  C   UNL     1      44.501 110.975  54.425  1.00  0.00     0.014 C 
ATOM      3  C   UNL     1      45.848 109.308  55.883  1.00  0.00     0.014 C 
ATOM      4  C   UNL     1      47.082 110.998  54.372  1.00  0.00     0.028 C 
ATOM      5  C   UNL     1      44.740 112.447  54.024  1.00  0.00     0.007 C 
ATOM      6  C   UNL     1      47.133 109.521  56.714  1.00  0.00     0.013 C 
ATOM      7  C   UNL     1      48.346 110.170  54.606  1.00  0.00    -0.064 C 
ATOM      8  C   UNL     1      47.076 111.887  53.098  1.00  0.00     0.015 C 
ATOM      9  C   UNL     1      45.718 112.614  52.828  1.00  0.00    -0.035 C 
ATOM     10  C   UNL     1      48.444 109.318  55.867  1.00  0.00    -0.006 C 
ATOM     11  C   UNL     1      49.418 110.233  53.800  1.00  0.00    -0.027 C 
ATOM     12  C   UNL     1      45.079 112.070  51.530  1.00  0.00     0.011 C 
ATOM     13  C   UNL     1      45.972 114.125  52.626  1.00  0.00     0.011 C 
ATOM     14  C   UNL     1      48.447 107.804  55.441  1.00  0.00     0.017 C 
ATOM     15  C   UNL     1      49.801 109.722  56.633  1.00  0.00    -0.020 C 
ATOM     16  C   UNL     1      50.696 109.538  54.133  1.00  0.00     0.032 C 
ATOM     17  C   UNL     1      51.069 109.487  55.672  1.00  0.00     0.006 C 
ATOM     18  C   UNL     1      49.798 111.224  57.137  1.00  0.00     0.008 C 
ATOM     19  C   UNL     1      49.889 108.818  57.909  1.00  0.00     0.012 C 
ATOM     20  C   UNL     1      52.338 110.382  55.990  1.00  0.00    -0.025 C 
ATOM     21  C   UNL     1      50.458 112.228  56.186  1.00  0.00     0.005 C 
ATOM     22  C   UNL     1      51.962 111.938  55.886  1.00  0.00     0.003 C 
ATOM     23  C   UNL     1      53.569 109.953  55.103  1.00  0.00     0.010 C 
ATOM     24  C   UNL     1      52.858 110.089  57.442  1.00  0.00     0.012 C 
ATOM     25  C   UNL     1      52.552 112.826  54.680  1.00  0.00    -0.006 C 
ATOM     26  C   UNL     1      54.488 111.116  54.739  1.00  0.00     0.033 C 
ATOM     27  C   UNL     1      53.704 112.102  53.875  1.00  0.00     0.120 C 
ATOM     28  C   UNL     1      53.181 114.109  55.297  1.00  0.00     0.014 C 
ATOM     29  C   UNL     1      51.476 113.360  53.679  1.00  0.00     0.014 C 
ENDROOT
BRANCH   1  30
ATOM     30  C   UNL     1      45.737 109.042  53.393  1.00  0.00     0.048 C 
ATOM     31  O   UNL     1      45.011 109.212  52.375  1.00  0.00    -0.550 OA
ATOM     32  O   UNL     1      46.416 107.834  53.536  1.00  0.00    -0.550 OA
ENDBRANCH   1  30
BRANCH  27  33
ATOM     33  O   UNL     1      53.272 111.460  52.688  1.00  0.00    -0.393 OA
ATOM     34  H   UNL     1      52.925 110.557  52.950  1.00  0.00     0.210 HD
ENDBRANCH  27  33
TORSDOF 2
ENDMDL
MODEL 2
REMARK VINA RESULT:    -6.287      1.939      7.508
REMARK INTER + INTRA:          -6.150
REMARK INTER:                  -6.507
REMARK INTRA:                   0.357
REMARK UNBOUND:                 0.689
REMARK SMILES CC1(C)CC[C@]2(C(=O)[O-])CC[C@@]3(C)C(=CC[C@H]4[C@@]5(C)CC[C@@H](O)C(C)(C)[C@H]5CC[C@]43C)[C@H]2C1
REMARK SMILES IDX 6 1 5 2 10 3 32 4 4 5 11 6 14 7 33 8 2 9 12 10 15 11 1 12
REMARK SMILES IDX 3 13 13 14 30 15 16 16 17 17 29 18 31 19 18 20 28 21 27 22
REMARK SMILES IDX 20 23 19 24 24 25 21 26 22 27 25 28 26 29 7 30 8 31 9 32
REMARK SMILES IDX 23 33
REMARK H PARENT 23 34
REMARK Flexibility Score: inf
ROOT
ATOM      1  C   UNL     1      53.099 110.581  56.065  1.00  0.00     0.017 C 
ATOM      2  C   UNL     1      54.065 110.962  57.254  1.00  0.00     0.014 C 
ATOM      3  C   UNL     1      52.701 111.871  55.244  1.00  0.00     0.014 C 
ATOM      4  C   UNL     1      51.806 109.882  56.624  1.00  0.00     0.028 C 
ATOM      5  C   UNL     1      53.652 110.400  58.632  1.00  0.00     0.007 C 
ATOM      6  C   UNL     1      51.182 112.103  55.093  1.00  0.00     0.013 C 
ATOM      7  C   UNL     1      50.803 109.647  55.495  1.00  0.00    -0.064 C 
ATOM      8  C   UNL     1      52.106 108.659  57.534  1.00  0.00     0.015 C 
ATOM      9  C   UNL     1      53.232 108.905  58.591  1.00  0.00    -0.035 C 
ATOM     10  C   UNL     1      50.418 110.818  54.598  1.00  0.00    -0.006 C 
ATOM     11  C   UNL     1      50.168 108.477  55.315  1.00  0.00    -0.027 C 
ATOM     12  C   UNL     1      54.453 108.011  58.277  1.00  0.00     0.011 C 
ATOM     13  C   UNL     1      52.716 108.516  59.996  1.00  0.00     0.011 C 
ATOM     14  C   UNL     1      50.961 110.531  53.150  1.00  0.00     0.017 C 
ATOM     15  C   UNL     1      48.814 110.949  54.615  1.00  0.00    -0.020 C 
ATOM     16  C   UNL     1      49.079 108.319  54.307  1.00  0.00     0.032 C 
ATOM     17  C   UNL     1      48.142 109.580  54.103  1.00  0.00     0.006 C 
ATOM     18  C   UNL     1      48.242 111.309  56.048  1.00  0.00     0.008 C 
ATOM     19  C   UNL     1      48.445 112.142  53.669  1.00  0.00     0.012 C 
ATOM     20  C   UNL     1      46.674 109.303  54.635  1.00  0.00    -0.025 C 
ATOM     21  C   UNL     1      47.796 110.107  56.888  1.00  0.00     0.005 C 
ATOM     22  C   UNL     1      46.664 109.252  56.239  1.00  0.00     0.003 C 
ATOM     23  C   UNL     1      46.054 108.030  53.943  1.00  0.00     0.010 C 
ATOM     24  C   UNL     1      45.703 110.442  54.164  1.00  0.00     0.012 C 
ATOM     25  C   UNL     1      46.411 107.853  56.994  1.00  0.00    -0.006 C 
ATOM     26  C   UNL     1      45.104 107.250  54.849  1.00  0.00     0.033 C 
ATOM     27  C   UNL     1      45.900 106.706  56.034  1.00  0.00     0.120 C 
ATOM     28  C   UNL     1      45.291 108.079  58.051  1.00  0.00     0.014 C 
ATOM     29  C   UNL     1      47.631 107.332  57.821  1.00  0.00     0.014 C 
ENDROOT
BRANCH   1  30
ATOM     30  C   UNL     1      53.869 109.657  55.112  1.00  0.00     0.048 C 
ATOM     31  O   UNL     1      53.503 108.466  54.914  1.00  0.00    -0.550 OA
ATOM     32  O   UNL     1      55.049 110.102  54.519  1.00  0.00    -0.550 OA
ENDBRANCH   1  30
BRANCH  27  33
ATOM     33  O   UNL     1      46.918 105.838  55.569  1.00  0.00    -0.393 OA
ATOM     34  H   UNL     1      47.146 105.220  56.324  1.00  0.00     0.210 HD
ENDBRANCH  27  33
TORSDOF 2
ENDMDL
MODEL 3
REMARK VINA RESULT:    -5.959      2.538      5.224
REMARK INTER + INTRA:          -5.792
REMARK INTER:                  -6.137
REMARK INTRA:                   0.344
REMARK UNBOUND:                 0.689
REMARK SMILES CC1(C)CC[C@]2(C(=O)[O-])CC[C@@]3(C)C(=CC[C@H]4[C@@]5(C)CC[C@@H](O)C(C)(C)[C@H]5CC[C@]43C)[C@H]2C1
REMARK SMILES IDX 6 1 5 2 10 3 32 4 4 5 11 6 14 7 33 8 2 9 12 10 15 11 1 12
REMARK SMILES IDX 3 13 13 14 30 15 16 16 17 17 29 18 31 19 18 20 28 21 27 22
REMARK SMILES IDX 20 23 19 24 24 25 21 26 22 27 25 28 26 29 7 30 8 31 9 32
REMARK SMILES IDX 23 33
REMARK H PARENT 23 34
REMARK Flexibility Score: inf
ROOT
ATOM      1  C   UNL     1      46.301 107.467  56.968  1.00  0.00     0.017 C 
ATOM      2  C   UNL     1      46.031 105.931  57.211  1.00  0.00     0.014 C 
ATOM      3  C   UNL     1      45.767 107.902  55.546  1.00  0.00     0.014 C 
ATOM      4  C   UNL     1      47.842 107.768  57.075  1.00  0.00     0.028 C 
ATOM      5  C   UNL     1      47.257 105.125  57.694  1.00  0.00     0.007 C 
ATOM      6  C   UNL     1      46.812 108.589  54.640  1.00  0.00     0.013 C 
ATOM      7  C   UNL     1      48.123 109.221  56.693  1.00  0.00    -0.064 C 
ATOM      8  C   UNL     1      48.478 107.278  58.405  1.00  0.00     0.015 C 
ATOM      9  C   UNL     1      48.057 105.830  58.824  1.00  0.00    -0.035 C 
ATOM     10  C   UNL     1      47.578 109.753  55.373  1.00  0.00    -0.006 C 
ATOM     11  C   UNL     1      48.914 110.026  57.421  1.00  0.00    -0.027 C 
ATOM     12  C   UNL     1      47.223 105.880  60.124  1.00  0.00     0.011 C 
ATOM     13  C   UNL     1      49.321 104.988  59.111  1.00  0.00     0.011 C 
ATOM     14  C   UNL     1      46.491 110.845  55.691  1.00  0.00     0.017 C 
ATOM     15  C   UNL     1      48.810 110.368  54.540  1.00  0.00    -0.020 C 
ATOM     16  C   UNL     1      49.303 111.387  56.948  1.00  0.00     0.032 C 
ATOM     17  C   UNL     1      49.523 111.534  55.386  1.00  0.00     0.006 C 
ATOM     18  C   UNL     1      49.888 109.276  54.142  1.00  0.00     0.008 C 
ATOM     19  C   UNL     1      48.219 110.927  53.200  1.00  0.00     0.012 C 
ATOM     20  C   UNL     1      51.048 111.792  55.039  1.00  0.00    -0.025 C 
ATOM     21  C   UNL     1      51.070 109.151  55.109  1.00  0.00     0.005 C 
ATOM     22  C   UNL     1      51.907 110.457  55.278  1.00  0.00     0.003 C 
ATOM     23  C   UNL     1      51.596 113.058  55.801  1.00  0.00     0.010 C 
ATOM     24  C   UNL     1      51.198 112.219  53.536  1.00  0.00     0.012 C 
ATOM     25  C   UNL     1      52.956 110.387  56.496  1.00  0.00    -0.006 C 
ATOM     26  C   UNL     1      53.071 112.948  56.177  1.00  0.00     0.033 C 
ATOM     27  C   UNL     1      53.237 111.793  57.163  1.00  0.00     0.120 C 
ATOM     28  C   UNL     1      54.316 109.888  55.925  1.00  0.00     0.014 C 
ATOM     29  C   UNL     1      52.593 109.348  57.608  1.00  0.00     0.014 C 
ENDROOT
BRANCH   1  30
ATOM     30  C   UNL     1      45.501 108.256  58.013  1.00  0.00     0.048 C 
ATOM     31  O   UNL     1      46.075 108.864  58.958  1.00  0.00    -0.550 OA
ATOM     32  O   UNL     1      44.108 108.232  57.981  1.00  0.00    -0.550 OA
ENDBRANCH   1  30
BRANCH  27  33
ATOM     33  O   UNL     1      52.476 112.046  58.330  1.00  0.00    -0.393 OA
ATOM     34  H   UNL     1      51.588 111.598  58.208  1.00  0.00     0.210 HD
ENDBRANCH  27  33
TORSDOF 2
ENDMDL
MODEL 4
REMARK VINA RESULT:    -5.765      2.588      5.033
REMARK INTER + INTRA:          -5.581
REMARK INTER:                  -5.928
REMARK INTRA:                   0.347
REMARK UNBOUND:                 0.689
REMARK SMILES CC1(C)CC[C@]2(C(=O)[O-])CC[C@@]3(C)C(=CC[C@H]4[C@@]5(C)CC[C@@H](O)C(C)(C)[C@H]5CC[C@]43C)[C@H]2C1
REMARK SMILES IDX 6 1 5 2 10 3 32 4 4 5 11 6 14 7 33 8 2 9 12 10 15 11 1 12
REMARK SMILES IDX 3 13 13 14 30 15 16 16 17 17 29 18 31 19 18 20 28 21 27 22
REMARK SMILES IDX 20 23 19 24 24 25 21 26 22 27 25 28 26 29 7 30 8 31 9 32
REMARK SMILES IDX 23 33
REMARK H PARENT 23 34
REMARK Flexibility Score: inf
ROOT
ATOM      1  C   UNL     1      47.817 109.673  55.237  1.00  0.00     0.017 C 
ATOM      2  C   UNL     1      46.720 108.543  55.137  1.00  0.00     0.014 C 
ATOM      3  C   UNL     1      48.312 110.089  53.795  1.00  0.00     0.014 C 
ATOM      4  C   UNL     1      49.035 109.168  56.096  1.00  0.00     0.028 C 
ATOM      5  C   UNL     1      46.967 107.316  56.042  1.00  0.00     0.007 C 
ATOM      6  C   UNL     1      49.840 110.003  53.581  1.00  0.00     0.013 C 
ATOM      7  C   UNL     1      50.163 110.199  56.070  1.00  0.00    -0.064 C 
ATOM      8  C   UNL     1      48.627 108.639  57.499  1.00  0.00     0.015 C 
ATOM      9  C   UNL     1      47.385 107.688  57.491  1.00  0.00    -0.035 C 
ATOM     10  C   UNL     1      50.652 110.720  54.724  1.00  0.00    -0.006 C 
ATOM     11  C   UNL     1      50.811 110.597  57.177  1.00  0.00    -0.027 C 
ATOM     12  C   UNL     1      46.207 108.355  58.237  1.00  0.00     0.011 C 
ATOM     13  C   UNL     1      47.731 106.380  58.238  1.00  0.00     0.011 C 
ATOM     14  C   UNL     1      50.283 112.244  54.619  1.00  0.00     0.017 C 
ATOM     15  C   UNL     1      52.244 110.489  54.654  1.00  0.00    -0.020 C 
ATOM     16  C   UNL     1      52.011 111.483  57.111  1.00  0.00     0.032 C 
ATOM     17  C   UNL     1      52.967 111.253  55.870  1.00  0.00     0.006 C 
ATOM     18  C   UNL     1      52.645 108.956  54.685  1.00  0.00     0.008 C 
ATOM     19  C   UNL     1      52.725 111.052  53.273  1.00  0.00     0.012 C 
ATOM     20  C   UNL     1      54.362 110.647  56.319  1.00  0.00    -0.025 C 
ATOM     21  C   UNL     1      52.986 108.405  56.074  1.00  0.00     0.005 C 
ATOM     22  C   UNL     1      54.185 109.118  56.774  1.00  0.00     0.003 C 
ATOM     23  C   UNL     1      55.056 111.566  57.396  1.00  0.00     0.010 C 
ATOM     24  C   UNL     1      55.385 110.700  55.130  1.00  0.00     0.012 C 
ATOM     25  C   UNL     1      54.343 108.720  58.325  1.00  0.00    -0.006 C 
ATOM     26  C   UNL     1      55.891 110.786  58.409  1.00  0.00     0.033 C 
ATOM     27  C   UNL     1      54.961 109.877  59.209  1.00  0.00     0.120 C 
ATOM     28  C   UNL     1      55.333 107.521  58.410  1.00  0.00     0.014 C 
ATOM     29  C   UNL     1      53.033 108.196  58.999  1.00  0.00     0.014 C 
ENDROOT
BRANCH   1  30
ATOM     30  C   UNL     1      47.162 110.910  55.865  1.00  0.00     0.048 C 
ATOM     31  O   UNL     1      47.458 111.289  57.032  1.00  0.00    -0.550 OA
ATOM     32  O   UNL     1      46.153 111.582  55.179  1.00  0.00    -0.550 OA
ENDBRANCH   1  30
BRANCH  27  33
ATOM     33  O   UNL     1      54.002 110.659  59.898  1.00  0.00    -0.393 OA
ATOM     34  H   UNL     1      53.675 111.357  59.258  1.00  0.00     0.210 HD
ENDBRANCH  27  33
TORSDOF 2
ENDMDL
MODEL 5
REMARK VINA RESULT:    -5.678     14.451     18.052
REMARK INTER + INTRA:          -5.487
REMARK INTER:                  -5.841
REMARK INTRA:                   0.354
REMARK UNBOUND:                 0.689
REMARK SMILES CC1(C)CC[C@]2(C(=O)[O-])CC[C@@]3(C)C(=CC[C@H]4[C@@]5(C)CC[C@@H](O)C(C)(C)[C@H]5CC[C@]43C)[C@H]2C1
REMARK SMILES IDX 6 1 5 2 10 3 32 4 4 5 11 6 14 7 33 8 2 9 12 10 15 11 1 12
REMARK SMILES IDX 3 13 13 14 30 15 16 16 17 17 29 18 31 19 18 20 28 21 27 22
REMARK SMILES IDX 20 23 19 24 24 25 21 26 22 27 25 28 26 29 7 30 8 31 9 32
REMARK SMILES IDX 23 33
REMARK H PARENT 23 34
REMARK Flexibility Score: inf
ROOT
ATOM      1  C   UNL     1      60.393  95.771  56.161  1.00  0.00     0.017 C 
ATOM      2  C   UNL     1      60.673  94.230  55.968  1.00  0.00     0.014 C 
ATOM      3  C   UNL     1      58.858  96.082  55.959  1.00  0.00     0.014 C 
ATOM      4  C   UNL     1      61.248  96.607  55.137  1.00  0.00     0.028 C 
ATOM      5  C   UNL     1      61.834  93.896  55.006  1.00  0.00     0.007 C 
ATOM      6  C   UNL     1      58.546  97.169  54.906  1.00  0.00     0.013 C 
ATOM      7  C   UNL     1      60.869  98.086  55.217  1.00  0.00    -0.064 C 
ATOM      8  C   UNL     1      62.767  96.288  55.192  1.00  0.00     0.015 C 
ATOM      9  C   UNL     1      63.103  94.761  55.240  1.00  0.00    -0.035 C 
ATOM     10  C   UNL     1      59.399  98.475  55.112  1.00  0.00    -0.006 C 
ATOM     11  C   UNL     1      61.782  99.069  55.278  1.00  0.00    -0.027 C 
ATOM     12  C   UNL     1      63.752  94.408  56.597  1.00  0.00     0.011 C 
ATOM     13  C   UNL     1      64.124  94.421  54.130  1.00  0.00     0.011 C 
ATOM     14  C   UNL     1      58.945  99.067  56.497  1.00  0.00     0.017 C 
ATOM     15  C   UNL     1      59.257  99.557  53.929  1.00  0.00    -0.020 C 
ATOM     16  C   UNL     1      61.396 100.508  55.195  1.00  0.00     0.032 C 
ATOM     17  C   UNL     1      60.178 100.839  54.238  1.00  0.00     0.006 C 
ATOM     18  C   UNL     1      59.640  98.968  52.508  1.00  0.00     0.008 C 
ATOM     19  C   UNL     1      57.744  99.957  53.858  1.00  0.00     0.012 C 
ATOM     20  C   UNL     1      60.647 101.662  52.967  1.00  0.00    -0.025 C 
ATOM     21  C   UNL     1      61.089  99.214  52.075  1.00  0.00     0.005 C 
ATOM     22  C   UNL     1      61.485 100.720  51.973  1.00  0.00     0.003 C 
ATOM     23  C   UNL     1      61.397 102.981  53.393  1.00  0.00     0.010 C 
ATOM     24  C   UNL     1      59.402 102.222  52.193  1.00  0.00     0.012 C 
ATOM     25  C   UNL     1      63.068 100.951  51.795  1.00  0.00    -0.006 C 
ATOM     26  C   UNL     1      62.500 103.392  52.421  1.00  0.00     0.033 C 
ATOM     27  C   UNL     1      63.577 102.310  52.423  1.00  0.00     0.120 C 
ATOM     28  C   UNL     1      63.369 101.027  50.270  1.00  0.00     0.014 C 
ATOM     29  C   UNL     1      63.959  99.774  52.312  1.00  0.00     0.014 C 
ENDROOT
BRANCH   1  30
ATOM     30  C   UNL     1      60.743  96.135  57.610  1.00  0.00     0.048 C 
ATOM     31  O   UNL     1      61.823  96.720  57.900  1.00  0.00    -0.550 OA
ATOM     32  O   UNL     1      59.900  95.735  58.646  1.00  0.00    -0.550 OA
ENDBRANCH   1  30
BRANCH  27  33
ATOM     33  O   UNL     1      64.125 102.182  53.723  1.00  0.00    -0.393 OA
ATOM     34  H   UNL     1      65.112 102.340  53.645  1.00  0.00     0.210 HD
ENDBRANCH  27  33
TORSDOF 2
ENDMDL
MODEL 6
REMARK VINA RESULT:    -5.253     14.071     16.429
REMARK INTER + INTRA:          -5.024
REMARK INTER:                  -5.425
REMARK INTRA:                   0.401
REMARK UNBOUND:                 0.689
REMARK SMILES CC1(C)CC[C@]2(C(=O)[O-])CC[C@@]3(C)C(=CC[C@H]4[C@@]5(C)CC[C@@H](O)C(C)(C)[C@H]5CC[C@]43C)[C@H]2C1
REMARK SMILES IDX 6 1 5 2 10 3 32 4 4 5 11 6 14 7 33 8 2 9 12 10 15 11 1 12
REMARK SMILES IDX 3 13 13 14 30 15 16 16 17 17 29 18 31 19 18 20 28 21 27 22
REMARK SMILES IDX 20 23 19 24 24 25 21 26 22 27 25 28 26 29 7 30 8 31 9 32
REMARK SMILES IDX 23 33
REMARK H PARENT 23 34
REMARK Flexibility Score: inf
ROOT
ATOM      1  C   UNL     1      59.843  97.249  55.862  1.00  0.00     0.017 C 
ATOM      2  C   UNL     1      59.807  96.500  57.251  1.00  0.00     0.014 C 
ATOM      3  C   UNL     1      60.843  96.528  54.874  1.00  0.00     0.014 C 
ATOM      4  C   UNL     1      60.281  98.746  56.068  1.00  0.00     0.028 C 
ATOM      5  C   UNL     1      59.991  97.411  58.484  1.00  0.00     0.007 C 
ATOM      6  C   UNL     1      61.935  97.439  54.271  1.00  0.00     0.013 C 
ATOM      7  C   UNL     1      60.464  99.433  54.714  1.00  0.00    -0.064 C 
ATOM      8  C   UNL     1      59.414  99.509  57.107  1.00  0.00     0.015 C 
ATOM      9  C   UNL     1      59.145  98.712  58.427  1.00  0.00    -0.035 C 
ATOM     10  C   UNL     1      61.348  98.769  53.666  1.00  0.00    -0.006 C 
ATOM     11  C   UNL     1      59.958 100.647  54.439  1.00  0.00    -0.027 C 
ATOM     12  C   UNL     1      57.640  98.382  58.544  1.00  0.00     0.011 C 
ATOM     13  C   UNL     1      59.528  99.585  59.644  1.00  0.00     0.011 C 
ATOM     14  C   UNL     1      60.440  98.324  52.462  1.00  0.00     0.017 C 
ATOM     15  C   UNL     1      62.460  99.839  53.206  1.00  0.00    -0.020 C 
ATOM     16  C   UNL     1      60.281 101.365  53.171  1.00  0.00     0.032 C 
ATOM     17  C   UNL     1      61.750 101.155  52.618  1.00  0.00     0.006 C 
ATOM     18  C   UNL     1      63.438 100.252  54.383  1.00  0.00     0.008 C 
ATOM     19  C   UNL     1      63.340  99.139  52.114  1.00  0.00     0.012 C 
ATOM     20  C   UNL     1      62.602 102.489  52.717  1.00  0.00    -0.025 C 
ATOM     21  C   UNL     1      63.040 101.525  55.138  1.00  0.00     0.005 C 
ATOM     22  C   UNL     1      62.964 102.805  54.248  1.00  0.00     0.003 C 
ATOM     23  C   UNL     1      61.885 103.675  51.964  1.00  0.00     0.010 C 
ATOM     24  C   UNL     1      63.938 102.341  51.907  1.00  0.00     0.012 C 
ATOM     25  C   UNL     1      62.279 104.057  54.992  1.00  0.00    -0.006 C 
ATOM     26  C   UNL     1      62.133 105.037  52.606  1.00  0.00     0.033 C 
ATOM     27  C   UNL     1      61.521 105.033  54.006  1.00  0.00     0.120 C 
ATOM     28  C   UNL     1      63.410 104.892  55.659  1.00  0.00     0.014 C 
ATOM     29  C   UNL     1      61.328 103.671  56.172  1.00  0.00     0.014 C 
ENDROOT
BRANCH   1  30
ATOM     30  C   UNL     1      58.443  97.155  55.240  1.00  0.00     0.048 C 
ATOM     31  O   UNL     1      57.850  98.177  54.798  1.00  0.00    -0.550 OA
ATOM     32  O   UNL     1      57.767  95.936  55.241  1.00  0.00    -0.550 OA
ENDBRANCH   1  30
BRANCH  27  33
ATOM     33  O   UNL     1      60.126 104.805  53.918  1.00  0.00    -0.393 OA
ATOM     34  H   UNL     1      59.670 105.598  54.328  1.00  0.00     0.210 HD
ENDBRANCH  27  33
TORSDOF 2
ENDMDL
MODEL 7
REMARK VINA RESULT:    -5.216     13.306     16.158
REMARK INTER + INTRA:          -4.984
REMARK INTER:                  -5.365
REMARK INTRA:                   0.381
REMARK UNBOUND:                 0.689
REMARK SMILES CC1(C)CC[C@]2(C(=O)[O-])CC[C@@]3(C)C(=CC[C@H]4[C@@]5(C)CC[C@@H](O)C(C)(C)[C@H]5CC[C@]43C)[C@H]2C1
REMARK SMILES IDX 6 1 5 2 10 3 32 4 4 5 11 6 14 7 33 8 2 9 12 10 15 11 1 12
REMARK SMILES IDX 3 13 13 14 30 15 16 16 17 17 29 18 31 19 18 20 28 21 27 22
REMARK SMILES IDX 20 23 19 24 24 25 21 26 22 27 25 28 26 29 7 30 8 31 9 32
REMARK SMILES IDX 23 33
REMARK H PARENT 23 34
REMARK Flexibility Score: inf
ROOT
ATOM      1  C   UNL     1      56.685  97.377  58.393  1.00  0.00     0.017 C 
ATOM      2  C   UNL     1      56.231  97.894  59.813  1.00  0.00     0.014 C 
ATOM      3  C   UNL     1      57.440  95.995  58.524  1.00  0.00     0.014 C 
ATOM      4  C   UNL     1      57.625  98.437  57.708  1.00  0.00     0.028 C 
ATOM      5  C   UNL     1      56.614  99.357  60.125  1.00  0.00     0.007 C 
ATOM      6  C   UNL     1      58.848  95.959  57.890  1.00  0.00     0.013 C 
ATOM      7  C   UNL     1      58.186  97.878  56.401  1.00  0.00    -0.064 C 
ATOM      8  C   UNL     1      57.002  99.859  57.630  1.00  0.00     0.015 C 
ATOM      9  C   UNL     1      56.323 100.337  58.955  1.00  0.00    -0.035 C 
ATOM     10  C   UNL     1      58.862  96.512  56.416  1.00  0.00    -0.006 C 
ATOM     11  C   UNL     1      58.199  98.578  55.255  1.00  0.00    -0.027 C 
ATOM     12  C   UNL     1      54.800 100.485  58.742  1.00  0.00     0.011 C 
ATOM     13  C   UNL     1      56.877 101.726  59.347  1.00  0.00     0.011 C 
ATOM     14  C   UNL     1      57.982  95.515  55.578  1.00  0.00     0.017 C 
ATOM     15  C   UNL     1      60.333  96.681  55.783  1.00  0.00    -0.020 C 
ATOM     16  C   UNL     1      58.893  98.076  54.033  1.00  0.00     0.032 C 
ATOM     17  C   UNL     1      60.227  97.261  54.287  1.00  0.00     0.006 C 
ATOM     18  C   UNL     1      61.269  97.625  56.646  1.00  0.00     0.008 C 
ATOM     19  C   UNL     1      60.996  95.261  55.789  1.00  0.00     0.012 C 
ATOM     20  C   UNL     1      61.499  98.058  53.775  1.00  0.00    -0.025 C 
ATOM     21  C   UNL     1      61.298  99.090  56.199  1.00  0.00     0.005 C 
ATOM     22  C   UNL     1      61.795  99.309  54.736  1.00  0.00     0.003 C 
ATOM     23  C   UNL     1      61.356  98.433  52.251  1.00  0.00     0.010 C 
ATOM     24  C   UNL     1      62.759  97.123  53.770  1.00  0.00     0.012 C 
ATOM     25  C   UNL     1      61.552 100.807  54.199  1.00  0.00    -0.006 C 
ATOM     26  C   UNL     1      62.025  99.756  51.887  1.00  0.00     0.033 C 
ATOM     27  C   UNL     1      61.316 100.881  52.638  1.00  0.00     0.120 C 
ATOM     28  C   UNL     1      62.839 101.632  54.493  1.00  0.00     0.014 C 
ATOM     29  C   UNL     1      60.411 101.584  54.934  1.00  0.00     0.014 C 
ENDROOT
BRANCH   1  30
ATOM     30  C   UNL     1      55.422  97.126  57.558  1.00  0.00     0.048 C 
ATOM     31  O   UNL     1      55.261  97.667  56.430  1.00  0.00    -0.550 OA
ATOM     32  O   UNL     1      54.384  96.360  58.087  1.00  0.00    -0.550 OA
ENDBRANCH   1  30
BRANCH  27  33
ATOM     33  O   UNL     1      59.953 100.928  52.256  1.00  0.00    -0.393 OA
ATOM     34  H   UNL     1      59.542 101.713  52.724  1.00  0.00     0.210 HD
ENDBRANCH  27  33
TORSDOF 2
ENDMDL
MODEL 8
REMARK VINA RESULT:    -5.044     13.062     15.601
REMARK INTER + INTRA:          -4.798
REMARK INTER:                  -5.147
REMARK INTRA:                   0.349
REMARK UNBOUND:                 0.689
REMARK SMILES CC1(C)CC[C@]2(C(=O)[O-])CC[C@@]3(C)C(=CC[C@H]4[C@@]5(C)CC[C@@H](O)C(C)(C)[C@H]5CC[C@]43C)[C@H]2C1
REMARK SMILES IDX 6 1 5 2 10 3 32 4 4 5 11 6 14 7 33 8 2 9 12 10 15 11 1 12
REMARK SMILES IDX 3 13 13 14 30 15 16 16 17 17 29 18 31 19 18 20 28 21 27 22
REMARK SMILES IDX 20 23 19 24 24 25 21 26 22 27 25 28 26 29 7 30 8 31 9 32
REMARK SMILES IDX 23 33
REMARK H PARENT 23 34
REMARK Flexibility Score: inf
ROOT
ATOM      1  C   UNL     1      61.286  99.752  53.810  1.00  0.00     0.017 C 
ATOM      2  C   UNL     1      61.485  98.421  54.635  1.00  0.00     0.014 C 
ATOM      3  C   UNL     1      62.342  99.837  52.638  1.00  0.00     0.014 C 
ATOM      4  C   UNL     1      61.434 101.000  54.756  1.00  0.00     0.028 C 
ATOM      5  C   UNL     1      61.566  98.612  56.166  1.00  0.00     0.007 C 
ATOM      6  C   UNL     1      63.193 101.125  52.621  1.00  0.00     0.013 C 
ATOM      7  C   UNL     1      61.391 102.291  53.937  1.00  0.00    -0.064 C 
ATOM      8  C   UNL     1      60.503 100.951  55.999  1.00  0.00     0.015 C 
ATOM      9  C   UNL     1      60.479  99.568  56.730  1.00  0.00    -0.035 C 
ATOM     10  C   UNL     1      62.320 102.430  52.737  1.00  0.00    -0.006 C 
ATOM     11  C   UNL     1      60.642 103.349  54.285  1.00  0.00    -0.027 C 
ATOM     12  C   UNL     1      59.078  98.929  56.600  1.00  0.00     0.011 C 
ATOM     13  C   UNL     1      60.761  99.775  58.236  1.00  0.00     0.011 C 
ATOM     14  C   UNL     1      61.441 102.472  51.434  1.00  0.00     0.017 C 
ATOM     15  C   UNL     1      63.169 103.786  52.924  1.00  0.00    -0.020 C 
ATOM     16  C   UNL     1      60.736 104.652  53.562  1.00  0.00     0.032 C 
ATOM     17  C   UNL     1      62.179 105.047  53.042  1.00  0.00     0.006 C 
ATOM     18  C   UNL     1      64.120 103.745  54.191  1.00  0.00     0.008 C 
ATOM     19  C   UNL     1      64.097 103.917  51.668  1.00  0.00     0.012 C 
ATOM     20  C   UNL     1      62.758 106.293  53.833  1.00  0.00    -0.025 C 
ATOM     21  C   UNL     1      63.530 104.363  55.463  1.00  0.00     0.005 C 
ATOM     22  C   UNL     1      63.149 105.870  55.331  1.00  0.00     0.003 C 
ATOM     23  C   UNL     1      61.777 107.524  53.743  1.00  0.00     0.010 C 
ATOM     24  C   UNL     1      64.042 106.841  53.117  1.00  0.00     0.012 C 
ATOM     25  C   UNL     1      62.280 106.417  56.570  1.00  0.00    -0.006 C 
ATOM     26  C   UNL     1      61.793 108.403  54.991  1.00  0.00     0.033 C 
ATOM     27  C   UNL     1      61.284 107.579  56.173  1.00  0.00     0.120 C 
ATOM     28  C   UNL     1      63.267 107.017  57.615  1.00  0.00     0.014 C 
ATOM     29  C   UNL     1      61.501 105.313  57.356  1.00  0.00     0.014 C 
ENDROOT
BRANCH   1  30
ATOM     30  C   UNL     1      59.894  99.700  53.164  1.00  0.00     0.048 C 
ATOM     31  O   UNL     1      58.960 100.454  53.553  1.00  0.00    -0.550 OA
ATOM     32  O   UNL     1      59.620  98.743  52.190  1.00  0.00    -0.550 OA
ENDBRANCH   1  30
BRANCH  27  33
ATOM     33  O   UNL     1      59.958 107.150  55.922  1.00  0.00    -0.393 OA
ATOM     34  H   UNL     1      59.791 106.352  56.504  1.00  0.00     0.210 HD
ENDBRANCH  27  33
TORSDOF 2
ENDMDL
MODEL 9
REMARK VINA RESULT:    -4.936     14.236     17.154
REMARK INTER + INTRA:          -4.679
REMARK INTER:                  -5.076
REMARK INTRA:                   0.396
REMARK UNBOUND:                 0.689
REMARK SMILES CC1(C)CC[C@]2(C(=O)[O-])CC[C@@]3(C)C(=CC[C@H]4[C@@]5(C)CC[C@@H](O)C(C)(C)[C@H]5CC[C@]43C)[C@H]2C1
REMARK SMILES IDX 6 1 5 2 10 3 32 4 4 5 11 6 14 7 33 8 2 9 12 10 15 11 1 12
REMARK SMILES IDX 3 13 13 14 30 15 16 16 17 17 29 18 31 19 18 20 28 21 27 22
REMARK SMILES IDX 20 23 19 24 24 25 21 26 22 27 25 28 26 29 7 30 8 31 9 32
REMARK SMILES IDX 23 33
REMARK H PARENT 23 34
REMARK Flexibility Score: inf
ROOT
ATOM      1  C   UNL     1      58.238  96.281  59.091  1.00  0.00     0.017 C 
ATOM      2  C   UNL     1      57.010  96.584  60.035  1.00  0.00     0.014 C 
ATOM      3  C   UNL     1      59.595  96.438  59.885  1.00  0.00     0.014 C 
ATOM      4  C   UNL     1      58.224  97.257  57.857  1.00  0.00     0.028 C 
ATOM      5  C   UNL     1      55.983  97.585  59.463  1.00  0.00     0.007 C 
ATOM      6  C   UNL     1      60.614  97.408  59.248  1.00  0.00     0.013 C 
ATOM      7  C   UNL     1      59.490  97.069  57.022  1.00  0.00    -0.064 C 
ATOM      8  C   UNL     1      56.882  97.248  57.074  1.00  0.00     0.015 C 
ATOM      9  C   UNL     1      55.609  97.310  57.981  1.00  0.00    -0.035 C 
ATOM     10  C   UNL     1      60.845  97.125  57.717  1.00  0.00    -0.006 C 
ATOM     11  C   UNL     1      59.469  96.955  55.684  1.00  0.00    -0.027 C 
ATOM     12  C   UNL     1      54.813  95.991  57.861  1.00  0.00     0.011 C 
ATOM     13  C   UNL     1      54.689  98.456  57.500  1.00  0.00     0.011 C 
ATOM     14  C   UNL     1      61.499  95.696  57.641  1.00  0.00     0.017 C 
ATOM     15  C   UNL     1      61.743  98.228  56.963  1.00  0.00    -0.020 C 
ATOM     16  C   UNL     1      60.724  96.932  54.875  1.00  0.00     0.032 C 
ATOM     17  C   UNL     1      61.902  97.845  55.410  1.00  0.00     0.006 C 
ATOM     18  C   UNL     1      61.147  99.692  57.083  1.00  0.00     0.008 C 
ATOM     19  C   UNL     1      63.136  98.248  57.682  1.00  0.00     0.012 C 
ATOM     20  C   UNL     1      62.179  99.063  54.434  1.00  0.00    -0.025 C 
ATOM     21  C   UNL     1      60.264 100.129  55.910  1.00  0.00     0.005 C 
ATOM     22  C   UNL     1      60.985 100.132  54.526  1.00  0.00     0.003 C 
ATOM     23  C   UNL     1      62.483  98.558  52.972  1.00  0.00     0.010 C 
ATOM     24  C   UNL     1      63.520  99.778  54.824  1.00  0.00     0.012 C 
ATOM     25  C   UNL     1      59.978 100.318  53.285  1.00  0.00    -0.006 C 
ATOM     26  C   UNL     1      61.997  99.516  51.887  1.00  0.00     0.033 C 
ATOM     27  C   UNL     1      60.474  99.605  51.963  1.00  0.00     0.120 C 
ATOM     28  C   UNL     1      59.894 101.839  52.963  1.00  0.00     0.014 C 
ATOM     29  C   UNL     1      58.500  99.897  53.578  1.00  0.00     0.014 C 
ENDROOT
BRANCH   1  30
ATOM     30  C   UNL     1      58.140  94.815  58.647  1.00  0.00     0.048 C 
ATOM     31  O   UNL     1      58.537  93.875  59.389  1.00  0.00    -0.550 OA
ATOM     32  O   UNL     1      57.690  94.510  57.364  1.00  0.00    -0.550 OA
ENDBRANCH   1  30
BRANCH  27  33
ATOM     33  O   UNL     1      59.908  98.325  51.744  1.00  0.00    -0.393 OA
ATOM     34  H   UNL     1      59.088  98.457  51.184  1.00  0.00     0.210 HD
ENDBRANCH  27  33
TORSDOF 2
ENDMDL
