MODEL 1
REMARK VINA RESULT:    -7.794      0.000      0.000
REMARK INTER + INTRA:          -8.628
REMARK INTER:                  -8.477
REMARK INTRA:                  -0.151
REMARK UNBOUND:                -0.151
REMARK SMILES C[C@@H]1[C@H](C)CC[C@@]2(C(=O)[O-])CC[C@]3(C)C(=CC[C@@H]4[C@]5(C)CC[C@@H](O)C(C)(C)[C@H]5CC[C@]43C)[C@@H]12
REMARK SMILES IDX 7 1 6 2 11 3 33 4 5 5 12 6 15 7 2 8 3 9 13 10 16 11 1 12
REMARK SMILES IDX 4 13 14 14 31 15 17 16 18 17 30 18 32 19 19 20 29 21 28 22
REMARK SMILES IDX 21 23 20 24 25 25 22 26 23 27 26 28 27 29 8 30 9 31 10 32
REMARK SMILES IDX 24 33
REMARK H PARENT 24 34
REMARK Flexibility Score: inf
ROOT
ATOM      1  C   UNL     1     -26.045 110.344  22.099  1.00  0.00     0.017 C 
ATOM      2  C   UNL     1     -27.281 109.420  21.793  1.00  0.00     0.014 C 
ATOM      3  C   UNL     1     -25.212 110.479  20.765  1.00  0.00     0.014 C 
ATOM      4  C   UNL     1     -26.525 111.739  22.693  1.00  0.00     0.030 C 
ATOM      5  C   UNL     1     -28.433 109.656  22.760  1.00  0.00     0.004 C 
ATOM      6  C   UNL     1     -24.800 111.901  20.355  1.00  0.00     0.013 C 
ATOM      7  C   UNL     1     -25.464 112.849  22.590  1.00  0.00    -0.063 C 
ATOM      8  C   UNL     1     -27.940 112.135  22.143  1.00  0.00    -0.003 C 
ATOM      9  C   UNL     1     -29.025 111.074  22.581  1.00  0.00    -0.011 C 
ATOM     10  C   UNL     1     -24.351 112.816  21.534  1.00  0.00    -0.006 C 
ATOM     11  C   UNL     1     -25.489 113.851  23.510  1.00  0.00    -0.027 C 
ATOM     12  C   UNL     1     -28.398 113.572  22.477  1.00  0.00     0.008 C 
ATOM     13  C   UNL     1     -29.802 111.437  23.865  1.00  0.00     0.008 C 
ATOM     14  C   UNL     1     -23.099 112.154  22.208  1.00  0.00     0.017 C 
ATOM     15  C   UNL     1     -24.067 114.327  21.037  1.00  0.00    -0.020 C 
ATOM     16  C   UNL     1     -24.794 115.186  23.343  1.00  0.00     0.032 C 
ATOM     17  C   UNL     1     -23.651 115.180  22.295  1.00  0.00     0.006 C 
ATOM     18  C   UNL     1     -22.888 114.412  20.020  1.00  0.00     0.008 C 
ATOM     19  C   UNL     1     -25.362 114.913  20.358  1.00  0.00     0.012 C 
ATOM     20  C   UNL     1     -22.890 116.578  22.012  1.00  0.00    -0.025 C 
ATOM     21  C   UNL     1     -22.581 115.837  19.514  1.00  0.00     0.005 C 
ATOM     22  C   UNL     1     -22.984 116.982  20.490  1.00  0.00     0.003 C 
ATOM     23  C   UNL     1     -23.496 117.747  22.850  1.00  0.00     0.010 C 
ATOM     24  C   UNL     1     -21.401 116.389  22.449  1.00  0.00     0.012 C 
ATOM     25  C   UNL     1     -22.406 118.407  20.097  1.00  0.00    -0.006 C 
ATOM     26  C   UNL     1     -22.901 119.126  22.533  1.00  0.00     0.033 C 
ATOM     27  C   UNL     1     -23.038 119.482  21.042  1.00  0.00     0.120 C 
ATOM     28  C   UNL     1     -22.862 118.750  18.649  1.00  0.00     0.014 C 
ATOM     29  C   UNL     1     -20.846 118.497  20.134  1.00  0.00     0.014 C 
ENDROOT
BRANCH   1  30
ATOM     30  C   UNL     1     -25.182 109.615  23.135  1.00  0.00     0.048 C 
ATOM     31  O   UNL     1     -25.542 109.568  24.343  1.00  0.00    -0.550 OA
ATOM     32  O   UNL     1     -24.002 108.970  22.774  1.00  0.00    -0.550 OA
ENDBRANCH   1  30
BRANCH  27  33
ATOM     33  O   UNL     1     -22.456 120.742  20.803  1.00  0.00    -0.393 OA
ATOM     34  H   UNL     1     -22.829 121.074  19.945  1.00  0.00     0.210 HD
ENDBRANCH  27  33
TORSDOF 2
ENDMDL
MODEL 2
REMARK VINA RESULT:    -7.658      2.351      3.344
REMARK INTER + INTRA:          -8.481
REMARK INTER:                  -8.181
REMARK INTRA:                  -0.300
REMARK UNBOUND:                -0.151
REMARK SMILES C[C@@H]1[C@H](C)CC[C@@]2(C(=O)[O-])CC[C@]3(C)C(=CC[C@@H]4[C@]5(C)CC[C@@H](O)C(C)(C)[C@H]5CC[C@]43C)[C@@H]12
REMARK SMILES IDX 7 1 6 2 11 3 33 4 5 5 12 6 15 7 2 8 3 9 13 10 16 11 1 12
REMARK SMILES IDX 4 13 14 14 31 15 17 16 18 17 30 18 32 19 19 20 29 21 28 22
REMARK SMILES IDX 21 23 20 24 25 25 22 26 23 27 26 28 27 29 8 30 9 31 10 32
REMARK SMILES IDX 24 33
REMARK H PARENT 24 34
REMARK Flexibility Score: inf
ROOT
ATOM      1  C   UNL     1     -27.596 109.632  20.850  1.00  0.00     0.017 C 
ATOM      2  C   UNL     1     -27.859 108.257  20.134  1.00  0.00     0.014 C 
ATOM      3  C   UNL     1     -26.119 109.604  21.404  1.00  0.00     0.014 C 
ATOM      4  C   UNL     1     -27.879 110.841  19.855  1.00  0.00     0.030 C 
ATOM      5  C   UNL     1     -28.968 108.348  19.095  1.00  0.00     0.004 C 
ATOM      6  C   UNL     1     -25.247 110.831  21.097  1.00  0.00     0.013 C 
ATOM      7  C   UNL     1     -27.225 112.164  20.294  1.00  0.00    -0.063 C 
ATOM      8  C   UNL     1     -27.593 110.433  18.367  1.00  0.00    -0.003 C 
ATOM      9  C   UNL     1     -28.551 109.261  17.917  1.00  0.00    -0.011 C 
ATOM     10  C   UNL     1     -25.986 112.198  21.199  1.00  0.00    -0.006 C 
ATOM     11  C   UNL     1     -27.811 113.330  19.911  1.00  0.00    -0.027 C 
ATOM     12  C   UNL     1     -27.616 111.595  17.350  1.00  0.00     0.008 C 
ATOM     13  C   UNL     1     -29.831 109.718  17.185  1.00  0.00     0.008 C 
ATOM     14  C   UNL     1     -26.500 112.361  22.673  1.00  0.00     0.017 C 
ATOM     15  C   UNL     1     -25.040 113.421  20.731  1.00  0.00    -0.020 C 
ATOM     16  C   UNL     1     -27.123 114.678  19.917  1.00  0.00     0.032 C 
ATOM     17  C   UNL     1     -25.877 114.751  20.838  1.00  0.00     0.006 C 
ATOM     18  C   UNL     1     -23.789 113.596  21.645  1.00  0.00     0.008 C 
ATOM     19  C   UNL     1     -24.553 113.176  19.252  1.00  0.00     0.012 C 
ATOM     20  C   UNL     1     -25.047 116.138  20.864  1.00  0.00    -0.025 C 
ATOM     21  C   UNL     1     -22.851 114.751  21.234  1.00  0.00     0.005 C 
ATOM     22  C   UNL     1     -23.541 115.911  20.456  1.00  0.00     0.003 C 
ATOM     23  C   UNL     1     -25.650 117.192  19.882  1.00  0.00     0.010 C 
ATOM     24  C   UNL     1     -25.154 116.712  22.315  1.00  0.00     0.012 C 
ATOM     25  C   UNL     1     -22.645 117.212  20.297  1.00  0.00    -0.006 C 
ATOM     26  C   UNL     1     -24.833 118.486  19.765  1.00  0.00     0.033 C 
ATOM     27  C   UNL     1     -23.379 118.212  19.344  1.00  0.00     0.120 C 
ATOM     28  C   UNL     1     -21.310 116.817  19.601  1.00  0.00     0.014 C 
ATOM     29  C   UNL     1     -22.284 117.909  21.648  1.00  0.00     0.014 C 
ENDROOT
BRANCH   1  30
ATOM     30  C   UNL     1     -28.557 109.712  22.040  1.00  0.00     0.048 C 
ATOM     31  O   UNL     1     -28.253 109.176  23.141  1.00  0.00    -0.550 OA
ATOM     32  O   UNL     1     -29.770 110.392  21.952  1.00  0.00    -0.550 OA
ENDBRANCH   1  30
BRANCH  27  33
ATOM     33  O   UNL     1     -22.670 119.427  19.277  1.00  0.00    -0.393 OA
ATOM     34  H   UNL     1     -22.439 119.574  18.322  1.00  0.00     0.210 HD
ENDBRANCH  27  33
TORSDOF 2
ENDMDL
MODEL 3
REMARK VINA RESULT:    -7.582      2.430      8.015
REMARK INTER + INTRA:          -8.398
REMARK INTER:                  -8.110
REMARK INTRA:                  -0.289
REMARK UNBOUND:                -0.151
REMARK SMILES C[C@@H]1[C@H](C)CC[C@@]2(C(=O)[O-])CC[C@]3(C)C(=CC[C@@H]4[C@]5(C)CC[C@@H](O)C(C)(C)[C@H]5CC[C@]43C)[C@@H]12
REMARK SMILES IDX 7 1 6 2 11 3 33 4 5 5 12 6 15 7 2 8 3 9 13 10 16 11 1 12
REMARK SMILES IDX 4 13 14 14 31 15 17 16 18 17 30 18 32 19 19 20 29 21 28 22
REMARK SMILES IDX 21 23 20 24 25 25 22 26 23 27 26 28 27 29 8 30 9 31 10 32
REMARK SMILES IDX 24 33
REMARK H PARENT 24 34
REMARK Flexibility Score: inf
ROOT
ATOM      1  C   UNL     1     -22.811 116.444  23.031  1.00  0.00     0.017 C 
ATOM      2  C   UNL     1     -21.913 117.602  22.458  1.00  0.00     0.014 C 
ATOM      3  C   UNL     1     -24.317 116.893  22.879  1.00  0.00     0.014 C 
ATOM      4  C   UNL     1     -22.481 115.070  22.301  1.00  0.00     0.030 C 
ATOM      5  C   UNL     1     -20.543 117.107  22.015  1.00  0.00     0.004 C 
ATOM      6  C   UNL     1     -25.279 115.867  22.261  1.00  0.00     0.013 C 
ATOM      7  C   UNL     1     -23.589 114.012  22.452  1.00  0.00    -0.063 C 
ATOM      8  C   UNL     1     -22.001 115.309  20.827  1.00  0.00    -0.003 C 
ATOM      9  C   UNL     1     -20.665 116.150  20.805  1.00  0.00    -0.011 C 
ATOM     10  C   UNL     1     -25.050 114.397  22.722  1.00  0.00    -0.006 C 
ATOM     11  C   UNL     1     -23.237 112.700  22.403  1.00  0.00    -0.027 C 
ATOM     12  C   UNL     1     -21.874 114.036  19.962  1.00  0.00     0.008 C 
ATOM     13  C   UNL     1     -19.374 115.309  20.724  1.00  0.00     0.008 C 
ATOM     14  C   UNL     1     -25.259 114.340  24.276  1.00  0.00     0.017 C 
ATOM     15  C   UNL     1     -26.009 113.369  21.926  1.00  0.00    -0.020 C 
ATOM     16  C   UNL     1     -24.202 111.561  22.151  1.00  0.00     0.032 C 
ATOM     17  C   UNL     1     -25.686 111.913  22.434  1.00  0.00     0.006 C 
ATOM     18  C   UNL     1     -27.522 113.623  22.204  1.00  0.00     0.008 C 
ATOM     19  C   UNL     1     -25.752 113.499  20.376  1.00  0.00     0.012 C 
ATOM     20  C   UNL     1     -26.794 110.773  22.138  1.00  0.00    -0.025 C 
ATOM     21  C   UNL     1     -28.479 112.666  21.461  1.00  0.00     0.005 C 
ATOM     22  C   UNL     1     -27.872 111.277  21.103  1.00  0.00     0.003 C 
ATOM     23  C   UNL     1     -26.148 109.476  21.556  1.00  0.00     0.010 C 
ATOM     24  C   UNL     1     -27.458 110.410  23.506  1.00  0.00     0.012 C 
ATOM     25  C   UNL     1     -28.936 110.208  20.610  1.00  0.00    -0.006 C 
ATOM     26  C   UNL     1     -27.160 108.402  21.135  1.00  0.00     0.033 C 
ATOM     27  C   UNL     1     -28.174 108.937  20.109  1.00  0.00     0.120 C 
ATOM     28  C   UNL     1     -29.700 110.792  19.386  1.00  0.00     0.014 C 
ATOM     29  C   UNL     1     -29.999 109.819  21.688  1.00  0.00     0.014 C 
ENDROOT
BRANCH   1  30
ATOM     30  C   UNL     1     -22.492 116.322  24.524  1.00  0.00     0.048 C 
ATOM     31  O   UNL     1     -23.166 116.968  25.374  1.00  0.00    -0.550 OA
ATOM     32  O   UNL     1     -21.476 115.488  24.985  1.00  0.00    -0.550 OA
ENDBRANCH   1  30
BRANCH  27  33
ATOM     33  O   UNL     1     -29.091 107.920  19.778  1.00  0.00    -0.393 OA
ATOM     34  H   UNL     1     -28.720 107.070  20.133  1.00  0.00     0.210 HD
ENDBRANCH  27  33
TORSDOF 2
ENDMDL
MODEL 4
REMARK VINA RESULT:    -7.383      1.781      8.074
REMARK INTER + INTRA:          -8.182
REMARK INTER:                  -7.894
REMARK INTRA:                  -0.288
REMARK UNBOUND:                -0.151
REMARK SMILES C[C@@H]1[C@H](C)CC[C@@]2(C(=O)[O-])CC[C@]3(C)C(=CC[C@@H]4[C@]5(C)CC[C@@H](O)C(C)(C)[C@H]5CC[C@]43C)[C@@H]12
REMARK SMILES IDX 7 1 6 2 11 3 33 4 5 5 12 6 15 7 2 8 3 9 13 10 16 11 1 12
REMARK SMILES IDX 4 13 14 14 31 15 17 16 18 17 30 18 32 19 19 20 29 21 28 22
REMARK SMILES IDX 21 23 20 24 25 25 22 26 23 27 26 28 27 29 8 30 9 31 10 32
REMARK SMILES IDX 24 33
REMARK H PARENT 24 34
REMARK Flexibility Score: inf
ROOT
ATOM      1  C   UNL     1     -22.238 117.655  22.212  1.00  0.00     0.017 C 
ATOM      2  C   UNL     1     -22.046 119.098  21.616  1.00  0.00     0.014 C 
ATOM      3  C   UNL     1     -23.442 117.720  23.230  1.00  0.00     0.014 C 
ATOM      4  C   UNL     1     -22.448 116.594  21.045  1.00  0.00     0.030 C 
ATOM      5  C   UNL     1     -21.351 119.077  20.262  1.00  0.00     0.004 C 
ATOM      6  C   UNL     1     -24.516 116.630  23.092  1.00  0.00     0.013 C 
ATOM      7  C   UNL     1     -23.090 115.278  21.520  1.00  0.00    -0.063 C 
ATOM      8  C   UNL     1     -23.142 117.248  19.799  1.00  0.00    -0.003 C 
ATOM      9  C   UNL     1     -22.238 118.392  19.195  1.00  0.00    -0.011 C 
ATOM     10  C   UNL     1     -23.965 115.207  22.779  1.00  0.00    -0.006 C 
ATOM     11  C   UNL     1     -22.812 114.141  20.828  1.00  0.00    -0.027 C 
ATOM     12  C   UNL     1     -23.596 116.258  18.704  1.00  0.00     0.008 C 
ATOM     13  C   UNL     1     -21.331 117.950  18.027  1.00  0.00     0.008 C 
ATOM     14  C   UNL     1     -23.031 114.779  23.964  1.00  0.00     0.017 C 
ATOM     15  C   UNL     1     -25.161 114.153  22.515  1.00  0.00    -0.020 C 
ATOM     16  C   UNL     1     -23.629 112.868  20.907  1.00  0.00     0.032 C 
ATOM     17  C   UNL     1     -24.511 112.757  22.178  1.00  0.00     0.006 C 
ATOM     18  C   UNL     1     -26.063 113.943  23.770  1.00  0.00     0.008 C 
ATOM     19  C   UNL     1     -26.062 114.661  21.326  1.00  0.00     0.012 C 
ATOM     20  C   UNL     1     -25.459 111.456  22.318  1.00  0.00    -0.025 C 
ATOM     21  C   UNL     1     -27.223 112.945  23.565  1.00  0.00     0.005 C 
ATOM     22  C   UNL     1     -26.975 111.866  22.470  1.00  0.00     0.003 C 
ATOM     23  C   UNL     1     -25.344 110.519  21.074  1.00  0.00     0.010 C 
ATOM     24  C   UNL     1     -24.967 110.659  23.570  1.00  0.00     0.012 C 
ATOM     25  C   UNL     1     -28.033 110.683  22.470  1.00  0.00    -0.006 C 
ATOM     26  C   UNL     1     -26.314 109.330  21.088  1.00  0.00     0.033 C 
ATOM     27  C   UNL     1     -27.779 109.784  21.215  1.00  0.00     0.120 C 
ATOM     28  C   UNL     1     -29.459 111.288  22.315  1.00  0.00     0.014 C 
ATOM     29  C   UNL     1     -28.026 109.818  23.772  1.00  0.00     0.014 C 
ENDROOT
BRANCH   1  30
ATOM     30  C   UNL     1     -20.964 117.315  22.992  1.00  0.00     0.048 C 
ATOM     31  O   UNL     1     -20.886 117.571  24.226  1.00  0.00    -0.550 OA
ATOM     32  O   UNL     1     -19.877 116.701  22.376  1.00  0.00    -0.550 OA
ENDBRANCH   1  30
BRANCH  27  33
ATOM     33  O   UNL     1     -28.621 108.655  21.248  1.00  0.00    -0.393 OA
ATOM     34  H   UNL     1     -28.131 107.916  20.800  1.00  0.00     0.210 HD
ENDBRANCH  27  33
TORSDOF 2
ENDMDL
MODEL 5
REMARK VINA RESULT:    -7.370      1.886      7.901
REMARK INTER + INTRA:          -8.168
REMARK INTER:                  -7.866
REMARK INTRA:                  -0.301
REMARK UNBOUND:                -0.151
REMARK SMILES C[C@@H]1[C@H](C)CC[C@@]2(C(=O)[O-])CC[C@]3(C)C(=CC[C@@H]4[C@]5(C)CC[C@@H](O)C(C)(C)[C@H]5CC[C@]43C)[C@@H]12
REMARK SMILES IDX 7 1 6 2 11 3 33 4 5 5 12 6 15 7 2 8 3 9 13 10 16 11 1 12
REMARK SMILES IDX 4 13 14 14 31 15 17 16 18 17 30 18 32 19 19 20 29 21 28 22
REMARK SMILES IDX 21 23 20 24 25 25 22 26 23 27 26 28 27 29 8 30 9 31 10 32
REMARK SMILES IDX 24 33
REMARK H PARENT 24 34
REMARK Flexibility Score: inf
ROOT
ATOM      1  C   UNL     1     -21.678 116.383  21.577  1.00  0.00     0.017 C 
ATOM      2  C   UNL     1     -20.164 116.617  21.930  1.00  0.00     0.014 C 
ATOM      3  C   UNL     1     -21.731 115.394  20.349  1.00  0.00     0.014 C 
ATOM      4  C   UNL     1     -22.472 115.856  22.852  1.00  0.00     0.030 C 
ATOM      5  C   UNL     1     -19.966 117.052  23.376  1.00  0.00     0.004 C 
ATOM      6  C   UNL     1     -22.695 114.203  20.467  1.00  0.00     0.013 C 
ATOM      7  C   UNL     1     -23.808 115.174  22.505  1.00  0.00    -0.063 C 
ATOM      8  C   UNL     1     -21.539 115.023  23.800  1.00  0.00    -0.003 C 
ATOM      9  C   UNL     1     -20.364 115.921  24.354  1.00  0.00    -0.011 C 
ATOM     10  C   UNL     1     -24.063 114.535  21.134  1.00  0.00    -0.006 C 
ATOM     11  C   UNL     1     -24.803 115.201  23.431  1.00  0.00    -0.027 C 
ATOM     12  C   UNL     1     -22.261 114.279  24.944  1.00  0.00     0.008 C 
ATOM     13  C   UNL     1     -20.631 116.552  25.737  1.00  0.00     0.008 C 
ATOM     14  C   UNL     1     -24.780 115.616  20.251  1.00  0.00     0.017 C 
ATOM     15  C   UNL     1     -24.960 113.207  21.343  1.00  0.00    -0.020 C 
ATOM     16  C   UNL     1     -26.006 114.282  23.424  1.00  0.00     0.032 C 
ATOM     17  C   UNL     1     -26.303 113.635  22.046  1.00  0.00     0.006 C 
ATOM     18  C   UNL     1     -25.349 112.527  19.994  1.00  0.00     0.008 C 
ATOM     19  C   UNL     1     -24.166 112.167  22.222  1.00  0.00     0.012 C 
ATOM     20  C   UNL     1     -27.538 112.595  21.959  1.00  0.00    -0.025 C 
ATOM     21  C   UNL     1     -26.203 111.251  20.144  1.00  0.00     0.005 C 
ATOM     22  C   UNL     1     -27.061 111.183  21.442  1.00  0.00     0.003 C 
ATOM     23  C   UNL     1     -28.217 112.385  23.350  1.00  0.00     0.010 C 
ATOM     24  C   UNL     1     -28.597 113.216  20.992  1.00  0.00     0.012 C 
ATOM     25  C   UNL     1     -28.144 110.022  21.448  1.00  0.00    -0.006 C 
ATOM     26  C   UNL     1     -29.315 111.313  23.360  1.00  0.00     0.033 C 
ATOM     27  C   UNL     1     -28.794 109.951  22.869  1.00  0.00     0.120 C 
ATOM     28  C   UNL     1     -27.422 108.664  21.209  1.00  0.00     0.014 C 
ATOM     29  C   UNL     1     -29.246 110.170  20.350  1.00  0.00     0.014 C 
ENDROOT
BRANCH   1  30
ATOM     30  C   UNL     1     -22.253 117.732  21.136  1.00  0.00     0.048 C 
ATOM     31  O   UNL     1     -22.181 118.091  19.928  1.00  0.00    -0.550 OA
ATOM     32  O   UNL     1     -22.886 118.583  22.039  1.00  0.00    -0.550 OA
ENDBRANCH   1  30
BRANCH  27  33
ATOM     33  O   UNL     1     -29.845 109.014  22.876  1.00  0.00    -0.393 OA
ATOM     34  H   UNL     1     -30.464 109.279  23.607  1.00  0.00     0.210 HD
ENDBRANCH  27  33
TORSDOF 2
ENDMDL
MODEL 6
REMARK VINA RESULT:    -7.273     10.788     12.630
REMARK INTER + INTRA:          -8.062
REMARK INTER:                  -7.794
REMARK INTRA:                  -0.268
REMARK UNBOUND:                -0.151
REMARK SMILES C[C@@H]1[C@H](C)CC[C@@]2(C(=O)[O-])CC[C@]3(C)C(=CC[C@@H]4[C@]5(C)CC[C@@H](O)C(C)(C)[C@H]5CC[C@]43C)[C@@H]12
REMARK SMILES IDX 7 1 6 2 11 3 33 4 5 5 12 6 15 7 2 8 3 9 13 10 16 11 1 12
REMARK SMILES IDX 4 13 14 14 31 15 17 16 18 17 30 18 32 19 19 20 29 21 28 22
REMARK SMILES IDX 21 23 20 24 25 25 22 26 23 27 26 28 27 29 8 30 9 31 10 32
REMARK SMILES IDX 24 33
REMARK H PARENT 24 34
REMARK Flexibility Score: inf
ROOT
ATOM      1  C   UNL     1     -13.707 115.922  20.607  1.00  0.00     0.017 C 
ATOM      2  C   UNL     1     -13.844 114.500  21.264  1.00  0.00     0.014 C 
ATOM      3  C   UNL     1     -15.141 116.354  20.107  1.00  0.00     0.014 C 
ATOM      4  C   UNL     1     -13.056 116.949  21.633  1.00  0.00     0.030 C 
ATOM      5  C   UNL     1     -12.732 114.214  22.263  1.00  0.00     0.004 C 
ATOM      6  C   UNL     1     -15.604 117.768  20.489  1.00  0.00     0.013 C 
ATOM      7  C   UNL     1     -13.302 118.424  21.266  1.00  0.00    -0.063 C 
ATOM      8  C   UNL     1     -13.412 116.577  23.115  1.00  0.00    -0.003 C 
ATOM      9  C   UNL     1     -12.832 115.156  23.487  1.00  0.00    -0.011 C 
ATOM     10  C   UNL     1     -14.497 118.861  20.409  1.00  0.00    -0.006 C 
ATOM     11  C   UNL     1     -12.388 119.348  21.668  1.00  0.00    -0.027 C 
ATOM     12  C   UNL     1     -13.022 117.634  24.171  1.00  0.00     0.008 C 
ATOM     13  C   UNL     1     -11.456 115.184  24.187  1.00  0.00     0.008 C 
ATOM     14  C   UNL     1     -13.996 118.931  18.924  1.00  0.00     0.017 C 
ATOM     15  C   UNL     1     -15.029 120.285  20.955  1.00  0.00    -0.020 C 
ATOM     16  C   UNL     1     -12.648 120.838  21.735  1.00  0.00     0.032 C 
ATOM     17  C   UNL     1     -13.839 121.315  20.864  1.00  0.00     0.006 C 
ATOM     18  C   UNL     1     -16.195 120.861  20.095  1.00  0.00     0.008 C 
ATOM     19  C   UNL     1     -15.529 120.128  22.441  1.00  0.00     0.012 C 
ATOM     20  C   UNL     1     -14.224 122.884  20.918  1.00  0.00    -0.025 C 
ATOM     21  C   UNL     1     -16.740 122.221  20.581  1.00  0.00     0.005 C 
ATOM     22  C   UNL     1     -15.720 123.091  21.373  1.00  0.00     0.003 C 
ATOM     23  C   UNL     1     -13.313 123.669  21.914  1.00  0.00     0.010 C 
ATOM     24  C   UNL     1     -13.989 123.466  19.486  1.00  0.00     0.012 C 
ATOM     25  C   UNL     1     -16.188 124.589  21.612  1.00  0.00    -0.006 C 
ATOM     26  C   UNL     1     -13.709 125.139  22.107  1.00  0.00     0.033 C 
ATOM     27  C   UNL     1     -15.168 125.285  22.572  1.00  0.00     0.120 C 
ATOM     28  C   UNL     1     -17.562 124.572  22.342  1.00  0.00     0.014 C 
ATOM     29  C   UNL     1     -16.360 125.422  20.300  1.00  0.00     0.014 C 
ENDROOT
BRANCH   1  30
ATOM     30  C   UNL     1     -12.795 115.770  19.385  1.00  0.00     0.048 C 
ATOM     31  O   UNL     1     -13.292 115.599  18.238  1.00  0.00    -0.550 OA
ATOM     32  O   UNL     1     -11.409 115.839  19.499  1.00  0.00    -0.550 OA
ENDBRANCH   1  30
BRANCH  27  33
ATOM     33  O   UNL     1     -15.484 126.651  22.708  1.00  0.00    -0.393 OA
ATOM     34  H   UNL     1     -16.042 126.898  21.924  1.00  0.00     0.210 HD
ENDBRANCH  27  33
TORSDOF 2
ENDMDL
MODEL 7
REMARK VINA RESULT:    -7.232      9.761     12.061
REMARK INTER + INTRA:          -8.018
REMARK INTER:                  -7.746
REMARK INTRA:                  -0.271
REMARK UNBOUND:                -0.151
REMARK SMILES C[C@@H]1[C@H](C)CC[C@@]2(C(=O)[O-])CC[C@]3(C)C(=CC[C@@H]4[C@]5(C)CC[C@@H](O)C(C)(C)[C@H]5CC[C@]43C)[C@@H]12
REMARK SMILES IDX 7 1 6 2 11 3 33 4 5 5 12 6 15 7 2 8 3 9 13 10 16 11 1 12
REMARK SMILES IDX 4 13 14 14 31 15 17 16 18 17 30 18 32 19 19 20 29 21 28 22
REMARK SMILES IDX 21 23 20 24 25 25 22 26 23 27 26 28 27 29 8 30 9 31 10 32
REMARK SMILES IDX 24 33
REMARK H PARENT 24 34
REMARK Flexibility Score: inf
ROOT
ATOM      1  C   UNL     1     -28.132 115.990  10.689  1.00  0.00     0.017 C 
ATOM      2  C   UNL     1     -29.629 115.591  10.958  1.00  0.00     0.014 C 
ATOM      3  C   UNL     1     -27.553 116.589  12.029  1.00  0.00     0.014 C 
ATOM      4  C   UNL     1     -27.312 114.740  10.145  1.00  0.00     0.030 C 
ATOM      5  C   UNL     1     -30.125 114.519   9.997  1.00  0.00     0.004 C 
ATOM      6  C   UNL     1     -26.192 116.047  12.491  1.00  0.00     0.013 C 
ATOM      7  C   UNL     1     -25.787 114.895  10.291  1.00  0.00    -0.063 C 
ATOM      8  C   UNL     1     -27.889 113.393  10.706  1.00  0.00    -0.003 C 
ATOM      9  C   UNL     1     -29.379 113.183  10.227  1.00  0.00    -0.011 C 
ATOM     10  C   UNL     1     -25.160 115.813  11.348  1.00  0.00    -0.006 C 
ATOM     11  C   UNL     1     -24.987 114.239   9.409  1.00  0.00    -0.027 C 
ATOM     12  C   UNL     1     -27.030 112.141  10.423  1.00  0.00     0.008 C 
ATOM     13  C   UNL     1     -29.533 112.321   8.955  1.00  0.00     0.008 C 
ATOM     14  C   UNL     1     -24.889 117.193  10.653  1.00  0.00     0.017 C 
ATOM     15  C   UNL     1     -23.811 115.117  11.900  1.00  0.00    -0.020 C 
ATOM     16  C   UNL     1     -23.513 113.967   9.625  1.00  0.00     0.032 C 
ATOM     17  C   UNL     1     -22.845 114.893  10.675  1.00  0.00     0.006 C 
ATOM     18  C   UNL     1     -23.048 116.014  12.923  1.00  0.00     0.008 C 
ATOM     19  C   UNL     1     -24.168 113.749  12.597  1.00  0.00     0.012 C 
ATOM     20  C   UNL     1     -21.284 114.638  11.011  1.00  0.00    -0.025 C 
ATOM     21  C   UNL     1     -21.752 115.389  13.481  1.00  0.00     0.005 C 
ATOM     22  C   UNL     1     -21.070 114.346  12.546  1.00  0.00     0.003 C 
ATOM     23  C   UNL     1     -20.712 113.423  10.214  1.00  0.00     0.010 C 
ATOM     24  C   UNL     1     -20.502 115.918  10.571  1.00  0.00     0.012 C 
ATOM     25  C   UNL     1     -19.604 113.932  12.992  1.00  0.00    -0.006 C 
ATOM     26  C   UNL     1     -19.270 113.049  10.583  1.00  0.00     0.033 C 
ATOM     27  C   UNL     1     -19.119 112.753  12.085  1.00  0.00     0.120 C 
ATOM     28  C   UNL     1     -19.659 113.391  14.450  1.00  0.00     0.014 C 
ATOM     29  C   UNL     1     -18.571 115.104  12.962  1.00  0.00     0.014 C 
ENDROOT
BRANCH   1  30
ATOM     30  C   UNL     1     -28.143 117.097   9.629  1.00  0.00     0.048 C 
ATOM     31  O   UNL     1     -28.104 116.803   8.402  1.00  0.00    -0.550 OA
ATOM     32  O   UNL     1     -28.219 118.442   9.983  1.00  0.00    -0.550 OA
ENDBRANCH   1  30
BRANCH  27  33
ATOM     33  O   UNL     1     -17.776 112.441  12.372  1.00  0.00    -0.393 OA
ATOM     34  H   UNL     1     -17.726 111.454  12.480  1.00  0.00     0.210 HD
ENDBRANCH  27  33
TORSDOF 2
ENDMDL
MODEL 8
REMARK VINA RESULT:    -7.184      4.983      6.887
REMARK INTER + INTRA:          -7.965
REMARK INTER:                  -7.664
REMARK INTRA:                  -0.301
REMARK UNBOUND:                -0.151
REMARK SMILES C[C@@H]1[C@H](C)CC[C@@]2(C(=O)[O-])CC[C@]3(C)C(=CC[C@@H]4[C@]5(C)CC[C@@H](O)C(C)(C)[C@H]5CC[C@]43C)[C@@H]12
REMARK SMILES IDX 7 1 6 2 11 3 33 4 5 5 12 6 15 7 2 8 3 9 13 10 16 11 1 12
REMARK SMILES IDX 4 13 14 14 31 15 17 16 18 17 30 18 32 19 19 20 29 21 28 22
REMARK SMILES IDX 21 23 20 24 25 25 22 26 23 27 26 28 27 29 8 30 9 31 10 32
REMARK SMILES IDX 24 33
REMARK H PARENT 24 34
REMARK Flexibility Score: inf
ROOT
ATOM      1  C   UNL     1     -26.262 111.320  22.117  1.00  0.00     0.017 C 
ATOM      2  C   UNL     1     -26.138 110.181  23.195  1.00  0.00     0.014 C 
ATOM      3  C   UNL     1     -25.070 111.141  21.099  1.00  0.00     0.014 C 
ATOM      4  C   UNL     1     -27.697 111.282  21.430  1.00  0.00     0.030 C 
ATOM      5  C   UNL     1     -27.468 109.874  23.869  1.00  0.00     0.004 C 
ATOM      6  C   UNL     1     -25.431 111.179  19.606  1.00  0.00     0.013 C 
ATOM      7  C   UNL     1     -27.752 112.026  20.083  1.00  0.00    -0.063 C 
ATOM      8  C   UNL     1     -28.273 109.823  21.395  1.00  0.00    -0.003 C 
ATOM      9  C   UNL     1     -28.473 109.268  22.860  1.00  0.00    -0.011 C 
ATOM     10  C   UNL     1     -26.502 112.242  19.221  1.00  0.00    -0.006 C 
ATOM     11  C   UNL     1     -28.942 112.555  19.689  1.00  0.00    -0.027 C 
ATOM     12  C   UNL     1     -29.552 109.640  20.549  1.00  0.00     0.008 C 
ATOM     13  C   UNL     1     -29.896 109.449  23.430  1.00  0.00     0.008 C 
ATOM     14  C   UNL     1     -25.931 113.657  19.588  1.00  0.00     0.017 C 
ATOM     15  C   UNL     1     -26.922 112.124  17.665  1.00  0.00    -0.020 C 
ATOM     16  C   UNL     1     -29.269 112.967  18.269  1.00  0.00     0.032 C 
ATOM     17  C   UNL     1     -28.025 113.212  17.377  1.00  0.00     0.006 C 
ATOM     18  C   UNL     1     -25.733 112.414  16.698  1.00  0.00     0.008 C 
ATOM     19  C   UNL     1     -27.467 110.674  17.373  1.00  0.00     0.012 C 
ATOM     20  C   UNL     1     -28.281 113.602  15.829  1.00  0.00    -0.025 C 
ATOM     21  C   UNL     1     -26.086 112.310  15.199  1.00  0.00     0.005 C 
ATOM     22  C   UNL     1     -27.582 112.575  14.857  1.00  0.00     0.003 C 
ATOM     23  C   UNL     1     -29.803 113.623  15.482  1.00  0.00     0.010 C 
ATOM     24  C   UNL     1     -27.716 115.045  15.617  1.00  0.00     0.012 C 
ATOM     25  C   UNL     1     -27.874 112.753  13.307  1.00  0.00    -0.006 C 
ATOM     26  C   UNL     1     -30.108 113.862  13.996  1.00  0.00     0.033 C 
ATOM     27  C   UNL     1     -29.422 112.821  13.094  1.00  0.00     0.120 C 
ATOM     28  C   UNL     1     -27.367 111.489  12.555  1.00  0.00     0.014 C 
ATOM     29  C   UNL     1     -27.179 113.996  12.664  1.00  0.00     0.014 C 
ENDROOT
BRANCH   1  30
ATOM     30  C   UNL     1     -26.078 112.655  22.847  1.00  0.00     0.048 C 
ATOM     31  O   UNL     1     -24.923 113.134  23.015  1.00  0.00    -0.550 OA
ATOM     32  O   UNL     1     -27.169 113.382  23.319  1.00  0.00    -0.550 OA
ENDBRANCH   1  30
BRANCH  27  33
ATOM     33  O   UNL     1     -29.715 113.102  11.745  1.00  0.00    -0.393 OA
ATOM     34  H   UNL     1     -29.743 114.091  11.655  1.00  0.00     0.210 HD
ENDBRANCH  27  33
TORSDOF 2
ENDMDL
MODEL 9
REMARK VINA RESULT:    -7.137      5.990      8.519
REMARK INTER + INTRA:          -7.914
REMARK INTER:                  -7.624
REMARK INTRA:                  -0.290
REMARK UNBOUND:                -0.151
REMARK SMILES C[C@@H]1[C@H](C)CC[C@@]2(C(=O)[O-])CC[C@]3(C)C(=CC[C@@H]4[C@]5(C)CC[C@@H](O)C(C)(C)[C@H]5CC[C@]43C)[C@@H]12
REMARK SMILES IDX 7 1 6 2 11 3 33 4 5 5 12 6 15 7 2 8 3 9 13 10 16 11 1 12
REMARK SMILES IDX 4 13 14 14 31 15 17 16 18 17 30 18 32 19 19 20 29 21 28 22
REMARK SMILES IDX 21 23 20 24 25 25 22 26 23 27 26 28 27 29 8 30 9 31 10 32
REMARK SMILES IDX 24 33
REMARK H PARENT 24 34
REMARK Flexibility Score: inf
ROOT
ATOM      1  C   UNL     1     -26.066 114.906  12.279  1.00  0.00     0.017 C 
ATOM      2  C   UNL     1     -25.837 114.944  10.724  1.00  0.00     0.014 C 
ATOM      3  C   UNL     1     -24.821 114.183  12.925  1.00  0.00     0.014 C 
ATOM      4  C   UNL     1     -26.310 116.375  12.842  1.00  0.00     0.030 C 
ATOM      5  C   UNL     1     -26.616 116.064  10.050  1.00  0.00     0.004 C 
ATOM      6  C   UNL     1     -24.170 114.880  14.129  1.00  0.00     0.013 C 
ATOM      7  C   UNL     1     -26.086 116.496  14.360  1.00  0.00    -0.063 C 
ATOM      8  C   UNL     1     -25.554 117.447  11.981  1.00  0.00    -0.003 C 
ATOM      9  C   UNL     1     -26.092 117.450  10.497  1.00  0.00    -0.011 C 
ATOM     10  C   UNL     1     -25.174 115.530  15.127  1.00  0.00    -0.006 C 
ATOM     11  C   UNL     1     -26.772 117.455  15.037  1.00  0.00    -0.027 C 
ATOM     12  C   UNL     1     -25.539 118.873  12.573  1.00  0.00     0.008 C 
ATOM     13  C   UNL     1     -27.191 118.496  10.211  1.00  0.00     0.008 C 
ATOM     14  C   UNL     1     -26.089 114.392  15.700  1.00  0.00     0.017 C 
ATOM     15  C   UNL     1     -24.407 116.356  16.286  1.00  0.00    -0.020 C 
ATOM     16  C   UNL     1     -26.404 117.962  16.415  1.00  0.00     0.032 C 
ATOM     17  C   UNL     1     -25.497 116.998  17.225  1.00  0.00     0.006 C 
ATOM     18  C   UNL     1     -23.515 115.444  17.183  1.00  0.00     0.008 C 
ATOM     19  C   UNL     1     -23.498 117.464  15.631  1.00  0.00     0.012 C 
ATOM     20  C   UNL     1     -25.008 117.484  18.687  1.00  0.00    -0.025 C 
ATOM     21  C   UNL     1     -22.759 116.190  18.303  1.00  0.00     0.005 C 
ATOM     22  C   UNL     1     -23.434 117.508  18.785  1.00  0.00     0.003 C 
ATOM     23  C   UNL     1     -25.525 118.919  19.023  1.00  0.00     0.010 C 
ATOM     24  C   UNL     1     -25.620 116.493  19.730  1.00  0.00     0.012 C 
ATOM     25  C   UNL     1     -22.816 118.106  20.119  1.00  0.00    -0.006 C 
ATOM     26  C   UNL     1     -24.991 119.489  20.344  1.00  0.00     0.033 C 
ATOM     27  C   UNL     1     -23.453 119.511  20.380  1.00  0.00     0.120 C 
ATOM     28  C   UNL     1     -21.291 118.331  19.905  1.00  0.00     0.014 C 
ATOM     29  C   UNL     1     -22.986 117.187  21.372  1.00  0.00     0.014 C 
ENDROOT
BRANCH   1  30
ATOM     30  C   UNL     1     -27.309 114.047  12.532  1.00  0.00     0.048 C 
ATOM     31  O   UNL     1     -27.220 112.788  12.548  1.00  0.00    -0.550 OA
ATOM     32  O   UNL     1     -28.555 114.622  12.771  1.00  0.00    -0.550 OA
ENDBRANCH   1  30
BRANCH  27  33
ATOM     33  O   UNL     1     -23.018 120.018  21.620  1.00  0.00    -0.393 OA
ATOM     34  H   UNL     1     -22.840 119.235  22.206  1.00  0.00     0.210 HD
ENDBRANCH  27  33
TORSDOF 2
ENDMDL
