MODEL 1
REMARK VINA RESULT:    -5.910      0.000      0.000
REMARK INTER + INTRA:         -15.993
REMARK INTER:                 -13.511
REMARK INTRA:                  -2.482
REMARK UNBOUND:                -2.482
REMARK SMILES CCCCCCCCCCCCCCCCCCCCCCCC(=O)[O-]
REMARK SMILES IDX 13 1 14 2 15 3 16 4 17 5 18 6 19 7 20 8 21 9 22 10 23 11
REMARK SMILES IDX 24 12 25 13 26 14 12 15 11 16 10 17 9 18 8 19 7 20 6 21 5 22
REMARK SMILES IDX 4 23 3 24 2 25 1 26
REMARK H PARENT
REMARK Flexibility Score: inf
ROOT
ATOM      1  C   UNL     1     -17.883  -6.513  41.987  1.00  0.00     0.000 C 
ENDROOT
BRANCH   1   2
ATOM      2  C   UNL     1     -17.851  -7.000  40.527  1.00  0.00     0.000 C 
BRANCH   2   3
ATOM      3  C   UNL     1     -17.294  -5.946  39.555  1.00  0.00     0.000 C 
BRANCH   3   4
ATOM      4  C   UNL     1     -16.482  -6.569  38.407  1.00  0.00     0.000 C 
BRANCH   4   5
ATOM      5  C   UNL     1     -15.138  -5.859  38.143  1.00  0.00     0.000 C 
BRANCH   5   6
ATOM      6  C   UNL     1     -14.662  -5.047  39.358  1.00  0.00     0.000 C 
BRANCH   6   7
ATOM      7  C   UNL     1     -13.680  -5.866  40.210  1.00  0.00     0.000 C 
BRANCH   7   8
ATOM      8  C   UNL     1     -12.639  -6.623  39.364  1.00  0.00     0.000 C 
BRANCH   8   9
ATOM      9  C   UNL     1     -11.830  -7.694  40.125  1.00  0.00     0.000 C 
BRANCH   9  10
ATOM     10  C   UNL     1     -11.151  -8.754  39.239  1.00  0.00     0.006 C 
BRANCH  10  11
ATOM     11  C   UNL     1     -11.334  -8.485  37.739  1.00  0.00     0.053 C 
BRANCH  11  12
ATOM     12  C   UNL     1     -10.241  -9.134  36.948  1.00  0.00     0.041 C 
ATOM     13  O   UNL     1     -10.029  -8.788  35.755  1.00  0.00    -0.550 OA
ATOM     14  O   UNL     1      -9.427 -10.093  37.540  1.00  0.00    -0.550 OA
ENDBRANCH  11  12
ENDBRANCH  10  11
ENDBRANCH   9  10
ENDBRANCH   8   9
ENDBRANCH   7   8
ENDBRANCH   6   7
ENDBRANCH   5   6
ENDBRANCH   4   5
ENDBRANCH   3   4
ENDBRANCH   2   3
ENDBRANCH   1   2
BRANCH   1  15
ATOM     15  C   UNL     1     -16.506  -6.373  42.669  1.00  0.00     0.000 C 
BRANCH  15  16
ATOM     16  C   UNL     1     -16.310  -7.215  43.943  1.00  0.00     0.000 C 
BRANCH  16  17
ATOM     17  C   UNL     1     -17.640  -7.656  44.579  1.00  0.00     0.000 C 
BRANCH  17  18
ATOM     18  C   UNL     1     -17.593  -9.097  45.122  1.00  0.00    -0.000 C 
BRANCH  18  19
ATOM     19  C   UNL     1     -16.931 -10.126  44.189  1.00  0.00    -0.000 C 
BRANCH  19  20
ATOM     20  C   UNL     1     -15.876 -10.988  44.899  1.00  0.00    -0.000 C 
BRANCH  20  21
ATOM     21  C   UNL     1     -14.655 -10.143  45.290  1.00  0.00    -0.000 C 
BRANCH  21  22
ATOM     22  C   UNL     1     -13.990 -10.628  46.589  1.00  0.00    -0.000 C 
BRANCH  22  23
ATOM     23  C   UNL     1     -14.948 -11.441  47.478  1.00  0.00    -0.000 C 
BRANCH  23  24
ATOM     24  C   UNL     1     -15.345 -10.675  48.759  1.00  0.00    -0.000 C 
BRANCH  24  25
ATOM     25  C   UNL     1     -16.357  -9.544  48.509  1.00  0.00    -0.003 C 
ATOM     26  C   UNL     1     -15.788  -8.159  48.811  1.00  0.00     0.004 C 
ENDBRANCH  24  25
ENDBRANCH  23  24
ENDBRANCH  22  23
ENDBRANCH  21  22
ENDBRANCH  20  21
ENDBRANCH  19  20
ENDBRANCH  18  19
ENDBRANCH  17  18
ENDBRANCH  16  17
ENDBRANCH  15  16
ENDBRANCH   1  15
TORSDOF 22
ENDMDL
MODEL 2
REMARK VINA RESULT:    -5.785      1.918      4.811
REMARK INTER + INTRA:         -15.708
REMARK INTER:                 -12.173
REMARK INTRA:                  -3.535
REMARK UNBOUND:                -2.482
REMARK SMILES CCCCCCCCCCCCCCCCCCCCCCCC(=O)[O-]
REMARK SMILES IDX 13 1 14 2 15 3 16 4 17 5 18 6 19 7 20 8 21 9 22 10 23 11
REMARK SMILES IDX 24 12 25 13 26 14 12 15 11 16 10 17 9 18 8 19 7 20 6 21 5 22
REMARK SMILES IDX 4 23 3 24 2 25 1 26
REMARK H PARENT
REMARK Flexibility Score: inf
ROOT
ATOM      1  C   UNL     1     -15.864 -10.913  44.781  1.00  0.00     0.000 C 
ENDROOT
BRANCH   1   2
ATOM      2  C   UNL     1     -17.087 -10.156  44.230  1.00  0.00     0.000 C 
BRANCH   2   3
ATOM      3  C   UNL     1     -16.791  -8.678  43.927  1.00  0.00     0.000 C 
BRANCH   3   4
ATOM      4  C   UNL     1     -18.064  -7.817  43.875  1.00  0.00     0.000 C 
BRANCH   4   5
ATOM      5  C   UNL     1     -17.934  -6.576  42.968  1.00  0.00     0.000 C 
BRANCH   5   6
ATOM      6  C   UNL     1     -16.970  -6.811  41.794  1.00  0.00     0.000 C 
BRANCH   6   7
ATOM      7  C   UNL     1     -17.746  -7.151  40.512  1.00  0.00     0.000 C 
BRANCH   7   8
ATOM      8  C   UNL     1     -17.375  -6.239  39.328  1.00  0.00     0.000 C 
BRANCH   8   9
ATOM      9  C   UNL     1     -16.161  -5.317  39.565  1.00  0.00     0.000 C 
BRANCH   9  10
ATOM     10  C   UNL     1     -15.098  -5.334  38.452  1.00  0.00     0.006 C 
BRANCH  10  11
ATOM     11  C   UNL     1     -14.274  -6.629  38.433  1.00  0.00     0.053 C 
BRANCH  11  12
ATOM     12  C   UNL     1     -13.658  -6.844  37.085  1.00  0.00     0.041 C 
ATOM     13  O   UNL     1     -14.235  -6.419  36.048  1.00  0.00    -0.550 OA
ATOM     14  O   UNL     1     -12.425  -7.477  36.974  1.00  0.00    -0.550 OA
ENDBRANCH  11  12
ENDBRANCH  10  11
ENDBRANCH   9  10
ENDBRANCH   8   9
ENDBRANCH   7   8
ENDBRANCH   6   7
ENDBRANCH   5   6
ENDBRANCH   4   5
ENDBRANCH   3   4
ENDBRANCH   2   3
ENDBRANCH   1   2
BRANCH   1  15
ATOM     15  C   UNL     1     -14.678 -10.027  45.215  1.00  0.00     0.000 C 
BRANCH  15  16
ATOM     16  C   UNL     1     -13.972 -10.456  46.514  1.00  0.00     0.000 C 
BRANCH  16  17
ATOM     17  C   UNL     1     -14.857 -11.337  47.413  1.00  0.00     0.000 C 
BRANCH  17  18
ATOM     18  C   UNL     1     -14.891 -10.854  48.875  1.00  0.00    -0.000 C 
BRANCH  18  19
ATOM     19  C   UNL     1     -15.943  -9.774  49.182  1.00  0.00    -0.000 C 
BRANCH  19  20
ATOM     20  C   UNL     1     -16.963  -9.590  48.048  1.00  0.00    -0.000 C 
BRANCH  20  21
ATOM     21  C   UNL     1     -16.886  -8.170  47.469  1.00  0.00    -0.000 C 
BRANCH  21  22
ATOM     22  C   UNL     1     -15.849  -7.292  48.189  1.00  0.00    -0.000 C 
BRANCH  22  23
ATOM     23  C   UNL     1     -14.882  -6.596  47.215  1.00  0.00    -0.000 C 
BRANCH  23  24
ATOM     24  C   UNL     1     -15.628  -5.821  46.107  1.00  0.00    -0.000 C 
BRANCH  24  25
ATOM     25  C   UNL     1     -14.896  -5.826  44.755  1.00  0.00    -0.003 C 
ATOM     26  C   UNL     1     -13.583  -6.607  44.792  1.00  0.00     0.004 C 
ENDBRANCH  24  25
ENDBRANCH  23  24
ENDBRANCH  22  23
ENDBRANCH  21  22
ENDBRANCH  20  21
ENDBRANCH  19  20
ENDBRANCH  18  19
ENDBRANCH  17  18
ENDBRANCH  16  17
ENDBRANCH  15  16
ENDBRANCH   1  15
TORSDOF 22
ENDMDL
MODEL 3
REMARK VINA RESULT:    -5.731      1.209      2.343
REMARK INTER + INTRA:         -15.584
REMARK INTER:                 -13.299
REMARK INTRA:                  -2.284
REMARK UNBOUND:                -2.482
REMARK SMILES CCCCCCCCCCCCCCCCCCCCCCCC(=O)[O-]
REMARK SMILES IDX 13 1 14 2 15 3 16 4 17 5 18 6 19 7 20 8 21 9 22 10 23 11
REMARK SMILES IDX 24 12 25 13 26 14 12 15 11 16 10 17 9 18 8 19 7 20 6 21 5 22
REMARK SMILES IDX 4 23 3 24 2 25 1 26
REMARK H PARENT
REMARK Flexibility Score: inf
ROOT
ATOM      1  C   UNL     1     -16.407  -6.458  42.080  1.00  0.00     0.000 C 
ENDROOT
BRANCH   1   2
ATOM      2  C   UNL     1     -17.692  -6.599  41.242  1.00  0.00     0.000 C 
BRANCH   2   3
ATOM      3  C   UNL     1     -17.414  -6.999  39.784  1.00  0.00     0.000 C 
BRANCH   3   4
ATOM      4  C   UNL     1     -17.031  -5.799  38.902  1.00  0.00     0.000 C 
BRANCH   4   5
ATOM      5  C   UNL     1     -15.508  -5.620  38.728  1.00  0.00     0.000 C 
BRANCH   5   6
ATOM      6  C   UNL     1     -15.048  -5.919  37.293  1.00  0.00     0.000 C 
BRANCH   6   7
ATOM      7  C   UNL     1     -13.715  -6.685  37.297  1.00  0.00     0.000 C 
BRANCH   7   8
ATOM      8  C   UNL     1     -13.157  -6.910  38.713  1.00  0.00     0.000 C 
BRANCH   8   9
ATOM      9  C   UNL     1     -11.975  -7.898  38.803  1.00  0.00     0.000 C 
BRANCH   9  10
ATOM     10  C   UNL     1     -11.668  -8.672  37.509  1.00  0.00     0.006 C 
BRANCH  10  11
ATOM     11  C   UNL     1     -10.836  -9.939  37.754  1.00  0.00     0.053 C 
BRANCH  11  12
ATOM     12  C   UNL     1      -9.808  -9.700  38.816  1.00  0.00     0.041 C 
ATOM     13  O   UNL     1      -8.812  -8.964  38.581  1.00  0.00    -0.550 OA
ATOM     14  O   UNL     1      -9.968 -10.254  40.081  1.00  0.00    -0.550 OA
ENDBRANCH  11  12
ENDBRANCH  10  11
ENDBRANCH   9  10
ENDBRANCH   8   9
ENDBRANCH   7   8
ENDBRANCH   6   7
ENDBRANCH   5   6
ENDBRANCH   4   5
ENDBRANCH   3   4
ENDBRANCH   2   3
ENDBRANCH   1   2
BRANCH   1  15
ATOM     15  C   UNL     1     -16.541  -6.847  43.567  1.00  0.00     0.000 C 
BRANCH  15  16
ATOM     16  C   UNL     1     -17.694  -7.813  43.897  1.00  0.00     0.000 C 
BRANCH  16  17
ATOM     17  C   UNL     1     -17.202  -9.202  44.338  1.00  0.00     0.000 C 
BRANCH  17  18
ATOM     18  C   UNL     1     -17.456  -9.480  45.831  1.00  0.00    -0.000 C 
BRANCH  18  19
ATOM     19  C   UNL     1     -17.368  -8.248  46.749  1.00  0.00    -0.000 C 
BRANCH  19  20
ATOM     20  C   UNL     1     -16.325  -8.405  47.865  1.00  0.00    -0.000 C 
BRANCH  20  21
ATOM     21  C   UNL     1     -16.437  -9.787  48.527  1.00  0.00    -0.000 C 
BRANCH  21  22
ATOM     22  C   UNL     1     -15.071 -10.471  48.705  1.00  0.00    -0.000 C 
BRANCH  22  23
ATOM     23  C   UNL     1     -14.581 -11.160  47.419  1.00  0.00    -0.000 C 
BRANCH  23  24
ATOM     24  C   UNL     1     -13.388 -10.417  46.779  1.00  0.00    -0.000 C 
BRANCH  24  25
ATOM     25  C   UNL     1     -13.688  -9.873  45.372  1.00  0.00    -0.003 C 
ATOM     26  C   UNL     1     -13.621  -8.348  45.297  1.00  0.00     0.004 C 
ENDBRANCH  24  25
ENDBRANCH  23  24
ENDBRANCH  22  23
ENDBRANCH  21  22
ENDBRANCH  20  21
ENDBRANCH  19  20
ENDBRANCH  18  19
ENDBRANCH  17  18
ENDBRANCH  16  17
ENDBRANCH  15  16
ENDBRANCH   1  15
TORSDOF 22
ENDMDL
MODEL 4
REMARK VINA RESULT:    -5.607      1.331      2.315
REMARK INTER + INTRA:         -15.300
REMARK INTER:                 -13.191
REMARK INTRA:                  -2.109
REMARK UNBOUND:                -2.482
REMARK SMILES CCCCCCCCCCCCCCCCCCCCCCCC(=O)[O-]
REMARK SMILES IDX 13 1 14 2 15 3 16 4 17 5 18 6 19 7 20 8 21 9 22 10 23 11
REMARK SMILES IDX 24 12 25 13 26 14 12 15 11 16 10 17 9 18 8 19 7 20 6 21 5 22
REMARK SMILES IDX 4 23 3 24 2 25 1 26
REMARK H PARENT
REMARK Flexibility Score: inf
ROOT
ATOM      1  C   UNL     1     -16.695  -6.883  42.496  1.00  0.00     0.000 C 
ENDROOT
BRANCH   1   2
ATOM      2  C   UNL     1     -17.899  -6.444  41.641  1.00  0.00     0.000 C 
BRANCH   2   3
ATOM      3  C   UNL     1     -17.771  -6.861  40.167  1.00  0.00     0.000 C 
BRANCH   3   4
ATOM      4  C   UNL     1     -16.956  -5.856  39.335  1.00  0.00     0.000 C 
BRANCH   4   5
ATOM      5  C   UNL     1     -16.311  -6.473  38.077  1.00  0.00     0.000 C 
BRANCH   5   6
ATOM      6  C   UNL     1     -15.086  -5.676  37.602  1.00  0.00     0.000 C 
BRANCH   6   7
ATOM      7  C   UNL     1     -13.834  -6.568  37.573  1.00  0.00     0.000 C 
BRANCH   7   8
ATOM      8  C   UNL     1     -13.201  -6.757  38.963  1.00  0.00     0.000 C 
BRANCH   8   9
ATOM      9  C   UNL     1     -12.013  -7.741  39.015  1.00  0.00     0.000 C 
BRANCH   9  10
ATOM     10  C   UNL     1     -11.546  -8.276  37.650  1.00  0.00     0.006 C 
BRANCH  10  11
ATOM     11  C   UNL     1     -11.039  -9.724  37.719  1.00  0.00     0.053 C 
BRANCH  11  12
ATOM     12  C   UNL     1      -9.892  -9.838  38.674  1.00  0.00     0.041 C 
ATOM     13  O   UNL     1     -10.070 -10.314  39.827  1.00  0.00    -0.550 OA
ATOM     14  O   UNL     1      -8.614  -9.458  38.279  1.00  0.00    -0.550 OA
ENDBRANCH  11  12
ENDBRANCH  10  11
ENDBRANCH   9  10
ENDBRANCH   8   9
ENDBRANCH   7   8
ENDBRANCH   6   7
ENDBRANCH   5   6
ENDBRANCH   4   5
ENDBRANCH   3   4
ENDBRANCH   2   3
ENDBRANCH   1   2
BRANCH   1  15
ATOM     15  C   UNL     1     -16.981  -7.060  44.001  1.00  0.00     0.000 C 
BRANCH  15  16
ATOM     16  C   UNL     1     -17.784  -8.319  44.379  1.00  0.00     0.000 C 
BRANCH  16  17
ATOM     17  C   UNL     1     -17.352  -9.564  43.585  1.00  0.00     0.000 C 
BRANCH  17  18
ATOM     18  C   UNL     1     -16.628 -10.607  44.456  1.00  0.00    -0.000 C 
BRANCH  18  19
ATOM     19  C   UNL     1     -15.247 -10.174  44.980  1.00  0.00    -0.000 C 
BRANCH  19  20
ATOM     20  C   UNL     1     -15.041 -10.501  46.467  1.00  0.00    -0.000 C 
BRANCH  20  21
ATOM     21  C   UNL     1     -16.388 -10.718  47.170  1.00  0.00    -0.000 C 
BRANCH  21  22
ATOM     22  C   UNL     1     -16.663  -9.670  48.261  1.00  0.00    -0.000 C 
BRANCH  22  23
ATOM     23  C   UNL     1     -15.674  -8.491  48.213  1.00  0.00    -0.000 C 
BRANCH  23  24
ATOM     24  C   UNL     1     -16.280  -7.250  47.522  1.00  0.00    -0.000 C 
BRANCH  24  25
ATOM     25  C   UNL     1     -15.462  -5.966  47.741  1.00  0.00    -0.003 C 
ATOM     26  C   UNL     1     -14.431  -5.722  46.640  1.00  0.00     0.004 C 
ENDBRANCH  24  25
ENDBRANCH  23  24
ENDBRANCH  22  23
ENDBRANCH  21  22
ENDBRANCH  20  21
ENDBRANCH  19  20
ENDBRANCH  18  19
ENDBRANCH  17  18
ENDBRANCH  16  17
ENDBRANCH  15  16
ENDBRANCH   1  15
TORSDOF 22
ENDMDL
MODEL 5
REMARK VINA RESULT:    -5.575      1.377      3.269
REMARK INTER + INTRA:         -15.227
REMARK INTER:                 -12.753
REMARK INTRA:                  -2.474
REMARK UNBOUND:                -2.482
REMARK SMILES CCCCCCCCCCCCCCCCCCCCCCCC(=O)[O-]
REMARK SMILES IDX 13 1 14 2 15 3 16 4 17 5 18 6 19 7 20 8 21 9 22 10 23 11
REMARK SMILES IDX 24 12 25 13 26 14 12 15 11 16 10 17 9 18 8 19 7 20 6 21 5 22
REMARK SMILES IDX 4 23 3 24 2 25 1 26
REMARK H PARENT
REMARK Flexibility Score: inf
ROOT
ATOM      1  C   UNL     1     -16.982  -8.476  43.674  1.00  0.00     0.000 C 
ENDROOT
BRANCH   1   2
ATOM      2  C   UNL     1     -17.440  -7.063  43.270  1.00  0.00     0.000 C 
BRANCH   2   3
ATOM      3  C   UNL     1     -16.651  -6.495  42.078  1.00  0.00     0.000 C 
BRANCH   3   4
ATOM      4  C   UNL     1     -17.361  -6.729  40.733  1.00  0.00     0.000 C 
BRANCH   4   5
ATOM      5  C   UNL     1     -16.905  -5.765  39.618  1.00  0.00     0.000 C 
BRANCH   5   6
ATOM      6  C   UNL     1     -16.538  -6.506  38.323  1.00  0.00     0.000 C 
BRANCH   6   7
ATOM      7  C   UNL     1     -15.370  -5.810  37.609  1.00  0.00     0.000 C 
BRANCH   7   8
ATOM      8  C   UNL     1     -14.118  -6.700  37.499  1.00  0.00     0.000 C 
BRANCH   8   9
ATOM      9  C   UNL     1     -13.216  -6.722  38.751  1.00  0.00     0.000 C 
BRANCH   9  10
ATOM     10  C   UNL     1     -12.026  -7.695  38.684  1.00  0.00     0.006 C 
BRANCH  10  11
ATOM     11  C   UNL     1     -11.486  -8.073  40.071  1.00  0.00     0.053 C 
BRANCH  11  12
ATOM     12  C   UNL     1     -10.437  -9.135  39.958  1.00  0.00     0.041 C 
ATOM     13  O   UNL     1     -10.482  -9.976  39.021  1.00  0.00    -0.550 OA
ATOM     14  O   UNL     1      -9.382  -9.172  40.863  1.00  0.00    -0.550 OA
ENDBRANCH  11  12
ENDBRANCH  10  11
ENDBRANCH   9  10
ENDBRANCH   8   9
ENDBRANCH   7   8
ENDBRANCH   6   7
ENDBRANCH   5   6
ENDBRANCH   4   5
ENDBRANCH   3   4
ENDBRANCH   2   3
ENDBRANCH   1   2
BRANCH   1  15
ATOM     15  C   UNL     1     -17.764  -9.118  44.839  1.00  0.00     0.000 C 
BRANCH  15  16
ATOM     16  C   UNL     1     -16.979 -10.141  45.679  1.00  0.00     0.000 C 
BRANCH  16  17
ATOM     17  C   UNL     1     -15.515 -10.288  45.228  1.00  0.00     0.000 C 
BRANCH  17  18
ATOM     18  C   UNL     1     -14.563 -10.627  46.390  1.00  0.00    -0.000 C 
BRANCH  18  19
ATOM     19  C   UNL     1     -15.184 -11.467  47.520  1.00  0.00    -0.000 C 
BRANCH  19  20
ATOM     20  C   UNL     1     -14.907 -10.891  48.917  1.00  0.00    -0.000 C 
BRANCH  20  21
ATOM     21  C   UNL     1     -15.916  -9.786  49.262  1.00  0.00    -0.000 C 
BRANCH  21  22
ATOM     22  C   UNL     1     -15.278  -8.621  50.037  1.00  0.00    -0.000 C 
BRANCH  22  23
ATOM     23  C   UNL     1     -15.323  -7.295  49.257  1.00  0.00    -0.000 C 
BRANCH  23  24
ATOM     24  C   UNL     1     -16.041  -7.443  47.898  1.00  0.00    -0.000 C 
BRANCH  24  25
ATOM     25  C   UNL     1     -15.210  -6.935  46.707  1.00  0.00    -0.003 C 
ATOM     26  C   UNL     1     -15.704  -5.595  46.165  1.00  0.00     0.004 C 
ENDBRANCH  24  25
ENDBRANCH  23  24
ENDBRANCH  22  23
ENDBRANCH  21  22
ENDBRANCH  20  21
ENDBRANCH  19  20
ENDBRANCH  18  19
ENDBRANCH  17  18
ENDBRANCH  16  17
ENDBRANCH  15  16
ENDBRANCH   1  15
TORSDOF 22
ENDMDL
MODEL 6
REMARK VINA RESULT:    -5.535      1.782      3.858
REMARK INTER + INTRA:         -15.135
REMARK INTER:                 -11.844
REMARK INTRA:                  -3.291
REMARK UNBOUND:                -2.482
REMARK SMILES CCCCCCCCCCCCCCCCCCCCCCCC(=O)[O-]
REMARK SMILES IDX 13 1 14 2 15 3 16 4 17 5 18 6 19 7 20 8 21 9 22 10 23 11
REMARK SMILES IDX 24 12 25 13 26 14 12 15 11 16 10 17 9 18 8 19 7 20 6 21 5 22
REMARK SMILES IDX 4 23 3 24 2 25 1 26
REMARK H PARENT
REMARK Flexibility Score: inf
ROOT
ATOM      1  C   UNL     1     -16.954  -7.124  45.652  1.00  0.00     0.000 C 
ENDROOT
BRANCH   1   2
ATOM      2  C   UNL     1     -15.901  -6.035  45.376  1.00  0.00     0.000 C 
BRANCH   2   3
ATOM      3  C   UNL     1     -15.285  -6.141  43.970  1.00  0.00     0.000 C 
BRANCH   3   4
ATOM      4  C   UNL     1     -16.320  -6.520  42.897  1.00  0.00     0.000 C 
BRANCH   4   5
ATOM      5  C   UNL     1     -15.858  -6.213  41.457  1.00  0.00     0.000 C 
BRANCH   5   6
ATOM      6  C   UNL     1     -17.004  -6.337  40.440  1.00  0.00     0.000 C 
BRANCH   6   7
ATOM      7  C   UNL     1     -16.769  -5.409  39.238  1.00  0.00     0.000 C 
BRANCH   7   8
ATOM      8  C   UNL     1     -15.303  -5.395  38.769  1.00  0.00     0.000 C 
BRANCH   8   9
ATOM      9  C   UNL     1     -15.002  -6.263  37.530  1.00  0.00     0.000 C 
BRANCH   9  10
ATOM     10  C   UNL     1     -13.594  -6.884  37.490  1.00  0.00     0.006 C 
BRANCH  10  11
ATOM     11  C   UNL     1     -12.923  -6.929  38.870  1.00  0.00     0.053 C 
BRANCH  11  12
ATOM     12  C   UNL     1     -11.757  -7.869  38.860  1.00  0.00     0.041 C 
ATOM     13  O   UNL     1     -11.084  -8.035  37.808  1.00  0.00    -0.550 OA
ATOM     14  O   UNL     1     -11.386  -8.532  40.024  1.00  0.00    -0.550 OA
ENDBRANCH  11  12
ENDBRANCH  10  11
ENDBRANCH   9  10
ENDBRANCH   8   9
ENDBRANCH   7   8
ENDBRANCH   6   7
ENDBRANCH   5   6
ENDBRANCH   4   5
ENDBRANCH   3   4
ENDBRANCH   2   3
ENDBRANCH   1   2
BRANCH   1  15
ATOM     15  C   UNL     1     -16.916  -7.738  47.067  1.00  0.00     0.000 C 
BRANCH  15  16
ATOM     16  C   UNL     1     -15.611  -7.509  47.852  1.00  0.00     0.000 C 
BRANCH  16  17
ATOM     17  C   UNL     1     -15.556  -8.308  49.166  1.00  0.00     0.000 C 
BRANCH  17  18
ATOM     18  C   UNL     1     -14.757  -9.617  49.037  1.00  0.00    -0.000 C 
BRANCH  18  19
ATOM     19  C   UNL     1     -15.529 -10.796  48.419  1.00  0.00    -0.000 C 
BRANCH  19  20
ATOM     20  C   UNL     1     -14.840 -11.380  47.176  1.00  0.00    -0.000 C 
BRANCH  20  21
ATOM     21  C   UNL     1     -15.537 -10.906  45.892  1.00  0.00    -0.000 C 
BRANCH  21  22
ATOM     22  C   UNL     1     -14.656  -9.967  45.052  1.00  0.00    -0.000 C 
BRANCH  22  23
ATOM     23  C   UNL     1     -13.273  -9.727  45.684  1.00  0.00    -0.000 C 
BRANCH  23  24
ATOM     24  C   UNL     1     -12.586  -8.464  45.120  1.00  0.00    -0.000 C 
BRANCH  24  25
ATOM     25  C   UNL     1     -12.480  -7.317  46.138  1.00  0.00    -0.003 C 
ATOM     26  C   UNL     1     -11.737  -7.718  47.412  1.00  0.00     0.004 C 
ENDBRANCH  24  25
ENDBRANCH  23  24
ENDBRANCH  22  23
ENDBRANCH  21  22
ENDBRANCH  20  21
ENDBRANCH  19  20
ENDBRANCH  18  19
ENDBRANCH  17  18
ENDBRANCH  16  17
ENDBRANCH  15  16
ENDBRANCH   1  15
TORSDOF 22
ENDMDL
MODEL 7
REMARK VINA RESULT:    -5.522      3.628      8.045
REMARK INTER + INTRA:         -15.106
REMARK INTER:                 -11.685
REMARK INTRA:                  -3.421
REMARK UNBOUND:                -2.482
REMARK SMILES CCCCCCCCCCCCCCCCCCCCCCCC(=O)[O-]
REMARK SMILES IDX 13 1 14 2 15 3 16 4 17 5 18 6 19 7 20 8 21 9 22 10 23 11
REMARK SMILES IDX 24 12 25 13 26 14 12 15 11 16 10 17 9 18 8 19 7 20 6 21 5 22
REMARK SMILES IDX 4 23 3 24 2 25 1 26
REMARK H PARENT
REMARK Flexibility Score: inf
ROOT
ATOM      1  C   UNL     1     -17.165  -8.090  43.392  1.00  0.00     0.000 C 
ENDROOT
BRANCH   1   2
ATOM      2  C   UNL     1     -16.041  -7.151  43.866  1.00  0.00     0.000 C 
BRANCH   2   3
ATOM      3  C   UNL     1     -16.490  -6.195  44.983  1.00  0.00     0.000 C 
BRANCH   3   4
ATOM      4  C   UNL     1     -16.210  -6.754  46.389  1.00  0.00     0.000 C 
BRANCH   4   5
ATOM      5  C   UNL     1     -17.264  -7.771  46.872  1.00  0.00     0.000 C 
BRANCH   5   6
ATOM      6  C   UNL     1     -16.626  -8.987  47.562  1.00  0.00     0.000 C 
BRANCH   6   7
ATOM      7  C   UNL     1     -16.842 -10.261  46.732  1.00  0.00     0.000 C 
BRANCH   7   8
ATOM      8  C   UNL     1     -15.523 -10.943  46.324  1.00  0.00     0.000 C 
BRANCH   8   9
ATOM      9  C   UNL     1     -14.735 -10.231  45.205  1.00  0.00     0.000 C 
BRANCH   9  10
ATOM     10  C   UNL     1     -13.271  -9.898  45.543  1.00  0.00     0.006 C 
BRANCH  10  11
ATOM     11  C   UNL     1     -13.086  -8.458  46.042  1.00  0.00     0.053 C 
BRANCH  11  12
ATOM     12  C   UNL     1     -13.008  -8.423  47.537  1.00  0.00     0.041 C 
ATOM     13  O   UNL     1     -12.807  -9.483  48.187  1.00  0.00    -0.550 OA
ATOM     14  O   UNL     1     -13.115  -7.212  48.212  1.00  0.00    -0.550 OA
ENDBRANCH  11  12
ENDBRANCH  10  11
ENDBRANCH   9  10
ENDBRANCH   8   9
ENDBRANCH   7   8
ENDBRANCH   6   7
ENDBRANCH   5   6
ENDBRANCH   4   5
ENDBRANCH   3   4
ENDBRANCH   2   3
ENDBRANCH   1   2
BRANCH   1  15
ATOM     15  C   UNL     1     -18.008  -7.570  42.209  1.00  0.00     0.000 C 
BRANCH  15  16
ATOM     16  C   UNL     1     -17.299  -6.565  41.283  1.00  0.00     0.000 C 
BRANCH  16  17
ATOM     17  C   UNL     1     -17.577  -6.827  39.792  1.00  0.00     0.000 C 
BRANCH  17  18
ATOM     18  C   UNL     1     -16.967  -5.752  38.873  1.00  0.00    -0.000 C 
BRANCH  18  19
ATOM     19  C   UNL     1     -15.838  -6.245  37.951  1.00  0.00    -0.000 C 
BRANCH  19  20
ATOM     20  C   UNL     1     -14.440  -5.845  38.447  1.00  0.00    -0.000 C 
BRANCH  20  21
ATOM     21  C   UNL     1     -14.515  -4.600  39.343  1.00  0.00    -0.000 C 
BRANCH  21  22
ATOM     22  C   UNL     1     -13.956  -4.851  40.753  1.00  0.00    -0.000 C 
BRANCH  22  23
ATOM     23  C   UNL     1     -13.660  -6.339  41.018  1.00  0.00    -0.000 C 
BRANCH  23  24
ATOM     24  C   UNL     1     -12.357  -6.539  41.823  1.00  0.00    -0.000 C 
BRANCH  24  25
ATOM     25  C   UNL     1     -11.264  -7.288  41.043  1.00  0.00    -0.003 C 
ATOM     26  C   UNL     1     -11.781  -7.922  39.752  1.00  0.00     0.004 C 
ENDBRANCH  24  25
ENDBRANCH  23  24
ENDBRANCH  22  23
ENDBRANCH  21  22
ENDBRANCH  20  21
ENDBRANCH  19  20
ENDBRANCH  18  19
ENDBRANCH  17  18
ENDBRANCH  16  17
ENDBRANCH  15  16
ENDBRANCH   1  15
TORSDOF 22
ENDMDL
MODEL 8
REMARK VINA RESULT:    -5.497      3.142      8.176
REMARK INTER + INTRA:         -15.049
REMARK INTER:                 -11.386
REMARK INTRA:                  -3.663
REMARK UNBOUND:                -2.482
REMARK SMILES CCCCCCCCCCCCCCCCCCCCCCCC(=O)[O-]
REMARK SMILES IDX 13 1 14 2 15 3 16 4 17 5 18 6 19 7 20 8 21 9 22 10 23 11
REMARK SMILES IDX 24 12 25 13 26 14 12 15 11 16 10 17 9 18 8 19 7 20 6 21 5 22
REMARK SMILES IDX 4 23 3 24 2 25 1 26
REMARK H PARENT
REMARK Flexibility Score: inf
ROOT
ATOM      1  C   UNL     1     -15.359  -6.334  43.973  1.00  0.00     0.000 C 
ENDROOT
BRANCH   1   2
ATOM      2  C   UNL     1     -14.086  -6.908  44.623  1.00  0.00     0.000 C 
BRANCH   2   3
ATOM      3  C   UNL     1     -14.027  -6.668  46.141  1.00  0.00     0.000 C 
BRANCH   3   4
ATOM      4  C   UNL     1     -15.391  -6.271  46.731  1.00  0.00     0.000 C 
BRANCH   4   5
ATOM      5  C   UNL     1     -15.650  -6.853  48.136  1.00  0.00     0.000 C 
BRANCH   5   6
ATOM      6  C   UNL     1     -16.337  -8.227  48.079  1.00  0.00     0.000 C 
BRANCH   6   7
ATOM      7  C   UNL     1     -17.136  -8.383  46.776  1.00  0.00     0.000 C 
BRANCH   7   8
ATOM      8  C   UNL     1     -17.348  -9.854  46.375  1.00  0.00     0.000 C 
BRANCH   8   9
ATOM      9  C   UNL     1     -16.613 -10.298  45.092  1.00  0.00     0.000 C 
BRANCH   9  10
ATOM     10  C   UNL     1     -15.081 -10.383  45.211  1.00  0.00     0.006 C 
BRANCH  10  11
ATOM     11  C   UNL     1     -14.619 -11.031  46.524  1.00  0.00     0.053 C 
BRANCH  11  12
ATOM     12  C   UNL     1     -13.393 -10.349  47.047  1.00  0.00     0.041 C 
ATOM     13  O   UNL     1     -13.308 -10.044  48.267  1.00  0.00    -0.550 OA
ATOM     14  O   UNL     1     -12.324 -10.087  46.198  1.00  0.00    -0.550 OA
ENDBRANCH  11  12
ENDBRANCH  10  11
ENDBRANCH   9  10
ENDBRANCH   8   9
ENDBRANCH   7   8
ENDBRANCH   6   7
ENDBRANCH   5   6
ENDBRANCH   4   5
ENDBRANCH   3   4
ENDBRANCH   2   3
ENDBRANCH   1   2
BRANCH   1  15
ATOM     15  C   UNL     1     -16.227  -7.353  43.205  1.00  0.00     0.000 C 
BRANCH  15  16
ATOM     16  C   UNL     1     -17.728  -7.021  43.134  1.00  0.00     0.000 C 
BRANCH  16  17
ATOM     17  C   UNL     1     -18.094  -6.164  41.910  1.00  0.00     0.000 C 
BRANCH  17  18
ATOM     18  C   UNL     1     -17.739  -6.845  40.576  1.00  0.00    -0.000 C 
BRANCH  18  19
ATOM     19  C   UNL     1     -17.299  -5.891  39.451  1.00  0.00    -0.000 C 
BRANCH  19  20
ATOM     20  C   UNL     1     -16.175  -6.469  38.580  1.00  0.00    -0.000 C 
BRANCH  20  21
ATOM     21  C   UNL     1     -15.069  -5.428  38.353  1.00  0.00    -0.000 C 
BRANCH  21  22
ATOM     22  C   UNL     1     -14.692  -4.674  39.639  1.00  0.00    -0.000 C 
BRANCH  22  23
ATOM     23  C   UNL     1     -13.269  -5.004  40.125  1.00  0.00    -0.000 C 
BRANCH  23  24
ATOM     24  C   UNL     1     -13.237  -6.261  41.022  1.00  0.00    -0.000 C 
BRANCH  24  25
ATOM     25  C   UNL     1     -12.126  -7.256  40.645  1.00  0.00    -0.003 C 
ATOM     26  C   UNL     1     -12.052  -7.524  39.142  1.00  0.00     0.004 C 
ENDBRANCH  24  25
ENDBRANCH  23  24
ENDBRANCH  22  23
ENDBRANCH  21  22
ENDBRANCH  20  21
ENDBRANCH  19  20
ENDBRANCH  18  19
ENDBRANCH  17  18
ENDBRANCH  16  17
ENDBRANCH  15  16
ENDBRANCH   1  15
TORSDOF 22
ENDMDL
MODEL 9
REMARK VINA RESULT:    -5.466      1.649      3.004
REMARK INTER + INTRA:         -14.977
REMARK INTER:                 -11.894
REMARK INTRA:                  -3.083
REMARK UNBOUND:                -2.482
REMARK SMILES CCCCCCCCCCCCCCCCCCCCCCCC(=O)[O-]
REMARK SMILES IDX 13 1 14 2 15 3 16 4 17 5 18 6 19 7 20 8 21 9 22 10 23 11
REMARK SMILES IDX 24 12 25 13 26 14 12 15 11 16 10 17 9 18 8 19 7 20 6 21 5 22
REMARK SMILES IDX 4 23 3 24 2 25 1 26
REMARK H PARENT
REMARK Flexibility Score: inf
ROOT
ATOM      1  C   UNL     1     -17.705  -7.734  43.718  1.00  0.00     0.000 C 
ENDROOT
BRANCH   1   2
ATOM      2  C   UNL     1     -17.919  -6.547  42.760  1.00  0.00     0.000 C 
BRANCH   2   3
ATOM      3  C   UNL     1     -17.129  -6.686  41.449  1.00  0.00     0.000 C 
BRANCH   3   4
ATOM      4  C   UNL     1     -18.027  -7.034  40.249  1.00  0.00     0.000 C 
BRANCH   4   5
ATOM      5  C   UNL     1     -17.303  -6.953  38.890  1.00  0.00     0.000 C 
BRANCH   5   6
ATOM      6  C   UNL     1     -16.257  -5.828  38.854  1.00  0.00     0.000 C 
BRANCH   6   7
ATOM      7  C   UNL     1     -15.286  -6.023  37.679  1.00  0.00     0.000 C 
BRANCH   7   8
ATOM      8  C   UNL     1     -13.918  -6.576  38.116  1.00  0.00     0.000 C 
BRANCH   8   9
ATOM      9  C   UNL     1     -13.565  -6.353  39.601  1.00  0.00     0.000 C 
BRANCH   9  10
ATOM     10  C   UNL     1     -12.201  -6.915  40.042  1.00  0.00     0.006 C 
BRANCH  10  11
ATOM     11  C   UNL     1     -11.701  -8.048  39.135  1.00  0.00     0.053 C 
BRANCH  11  12
ATOM     12  C   UNL     1     -10.293  -7.790  38.695  1.00  0.00     0.041 C 
ATOM     13  O   UNL     1      -9.816  -8.401  37.701  1.00  0.00    -0.550 OA
ATOM     14  O   UNL     1      -9.517  -6.844  39.356  1.00  0.00    -0.550 OA
ENDBRANCH  11  12
ENDBRANCH  10  11
ENDBRANCH   9  10
ENDBRANCH   8   9
ENDBRANCH   7   8
ENDBRANCH   6   7
ENDBRANCH   5   6
ENDBRANCH   4   5
ENDBRANCH   3   4
ENDBRANCH   2   3
ENDBRANCH   1   2
BRANCH   1  15
ATOM     15  C   UNL     1     -17.869  -9.132  43.087  1.00  0.00     0.000 C 
BRANCH  15  16
ATOM     16  C   UNL     1     -17.065 -10.260  43.760  1.00  0.00     0.000 C 
BRANCH  16  17
ATOM     17  C   UNL     1     -16.549  -9.875  45.157  1.00  0.00     0.000 C 
BRANCH  17  18
ATOM     18  C   UNL     1     -15.218 -10.563  45.512  1.00  0.00    -0.000 C 
BRANCH  18  19
ATOM     19  C   UNL     1     -14.519 -10.023  46.773  1.00  0.00    -0.000 C 
BRANCH  19  20
ATOM     20  C   UNL     1     -13.126  -9.443  46.485  1.00  0.00    -0.000 C 
BRANCH  20  21
ATOM     21  C   UNL     1     -12.893  -9.310  44.973  1.00  0.00    -0.000 C 
BRANCH  21  22
ATOM     22  C   UNL     1     -12.779  -7.846  44.517  1.00  0.00    -0.000 C 
BRANCH  22  23
ATOM     23  C   UNL     1     -14.151  -7.176  44.324  1.00  0.00    -0.000 C 
BRANCH  23  24
ATOM     24  C   UNL     1     -14.442  -6.120  45.413  1.00  0.00    -0.000 C 
BRANCH  24  25
ATOM     25  C   UNL     1     -15.725  -6.402  46.214  1.00  0.00    -0.003 C 
ATOM     26  C   UNL     1     -15.488  -6.440  47.723  1.00  0.00     0.004 C 
ENDBRANCH  24  25
ENDBRANCH  23  24
ENDBRANCH  22  23
ENDBRANCH  21  22
ENDBRANCH  20  21
ENDBRANCH  19  20
ENDBRANCH  18  19
ENDBRANCH  17  18
ENDBRANCH  16  17
ENDBRANCH  15  16
ENDBRANCH   1  15
TORSDOF 22
ENDMDL
