MODEL 1
REMARK VINA RESULT:    -5.806      0.000      0.000
REMARK INTER + INTRA:          -6.145
REMARK INTER:                  -6.145
REMARK INTRA:                   0.000
REMARK UNBOUND:                 0.000
REMARK SMILES O=c1ccc2cc(O)c(O)cc2o1
REMARK SMILES IDX 4 1 3 2 2 3 1 4 13 5 12 6 11 7 9 8 7 9 6 10 5 11 8 12 10 14
REMARK H PARENT 8 13 10 15
REMARK Flexibility Score: inf
ROOT
ATOM      1  C   UNL     1       4.490  -7.346   7.000  1.00  0.00     0.019 A 
ATOM      2  C   UNL     1       4.175  -8.178   5.926  1.00  0.00     0.094 A 
ATOM      3  C   UNL     1       2.838  -8.523   5.705  1.00  0.00     0.336 A 
ATOM      4  O   UNL     1       2.534  -9.273   4.741  1.00  0.00    -0.246 OA
ATOM      5  O   UNL     1       1.883  -8.064   6.509  1.00  0.00    -0.423 OA
ATOM      6  C   UNL     1       2.140  -7.269   7.545  1.00  0.00     0.142 A 
ATOM      7  C   UNL     1       1.097  -6.817   8.357  1.00  0.00     0.098 A 
ATOM      8  C   UNL     1       1.352  -5.979   9.450  1.00  0.00     0.161 A 
ATOM      9  C   UNL     1       2.684  -5.588   9.735  1.00  0.00     0.158 A 
ATOM     10  C   UNL     1       3.728  -6.042   8.920  1.00  0.00     0.062 A 
ATOM     11  C   UNL     1       3.465  -6.879   7.829  1.00  0.00     0.022 A 
ENDROOT
BRANCH   9  12
ATOM     12  O   UNL     1       3.009  -4.755  10.809  1.00  0.00    -0.504 OA
ATOM     13  H   UNL     1       3.076  -3.750  10.745  1.00  0.00     0.293 HD
ENDBRANCH   9  12
BRANCH   8  14
ATOM     14  O   UNL     1       0.263  -5.565  10.219  1.00  0.00    -0.504 OA
ATOM     15  H   UNL     1       0.134  -5.805  11.192  1.00  0.00     0.293 HD
ENDBRANCH   8  14
TORSDOF 2
ENDMDL
MODEL 2
REMARK VINA RESULT:    -5.473      1.262      4.505
REMARK INTER + INTRA:          -5.793
REMARK INTER:                  -5.793
REMARK INTRA:                   0.000
REMARK UNBOUND:                 0.000
REMARK SMILES O=c1ccc2cc(O)c(O)cc2o1
REMARK SMILES IDX 4 1 3 2 2 3 1 4 13 5 12 6 11 7 9 8 7 9 6 10 5 11 8 12 10 14
REMARK H PARENT 8 13 10 15
REMARK Flexibility Score: inf
ROOT
ATOM      1  C   UNL     1       3.228  -5.296   9.518  1.00  0.00     0.019 A 
ATOM      2  C   UNL     1       2.173  -4.823  10.297  1.00  0.00     0.094 A 
ATOM      3  C   UNL     1       0.899  -5.374  10.119  1.00  0.00     0.336 A 
ATOM      4  O   UNL     1      -0.067  -4.960  10.812  1.00  0.00    -0.246 OA
ATOM      5  O   UNL     1       0.701  -6.335   9.220  1.00  0.00    -0.423 OA
ATOM      6  C   UNL     1       1.680  -6.814   8.457  1.00  0.00     0.142 A 
ATOM      7  C   UNL     1       1.414  -7.824   7.529  1.00  0.00     0.098 A 
ATOM      8  C   UNL     1       2.434  -8.339   6.719  1.00  0.00     0.161 A 
ATOM      9  C   UNL     1       3.751  -7.829   6.844  1.00  0.00     0.158 A 
ATOM     10  C   UNL     1       4.015  -6.817   7.775  1.00  0.00     0.062 A 
ATOM     11  C   UNL     1       2.990  -6.308   8.581  1.00  0.00     0.022 A 
ENDROOT
BRANCH   9  12
ATOM     12  O   UNL     1       4.815  -8.296   6.069  1.00  0.00    -0.504 OA
ATOM     13  H   UNL     1       4.706  -8.875   5.249  1.00  0.00     0.293 HD
ENDBRANCH   9  12
BRANCH   8  14
ATOM     14  O   UNL     1       2.098  -9.347   5.813  1.00  0.00    -0.504 OA
ATOM     15  H   UNL     1       2.746  -9.747   5.149  1.00  0.00     0.293 HD
ENDBRANCH   8  14
TORSDOF 2
ENDMDL
MODEL 3
REMARK VINA RESULT:    -5.404      1.327      4.995
REMARK INTER + INTRA:          -5.720
REMARK INTER:                  -5.720
REMARK INTRA:                   0.000
REMARK UNBOUND:                 0.000
REMARK SMILES O=c1ccc2cc(O)c(O)cc2o1
REMARK SMILES IDX 4 1 3 2 2 3 1 4 13 5 12 6 11 7 9 8 7 9 6 10 5 11 8 12 10 14
REMARK H PARENT 8 13 10 15
REMARK Flexibility Score: inf
ROOT
ATOM      1  C   UNL     1       0.788  -6.291   9.005  1.00  0.00     0.019 A 
ATOM      2  C   UNL     1       1.048  -5.152   9.766  1.00  0.00     0.094 A 
ATOM      3  C   UNL     1       2.333  -4.599   9.743  1.00  0.00     0.336 A 
ATOM      4  O   UNL     1       2.588  -3.571  10.423  1.00  0.00    -0.246 OA
ATOM      5  O   UNL     1       3.291  -5.155   9.005  1.00  0.00    -0.423 OA
ATOM      6  C   UNL     1       3.085  -6.241   8.265  1.00  0.00     0.142 A 
ATOM      7  C   UNL     1       4.129  -6.781   7.509  1.00  0.00     0.098 A 
ATOM      8  C   UNL     1       3.928  -7.925   6.725  1.00  0.00     0.161 A 
ATOM      9  C   UNL     1       2.651  -8.539   6.700  1.00  0.00     0.158 A 
ATOM     10  C   UNL     1       1.606  -7.996   7.458  1.00  0.00     0.062 A 
ATOM     11  C   UNL     1       1.815  -6.853   8.239  1.00  0.00     0.022 A 
ENDROOT
BRANCH   9  12
ATOM     12  O   UNL     1       2.380  -9.680   5.941  1.00  0.00    -0.504 OA
ATOM     13  H   UNL     1       1.505 -10.183   5.967  1.00  0.00     0.293 HD
ENDBRANCH   9  12
BRANCH   8  14
ATOM     14  O   UNL     1       5.014  -8.411   5.995  1.00  0.00    -0.504 OA
ATOM     15  H   UNL     1       5.019  -9.301   5.516  1.00  0.00     0.293 HD
ENDBRANCH   8  14
TORSDOF 2
ENDMDL
MODEL 4
REMARK VINA RESULT:    -5.344      2.498      6.184
REMARK INTER + INTRA:          -5.656
REMARK INTER:                  -5.656
REMARK INTRA:                   0.000
REMARK UNBOUND:                 0.000
REMARK SMILES O=c1ccc2cc(O)c(O)cc2o1
REMARK SMILES IDX 4 1 3 2 2 3 1 4 13 5 12 6 11 7 9 8 7 9 6 10 5 11 8 12 10 14
REMARK H PARENT 8 13 10 15
REMARK Flexibility Score: inf
ROOT
ATOM      1  C   UNL     1       1.728  -9.128   6.708  1.00  0.00     0.019 A 
ATOM      2  C   UNL     1       2.311  -8.148   7.511  1.00  0.00     0.094 A 
ATOM      3  C   UNL     1       3.476  -7.512   7.067  1.00  0.00     0.336 A 
ATOM      4  O   UNL     1       4.017  -6.625   7.777  1.00  0.00    -0.246 OA
ATOM      5  O   UNL     1       4.017  -7.841   5.897  1.00  0.00    -0.423 OA
ATOM      6  C   UNL     1       3.493  -8.771   5.102  1.00  0.00     0.142 A 
ATOM      7  C   UNL     1       4.105  -9.075   3.883  1.00  0.00     0.098 A 
ATOM      8  C   UNL     1       3.565 -10.050   3.035  1.00  0.00     0.161 A 
ATOM      9  C   UNL     1       2.386 -10.736   3.419  1.00  0.00     0.158 A 
ATOM     10  C   UNL     1       1.774 -10.429   4.641  1.00  0.00     0.062 A 
ATOM     11  C   UNL     1       2.320  -9.452   5.483  1.00  0.00     0.022 A 
ENDROOT
BRANCH   9  12
ATOM     12  O   UNL     1       1.794 -11.719   2.623  1.00  0.00    -0.504 OA
ATOM     13  H   UNL     1       1.145 -12.411   2.968  1.00  0.00     0.293 HD
ENDBRANCH   9  12
BRANCH   8  14
ATOM     14  O   UNL     1       4.228 -10.305   1.833  1.00  0.00    -0.504 OA
ATOM     15  H   UNL     1       3.887 -10.012   0.927  1.00  0.00     0.293 HD
ENDBRANCH   8  14
TORSDOF 2
ENDMDL
MODEL 5
REMARK VINA RESULT:    -5.075      1.325      2.406
REMARK INTER + INTRA:          -5.372
REMARK INTER:                  -5.372
REMARK INTRA:                   0.000
REMARK UNBOUND:                 0.000
REMARK SMILES O=c1ccc2cc(O)c(O)cc2o1
REMARK SMILES IDX 4 1 3 2 2 3 1 4 13 5 12 6 11 7 9 8 7 9 6 10 5 11 8 12 10 14
REMARK H PARENT 8 13 10 15
REMARK Flexibility Score: inf
ROOT
ATOM      1  C   UNL     1       1.480  -7.985   7.470  1.00  0.00     0.019 A 
ATOM      2  C   UNL     1       2.468  -8.508   6.637  1.00  0.00     0.094 A 
ATOM      3  C   UNL     1       3.730  -7.905   6.620  1.00  0.00     0.336 A 
ATOM      4  O   UNL     1       4.635  -8.362   5.874  1.00  0.00    -0.246 OA
ATOM      5  O   UNL     1       3.980  -6.848   7.388  1.00  0.00    -0.423 OA
ATOM      6  C   UNL     1       3.066  -6.318   8.196  1.00  0.00     0.142 A 
ATOM      7  C   UNL     1       3.386  -5.207   8.981  1.00  0.00     0.098 A 
ATOM      8  C   UNL     1       2.435  -4.638   9.838  1.00  0.00     0.161 A 
ATOM      9  C   UNL     1       1.134  -5.196   9.907  1.00  0.00     0.158 A 
ATOM     10  C   UNL     1       0.816  -6.310   9.120  1.00  0.00     0.062 A 
ATOM     11  C   UNL     1       1.773  -6.873   8.267  1.00  0.00     0.022 A 
ENDROOT
BRANCH   9  12
ATOM     12  O   UNL     1       0.137  -4.680  10.738  1.00  0.00    -0.504 OA
ATOM     13  H   UNL     1       0.136  -3.739  11.103  1.00  0.00     0.293 HD
ENDBRANCH   9  12
BRANCH   8  14
ATOM     14  O   UNL     1       2.821  -3.529  10.593  1.00  0.00    -0.504 OA
ATOM     15  H   UNL     1       2.925  -2.597  10.215  1.00  0.00     0.293 HD
ENDBRANCH   8  14
TORSDOF 2
ENDMDL
MODEL 6
REMARK VINA RESULT:    -4.817      2.164      3.868
REMARK INTER + INTRA:          -5.099
REMARK INTER:                  -5.099
REMARK INTRA:                   0.000
REMARK UNBOUND:                 0.000
REMARK SMILES O=c1ccc2cc(O)c(O)cc2o1
REMARK SMILES IDX 4 1 3 2 2 3 1 4 13 5 12 6 11 7 9 8 7 9 6 10 5 11 8 12 10 14
REMARK H PARENT 8 13 10 15
REMARK Flexibility Score: inf
ROOT
ATOM      1  C   UNL     1       1.254 -10.209   5.452  1.00  0.00     0.019 A 
ATOM      2  C   UNL     1       1.465 -10.879   4.248  1.00  0.00     0.094 A 
ATOM      3  C   UNL     1       2.633 -10.618   3.522  1.00  0.00     0.336 A 
ATOM      4  O   UNL     1       2.842 -11.213   2.433  1.00  0.00    -0.246 OA
ATOM      5  O   UNL     1       3.526  -9.743   3.978  1.00  0.00    -0.423 OA
ATOM      6  C   UNL     1       3.362  -9.082   5.121  1.00  0.00     0.142 A 
ATOM      7  C   UNL     1       4.334  -8.174   5.550  1.00  0.00     0.098 A 
ATOM      8  C   UNL     1       4.176  -7.471   6.751  1.00  0.00     0.161 A 
ATOM      9  C   UNL     1       3.017  -7.684   7.539  1.00  0.00     0.158 A 
ATOM     10  C   UNL     1       2.045  -8.596   7.107  1.00  0.00     0.062 A 
ATOM     11  C   UNL     1       2.210  -9.294   5.905  1.00  0.00     0.022 A 
ENDROOT
BRANCH   9  12
ATOM     12  O   UNL     1       2.795  -7.018   8.747  1.00  0.00    -0.504 OA
ATOM     13  H   UNL     1       3.033  -7.395   9.652  1.00  0.00     0.293 HD
ENDBRANCH   9  12
BRANCH   8  14
ATOM     14  O   UNL     1       5.185  -6.580   7.120  1.00  0.00    -0.504 OA
ATOM     15  H   UNL     1       6.124  -6.605   6.748  1.00  0.00     0.293 HD
ENDBRANCH   8  14
TORSDOF 2
ENDMDL
MODEL 7
REMARK VINA RESULT:    -4.735      8.343      9.732
REMARK INTER + INTRA:          -5.012
REMARK INTER:                  -5.012
REMARK INTRA:                   0.000
REMARK UNBOUND:                 0.000
REMARK SMILES O=c1ccc2cc(O)c(O)cc2o1
REMARK SMILES IDX 4 1 3 2 2 3 1 4 13 5 12 6 11 7 9 8 7 9 6 10 5 11 8 12 10 14
REMARK H PARENT 8 13 10 15
REMARK Flexibility Score: inf
ROOT
ATOM      1  C   UNL     1       1.407   0.757   8.547  1.00  0.00     0.019 A 
ATOM      2  C   UNL     1       2.383   1.721   8.300  1.00  0.00     0.094 A 
ATOM      3  C   UNL     1       2.310   2.948   8.968  1.00  0.00     0.336 A 
ATOM      4  O   UNL     1       3.182   3.831   8.758  1.00  0.00    -0.246 OA
ATOM      5  O   UNL     1       1.322   3.188   9.826  1.00  0.00    -0.423 OA
ATOM      6  C   UNL     1       0.371   2.296  10.090  1.00  0.00     0.142 A 
ATOM      7  C   UNL     1      -0.643   2.604  11.001  1.00  0.00     0.098 A 
ATOM      8  C   UNL     1      -1.651   1.675  11.290  1.00  0.00     0.161 A 
ATOM      9  C   UNL     1      -1.642   0.411  10.650  1.00  0.00     0.158 A 
ATOM     10  C   UNL     1      -0.624   0.105   9.738  1.00  0.00     0.062 A 
ATOM     11  C   UNL     1       0.380   1.038   9.455  1.00  0.00     0.022 A 
ENDROOT
BRANCH   9  12
ATOM     12  O   UNL     1      -2.615  -0.562  10.891  1.00  0.00    -0.504 OA
ATOM     13  H   UNL     1      -2.430  -1.554  10.913  1.00  0.00     0.293 HD
ENDBRANCH   9  12
BRANCH   8  14
ATOM     14  O   UNL     1      -2.634   2.047  12.210  1.00  0.00    -0.504 OA
ATOM     15  H   UNL     1      -2.476   2.685  12.977  1.00  0.00     0.293 HD
ENDBRANCH   8  14
TORSDOF 2
ENDMDL
MODEL 8
REMARK VINA RESULT:    -4.630      8.899     10.977
REMARK INTER + INTRA:          -4.901
REMARK INTER:                  -4.901
REMARK INTRA:                   0.000
REMARK UNBOUND:                 0.000
REMARK SMILES O=c1ccc2cc(O)c(O)cc2o1
REMARK SMILES IDX 4 1 3 2 2 3 1 4 13 5 12 6 11 7 9 8 7 9 6 10 5 11 8 12 10 14
REMARK H PARENT 8 13 10 15
REMARK Flexibility Score: inf
ROOT
ATOM      1  C   UNL     1       0.176   4.984  10.146  1.00  0.00     0.019 A 
ATOM      2  C   UNL     1       1.491   5.250   9.766  1.00  0.00     0.094 A 
ATOM      3  C   UNL     1       2.327   4.184   9.418  1.00  0.00     0.336 A 
ATOM      4  O   UNL     1       3.516   4.404   9.072  1.00  0.00    -0.246 OA
ATOM      5  O   UNL     1       1.870   2.934   9.451  1.00  0.00    -0.423 OA
ATOM      6  C   UNL     1       0.624   2.636   9.808  1.00  0.00     0.142 A 
ATOM      7  C   UNL     1       0.200   1.305   9.825  1.00  0.00     0.098 A 
ATOM      8  C   UNL     1      -1.110   0.975  10.198  1.00  0.00     0.161 A 
ATOM      9  C   UNL     1      -2.013   2.005  10.564  1.00  0.00     0.158 A 
ATOM     10  C   UNL     1      -1.585   3.339  10.546  1.00  0.00     0.062 A 
ATOM     11  C   UNL     1      -0.275   3.660  10.171  1.00  0.00     0.022 A 
ENDROOT
BRANCH   9  12
ATOM     12  O   UNL     1      -3.331   1.748  10.946  1.00  0.00    -0.504 OA
ATOM     13  H   UNL     1      -4.132   2.243  10.582  1.00  0.00     0.293 HD
ENDBRANCH   9  12
BRANCH   8  14
ATOM     14  O   UNL     1      -1.467  -0.374  10.192  1.00  0.00    -0.504 OA
ATOM     15  H   UNL     1      -1.173  -1.039  10.894  1.00  0.00     0.293 HD
ENDBRANCH   8  14
TORSDOF 2
ENDMDL
