MODEL 1
REMARK VINA RESULT:   106.829      0.000      0.000
REMARK INTER + INTRA:         115.979
REMARK INTER:                 116.197
REMARK INTRA:                  -0.217
REMARK UNBOUND:                -0.217
REMARK SMILES C[C@@H]1[C@H]2C3=CC[C@H]4[C@]5(C)CC[C@@H](O)C(C)(C)[C@@H]5CC[C@@]4(C)[C@@]3(C)CC[C@@]2(C(=O)[O-])CC[C@@H]1C
REMARK SMILES IDX 26 1 30 2 25 3 3 4 31 5 24 6 4 7 2 8 32 9 22 10 5 11 1 12
REMARK SMILES IDX 33 13 23 14 20 15 6 16 7 17 19 18 21 19 8 20 18 21 17 22
REMARK SMILES IDX 10 23 9 24 14 25 11 26 12 27 15 28 16 29 27 30 28 31 29 32
REMARK SMILES IDX 13 33
REMARK H PARENT 13 34
REMARK Flexibility Score: inf
ROOT
ATOM      1  C   UNL     1       3.650  -7.960 -16.232  1.00  0.00     0.017 C 
ATOM      2  C   UNL     1       4.104  -6.742 -15.375  1.00  0.00     0.014 C 
ATOM      3  C   UNL     1       2.193  -7.683 -16.755  1.00  0.00     0.014 C 
ATOM      4  C   UNL     1       3.797  -9.321 -15.407  1.00  0.00     0.030 C 
ATOM      5  C   UNL     1       3.397  -6.634 -14.017  1.00  0.00     0.004 C 
ATOM      6  C   UNL     1       1.104  -8.539 -16.120  1.00  0.00     0.013 C 
ATOM      7  C   UNL     1       2.683 -10.372 -15.604  1.00  0.00    -0.063 C 
ATOM      8  C   UNL     1       4.096  -9.133 -13.868  1.00  0.00    -0.003 C 
ATOM      9  C   UNL     1       3.279  -7.971 -13.245  1.00  0.00    -0.011 C 
ATOM     10  C   UNL     1       1.354 -10.073 -16.277  1.00  0.00    -0.006 C 
ATOM     11  C   UNL     1       2.976 -11.636 -15.262  1.00  0.00    -0.027 C 
ATOM     12  C   UNL     1       5.609  -9.054 -13.551  1.00  0.00     0.008 C 
ATOM     13  C   UNL     1       3.566  -7.777 -11.747  1.00  0.00     0.008 C 
ATOM     14  C   UNL     1       1.541 -10.422 -17.788  1.00  0.00     0.017 C 
ATOM     15  C   UNL     1       0.152 -10.949 -15.641  1.00  0.00    -0.020 C 
ATOM     16  C   UNL     1       1.981 -12.742 -15.138  1.00  0.00     0.032 C 
ATOM     17  C   UNL     1       0.510 -12.497 -15.624  1.00  0.00     0.006 C 
ATOM     18  C   UNL     1      -0.102 -10.531 -14.166  1.00  0.00     0.008 C 
ATOM     19  C   UNL     1      -1.138 -10.694 -16.500  1.00  0.00     0.012 C 
ATOM     20  C   UNL     1      -0.498 -13.477 -14.830  1.00  0.00    -0.025 C 
ATOM     21  C   UNL     1      -1.107 -11.409 -13.408  1.00  0.00     0.005 C 
ATOM     22  C   UNL     1      -0.767 -12.930 -13.368  1.00  0.00     0.003 C 
ATOM     23  C   UNL     1      -1.865 -13.656 -15.568  1.00  0.00     0.010 C 
ATOM     24  C   UNL     1       0.177 -14.895 -14.814  1.00  0.00     0.012 C 
ATOM     25  C   UNL     1      -1.863 -13.750 -12.544  1.00  0.00    -0.006 C 
ATOM     26  C   UNL     1      -2.898 -14.500 -14.798  1.00  0.00     0.033 C 
ATOM     27  C   UNL     1      -3.163 -13.942 -13.389  1.00  0.00     0.120 C 
ATOM     28  C   UNL     1      -2.255 -12.995 -11.239  1.00  0.00     0.014 C 
ATOM     29  C   UNL     1      -1.305 -15.125 -12.068  1.00  0.00     0.014 C 
ENDROOT
BRANCH   1  30
ATOM     30  C   UNL     1       4.620  -7.974 -17.423  1.00  0.00     0.048 C 
ATOM     31  O   UNL     1       4.207  -8.132 -18.603  1.00  0.00    -0.550 OA
ATOM     32  O   UNL     1       5.962  -7.653 -17.239  1.00  0.00    -0.550 OA
ENDBRANCH   1  30
BRANCH  27  33
ATOM     33  O   UNL     1      -4.057 -14.793 -12.712  1.00  0.00    -0.393 OA
ATOM     34  H   UNL     1      -4.784 -15.018 -13.349  1.00  0.00     0.210 HD
ENDBRANCH  27  33
TORSDOF 2
ENDMDL
