MODEL 1
REMARK VINA RESULT:    -8.434      0.000      0.000
REMARK INTER + INTRA:         -10.401
REMARK INTER:                 -10.160
REMARK INTRA:                  -0.242
REMARK UNBOUND:                -0.242
REMARK SMILES O=c1c(O)c(-c2ccc(O)c(O)c2)oc2cc(O)cc(O)c12
REMARK SMILES IDX 5 1 3 2 2 3 1 4 22 5 20 6 19 7 17 8 16 9 15 10 14 11 6 12
REMARK SMILES IDX 7 13 8 14 9 15 13 16 11 17 10 18 12 20 4 22 21 24 18 26
REMARK H PARENT 10 19 12 21 4 23 21 25 18 27
REMARK Flexibility Score: inf
ROOT
ATOM      1  C   UNL     1      17.109  25.569   0.121  1.00  0.00     0.180 A 
ATOM      2  C   UNL     1      18.370  25.546  -0.499  1.00  0.00     0.208 A 
ATOM      3  C   UNL     1      19.134  26.724  -0.534  1.00  0.00     0.238 A 
ATOM      4  O   UNL     1      20.228  26.714  -1.156  1.00  0.00    -0.285 OA
ATOM      5  C   UNL     1      18.653  27.895   0.100  1.00  0.00     0.111 A 
ATOM      6  C   UNL     1      19.362  29.133   0.166  1.00  0.00     0.134 A 
ATOM      7  C   UNL     1      18.741  30.256   0.728  1.00  0.00     0.093 A 
ATOM      8  C   UNL     1      17.462  30.169   1.283  1.00  0.00     0.123 A 
ATOM      9  C   UNL     1      16.785  28.953   1.272  1.00  0.00     0.094 A 
ATOM     10  C   UNL     1      17.361  27.825   0.685  1.00  0.00     0.146 A 
ATOM     11  O   UNL     1      16.670  26.691   0.679  1.00  0.00    -0.452 OA
ENDROOT
BRANCH   1  12
ATOM     12  C   UNL     1      16.240  24.372   0.185  1.00  0.00     0.025 A 
ATOM     13  C   UNL     1      16.561  23.334   1.070  1.00  0.00     0.016 A 
ATOM     14  C   UNL     1      15.745  22.205   1.161  1.00  0.00     0.051 A 
ATOM     15  C   UNL     1      14.586  22.097   0.385  1.00  0.00     0.157 A 
ATOM     16  C   UNL     1      15.065  24.278  -0.580  1.00  0.00     0.062 A 
ATOM     17  C   UNL     1      14.237  23.151  -0.493  1.00  0.00     0.158 A 
BRANCH  15  18
ATOM     18  O   UNL     1      13.816  20.940   0.518  1.00  0.00    -0.504 OA
ATOM     19  H   UNL     1      14.058  20.166   1.119  1.00  0.00     0.293 HD
ENDBRANCH  15  18
BRANCH  17  20
ATOM     20  O   UNL     1      13.086  23.125  -1.283  1.00  0.00    -0.504 OA
ATOM     21  H   UNL     1      12.200  22.749  -0.978  1.00  0.00     0.293 HD
ENDBRANCH  17  20
ENDBRANCH   1  12
BRANCH   2  22
ATOM     22  O   UNL     1      18.861  24.359  -1.052  1.00  0.00    -0.502 OA
ATOM     23  H   UNL     1      19.843  24.116  -1.033  1.00  0.00     0.293 HD
ENDBRANCH   2  22
BRANCH   6  24
ATOM     24  O   UNL     1      20.677  29.306  -0.278  1.00  0.00    -0.507 OA
ATOM     25  H   UNL     1      21.501  29.151   0.280  1.00  0.00     0.293 HD
ENDBRANCH   6  24
BRANCH   8  26
ATOM     26  O   UNL     1      16.860  31.288   1.855  1.00  0.00    -0.508 OA
ATOM     27  H   UNL     1      17.323  31.830   2.573  1.00  0.00     0.293 HD
ENDBRANCH   8  26
TORSDOF 6
ENDMDL
MODEL 2
REMARK VINA RESULT:    -8.274      1.615      7.215
REMARK INTER + INTRA:         -10.208
REMARK INTER:                 -10.078
REMARK INTRA:                  -0.130
REMARK UNBOUND:                -0.242
REMARK SMILES O=c1c(O)c(-c2ccc(O)c(O)c2)oc2cc(O)cc(O)c12
REMARK SMILES IDX 5 1 3 2 2 3 1 4 22 5 20 6 19 7 17 8 16 9 15 10 14 11 6 12
REMARK SMILES IDX 7 13 8 14 9 15 13 16 11 17 10 18 12 20 4 22 21 24 18 26
REMARK H PARENT 10 19 12 21 4 23 21 25 18 27
REMARK Flexibility Score: inf
ROOT
ATOM      1  C   UNL     1      17.131  26.168   0.550  1.00  0.00     0.180 A 
ATOM      2  C   UNL     1      15.730  26.221   0.454  1.00  0.00     0.208 A 
ATOM      3  C   UNL     1      15.006  25.019   0.394  1.00  0.00     0.238 A 
ATOM      4  O   UNL     1      13.759  25.074   0.232  1.00  0.00    -0.285 OA
ATOM      5  C   UNL     1      15.687  23.780   0.488  1.00  0.00     0.111 A 
ATOM      6  C   UNL     1      15.051  22.501   0.483  1.00  0.00     0.134 A 
ATOM      7  C   UNL     1      15.834  21.341   0.474  1.00  0.00     0.093 A 
ATOM      8  C   UNL     1      17.228  21.412   0.533  1.00  0.00     0.123 A 
ATOM      9  C   UNL     1      17.855  22.654   0.593  1.00  0.00     0.094 A 
ATOM     10  C   UNL     1      17.103  23.830   0.565  1.00  0.00     0.146 A 
ATOM     11  O   UNL     1      17.744  24.992   0.603  1.00  0.00    -0.452 OA
ENDROOT
BRANCH   1  12
ATOM     12  C   UNL     1      17.964  27.391   0.603  1.00  0.00     0.025 A 
ATOM     13  C   UNL     1      17.831  28.270   1.686  1.00  0.00     0.016 A 
ATOM     14  C   UNL     1      18.620  29.419   1.766  1.00  0.00     0.051 A 
ATOM     15  C   UNL     1      19.566  29.706   0.777  1.00  0.00     0.157 A 
ATOM     16  C   UNL     1      18.930  27.664  -0.382  1.00  0.00     0.062 A 
ATOM     17  C   UNL     1      19.729  28.812  -0.308  1.00  0.00     0.158 A 
BRANCH  15  18
ATOM     18  O   UNL     1      20.319  30.873   0.912  1.00  0.00    -0.504 OA
ATOM     19  H   UNL     1      20.411  31.390   1.775  1.00  0.00     0.293 HD
ENDBRANCH  15  18
BRANCH  17  20
ATOM     20  O   UNL     1      20.666  29.020  -1.323  1.00  0.00    -0.504 OA
ATOM     21  H   UNL     1      21.119  29.904  -1.500  1.00  0.00     0.293 HD
ENDBRANCH  17  20
ENDBRANCH   1  12
BRANCH   2  22
ATOM     22  O   UNL     1      15.071  27.453   0.440  1.00  0.00    -0.502 OA
ATOM     23  H   UNL     1      15.006  28.026  -0.393  1.00  0.00     0.293 HD
ENDBRANCH   2  22
BRANCH   6  24
ATOM     24  O   UNL     1      13.665  22.317   0.514  1.00  0.00    -0.507 OA
ATOM     25  H   UNL     1      13.036  22.536  -0.242  1.00  0.00     0.293 HD
ENDBRANCH   6  24
BRANCH   8  26
ATOM     26  O   UNL     1      17.998  20.251   0.541  1.00  0.00    -0.508 OA
ATOM     27  H   UNL     1      18.026  19.628  -0.257  1.00  0.00     0.293 HD
ENDBRANCH   8  26
TORSDOF 6
ENDMDL
MODEL 3
REMARK VINA RESULT:    -8.193      1.552      7.127
REMARK INTER + INTRA:         -10.111
REMARK INTER:                 -10.298
REMARK INTRA:                   0.186
REMARK UNBOUND:                -0.242
REMARK SMILES O=c1c(O)c(-c2ccc(O)c(O)c2)oc2cc(O)cc(O)c12
REMARK SMILES IDX 5 1 3 2 2 3 1 4 22 5 20 6 19 7 17 8 16 9 15 10 14 11 6 12
REMARK SMILES IDX 7 13 8 14 9 15 13 16 11 17 10 18 12 20 4 22 21 24 18 26
REMARK H PARENT 10 19 12 21 4 23 21 25 18 27
REMARK Flexibility Score: inf
ROOT
ATOM      1  C   UNL     1      16.705  26.985   0.344  1.00  0.00     0.180 A 
ATOM      2  C   UNL     1      15.464  27.066  -0.309  1.00  0.00     0.208 A 
ATOM      3  C   UNL     1      14.757  25.883  -0.577  1.00  0.00     0.238 A 
ATOM      4  O   UNL     1      13.683  25.957  -1.229  1.00  0.00    -0.285 OA
ATOM      5  C   UNL     1      15.272  24.639  -0.138  1.00  0.00     0.111 A 
ATOM      6  C   UNL     1      14.619  23.381  -0.315  1.00  0.00     0.134 A 
ATOM      7  C   UNL     1      15.274  22.203   0.066  1.00  0.00     0.093 A 
ATOM      8  C   UNL     1      16.530  22.242   0.675  1.00  0.00     0.123 A 
ATOM      9  C   UNL     1      17.151  23.468   0.902  1.00  0.00     0.094 A 
ATOM     10  C   UNL     1      16.541  24.657   0.498  1.00  0.00     0.146 A 
ATOM     11  O   UNL     1      17.179  25.801   0.715  1.00  0.00    -0.452 OA
ENDROOT
BRANCH   1  12
ATOM     12  C   UNL     1      17.517  28.186   0.649  1.00  0.00     0.025 A 
ATOM     13  C   UNL     1      18.910  28.132   0.502  1.00  0.00     0.016 A 
ATOM     14  C   UNL     1      19.692  29.258   0.765  1.00  0.00     0.051 A 
ATOM     15  C   UNL     1      19.101  30.462   1.163  1.00  0.00     0.157 A 
ATOM     16  C   UNL     1      16.917  29.399   1.026  1.00  0.00     0.062 A 
ATOM     17  C   UNL     1      17.693  30.536   1.288  1.00  0.00     0.158 A 
BRANCH  15  18
ATOM     18  O   UNL     1      19.939  31.549   1.416  1.00  0.00    -0.504 OA
ATOM     19  H   UNL     1      19.715  32.504   1.174  1.00  0.00     0.293 HD
ENDBRANCH  15  18
BRANCH  17  20
ATOM     20  O   UNL     1      17.029  31.707   1.661  1.00  0.00    -0.504 OA
ATOM     21  H   UNL     1      16.693  31.892   2.595  1.00  0.00     0.293 HD
ENDBRANCH  17  20
ENDBRANCH   1  12
BRANCH   2  22
ATOM     22  O   UNL     1      14.937  28.310  -0.666  1.00  0.00    -0.502 OA
ATOM     23  H   UNL     1      15.141  29.156  -0.147  1.00  0.00     0.293 HD
ENDBRANCH   2  22
BRANCH   6  24
ATOM     24  O   UNL     1      13.328  23.236  -0.832  1.00  0.00    -0.507 OA
ATOM     25  H   UNL     1      13.074  22.622  -1.590  1.00  0.00     0.293 HD
ENDBRANCH   6  24
BRANCH   8  26
ATOM     26  O   UNL     1      17.166  21.066   1.066  1.00  0.00    -0.508 OA
ATOM     27  H   UNL     1      16.669  20.332   1.556  1.00  0.00     0.293 HD
ENDBRANCH   8  26
TORSDOF 6
ENDMDL
MODEL 4
REMARK VINA RESULT:    -7.005      4.247      6.025
REMARK INTER + INTRA:          -8.680
REMARK INTER:                  -8.604
REMARK INTRA:                  -0.076
REMARK UNBOUND:                -0.242
REMARK SMILES O=c1c(O)c(-c2ccc(O)c(O)c2)oc2cc(O)cc(O)c12
REMARK SMILES IDX 5 1 3 2 2 3 1 4 22 5 20 6 19 7 17 8 16 9 15 10 14 11 6 12
REMARK SMILES IDX 7 13 8 14 9 15 13 16 11 17 10 18 12 20 4 22 21 24 18 26
REMARK H PARENT 10 19 12 21 4 23 21 25 18 27
REMARK Flexibility Score: inf
ROOT
ATOM      1  C   UNL     1      17.060  26.635  -2.561  1.00  0.00     0.180 A 
ATOM      2  C   UNL     1      18.306  26.660  -3.211  1.00  0.00     0.208 A 
ATOM      3  C   UNL     1      18.342  26.643  -4.614  1.00  0.00     0.238 A 
ATOM      4  O   UNL     1      19.460  26.589  -5.188  1.00  0.00    -0.285 OA
ATOM      5  C   UNL     1      17.132  26.659  -5.351  1.00  0.00     0.111 A 
ATOM      6  C   UNL     1      17.049  26.689  -6.777  1.00  0.00     0.134 A 
ATOM      7  C   UNL     1      15.798  26.594  -7.398  1.00  0.00     0.093 A 
ATOM      8  C   UNL     1      14.622  26.535  -6.645  1.00  0.00     0.123 A 
ATOM      9  C   UNL     1      14.690  26.561  -5.255  1.00  0.00     0.094 A 
ATOM     10  C   UNL     1      15.925  26.616  -4.605  1.00  0.00     0.146 A 
ATOM     11  O   UNL     1      15.943  26.617  -3.277  1.00  0.00    -0.452 OA
ENDROOT
BRANCH   1  12
ATOM     12  C   UNL     1      16.940  26.635  -1.085  1.00  0.00     0.025 A 
ATOM     13  C   UNL     1      17.563  25.623  -0.342  1.00  0.00     0.016 A 
ATOM     14  C   UNL     1      17.479  25.615   1.052  1.00  0.00     0.051 A 
ATOM     15  C   UNL     1      16.788  26.624   1.731  1.00  0.00     0.157 A 
ATOM     16  C   UNL     1      16.264  27.662  -0.405  1.00  0.00     0.062 A 
ATOM     17  C   UNL     1      16.178  27.666   0.994  1.00  0.00     0.158 A 
BRANCH  15  18
ATOM     18  O   UNL     1      16.737  26.555   3.124  1.00  0.00    -0.504 OA
ATOM     19  H   UNL     1      16.847  25.701   3.653  1.00  0.00     0.293 HD
ENDBRANCH  15  18
BRANCH  17  20
ATOM     20  O   UNL     1      15.488  28.717   1.602  1.00  0.00    -0.504 OA
ATOM     21  H   UNL     1      15.252  28.743   2.583  1.00  0.00     0.293 HD
ENDBRANCH  17  20
ENDBRANCH   1  12
BRANCH   2  22
ATOM     22  O   UNL     1      19.487  26.722  -2.466  1.00  0.00    -0.502 OA
ATOM     23  H   UNL     1      19.661  27.450  -1.784  1.00  0.00     0.293 HD
ENDBRANCH   2  22
BRANCH   6  24
ATOM     24  O   UNL     1      18.154  26.834  -7.622  1.00  0.00    -0.507 OA
ATOM     25  H   UNL     1      18.138  27.288  -8.522  1.00  0.00     0.293 HD
ENDBRANCH   6  24
BRANCH   8  26
ATOM     26  O   UNL     1      13.381  26.458  -7.273  1.00  0.00    -0.508 OA
ATOM     27  H   UNL     1      13.258  26.732  -8.240  1.00  0.00     0.293 HD
ENDBRANCH   8  26
TORSDOF 6
ENDMDL
MODEL 5
REMARK VINA RESULT:    -6.963      4.266      6.169
REMARK INTER + INTRA:          -8.630
REMARK INTER:                  -8.391
REMARK INTRA:                  -0.239
REMARK UNBOUND:                -0.242
REMARK SMILES O=c1c(O)c(-c2ccc(O)c(O)c2)oc2cc(O)cc(O)c12
REMARK SMILES IDX 5 1 3 2 2 3 1 4 22 5 20 6 19 7 17 8 16 9 15 10 14 11 6 12
REMARK SMILES IDX 7 13 8 14 9 15 13 16 11 17 10 18 12 20 4 22 21 24 18 26
REMARK H PARENT 10 19 12 21 4 23 21 25 18 27
REMARK Flexibility Score: inf
ROOT
ATOM      1  C   UNL     1      16.864  26.572  -2.672  1.00  0.00     0.180 A 
ATOM      2  C   UNL     1      15.731  26.435  -3.492  1.00  0.00     0.208 A 
ATOM      3  C   UNL     1      15.889  26.498  -4.886  1.00  0.00     0.238 A 
ATOM      4  O   UNL     1      14.862  26.450  -5.611  1.00  0.00    -0.285 OA
ATOM      5  C   UNL     1      17.183  26.641  -5.444  1.00  0.00     0.111 A 
ATOM      6  C   UNL     1      17.466  26.672  -6.843  1.00  0.00     0.134 A 
ATOM      7  C   UNL     1      18.773  26.925  -7.278  1.00  0.00     0.093 A 
ATOM      8  C   UNL     1      19.818  27.084  -6.365  1.00  0.00     0.123 A 
ATOM      9  C   UNL     1      19.561  27.001  -4.999  1.00  0.00     0.094 A 
ATOM     10  C   UNL     1      18.262  26.788  -4.533  1.00  0.00     0.146 A 
ATOM     11  O   UNL     1      18.060  26.737  -3.222  1.00  0.00    -0.452 OA
ENDROOT
BRANCH   1  12
ATOM     12  C   UNL     1      16.776  26.530  -1.194  1.00  0.00     0.025 A 
ATOM     13  C   UNL     1      17.353  25.459  -0.499  1.00  0.00     0.016 A 
ATOM     14  C   UNL     1      17.299  25.409   0.896  1.00  0.00     0.051 A 
ATOM     15  C   UNL     1      16.685  26.434   1.623  1.00  0.00     0.157 A 
ATOM     16  C   UNL     1      16.178  27.573  -0.465  1.00  0.00     0.062 A 
ATOM     17  C   UNL     1      16.123  27.535   0.934  1.00  0.00     0.158 A 
BRANCH  15  18
ATOM     18  O   UNL     1      16.659  26.322   3.014  1.00  0.00    -0.504 OA
ATOM     19  H   UNL     1      16.670  27.111   3.645  1.00  0.00     0.293 HD
ENDBRANCH  15  18
BRANCH  17  20
ATOM     20  O   UNL     1      15.511  28.604   1.592  1.00  0.00    -0.504 OA
ATOM     21  H   UNL     1      16.007  29.273   2.163  1.00  0.00     0.293 HD
ENDBRANCH  17  20
ENDBRANCH   1  12
BRANCH   2  22
ATOM     22  O   UNL     1      14.473  26.217  -2.924  1.00  0.00    -0.502 OA
ATOM     23  H   UNL     1      14.050  25.298  -2.875  1.00  0.00     0.293 HD
ENDBRANCH   2  22
BRANCH   6  24
ATOM     24  O   UNL     1      16.513  26.437  -7.839  1.00  0.00    -0.507 OA
ATOM     25  H   UNL     1      15.579  26.093  -7.677  1.00  0.00     0.293 HD
ENDBRANCH   6  24
BRANCH   8  26
ATOM     26  O   UNL     1      21.118  27.319  -6.808  1.00  0.00    -0.508 OA
ATOM     27  H   UNL     1      21.788  27.826  -6.243  1.00  0.00     0.293 HD
ENDBRANCH   8  26
TORSDOF 6
ENDMDL
MODEL 6
REMARK VINA RESULT:    -6.891      4.245      5.863
REMARK INTER + INTRA:          -8.543
REMARK INTER:                  -8.405
REMARK INTRA:                  -0.138
REMARK UNBOUND:                -0.242
REMARK SMILES O=c1c(O)c(-c2ccc(O)c(O)c2)oc2cc(O)cc(O)c12
REMARK SMILES IDX 5 1 3 2 2 3 1 4 22 5 20 6 19 7 17 8 16 9 15 10 14 11 6 12
REMARK SMILES IDX 7 13 8 14 9 15 13 16 11 17 10 18 12 20 4 22 21 24 18 26
REMARK H PARENT 10 19 12 21 4 23 21 25 18 27
REMARK Flexibility Score: inf
ROOT
ATOM      1  C   UNL     1      17.185  26.566  -2.541  1.00  0.00     0.180 A 
ATOM      2  C   UNL     1      18.412  26.546  -3.226  1.00  0.00     0.208 A 
ATOM      3  C   UNL     1      18.408  26.591  -4.629  1.00  0.00     0.238 A 
ATOM      4  O   UNL     1      19.506  26.496  -5.237  1.00  0.00    -0.285 OA
ATOM      5  C   UNL     1      17.183  26.713  -5.328  1.00  0.00     0.111 A 
ATOM      6  C   UNL     1      17.064  26.812  -6.748  1.00  0.00     0.134 A 
ATOM      7  C   UNL     1      15.792  26.821  -7.335  1.00  0.00     0.093 A 
ATOM      8  C   UNL     1      14.636  26.799  -6.551  1.00  0.00     0.123 A 
ATOM      9  C   UNL     1      14.743  26.757  -5.163  1.00  0.00     0.094 A 
ATOM     10  C   UNL     1      15.996  26.708  -4.549  1.00  0.00     0.146 A 
ATOM     11  O   UNL     1      16.050  26.648  -3.224  1.00  0.00    -0.452 OA
ENDROOT
BRANCH   1  12
ATOM     12  C   UNL     1      17.105  26.507  -1.063  1.00  0.00     0.025 A 
ATOM     13  C   UNL     1      17.640  27.555  -0.301  1.00  0.00     0.016 A 
ATOM     14  C   UNL     1      17.559  27.529   1.092  1.00  0.00     0.051 A 
ATOM     15  C   UNL     1      16.931  26.467   1.751  1.00  0.00     0.157 A 
ATOM     16  C   UNL     1      16.454  25.449  -0.406  1.00  0.00     0.062 A 
ATOM     17  C   UNL     1      16.363  25.416   0.992  1.00  0.00     0.158 A 
BRANCH  15  18
ATOM     18  O   UNL     1      16.888  26.497   3.146  1.00  0.00    -0.504 OA
ATOM     19  H   UNL     1      17.707  26.481   3.738  1.00  0.00     0.293 HD
ENDBRANCH  15  18
BRANCH  17  20
ATOM     20  O   UNL     1      15.703  24.334   1.577  1.00  0.00    -0.504 OA
ATOM     21  H   UNL     1      14.987  23.792   1.114  1.00  0.00     0.293 HD
ENDBRANCH  17  20
ENDBRANCH   1  12
BRANCH   2  22
ATOM     22  O   UNL     1      19.614  26.503  -2.514  1.00  0.00    -0.502 OA
ATOM     23  H   UNL     1      20.376  25.887  -2.771  1.00  0.00     0.293 HD
ENDBRANCH   2  22
BRANCH   6  24
ATOM     24  O   UNL     1      18.152  26.930  -7.618  1.00  0.00    -0.507 OA
ATOM     25  H   UNL     1      18.929  27.558  -7.490  1.00  0.00     0.293 HD
ENDBRANCH   6  24
BRANCH   8  26
ATOM     26  O   UNL     1      13.376  26.826  -7.144  1.00  0.00    -0.508 OA
ATOM     27  H   UNL     1      12.539  26.601  -6.621  1.00  0.00     0.293 HD
ENDBRANCH   8  26
TORSDOF 6
ENDMDL
MODEL 7
REMARK VINA RESULT:    -6.660      9.663     11.723
REMARK INTER + INTRA:          -8.264
REMARK INTER:                  -7.938
REMARK INTRA:                  -0.326
REMARK UNBOUND:                -0.242
REMARK SMILES O=c1c(O)c(-c2ccc(O)c(O)c2)oc2cc(O)cc(O)c12
REMARK SMILES IDX 5 1 3 2 2 3 1 4 22 5 20 6 19 7 17 8 16 9 15 10 14 11 6 12
REMARK SMILES IDX 7 13 8 14 9 15 13 16 11 17 10 18 12 20 4 22 21 24 18 26
REMARK H PARENT 10 19 12 21 4 23 21 25 18 27
REMARK Flexibility Score: inf
ROOT
ATOM      1  C   UNL     1      12.347  26.495  -8.761  1.00  0.00     0.180 A 
ATOM      2  C   UNL     1      11.242  25.626  -8.763  1.00  0.00     0.208 A 
ATOM      3  C   UNL     1      10.014  26.089  -9.261  1.00  0.00     0.238 A 
ATOM      4  O   UNL     1       9.011  25.332  -9.190  1.00  0.00    -0.285 OA
ATOM      5  C   UNL     1       9.919  27.394  -9.803  1.00  0.00     0.111 A 
ATOM      6  C   UNL     1       8.735  27.951 -10.377  1.00  0.00     0.134 A 
ATOM      7  C   UNL     1       8.731  29.291 -10.785  1.00  0.00     0.093 A 
ATOM      8  C   UNL     1       9.885  30.074 -10.700  1.00  0.00     0.123 A 
ATOM      9  C   UNL     1      11.058  29.523 -10.193  1.00  0.00     0.094 A 
ATOM     10  C   UNL     1      11.085  28.201  -9.742  1.00  0.00     0.146 A 
ATOM     11  O   UNL     1      12.220  27.724  -9.246  1.00  0.00    -0.452 OA
ENDROOT
BRANCH   1  12
ATOM     12  C   UNL     1      13.671  26.085  -8.240  1.00  0.00     0.025 A 
ATOM     13  C   UNL     1      14.595  25.479  -9.102  1.00  0.00     0.016 A 
ATOM     14  C   UNL     1      15.856  25.102  -8.636  1.00  0.00     0.051 A 
ATOM     15  C   UNL     1      16.226  25.337  -7.307  1.00  0.00     0.157 A 
ATOM     16  C   UNL     1      14.047  26.344  -6.910  1.00  0.00     0.062 A 
ATOM     17  C   UNL     1      15.312  25.974  -6.434  1.00  0.00     0.158 A 
BRANCH  15  18
ATOM     18  O   UNL     1      17.498  24.932  -6.902  1.00  0.00    -0.504 OA
ATOM     19  H   UNL     1      17.729  23.989  -6.623  1.00  0.00     0.293 HD
ENDBRANCH  15  18
BRANCH  17  20
ATOM     20  O   UNL     1      15.616  26.260  -5.102  1.00  0.00    -0.504 OA
ATOM     21  H   UNL     1      15.442  27.152  -4.662  1.00  0.00     0.293 HD
ENDBRANCH  17  20
ENDBRANCH   1  12
BRANCH   2  22
ATOM     22  O   UNL     1      11.376  24.316  -8.294  1.00  0.00    -0.502 OA
ATOM     23  H   UNL     1      10.969  24.008  -7.420  1.00  0.00     0.293 HD
ENDBRANCH   2  22
BRANCH   6  24
ATOM     24  O   UNL     1       7.555  27.232 -10.589  1.00  0.00    -0.507 OA
ATOM     25  H   UNL     1       7.488  26.373 -11.112  1.00  0.00     0.293 HD
ENDBRANCH   6  24
BRANCH   8  26
ATOM     26  O   UNL     1       9.875  31.401 -11.125  1.00  0.00    -0.508 OA
ATOM     27  H   UNL     1       9.528  31.662 -12.040  1.00  0.00     0.293 HD
ENDBRANCH   8  26
TORSDOF 6
ENDMDL
MODEL 8
REMARK VINA RESULT:    -6.628      6.842      9.526
REMARK INTER + INTRA:          -8.226
REMARK INTER:                  -7.897
REMARK INTRA:                  -0.329
REMARK UNBOUND:                -0.242
REMARK SMILES O=c1c(O)c(-c2ccc(O)c(O)c2)oc2cc(O)cc(O)c12
REMARK SMILES IDX 5 1 3 2 2 3 1 4 22 5 20 6 19 7 17 8 16 9 15 10 14 11 6 12
REMARK SMILES IDX 7 13 8 14 9 15 13 16 11 17 10 18 12 20 4 22 21 24 18 26
REMARK H PARENT 10 19 12 21 4 23 21 25 18 27
REMARK Flexibility Score: inf
ROOT
ATOM      1  C   UNL     1      19.335  27.149  -6.654  1.00  0.00     0.180 A 
ATOM      2  C   UNL     1      19.260  26.807  -5.293  1.00  0.00     0.208 A 
ATOM      3  C   UNL     1      17.998  26.688  -4.689  1.00  0.00     0.238 A 
ATOM      4  O   UNL     1      17.941  26.457  -3.454  1.00  0.00    -0.285 OA
ATOM      5  C   UNL     1      16.826  26.856  -5.466  1.00  0.00     0.111 A 
ATOM      6  C   UNL     1      15.494  26.715  -4.969  1.00  0.00     0.134 A 
ATOM      7  C   UNL     1      14.410  27.010  -5.805  1.00  0.00     0.093 A 
ATOM      8  C   UNL     1      14.608  27.379  -7.138  1.00  0.00     0.123 A 
ATOM      9  C   UNL     1      15.901  27.466  -7.647  1.00  0.00     0.094 A 
ATOM     10  C   UNL     1      17.004  27.216  -6.828  1.00  0.00     0.146 A 
ATOM     11  O   UNL     1      18.219  27.332  -7.350  1.00  0.00    -0.452 OA
ENDROOT
BRANCH   1  12
ATOM     12  C   UNL     1      20.628  27.307  -7.358  1.00  0.00     0.025 A 
ATOM     13  C   UNL     1      21.206  26.200  -7.995  1.00  0.00     0.016 A 
ATOM     14  C   UNL     1      22.416  26.331  -8.680  1.00  0.00     0.051 A 
ATOM     15  C   UNL     1      23.062  27.569  -8.758  1.00  0.00     0.157 A 
ATOM     16  C   UNL     1      21.264  28.557  -7.452  1.00  0.00     0.062 A 
ATOM     17  C   UNL     1      22.475  28.699  -8.141  1.00  0.00     0.158 A 
BRANCH  15  18
ATOM     18  O   UNL     1      24.271  27.632  -9.453  1.00  0.00    -0.504 OA
ATOM     19  H   UNL     1      25.125  27.189  -9.144  1.00  0.00     0.293 HD
ENDBRANCH  15  18
BRANCH  17  20
ATOM     20  O   UNL     1      23.050  29.970  -8.192  1.00  0.00    -0.504 OA
ATOM     21  H   UNL     1      23.031  30.566  -9.007  1.00  0.00     0.293 HD
ENDBRANCH  17  20
ENDBRANCH   1  12
BRANCH   2  22
ATOM     22  O   UNL     1      20.428  26.569  -4.562  1.00  0.00    -0.502 OA
ATOM     23  H   UNL     1      21.166  25.963  -4.899  1.00  0.00     0.293 HD
ENDBRANCH   2  22
BRANCH   6  24
ATOM     24  O   UNL     1      15.184  26.268  -3.681  1.00  0.00    -0.507 OA
ATOM     25  H   UNL     1      14.258  26.032  -3.358  1.00  0.00     0.293 HD
ENDBRANCH   6  24
BRANCH   8  26
ATOM     26  O   UNL     1      13.522  27.654  -7.966  1.00  0.00    -0.508 OA
ATOM     27  H   UNL     1      12.582  27.368  -7.721  1.00  0.00     0.293 HD
ENDBRANCH   8  26
TORSDOF 6
ENDMDL
MODEL 9
REMARK VINA RESULT:    -6.569      7.143      8.533
REMARK INTER + INTRA:          -8.154
REMARK INTER:                  -7.840
REMARK INTRA:                  -0.314
REMARK UNBOUND:                -0.242
REMARK SMILES O=c1c(O)c(-c2ccc(O)c(O)c2)oc2cc(O)cc(O)c12
REMARK SMILES IDX 5 1 3 2 2 3 1 4 22 5 20 6 19 7 17 8 16 9 15 10 14 11 6 12
REMARK SMILES IDX 7 13 8 14 9 15 13 16 11 17 10 18 12 20 4 22 21 24 18 26
REMARK H PARENT 10 19 12 21 4 23 21 25 18 27
REMARK Flexibility Score: inf
ROOT
ATOM      1  C   UNL     1      15.107  26.875  -6.903  1.00  0.00     0.180 A 
ATOM      2  C   UNL     1      15.173  26.778  -5.503  1.00  0.00     0.208 A 
ATOM      3  C   UNL     1      16.431  26.768  -4.880  1.00  0.00     0.238 A 
ATOM      4  O   UNL     1      16.485  26.605  -3.634  1.00  0.00    -0.285 OA
ATOM      5  C   UNL     1      17.605  26.913  -5.659  1.00  0.00     0.111 A 
ATOM      6  C   UNL     1      18.931  26.962  -5.130  1.00  0.00     0.134 A 
ATOM      7  C   UNL     1      20.023  27.000  -6.006  1.00  0.00     0.093 A 
ATOM      8  C   UNL     1      19.836  27.056  -7.389  1.00  0.00     0.123 A 
ATOM      9  C   UNL     1      18.546  27.064  -7.912  1.00  0.00     0.094 A 
ATOM     10  C   UNL     1      17.437  26.988  -7.067  1.00  0.00     0.146 A 
ATOM     11  O   UNL     1      16.225  26.977  -7.611  1.00  0.00    -0.452 OA
ENDROOT
BRANCH   1  12
ATOM     12  C   UNL     1      13.819  26.878  -7.634  1.00  0.00     0.025 A 
ATOM     13  C   UNL     1      13.303  25.670  -8.125  1.00  0.00     0.016 A 
ATOM     14  C   UNL     1      12.080  25.647  -8.800  1.00  0.00     0.051 A 
ATOM     15  C   UNL     1      11.343  26.821  -8.983  1.00  0.00     0.157 A 
ATOM     16  C   UNL     1      13.070  28.056  -7.797  1.00  0.00     0.062 A 
ATOM     17  C   UNL     1      11.841  28.041  -8.468  1.00  0.00     0.158 A 
BRANCH  15  18
ATOM     18  O   UNL     1      10.132  26.731  -9.671  1.00  0.00    -0.504 OA
ATOM     19  H   UNL     1       9.881  25.962 -10.277  1.00  0.00     0.293 HD
ENDBRANCH  15  18
BRANCH  17  20
ATOM     20  O   UNL     1      11.152  29.250  -8.594  1.00  0.00    -0.504 OA
ATOM     21  H   UNL     1      11.561  30.154  -8.405  1.00  0.00     0.293 HD
ENDBRANCH  17  20
ENDBRANCH   1  12
BRANCH   2  22
ATOM     22  O   UNL     1      14.000  26.714  -4.746  1.00  0.00    -0.502 OA
ATOM     23  H   UNL     1      13.182  26.201  -5.053  1.00  0.00     0.293 HD
ENDBRANCH   2  22
BRANCH   6  24
ATOM     24  O   UNL     1      19.227  27.000  -3.764  1.00  0.00    -0.507 OA
ATOM     25  H   UNL     1      18.705  26.524  -3.046  1.00  0.00     0.293 HD
ENDBRANCH   6  24
BRANCH   8  26
ATOM     26  O   UNL     1      20.929  27.111  -8.251  1.00  0.00    -0.508 OA
ATOM     27  H   UNL     1      21.196  27.971  -8.715  1.00  0.00     0.293 HD
ENDBRANCH   8  26
TORSDOF 6
ENDMDL
