MODEL 1
REMARK VINA RESULT:    -4.092      0.000      0.000
REMARK INTER + INTRA:         -15.385
REMARK INTER:                 -10.311
REMARK INTRA:                  -5.074
REMARK UNBOUND:                -5.074
REMARK SMILES CCCCCCCCCCCCCCCCCCCCCCCCCCCC(=O)[O-]
REMARK SMILES IDX 15 1 16 2 17 3 18 4 19 5 20 6 21 7 22 8 23 9 24 10 25 11
REMARK SMILES IDX 26 12 27 13 28 14 29 15 30 16 14 17 13 18 12 19 11 20 10 21
REMARK SMILES IDX 9 22 8 23 7 24 6 25 5 26 4 27 3 28 2 29 1 30
REMARK H PARENT
REMARK Flexibility Score: inf
ROOT
ATOM      1  C   UNL     1      -5.409  29.211  54.924  1.00  0.00     0.000 C 
ENDROOT
BRANCH   1   2
ATOM      2  C   UNL     1      -5.052  27.766  54.554  1.00  0.00     0.000 C 
BRANCH   2   3
ATOM      3  C   UNL     1      -3.562  27.490  54.803  1.00  0.00     0.000 C 
BRANCH   3   4
ATOM      4  C   UNL     1      -2.783  27.207  53.510  1.00  0.00     0.000 C 
BRANCH   4   5
ATOM      5  C   UNL     1      -1.766  28.308  53.174  1.00  0.00     0.000 C 
BRANCH   5   6
ATOM      6  C   UNL     1      -1.464  29.172  54.408  1.00  0.00     0.000 C 
BRANCH   6   7
ATOM      7  C   UNL     1      -1.592  30.681  54.133  1.00  0.00     0.000 C 
BRANCH   7   8
ATOM      8  C   UNL     1      -2.741  31.079  53.188  1.00  0.00     0.000 C 
BRANCH   8   9
ATOM      9  C   UNL     1      -2.889  32.600  53.028  1.00  0.00     0.000 C 
BRANCH   9  10
ATOM     10  C   UNL     1      -2.712  33.313  54.377  1.00  0.00     0.000 C 
BRANCH  10  11
ATOM     11  C   UNL     1      -3.979  34.082  54.808  1.00  0.00     0.000 C 
BRANCH  11  12
ATOM     12  C   UNL     1      -4.998  34.285  53.670  1.00  0.00     0.006 C 
BRANCH  12  13
ATOM     13  C   UNL     1      -6.464  34.142  54.106  1.00  0.00     0.053 C 
BRANCH  13  14
ATOM     14  C   UNL     1      -6.914  32.713  54.103  1.00  0.00     0.041 C 
ATOM     15  O   UNL     1      -6.572  31.942  53.168  1.00  0.00    -0.550 OA
ATOM     16  O   UNL     1      -7.718  32.232  55.130  1.00  0.00    -0.550 OA
ENDBRANCH  13  14
ENDBRANCH  12  13
ENDBRANCH  11  12
ENDBRANCH  10  11
ENDBRANCH   9  10
ENDBRANCH   8   9
ENDBRANCH   7   8
ENDBRANCH   6   7
ENDBRANCH   5   6
ENDBRANCH   4   5
ENDBRANCH   3   4
ENDBRANCH   2   3
ENDBRANCH   1   2
BRANCH   1  17
ATOM     17  C   UNL     1      -5.148  29.482  56.410  1.00  0.00     0.000 C 
BRANCH  17  18
ATOM     18  C   UNL     1      -4.744  30.943  56.639  1.00  0.00     0.000 C 
BRANCH  18  19
ATOM     19  C   UNL     1      -3.374  31.035  57.329  1.00  0.00     0.000 C 
BRANCH  19  20
ATOM     20  C   UNL     1      -2.782  29.652  57.646  1.00  0.00     0.000 C 
BRANCH  20  21
ATOM     21  C   UNL     1      -2.533  29.449  59.151  1.00  0.00     0.000 C 
BRANCH  21  22
ATOM     22  C   UNL     1      -2.629  27.966  59.578  1.00  0.00    -0.000 C 
BRANCH  22  23
ATOM     23  C   UNL     1      -3.903  27.259  59.080  1.00  0.00    -0.000 C 
BRANCH  23  24
ATOM     24  C   UNL     1      -3.684  25.824  58.568  1.00  0.00    -0.000 C 
BRANCH  24  25
ATOM     25  C   UNL     1      -4.666  25.406  57.452  1.00  0.00    -0.000 C 
BRANCH  25  26
ATOM     26  C   UNL     1      -5.364  24.069  57.745  1.00  0.00    -0.000 C 
BRANCH  26  27
ATOM     27  C   UNL     1      -6.708  24.290  58.452  1.00  0.00    -0.000 C 
BRANCH  27  28
ATOM     28  C   UNL     1      -7.384  25.614  58.053  1.00  0.00    -0.000 C 
BRANCH  28  29
ATOM     29  C   UNL     1      -7.802  26.509  59.234  1.00  0.00    -0.003 C 
ATOM     30  C   UNL     1      -7.385  25.942  60.590  1.00  0.00     0.004 C 
ENDBRANCH  28  29
ENDBRANCH  27  28
ENDBRANCH  26  27
ENDBRANCH  25  26
ENDBRANCH  24  25
ENDBRANCH  23  24
ENDBRANCH  22  23
ENDBRANCH  21  22
ENDBRANCH  20  21
ENDBRANCH  19  20
ENDBRANCH  18  19
ENDBRANCH  17  18
ENDBRANCH   1  17
TORSDOF 26
ENDMDL
MODEL 2
REMARK VINA RESULT:    -4.043      1.658      4.124
REMARK INTER + INTRA:         -15.263
REMARK INTER:                 -10.135
REMARK INTRA:                  -5.128
REMARK UNBOUND:                -5.074
REMARK SMILES CCCCCCCCCCCCCCCCCCCCCCCCCCCC(=O)[O-]
REMARK SMILES IDX 15 1 16 2 17 3 18 4 19 5 20 6 21 7 22 8 23 9 24 10 25 11
REMARK SMILES IDX 26 12 27 13 28 14 29 15 30 16 14 17 13 18 12 19 11 20 10 21
REMARK SMILES IDX 9 22 8 23 7 24 6 25 5 26 4 27 3 28 2 29 1 30
REMARK H PARENT
REMARK Flexibility Score: inf
ROOT
ATOM      1  C   UNL     1      -3.372  25.675  58.337  1.00  0.00     0.000 C 
ENDROOT
BRANCH   1   2
ATOM      2  C   UNL     1      -3.538  26.940  59.186  1.00  0.00     0.000 C 
BRANCH   2   3
ATOM      3  C   UNL     1      -3.702  28.180  58.294  1.00  0.00     0.000 C 
BRANCH   3   4
ATOM      4  C   UNL     1      -3.017  29.427  58.873  1.00  0.00     0.000 C 
BRANCH   4   5
ATOM      5  C   UNL     1      -1.748  29.091  59.671  1.00  0.00     0.000 C 
BRANCH   5   6
ATOM      6  C   UNL     1      -0.486  29.379  58.844  1.00  0.00     0.000 C 
BRANCH   6   7
ATOM      7  C   UNL     1      -0.491  30.778  58.202  1.00  0.00     0.000 C 
BRANCH   7   8
ATOM      8  C   UNL     1      -0.196  30.804  56.691  1.00  0.00     0.000 C 
BRANCH   8   9
ATOM      9  C   UNL     1      -1.400  30.378  55.836  1.00  0.00     0.000 C 
BRANCH   9  10
ATOM     10  C   UNL     1      -1.773  31.475  54.829  1.00  0.00     0.000 C 
BRANCH  10  11
ATOM     11  C   UNL     1      -2.898  32.396  55.350  1.00  0.00     0.000 C 
BRANCH  11  12
ATOM     12  C   UNL     1      -4.315  31.903  54.998  1.00  0.00     0.006 C 
BRANCH  12  13
ATOM     13  C   UNL     1      -5.138  31.440  56.209  1.00  0.00     0.053 C 
BRANCH  13  14
ATOM     14  C   UNL     1      -6.554  31.119  55.837  1.00  0.00     0.041 C 
ATOM     15  O   UNL     1      -6.804  30.498  54.769  1.00  0.00    -0.550 OA
ATOM     16  O   UNL     1      -7.599  31.510  56.664  1.00  0.00    -0.550 OA
ENDBRANCH  13  14
ENDBRANCH  12  13
ENDBRANCH  11  12
ENDBRANCH  10  11
ENDBRANCH   9  10
ENDBRANCH   8   9
ENDBRANCH   7   8
ENDBRANCH   6   7
ENDBRANCH   5   6
ENDBRANCH   4   5
ENDBRANCH   3   4
ENDBRANCH   2   3
ENDBRANCH   1   2
BRANCH   1  17
ATOM     17  C   UNL     1      -2.181  25.804  57.379  1.00  0.00     0.000 C 
BRANCH  17  18
ATOM     18  C   UNL     1      -2.188  24.678  56.339  1.00  0.00     0.000 C 
BRANCH  18  19
ATOM     19  C   UNL     1      -1.749  25.199  54.961  1.00  0.00     0.000 C 
BRANCH  19  20
ATOM     20  C   UNL     1      -1.688  26.734  54.905  1.00  0.00     0.000 C 
BRANCH  20  21
ATOM     21  C   UNL     1      -2.263  27.298  53.593  1.00  0.00     0.000 C 
BRANCH  21  22
ATOM     22  C   UNL     1      -3.418  28.298  53.828  1.00  0.00    -0.000 C 
BRANCH  22  23
ATOM     23  C   UNL     1      -4.317  27.938  55.025  1.00  0.00    -0.000 C 
BRANCH  23  24
ATOM     24  C   UNL     1      -5.552  27.092  54.671  1.00  0.00    -0.000 C 
BRANCH  24  25
ATOM     25  C   UNL     1      -5.507  25.657  55.241  1.00  0.00    -0.000 C 
BRANCH  25  26
ATOM     26  C   UNL     1      -6.748  25.309  56.076  1.00  0.00    -0.000 C 
BRANCH  26  27
ATOM     27  C   UNL     1      -6.785  26.123  57.377  1.00  0.00    -0.000 C 
BRANCH  27  28
ATOM     28  C   UNL     1      -7.528  25.401  58.516  1.00  0.00    -0.000 C 
BRANCH  28  29
ATOM     29  C   UNL     1      -7.983  26.311  59.671  1.00  0.00    -0.003 C 
ATOM     30  C   UNL     1      -7.306  25.973  60.999  1.00  0.00     0.004 C 
ENDBRANCH  28  29
ENDBRANCH  27  28
ENDBRANCH  26  27
ENDBRANCH  25  26
ENDBRANCH  24  25
ENDBRANCH  23  24
ENDBRANCH  22  23
ENDBRANCH  21  22
ENDBRANCH  20  21
ENDBRANCH  19  20
ENDBRANCH  18  19
ENDBRANCH  17  18
ENDBRANCH   1  17
TORSDOF 26
ENDMDL
MODEL 3
REMARK VINA RESULT:    -4.043      2.191      6.023
REMARK INTER + INTRA:         -15.261
REMARK INTER:                 -10.214
REMARK INTRA:                  -5.047
REMARK UNBOUND:                -5.074
REMARK SMILES CCCCCCCCCCCCCCCCCCCCCCCCCCCC(=O)[O-]
REMARK SMILES IDX 15 1 16 2 17 3 18 4 19 5 20 6 21 7 22 8 23 9 24 10 25 11
REMARK SMILES IDX 26 12 27 13 28 14 29 15 30 16 14 17 13 18 12 19 11 20 10 21
REMARK SMILES IDX 9 22 8 23 7 24 6 25 5 26 4 27 3 28 2 29 1 30
REMARK H PARENT
REMARK Flexibility Score: inf
ROOT
ATOM      1  C   UNL     1      -5.914  24.166  57.026  1.00  0.00     0.000 C 
ENDROOT
BRANCH   1   2
ATOM      2  C   UNL     1      -6.482  25.585  57.151  1.00  0.00     0.000 C 
BRANCH   2   3
ATOM      3  C   UNL     1      -5.481  26.514  57.855  1.00  0.00     0.000 C 
BRANCH   3   4
ATOM      4  C   UNL     1      -4.891  25.898  59.132  1.00  0.00     0.000 C 
BRANCH   4   5
ATOM      5  C   UNL     1      -3.370  26.087  59.236  1.00  0.00     0.000 C 
BRANCH   5   6
ATOM      6  C   UNL     1      -2.914  27.318  58.437  1.00  0.00     0.000 C 
BRANCH   6   7
ATOM      7  C   UNL     1      -2.340  28.436  59.327  1.00  0.00     0.000 C 
BRANCH   7   8
ATOM      8  C   UNL     1      -2.711  29.867  58.899  1.00  0.00     0.000 C 
BRANCH   8   9
ATOM      9  C   UNL     1      -2.038  30.295  57.586  1.00  0.00     0.000 C 
BRANCH   9  10
ATOM     10  C   UNL     1      -3.082  30.769  56.564  1.00  0.00     0.000 C 
BRANCH  10  11
ATOM     11  C   UNL     1      -4.454  30.089  56.762  1.00  0.00     0.000 C 
BRANCH  11  12
ATOM     12  C   UNL     1      -5.652  31.011  56.467  1.00  0.00     0.006 C 
BRANCH  12  13
ATOM     13  C   UNL     1      -6.022  31.103  54.979  1.00  0.00     0.053 C 
BRANCH  13  14
ATOM     14  C   UNL     1      -7.350  31.764  54.770  1.00  0.00     0.041 C 
ATOM     15  O   UNL     1      -8.304  31.535  55.561  1.00  0.00    -0.550 OA
ATOM     16  O   UNL     1      -7.539  32.629  53.699  1.00  0.00    -0.550 OA
ENDBRANCH  13  14
ENDBRANCH  12  13
ENDBRANCH  11  12
ENDBRANCH  10  11
ENDBRANCH   9  10
ENDBRANCH   8   9
ENDBRANCH   7   8
ENDBRANCH   6   7
ENDBRANCH   5   6
ENDBRANCH   4   5
ENDBRANCH   3   4
ENDBRANCH   2   3
ENDBRANCH   1   2
BRANCH   1  17
ATOM     17  C   UNL     1      -5.082  24.015  55.746  1.00  0.00     0.000 C 
BRANCH  17  18
ATOM     18  C   UNL     1      -3.801  23.217  56.015  1.00  0.00     0.000 C 
BRANCH  18  19
ATOM     19  C   UNL     1      -3.206  22.673  54.707  1.00  0.00     0.000 C 
BRANCH  19  20
ATOM     20  C   UNL     1      -3.696  23.447  53.472  1.00  0.00     0.000 C 
BRANCH  20  21
ATOM     21  C   UNL     1      -2.701  24.531  53.023  1.00  0.00     0.000 C 
BRANCH  21  22
ATOM     22  C   UNL     1      -3.399  25.756  52.388  1.00  0.00    -0.000 C 
BRANCH  22  23
ATOM     23  C   UNL     1      -4.224  26.587  53.387  1.00  0.00    -0.000 C 
BRANCH  23  24
ATOM     24  C   UNL     1      -3.419  27.163  54.565  1.00  0.00    -0.000 C 
BRANCH  24  25
ATOM     25  C   UNL     1      -2.469  28.314  54.165  1.00  0.00    -0.000 C 
BRANCH  25  26
ATOM     26  C   UNL     1      -1.037  28.111  54.682  1.00  0.00    -0.000 C 
BRANCH  26  27
ATOM     27  C   UNL     1      -0.940  26.855  55.560  1.00  0.00    -0.000 C 
BRANCH  27  28
ATOM     28  C   UNL     1       0.151  25.877  55.087  1.00  0.00    -0.000 C 
BRANCH  28  29
ATOM     29  C   UNL     1      -0.025  24.427  55.573  1.00  0.00    -0.003 C 
ATOM     30  C   UNL     1       0.493  23.395  54.573  1.00  0.00     0.004 C 
ENDBRANCH  28  29
ENDBRANCH  27  28
ENDBRANCH  26  27
ENDBRANCH  25  26
ENDBRANCH  24  25
ENDBRANCH  23  24
ENDBRANCH  22  23
ENDBRANCH  21  22
ENDBRANCH  20  21
ENDBRANCH  19  20
ENDBRANCH  18  19
ENDBRANCH  17  18
ENDBRANCH   1  17
TORSDOF 26
ENDMDL
MODEL 4
REMARK VINA RESULT:    -4.023      2.805      6.506
REMARK INTER + INTRA:         -15.211
REMARK INTER:                  -9.910
REMARK INTRA:                  -5.301
REMARK UNBOUND:                -5.074
REMARK SMILES CCCCCCCCCCCCCCCCCCCCCCCCCCCC(=O)[O-]
REMARK SMILES IDX 15 1 16 2 17 3 18 4 19 5 20 6 21 7 22 8 23 9 24 10 25 11
REMARK SMILES IDX 26 12 27 13 28 14 29 15 30 16 14 17 13 18 12 19 11 20 10 21
REMARK SMILES IDX 9 22 8 23 7 24 6 25 5 26 4 27 3 28 2 29 1 30
REMARK H PARENT
REMARK Flexibility Score: inf
ROOT
ATOM      1  C   UNL     1      -2.122  23.997  54.397  1.00  0.00     0.000 C 
ENDROOT
BRANCH   1   2
ATOM      2  C   UNL     1      -0.627  23.979  54.055  1.00  0.00     0.000 C 
BRANCH   2   3
ATOM      3  C   UNL     1       0.021  25.336  54.364  1.00  0.00     0.000 C 
BRANCH   3   4
ATOM      4  C   UNL     1      -0.687  26.508  53.667  1.00  0.00     0.000 C 
BRANCH   4   5
ATOM      5  C   UNL     1      -1.014  27.661  54.627  1.00  0.00     0.000 C 
BRANCH   5   6
ATOM      6  C   UNL     1      -2.294  28.392  54.193  1.00  0.00     0.000 C 
BRANCH   6   7
ATOM      7  C   UNL     1      -3.564  27.540  54.369  1.00  0.00     0.000 C 
BRANCH   7   8
ATOM      8  C   UNL     1      -4.686  28.201  55.190  1.00  0.00     0.000 C 
BRANCH   8   9
ATOM      9  C   UNL     1      -5.524  27.189  55.986  1.00  0.00     0.000 C 
BRANCH   9  10
ATOM     10  C   UNL     1      -5.949  27.774  57.341  1.00  0.00     0.000 C 
BRANCH  10  11
ATOM     11  C   UNL     1      -6.257  26.680  58.386  1.00  0.00     0.000 C 
BRANCH  11  12
ATOM     12  C   UNL     1      -7.436  25.768  57.998  1.00  0.00     0.006 C 
BRANCH  12  13
ATOM     13  C   UNL     1      -7.020  24.364  57.534  1.00  0.00     0.053 C 
BRANCH  13  14
ATOM     14  C   UNL     1      -7.320  24.139  56.084  1.00  0.00     0.041 C 
ATOM     15  O   UNL     1      -8.471  24.376  55.630  1.00  0.00    -0.550 OA
ATOM     16  O   UNL     1      -6.332  23.661  55.232  1.00  0.00    -0.550 OA
ENDBRANCH  13  14
ENDBRANCH  12  13
ENDBRANCH  11  12
ENDBRANCH  10  11
ENDBRANCH   9  10
ENDBRANCH   8   9
ENDBRANCH   7   8
ENDBRANCH   6   7
ENDBRANCH   5   6
ENDBRANCH   4   5
ENDBRANCH   3   4
ENDBRANCH   2   3
ENDBRANCH   1   2
BRANCH   1  17
ATOM     17  C   UNL     1      -2.360  23.594  55.858  1.00  0.00     0.000 C 
BRANCH  17  18
ATOM     18  C   UNL     1      -3.174  24.663  56.596  1.00  0.00     0.000 C 
BRANCH  18  19
ATOM     19  C   UNL     1      -2.253  25.616  57.374  1.00  0.00     0.000 C 
BRANCH  19  20
ATOM     20  C   UNL     1      -2.851  26.038  58.727  1.00  0.00     0.000 C 
BRANCH  20  21
ATOM     21  C   UNL     1      -2.701  27.547  58.991  1.00  0.00     0.000 C 
BRANCH  21  22
ATOM     22  C   UNL     1      -1.523  28.175  58.210  1.00  0.00    -0.000 C 
BRANCH  22  23
ATOM     23  C   UNL     1      -1.701  29.676  57.921  1.00  0.00    -0.000 C 
BRANCH  23  24
ATOM     24  C   UNL     1      -3.035  30.271  58.405  1.00  0.00    -0.000 C 
BRANCH  24  25
ATOM     25  C   UNL     1      -3.864  30.935  57.283  1.00  0.00    -0.000 C 
BRANCH  25  26
ATOM     26  C   UNL     1      -2.999  31.403  56.103  1.00  0.00    -0.000 C 
BRANCH  26  27
ATOM     27  C   UNL     1      -3.863  31.710  54.872  1.00  0.00    -0.000 C 
BRANCH  27  28
ATOM     28  C   UNL     1      -5.333  31.996  55.227  1.00  0.00    -0.000 C 
BRANCH  28  29
ATOM     29  C   UNL     1      -6.284  32.093  54.021  1.00  0.00    -0.003 C 
ATOM     30  C   UNL     1      -7.210  33.307  54.087  1.00  0.00     0.004 C 
ENDBRANCH  28  29
ENDBRANCH  27  28
ENDBRANCH  26  27
ENDBRANCH  25  26
ENDBRANCH  24  25
ENDBRANCH  23  24
ENDBRANCH  22  23
ENDBRANCH  21  22
ENDBRANCH  20  21
ENDBRANCH  19  20
ENDBRANCH  18  19
ENDBRANCH  17  18
ENDBRANCH   1  17
TORSDOF 26
ENDMDL
MODEL 5
REMARK VINA RESULT:    -3.973      2.289      5.663
REMARK INTER + INTRA:         -15.085
REMARK INTER:                  -9.413
REMARK INTRA:                  -5.672
REMARK UNBOUND:                -5.074
REMARK SMILES CCCCCCCCCCCCCCCCCCCCCCCCCCCC(=O)[O-]
REMARK SMILES IDX 15 1 16 2 17 3 18 4 19 5 20 6 21 7 22 8 23 9 24 10 25 11
REMARK SMILES IDX 26 12 27 13 28 14 29 15 30 16 14 17 13 18 12 19 11 20 10 21
REMARK SMILES IDX 9 22 8 23 7 24 6 25 5 26 4 27 3 28 2 29 1 30
REMARK H PARENT
REMARK Flexibility Score: inf
ROOT
ATOM      1  C   UNL     1      -5.447  23.929  56.377  1.00  0.00     0.000 C 
ENDROOT
BRANCH   1   2
ATOM      2  C   UNL     1      -5.948  23.901  57.825  1.00  0.00     0.000 C 
BRANCH   2   3
ATOM      3  C   UNL     1      -5.468  25.140  58.595  1.00  0.00     0.000 C 
BRANCH   3   4
ATOM      4  C   UNL     1      -5.746  26.452  57.846  1.00  0.00     0.000 C 
BRANCH   4   5
ATOM      5  C   UNL     1      -4.488  27.317  57.674  1.00  0.00     0.000 C 
BRANCH   5   6
ATOM      6  C   UNL     1      -3.252  26.611  58.252  1.00  0.00     0.000 C 
BRANCH   6   7
ATOM      7  C   UNL     1      -2.137  27.589  58.665  1.00  0.00     0.000 C 
BRANCH   7   8
ATOM      8  C   UNL     1      -2.573  28.708  59.628  1.00  0.00     0.000 C 
BRANCH   8   9
ATOM      9  C   UNL     1      -2.572  30.098  58.973  1.00  0.00     0.000 C 
BRANCH   9  10
ATOM     10  C   UNL     1      -1.905  30.053  57.591  1.00  0.00     0.000 C 
BRANCH  10  11
ATOM     11  C   UNL     1      -2.637  30.933  56.554  1.00  0.00     0.000 C 
BRANCH  11  12
ATOM     12  C   UNL     1      -3.843  30.239  55.893  1.00  0.00     0.006 C 
BRANCH  12  13
ATOM     13  C   UNL     1      -4.512  31.063  54.782  1.00  0.00     0.053 C 
BRANCH  13  14
ATOM     14  C   UNL     1      -6.005  31.066  54.906  1.00  0.00     0.041 C 
ATOM     15  O   UNL     1      -6.722  31.378  53.918  1.00  0.00    -0.550 OA
ATOM     16  O   UNL     1      -6.607  30.731  56.112  1.00  0.00    -0.550 OA
ENDBRANCH  13  14
ENDBRANCH  12  13
ENDBRANCH  11  12
ENDBRANCH  10  11
ENDBRANCH   9  10
ENDBRANCH   8   9
ENDBRANCH   7   8
ENDBRANCH   6   7
ENDBRANCH   5   6
ENDBRANCH   4   5
ENDBRANCH   3   4
ENDBRANCH   2   3
ENDBRANCH   1   2
BRANCH   1  17
ATOM     17  C   UNL     1      -4.264  22.972  56.182  1.00  0.00     0.000 C 
BRANCH  17  18
ATOM     18  C   UNL     1      -2.970  23.747  55.910  1.00  0.00     0.000 C 
BRANCH  18  19
ATOM     19  C   UNL     1      -2.124  23.046  54.836  1.00  0.00     0.000 C 
BRANCH  19  20
ATOM     20  C   UNL     1      -0.851  23.832  54.483  1.00  0.00     0.000 C 
BRANCH  20  21
ATOM     21  C   UNL     1      -0.445  24.821  55.591  1.00  0.00     0.000 C 
BRANCH  21  22
ATOM     22  C   UNL     1       0.072  26.166  55.030  1.00  0.00    -0.000 C 
BRANCH  22  23
ATOM     23  C   UNL     1      -0.888  27.346  55.265  1.00  0.00    -0.000 C 
BRANCH  23  24
ATOM     24  C   UNL     1      -1.326  28.083  53.987  1.00  0.00    -0.000 C 
BRANCH  24  25
ATOM     25  C   UNL     1      -2.524  27.424  53.268  1.00  0.00    -0.000 C 
BRANCH  25  26
ATOM     26  C   UNL     1      -3.635  26.993  54.238  1.00  0.00    -0.000 C 
BRANCH  26  27
ATOM     27  C   UNL     1      -4.662  26.092  53.537  1.00  0.00    -0.000 C 
BRANCH  27  28
ATOM     28  C   UNL     1      -4.019  25.123  52.529  1.00  0.00    -0.000 C 
BRANCH  28  29
ATOM     29  C   UNL     1      -4.969  24.050  51.965  1.00  0.00    -0.003 C 
ATOM     30  C   UNL     1      -6.188  23.806  52.853  1.00  0.00     0.004 C 
ENDBRANCH  28  29
ENDBRANCH  27  28
ENDBRANCH  26  27
ENDBRANCH  25  26
ENDBRANCH  24  25
ENDBRANCH  23  24
ENDBRANCH  22  23
ENDBRANCH  21  22
ENDBRANCH  20  21
ENDBRANCH  19  20
ENDBRANCH  18  19
ENDBRANCH  17  18
ENDBRANCH   1  17
TORSDOF 26
ENDMDL
MODEL 6
REMARK VINA RESULT:    -3.969      2.032      5.368
REMARK INTER + INTRA:         -15.075
REMARK INTER:                  -9.810
REMARK INTRA:                  -5.265
REMARK UNBOUND:                -5.074
REMARK SMILES CCCCCCCCCCCCCCCCCCCCCCCCCCCC(=O)[O-]
REMARK SMILES IDX 15 1 16 2 17 3 18 4 19 5 20 6 21 7 22 8 23 9 24 10 25 11
REMARK SMILES IDX 26 12 27 13 28 14 29 15 30 16 14 17 13 18 12 19 11 20 10 21
REMARK SMILES IDX 9 22 8 23 7 24 6 25 5 26 4 27 3 28 2 29 1 30
REMARK H PARENT
REMARK Flexibility Score: inf
ROOT
ATOM      1  C   UNL     1      -2.748  26.950  58.728  1.00  0.00     0.000 C 
ENDROOT
BRANCH   1   2
ATOM      2  C   UNL     1      -2.837  28.206  59.603  1.00  0.00     0.000 C 
BRANCH   2   3
ATOM      3  C   UNL     1      -2.472  29.461  58.796  1.00  0.00     0.000 C 
BRANCH   3   4
ATOM      4  C   UNL     1      -0.967  29.573  58.515  1.00  0.00     0.000 C 
BRANCH   4   5
ATOM      5  C   UNL     1      -0.649  30.513  57.342  1.00  0.00     0.000 C 
BRANCH   5   6
ATOM      6  C   UNL     1      -1.694  30.373  56.226  1.00  0.00     0.000 C 
BRANCH   6   7
ATOM      7  C   UNL     1      -1.285  29.363  55.138  1.00  0.00     0.000 C 
BRANCH   7   8
ATOM      8  C   UNL     1      -1.833  27.937  55.331  1.00  0.00     0.000 C 
BRANCH   8   9
ATOM      9  C   UNL     1      -3.196  27.720  54.657  1.00  0.00     0.000 C 
BRANCH   9  10
ATOM     10  C   UNL     1      -4.338  27.849  55.676  1.00  0.00     0.000 C 
BRANCH  10  11
ATOM     11  C   UNL     1      -5.313  28.995  55.327  1.00  0.00     0.000 C 
BRANCH  11  12
ATOM     12  C   UNL     1      -5.396  30.089  56.409  1.00  0.00     0.006 C 
BRANCH  12  13
ATOM     13  C   UNL     1      -5.645  31.501  55.858  1.00  0.00     0.053 C 
BRANCH  13  14
ATOM     14  C   UNL     1      -7.054  31.677  55.379  1.00  0.00     0.041 C 
ATOM     15  O   UNL     1      -8.015  31.590  56.189  1.00  0.00    -0.550 OA
ATOM     16  O   UNL     1      -7.308  31.931  54.037  1.00  0.00    -0.550 OA
ENDBRANCH  13  14
ENDBRANCH  12  13
ENDBRANCH  11  12
ENDBRANCH  10  11
ENDBRANCH   9  10
ENDBRANCH   8   9
ENDBRANCH   7   8
ENDBRANCH   6   7
ENDBRANCH   5   6
ENDBRANCH   4   5
ENDBRANCH   3   4
ENDBRANCH   2   3
ENDBRANCH   1   2
BRANCH   1  17
ATOM     17  C   UNL     1      -3.784  25.903  59.157  1.00  0.00     0.000 C 
BRANCH  17  18
ATOM     18  C   UNL     1      -5.198  26.495  59.152  1.00  0.00     0.000 C 
BRANCH  18  19
ATOM     19  C   UNL     1      -6.248  25.410  58.865  1.00  0.00     0.000 C 
BRANCH  19  20
ATOM     20  C   UNL     1      -7.198  25.799  57.720  1.00  0.00     0.000 C 
BRANCH  20  21
ATOM     21  C   UNL     1      -6.714  25.285  56.353  1.00  0.00     0.000 C 
BRANCH  21  22
ATOM     22  C   UNL     1      -5.728  24.100  56.476  1.00  0.00    -0.000 C 
BRANCH  22  23
ATOM     23  C   UNL     1      -4.603  24.117  55.426  1.00  0.00    -0.000 C 
BRANCH  23  24
ATOM     24  C   UNL     1      -3.187  24.292  56.002  1.00  0.00    -0.000 C 
BRANCH  24  25
ATOM     25  C   UNL     1      -2.188  23.211  55.536  1.00  0.00    -0.000 C 
BRANCH  25  26
ATOM     26  C   UNL     1      -0.957  23.802  54.831  1.00  0.00    -0.000 C 
BRANCH  26  27
ATOM     27  C   UNL     1      -1.347  24.463  53.501  1.00  0.00    -0.000 C 
BRANCH  27  28
ATOM     28  C   UNL     1      -1.939  23.468  52.488  1.00  0.00    -0.000 C 
BRANCH  28  29
ATOM     29  C   UNL     1      -3.228  23.941  51.793  1.00  0.00    -0.003 C 
ATOM     30  C   UNL     1      -3.570  25.399  52.098  1.00  0.00     0.004 C 
ENDBRANCH  28  29
ENDBRANCH  27  28
ENDBRANCH  26  27
ENDBRANCH  25  26
ENDBRANCH  24  25
ENDBRANCH  23  24
ENDBRANCH  22  23
ENDBRANCH  21  22
ENDBRANCH  20  21
ENDBRANCH  19  20
ENDBRANCH  18  19
ENDBRANCH  17  18
ENDBRANCH   1  17
TORSDOF 26
ENDMDL
MODEL 7
REMARK VINA RESULT:    -3.941      3.145      6.970
REMARK INTER + INTRA:         -15.006
REMARK INTER:                  -9.384
REMARK INTRA:                  -5.622
REMARK UNBOUND:                -5.074
REMARK SMILES CCCCCCCCCCCCCCCCCCCCCCCCCCCC(=O)[O-]
REMARK SMILES IDX 15 1 16 2 17 3 18 4 19 5 20 6 21 7 22 8 23 9 24 10 25 11
REMARK SMILES IDX 26 12 27 13 28 14 29 15 30 16 14 17 13 18 12 19 11 20 10 21
REMARK SMILES IDX 9 22 8 23 7 24 6 25 5 26 4 27 3 28 2 29 1 30
REMARK H PARENT
REMARK Flexibility Score: inf
ROOT
ATOM      1  C   UNL     1      -3.048  26.624  58.806  1.00  0.00     0.000 C 
ENDROOT
BRANCH   1   2
ATOM      2  C   UNL     1      -4.444  26.236  58.305  1.00  0.00     0.000 C 
BRANCH   2   3
ATOM      3  C   UNL     1      -5.092  27.399  57.538  1.00  0.00     0.000 C 
BRANCH   3   4
ATOM      4  C   UNL     1      -5.640  26.977  56.167  1.00  0.00     0.000 C 
BRANCH   4   5
ATOM      5  C   UNL     1      -5.195  27.915  55.034  1.00  0.00     0.000 C 
BRANCH   5   6
ATOM      6  C   UNL     1      -3.700  28.245  55.150  1.00  0.00     0.000 C 
BRANCH   6   7
ATOM      7  C   UNL     1      -2.852  27.605  54.035  1.00  0.00     0.000 C 
BRANCH   7   8
ATOM      8  C   UNL     1      -1.336  27.847  54.146  1.00  0.00     0.000 C 
BRANCH   8   9
ATOM      9  C   UNL     1      -0.735  27.304  55.452  1.00  0.00     0.000 C 
BRANCH   9  10
ATOM     10  C   UNL     1      -0.356  25.823  55.307  1.00  0.00     0.000 C 
BRANCH  10  11
ATOM     11  C   UNL     1      -1.105  24.921  56.312  1.00  0.00     0.000 C 
BRANCH  11  12
ATOM     12  C   UNL     1      -1.934  23.807  55.645  1.00  0.00     0.006 C 
BRANCH  12  13
ATOM     13  C   UNL     1      -3.407  24.175  55.409  1.00  0.00     0.053 C 
BRANCH  13  14
ATOM     14  C   UNL     1      -4.339  23.115  55.911  1.00  0.00     0.041 C 
ATOM     15  O   UNL     1      -4.005  21.901  55.860  1.00  0.00    -0.550 OA
ATOM     16  O   UNL     1      -5.580  23.464  56.428  1.00  0.00    -0.550 OA
ENDBRANCH  13  14
ENDBRANCH  12  13
ENDBRANCH  11  12
ENDBRANCH  10  11
ENDBRANCH   9  10
ENDBRANCH   8   9
ENDBRANCH   7   8
ENDBRANCH   6   7
ENDBRANCH   5   6
ENDBRANCH   4   5
ENDBRANCH   3   4
ENDBRANCH   2   3
ENDBRANCH   1   2
BRANCH   1  17
ATOM     17  C   UNL     1      -2.853  28.145  58.777  1.00  0.00     0.000 C 
BRANCH  17  18
ATOM     18  C   UNL     1      -1.369  28.511  58.898  1.00  0.00     0.000 C 
BRANCH  18  19
ATOM     19  C   UNL     1      -1.136  29.989  58.549  1.00  0.00     0.000 C 
BRANCH  19  20
ATOM     20  C   UNL     1      -1.767  30.382  57.203  1.00  0.00     0.000 C 
BRANCH  20  21
ATOM     21  C   UNL     1      -0.733  30.940  56.209  1.00  0.00     0.000 C 
BRANCH  21  22
ATOM     22  C   UNL     1      -1.226  32.215  55.487  1.00  0.00    -0.000 C 
BRANCH  22  23
ATOM     23  C   UNL     1      -0.816  32.287  54.005  1.00  0.00    -0.000 C 
BRANCH  23  24
ATOM     24  C   UNL     1      -1.695  31.459  53.052  1.00  0.00    -0.000 C 
BRANCH  24  25
ATOM     25  C   UNL     1      -3.154  31.300  53.534  1.00  0.00    -0.000 C 
BRANCH  25  26
ATOM     26  C   UNL     1      -4.010  32.547  53.261  1.00  0.00    -0.000 C 
BRANCH  26  27
ATOM     27  C   UNL     1      -4.844  32.925  54.493  1.00  0.00    -0.000 C 
BRANCH  27  28
ATOM     28  C   UNL     1      -4.871  31.818  55.562  1.00  0.00    -0.000 C 
BRANCH  28  29
ATOM     29  C   UNL     1      -6.277  31.331  55.954  1.00  0.00    -0.003 C 
ATOM     30  C   UNL     1      -7.294  31.468  54.822  1.00  0.00     0.004 C 
ENDBRANCH  28  29
ENDBRANCH  27  28
ENDBRANCH  26  27
ENDBRANCH  25  26
ENDBRANCH  24  25
ENDBRANCH  23  24
ENDBRANCH  22  23
ENDBRANCH  21  22
ENDBRANCH  20  21
ENDBRANCH  19  20
ENDBRANCH  18  19
ENDBRANCH  17  18
ENDBRANCH   1  17
TORSDOF 26
ENDMDL
MODEL 8
REMARK VINA RESULT:    -3.939      1.643      3.061
REMARK INTER + INTRA:         -15.000
REMARK INTER:                  -9.952
REMARK INTRA:                  -5.048
REMARK UNBOUND:                -5.074
REMARK SMILES CCCCCCCCCCCCCCCCCCCCCCCCCCCC(=O)[O-]
REMARK SMILES IDX 15 1 16 2 17 3 18 4 19 5 20 6 21 7 22 8 23 9 24 10 25 11
REMARK SMILES IDX 26 12 27 13 28 14 29 15 30 16 14 17 13 18 12 19 11 20 10 21
REMARK SMILES IDX 9 22 8 23 7 24 6 25 5 26 4 27 3 28 2 29 1 30
REMARK H PARENT
REMARK Flexibility Score: inf
ROOT
ATOM      1  C   UNL     1      -2.580  29.441  54.189  1.00  0.00     0.000 C 
ENDROOT
BRANCH   1   2
ATOM      2  C   UNL     1      -1.348  29.408  55.101  1.00  0.00     0.000 C 
BRANCH   2   3
ATOM      3  C   UNL     1      -1.431  30.505  56.173  1.00  0.00     0.000 C 
BRANCH   3   4
ATOM      4  C   UNL     1      -2.176  31.758  55.688  1.00  0.00     0.000 C 
BRANCH   4   5
ATOM      5  C   UNL     1      -1.266  32.734  54.926  1.00  0.00     0.000 C 
BRANCH   5   6
ATOM      6  C   UNL     1      -1.264  34.118  55.592  1.00  0.00     0.000 C 
BRANCH   6   7
ATOM      7  C   UNL     1      -2.629  34.826  55.516  1.00  0.00     0.000 C 
BRANCH   7   8
ATOM      8  C   UNL     1      -2.631  36.162  54.751  1.00  0.00     0.000 C 
BRANCH   8   9
ATOM      9  C   UNL     1      -3.334  36.073  53.388  1.00  0.00     0.000 C 
BRANCH   9  10
ATOM     10  C   UNL     1      -4.460  35.030  53.418  1.00  0.00     0.000 C 
BRANCH  10  11
ATOM     11  C   UNL     1      -4.156  33.808  52.524  1.00  0.00     0.000 C 
BRANCH  11  12
ATOM     12  C   UNL     1      -4.730  32.485  53.066  1.00  0.00     0.006 C 
BRANCH  12  13
ATOM     13  C   UNL     1      -5.451  32.618  54.415  1.00  0.00     0.053 C 
BRANCH  13  14
ATOM     14  C   UNL     1      -6.938  32.509  54.272  1.00  0.00     0.041 C 
ATOM     15  O   UNL     1      -7.631  33.538  54.053  1.00  0.00    -0.550 OA
ATOM     16  O   UNL     1      -7.562  31.273  54.386  1.00  0.00    -0.550 OA
ENDBRANCH  13  14
ENDBRANCH  12  13
ENDBRANCH  11  12
ENDBRANCH  10  11
ENDBRANCH   9  10
ENDBRANCH   8   9
ENDBRANCH   7   8
ENDBRANCH   6   7
ENDBRANCH   5   6
ENDBRANCH   4   5
ENDBRANCH   3   4
ENDBRANCH   2   3
ENDBRANCH   1   2
BRANCH   1  17
ATOM     17  C   UNL     1      -3.620  28.402  54.626  1.00  0.00     0.000 C 
BRANCH  17  18
ATOM     18  C   UNL     1      -4.907  29.082  55.107  1.00  0.00     0.000 C 
BRANCH  18  19
ATOM     19  C   UNL     1      -4.872  29.313  56.625  1.00  0.00     0.000 C 
BRANCH  19  20
ATOM     20  C   UNL     1      -4.592  28.021  57.411  1.00  0.00     0.000 C 
BRANCH  20  21
ATOM     21  C   UNL     1      -3.395  28.162  58.368  1.00  0.00     0.000 C 
BRANCH  21  22
ATOM     22  C   UNL     1      -2.574  26.858  58.493  1.00  0.00    -0.000 C 
BRANCH  22  23
ATOM     23  C   UNL     1      -1.841  26.459  57.199  1.00  0.00    -0.000 C 
BRANCH  23  24
ATOM     24  C   UNL     1      -2.062  25.001  56.758  1.00  0.00    -0.000 C 
BRANCH  24  25
ATOM     25  C   UNL     1      -2.927  24.861  55.486  1.00  0.00    -0.000 C 
BRANCH  25  26
ATOM     26  C   UNL     1      -4.433  24.829  55.791  1.00  0.00    -0.000 C 
BRANCH  26  27
ATOM     27  C   UNL     1      -4.812  23.560  56.568  1.00  0.00    -0.000 C 
BRANCH  27  28
ATOM     28  C   UNL     1      -5.576  23.861  57.870  1.00  0.00    -0.000 C 
BRANCH  28  29
ATOM     29  C   UNL     1      -6.590  25.016  57.774  1.00  0.00    -0.003 C 
ATOM     30  C   UNL     1      -6.956  25.603  59.137  1.00  0.00     0.004 C 
ENDBRANCH  28  29
ENDBRANCH  27  28
ENDBRANCH  26  27
ENDBRANCH  25  26
ENDBRANCH  24  25
ENDBRANCH  23  24
ENDBRANCH  22  23
ENDBRANCH  21  22
ENDBRANCH  20  21
ENDBRANCH  19  20
ENDBRANCH  18  19
ENDBRANCH  17  18
ENDBRANCH   1  17
TORSDOF 26
ENDMDL
MODEL 9
REMARK VINA RESULT:    -3.905      2.030      5.328
REMARK INTER + INTRA:         -14.915
REMARK INTER:                  -9.767
REMARK INTRA:                  -5.147
REMARK UNBOUND:                -5.074
REMARK SMILES CCCCCCCCCCCCCCCCCCCCCCCCCCCC(=O)[O-]
REMARK SMILES IDX 15 1 16 2 17 3 18 4 19 5 20 6 21 7 22 8 23 9 24 10 25 11
REMARK SMILES IDX 26 12 27 13 28 14 29 15 30 16 14 17 13 18 12 19 11 20 10 21
REMARK SMILES IDX 9 22 8 23 7 24 6 25 5 26 4 27 3 28 2 29 1 30
REMARK H PARENT
REMARK Flexibility Score: inf
ROOT
ATOM      1  C   UNL     1      -1.040  25.477  55.954  1.00  0.00     0.000 C 
ENDROOT
BRANCH   1   2
ATOM      2  C   UNL     1      -1.087  26.850  56.634  1.00  0.00     0.000 C 
BRANCH   2   3
ATOM      3  C   UNL     1      -2.125  26.865  57.765  1.00  0.00     0.000 C 
BRANCH   3   4
ATOM      4  C   UNL     1      -2.353  28.268  58.347  1.00  0.00     0.000 C 
BRANCH   4   5
ATOM      5  C   UNL     1      -1.400  29.319  57.758  1.00  0.00     0.000 C 
BRANCH   5   6
ATOM      6  C   UNL     1      -2.181  30.435  57.049  1.00  0.00     0.000 C 
BRANCH   6   7
ATOM      7  C   UNL     1      -3.689  30.407  57.359  1.00  0.00     0.000 C 
BRANCH   7   8
ATOM      8  C   UNL     1      -4.525  31.478  56.635  1.00  0.00     0.000 C 
BRANCH   8   9
ATOM      9  C   UNL     1      -5.392  30.901  55.506  1.00  0.00     0.000 C 
BRANCH   9  10
ATOM     10  C   UNL     1      -6.492  31.892  55.098  1.00  0.00     0.000 C 
BRANCH  10  11
ATOM     11  C   UNL     1      -6.339  32.376  53.640  1.00  0.00     0.000 C 
BRANCH  11  12
ATOM     12  C   UNL     1      -4.876  32.458  53.164  1.00  0.00     0.006 C 
BRANCH  12  13
ATOM     13  C   UNL     1      -4.397  33.882  52.847  1.00  0.00     0.053 C 
BRANCH  13  14
ATOM     14  C   UNL     1      -4.522  34.794  54.030  1.00  0.00     0.041 C 
ATOM     15  O   UNL     1      -5.356  35.738  54.016  1.00  0.00    -0.550 OA
ATOM     16  O   UNL     1      -3.714  34.606  55.144  1.00  0.00    -0.550 OA
ENDBRANCH  13  14
ENDBRANCH  12  13
ENDBRANCH  11  12
ENDBRANCH  10  11
ENDBRANCH   9  10
ENDBRANCH   8   9
ENDBRANCH   7   8
ENDBRANCH   6   7
ENDBRANCH   5   6
ENDBRANCH   4   5
ENDBRANCH   3   4
ENDBRANCH   2   3
ENDBRANCH   1   2
BRANCH   1  17
ATOM     17  C   UNL     1      -2.137  24.553  56.496  1.00  0.00     0.000 C 
BRANCH  17  18
ATOM     18  C   UNL     1      -2.858  23.827  55.355  1.00  0.00     0.000 C 
BRANCH  18  19
ATOM     19  C   UNL     1      -3.958  22.902  55.899  1.00  0.00     0.000 C 
BRANCH  19  20
ATOM     20  C   UNL     1      -5.282  23.643  56.146  1.00  0.00     0.000 C 
BRANCH  20  21
ATOM     21  C   UNL     1      -5.620  23.760  57.642  1.00  0.00     0.000 C 
BRANCH  21  22
ATOM     22  C   UNL     1      -5.444  25.198  58.184  1.00  0.00    -0.000 C 
BRANCH  22  23
ATOM     23  C   UNL     1      -6.313  26.244  57.462  1.00  0.00    -0.000 C 
BRANCH  23  24
ATOM     24  C   UNL     1      -5.524  27.296  56.664  1.00  0.00    -0.000 C 
BRANCH  24  25
ATOM     25  C   UNL     1      -5.698  27.175  55.134  1.00  0.00    -0.000 C 
BRANCH  25  26
ATOM     26  C   UNL     1      -4.370  26.931  54.401  1.00  0.00    -0.000 C 
BRANCH  26  27
ATOM     27  C   UNL     1      -3.519  28.208  54.360  1.00  0.00    -0.000 C 
BRANCH  27  28
ATOM     28  C   UNL     1      -2.342  28.112  53.373  1.00  0.00    -0.000 C 
BRANCH  28  29
ATOM     29  C   UNL     1      -2.222  26.765  52.638  1.00  0.00    -0.003 C 
ATOM     30  C   UNL     1      -2.306  26.905  51.118  1.00  0.00     0.004 C 
ENDBRANCH  28  29
ENDBRANCH  27  28
ENDBRANCH  26  27
ENDBRANCH  25  26
ENDBRANCH  24  25
ENDBRANCH  23  24
ENDBRANCH  22  23
ENDBRANCH  21  22
ENDBRANCH  20  21
ENDBRANCH  19  20
ENDBRANCH  18  19
ENDBRANCH  17  18
ENDBRANCH   1  17
TORSDOF 26
ENDMDL
