MODEL 1
REMARK VINA RESULT:    -4.676      0.000      0.000
REMARK INTER + INTRA:          -5.796
REMARK INTER:                  -5.496
REMARK INTRA:                  -0.301
REMARK UNBOUND:                -0.301
REMARK SMILES O=c1cc(-c2ccc(O)c(O)c2)oc2cc(O)cc(O)c12
REMARK SMILES IDX 4 1 3 2 2 3 1 4 21 5 19 6 18 7 16 8 15 9 14 10 13 11 5 12
REMARK SMILES IDX 6 13 7 14 8 15 12 16 10 17 9 18 11 20 20 22 17 24
REMARK H PARENT 9 19 11 21 20 23 17 25
REMARK Flexibility Score: inf
ROOT
ATOM      1  C   UNL     1      24.163  45.748  86.259  1.00  0.00     0.138 A 
ATOM      2  C   UNL     1      25.225  46.255  87.020  1.00  0.00     0.100 A 
ATOM      3  C   UNL     1      25.089  47.487  87.661  1.00  0.00     0.197 A 
ATOM      4  O   UNL     1      26.081  47.944  88.286  1.00  0.00    -0.289 OA
ATOM      5  C   UNL     1      23.871  48.201  87.562  1.00  0.00     0.107 A 
ATOM      6  C   UNL     1      23.603  49.446  88.206  1.00  0.00     0.134 A 
ATOM      7  C   UNL     1      22.402  50.115  87.941  1.00  0.00     0.093 A 
ATOM      8  C   UNL     1      21.434  49.556  87.104  1.00  0.00     0.123 A 
ATOM      9  C   UNL     1      21.663  48.315  86.514  1.00  0.00     0.094 A 
ATOM     10  C   UNL     1      22.865  47.638  86.730  1.00  0.00     0.146 A 
ATOM     11  O   UNL     1      23.050  46.463  86.137  1.00  0.00    -0.456 OA
ENDROOT
BRANCH   1  12
ATOM     12  C   UNL     1      24.254  44.442  85.558  1.00  0.00     0.021 A 
ATOM     13  C   UNL     1      25.460  43.990  84.990  1.00  0.00     0.016 A 
ATOM     14  C   UNL     1      25.518  42.752  84.345  1.00  0.00     0.051 A 
ATOM     15  C   UNL     1      24.379  41.941  84.262  1.00  0.00     0.157 A 
ATOM     16  C   UNL     1      23.117  43.617  85.482  1.00  0.00     0.062 A 
ATOM     17  C   UNL     1      23.173  42.377  84.836  1.00  0.00     0.158 A 
BRANCH  15  18
ATOM     18  O   UNL     1      24.442  40.707  83.618  1.00  0.00    -0.504 OA
ATOM     19  H   UNL     1      24.705  40.630  82.641  1.00  0.00     0.293 HD
ENDBRANCH  15  18
BRANCH  17  20
ATOM     20  O   UNL     1      22.022  41.592  84.775  1.00  0.00    -0.504 OA
ATOM     21  H   UNL     1      22.018  40.675  84.346  1.00  0.00     0.293 HD
ENDBRANCH  17  20
ENDBRANCH   1  12
BRANCH   6  22
ATOM     22  O   UNL     1      24.466  50.050  89.125  1.00  0.00    -0.507 OA
ATOM     23  H   UNL     1      25.451  49.852  89.209  1.00  0.00     0.293 HD
ENDBRANCH   6  22
BRANCH   8  24
ATOM     24  O   UNL     1      20.235  50.222  86.858  1.00  0.00    -0.508 OA
ATOM     25  H   UNL     1      19.359  49.722  86.773  1.00  0.00     0.293 HD
ENDBRANCH   8  24
TORSDOF 5
ENDMDL
MODEL 2
REMARK VINA RESULT:    -4.557      1.804      6.682
REMARK INTER + INTRA:          -5.657
REMARK INTER:                  -5.388
REMARK INTRA:                  -0.269
REMARK UNBOUND:                -0.301
REMARK SMILES O=c1cc(-c2ccc(O)c(O)c2)oc2cc(O)cc(O)c12
REMARK SMILES IDX 4 1 3 2 2 3 1 4 21 5 19 6 18 7 16 8 15 9 14 10 13 11 5 12
REMARK SMILES IDX 6 13 7 14 8 15 12 16 10 17 9 18 11 20 20 22 17 24
REMARK H PARENT 9 19 11 21 20 23 17 25
REMARK Flexibility Score: inf
ROOT
ATOM      1  C   UNL     1      23.408  47.216  86.700  1.00  0.00     0.138 A 
ATOM      2  C   UNL     1      24.625  47.888  86.523  1.00  0.00     0.100 A 
ATOM      3  C   UNL     1      25.706  47.218  85.947  1.00  0.00     0.197 A 
ATOM      4  O   UNL     1      26.803  47.828  85.858  1.00  0.00    -0.289 OA
ATOM      5  C   UNL     1      25.555  45.878  85.517  1.00  0.00     0.107 A 
ATOM      6  C   UNL     1      26.575  45.109  84.879  1.00  0.00     0.134 A 
ATOM      7  C   UNL     1      26.347  43.756  84.604  1.00  0.00     0.093 A 
ATOM      8  C   UNL     1      25.116  43.159  84.888  1.00  0.00     0.123 A 
ATOM      9  C   UNL     1      24.096  43.916  85.460  1.00  0.00     0.094 A 
ATOM     10  C   UNL     1      24.304  45.259  85.779  1.00  0.00     0.146 A 
ATOM     11  O   UNL     1      23.309  45.941  86.339  1.00  0.00    -0.456 OA
ENDROOT
BRANCH   1  12
ATOM     12  C   UNL     1      22.226  47.881  87.306  1.00  0.00     0.021 A 
ATOM     13  C   UNL     1      21.578  47.350  88.437  1.00  0.00     0.016 A 
ATOM     14  C   UNL     1      20.475  48.002  88.992  1.00  0.00     0.051 A 
ATOM     15  C   UNL     1      20.003  49.198  88.435  1.00  0.00     0.157 A 
ATOM     16  C   UNL     1      21.756  49.088  86.759  1.00  0.00     0.062 A 
ATOM     17  C   UNL     1      20.650  49.744  87.314  1.00  0.00     0.158 A 
BRANCH  15  18
ATOM     18  O   UNL     1      18.902  49.845  88.991  1.00  0.00    -0.504 OA
ATOM     19  H   UNL     1      18.829  50.006  89.990  1.00  0.00     0.293 HD
ENDBRANCH  15  18
BRANCH  17  20
ATOM     20  O   UNL     1      20.209  50.934  86.737  1.00  0.00    -0.504 OA
ATOM     21  H   UNL     1      20.062  51.027  85.739  1.00  0.00     0.293 HD
ENDBRANCH  17  20
ENDBRANCH   1  12
BRANCH   6  22
ATOM     22  O   UNL     1      27.808  45.630  84.477  1.00  0.00    -0.507 OA
ATOM     23  H   UNL     1      27.987  46.603  84.280  1.00  0.00     0.293 HD
ENDBRANCH   6  22
BRANCH   8  24
ATOM     24  O   UNL     1      24.893  41.815  84.596  1.00  0.00    -0.508 OA
ATOM     25  H   UNL     1      23.971  41.403  84.668  1.00  0.00     0.293 HD
ENDBRANCH   8  24
TORSDOF 5
ENDMDL
MODEL 3
REMARK VINA RESULT:    -4.504      1.453      2.193
REMARK INTER + INTRA:          -5.595
REMARK INTER:                  -5.324
REMARK INTRA:                  -0.271
REMARK UNBOUND:                -0.301
REMARK SMILES O=c1cc(-c2ccc(O)c(O)c2)oc2cc(O)cc(O)c12
REMARK SMILES IDX 4 1 3 2 2 3 1 4 21 5 19 6 18 7 16 8 15 9 14 10 13 11 5 12
REMARK SMILES IDX 6 13 7 14 8 15 12 16 10 17 9 18 11 20 20 22 17 24
REMARK H PARENT 9 19 11 21 20 23 17 25
REMARK Flexibility Score: inf
ROOT
ATOM      1  C   UNL     1      23.922  47.174  86.749  1.00  0.00     0.138 A 
ATOM      2  C   UNL     1      24.937  47.939  87.340  1.00  0.00     0.100 A 
ATOM      3  C   UNL     1      24.646  49.218  87.817  1.00  0.00     0.197 A 
ATOM      4  O   UNL     1      25.591  49.905  88.287  1.00  0.00    -0.289 OA
ATOM      5  C   UNL     1      23.326  49.720  87.729  1.00  0.00     0.107 A 
ATOM      6  C   UNL     1      22.905  50.993  88.218  1.00  0.00     0.134 A 
ATOM      7  C   UNL     1      21.599  51.429  87.970  1.00  0.00     0.093 A 
ATOM      8  C   UNL     1      20.680  50.614  87.303  1.00  0.00     0.123 A 
ATOM      9  C   UNL     1      21.066  49.348  86.869  1.00  0.00     0.094 A 
ATOM     10  C   UNL     1      22.372  48.898  87.070  1.00  0.00     0.146 A 
ATOM     11  O   UNL     1      22.704  47.689  86.627  1.00  0.00    -0.456 OA
ENDROOT
BRANCH   1  12
ATOM     12  C   UNL     1      24.176  45.806  86.226  1.00  0.00     0.021 A 
ATOM     13  C   UNL     1      23.350  44.719  86.567  1.00  0.00     0.016 A 
ATOM     14  C   UNL     1      23.606  43.446  86.052  1.00  0.00     0.051 A 
ATOM     15  C   UNL     1      24.685  43.237  85.184  1.00  0.00     0.157 A 
ATOM     16  C   UNL     1      25.250  45.592  85.343  1.00  0.00     0.062 A 
ATOM     17  C   UNL     1      25.509  44.317  84.827  1.00  0.00     0.158 A 
BRANCH  15  18
ATOM     18  O   UNL     1      24.938  41.965  84.673  1.00  0.00    -0.504 OA
ATOM     19  H   UNL     1      24.366  41.565  83.937  1.00  0.00     0.293 HD
ENDBRANCH  15  18
BRANCH  17  20
ATOM     20  O   UNL     1      26.589  44.143  83.962  1.00  0.00    -0.504 OA
ATOM     21  H   UNL     1      26.483  43.724  83.046  1.00  0.00     0.293 HD
ENDBRANCH  17  20
ENDBRANCH   1  12
BRANCH   6  22
ATOM     22  O   UNL     1      23.717  51.847  88.969  1.00  0.00    -0.507 OA
ATOM     23  H   UNL     1      24.604  52.218  88.663  1.00  0.00     0.293 HD
ENDBRANCH   6  22
BRANCH   8  24
ATOM     24  O   UNL     1      19.377  51.051  87.074  1.00  0.00    -0.508 OA
ATOM     25  H   UNL     1      19.140  52.036  87.082  1.00  0.00     0.293 HD
ENDBRANCH   8  24
TORSDOF 5
ENDMDL
MODEL 4
REMARK VINA RESULT:    -4.435      2.264      3.784
REMARK INTER + INTRA:          -5.514
REMARK INTER:                  -5.233
REMARK INTRA:                  -0.281
REMARK UNBOUND:                -0.301
REMARK SMILES O=c1cc(-c2ccc(O)c(O)c2)oc2cc(O)cc(O)c12
REMARK SMILES IDX 4 1 3 2 2 3 1 4 21 5 19 6 18 7 16 8 15 9 14 10 13 11 5 12
REMARK SMILES IDX 6 13 7 14 8 15 12 16 10 17 9 18 11 20 20 22 17 24
REMARK H PARENT 9 19 11 21 20 23 17 25
REMARK Flexibility Score: inf
ROOT
ATOM      1  C   UNL     1      24.183  44.617  86.208  1.00  0.00     0.138 A 
ATOM      2  C   UNL     1      25.198  44.417  85.261  1.00  0.00     0.100 A 
ATOM      3  C   UNL     1      26.122  45.434  85.017  1.00  0.00     0.197 A 
ATOM      4  O   UNL     1      26.984  45.250  84.118  1.00  0.00    -0.289 OA
ATOM      5  C   UNL     1      26.048  46.644  85.746  1.00  0.00     0.107 A 
ATOM      6  C   UNL     1      26.959  47.734  85.611  1.00  0.00     0.134 A 
ATOM      7  C   UNL     1      26.716  48.926  86.302  1.00  0.00     0.093 A 
ATOM      8  C   UNL     1      25.628  49.049  87.171  1.00  0.00     0.123 A 
ATOM      9  C   UNL     1      24.764  47.971  87.351  1.00  0.00     0.094 A 
ATOM     10  C   UNL     1      24.959  46.780  86.650  1.00  0.00     0.146 A 
ATOM     11  O   UNL     1      24.101  45.782  86.839  1.00  0.00    -0.456 OA
ENDROOT
BRANCH   1  12
ATOM     12  C   UNL     1      23.175  43.568  86.508  1.00  0.00     0.021 A 
ATOM     13  C   UNL     1      22.675  43.374  87.809  1.00  0.00     0.016 A 
ATOM     14  C   UNL     1      21.719  42.386  88.060  1.00  0.00     0.051 A 
ATOM     15  C   UNL     1      21.241  41.581  87.019  1.00  0.00     0.157 A 
ATOM     16  C   UNL     1      22.681  42.765  85.464  1.00  0.00     0.062 A 
ATOM     17  C   UNL     1      21.724  41.774  85.714  1.00  0.00     0.158 A 
BRANCH  15  18
ATOM     18  O   UNL     1      20.288  40.597  87.274  1.00  0.00    -0.504 OA
ATOM     19  H   UNL     1      19.930  40.434  88.209  1.00  0.00     0.293 HD
ENDBRANCH  15  18
BRANCH  17  20
ATOM     20  O   UNL     1      21.266  40.993  84.654  1.00  0.00    -0.504 OA
ATOM     21  H   UNL     1      20.453  40.395  84.738  1.00  0.00     0.293 HD
ENDBRANCH  17  20
ENDBRANCH   1  12
BRANCH   6  22
ATOM     22  O   UNL     1      28.122  47.686  84.836  1.00  0.00    -0.507 OA
ATOM     23  H   UNL     1      29.013  47.337  85.153  1.00  0.00     0.293 HD
ENDBRANCH   6  22
BRANCH   8  24
ATOM     24  O   UNL     1      25.403  50.235  87.866  1.00  0.00    -0.508 OA
ATOM     25  H   UNL     1      25.489  50.282  88.875  1.00  0.00     0.293 HD
ENDBRANCH   8  24
TORSDOF 5
ENDMDL
MODEL 5
REMARK VINA RESULT:    -4.375      2.063      3.030
REMARK INTER + INTRA:          -5.443
REMARK INTER:                  -5.150
REMARK INTRA:                  -0.293
REMARK UNBOUND:                -0.301
REMARK SMILES O=c1cc(-c2ccc(O)c(O)c2)oc2cc(O)cc(O)c12
REMARK SMILES IDX 4 1 3 2 2 3 1 4 21 5 19 6 18 7 16 8 15 9 14 10 13 11 5 12
REMARK SMILES IDX 6 13 7 14 8 15 12 16 10 17 9 18 11 20 20 22 17 24
REMARK H PARENT 9 19 11 21 20 23 17 25
REMARK Flexibility Score: inf
ROOT
ATOM      1  C   UNL     1      24.020  44.752  86.101  1.00  0.00     0.138 A 
ATOM      2  C   UNL     1      23.224  45.129  87.192  1.00  0.00     0.100 A 
ATOM      3  C   UNL     1      23.532  46.290  87.902  1.00  0.00     0.197 A 
ATOM      4  O   UNL     1      22.837  46.570  88.914  1.00  0.00    -0.289 OA
ATOM      5  C   UNL     1      24.624  47.094  87.498  1.00  0.00     0.107 A 
ATOM      6  C   UNL     1      25.007  48.320  88.121  1.00  0.00     0.134 A 
ATOM      7  C   UNL     1      26.176  48.969  87.706  1.00  0.00     0.093 A 
ATOM      8  C   UNL     1      26.944  48.468  86.650  1.00  0.00     0.123 A 
ATOM      9  C   UNL     1      26.548  47.302  86.001  1.00  0.00     0.094 A 
ATOM     10  C   UNL     1      25.406  46.612  86.414  1.00  0.00     0.146 A 
ATOM     11  O   UNL     1      25.073  45.494  85.776  1.00  0.00    -0.456 OA
ENDROOT
BRANCH   1  12
ATOM     12  C   UNL     1      23.736  43.528  85.310  1.00  0.00     0.021 A 
ATOM     13  C   UNL     1      24.673  43.001  84.401  1.00  0.00     0.016 A 
ATOM     14  C   UNL     1      24.383  41.841  83.678  1.00  0.00     0.051 A 
ATOM     15  C   UNL     1      23.158  41.184  83.853  1.00  0.00     0.157 A 
ATOM     16  C   UNL     1      22.514  42.855  85.491  1.00  0.00     0.062 A 
ATOM     17  C   UNL     1      22.221  41.694  84.767  1.00  0.00     0.158 A 
BRANCH  15  18
ATOM     18  O   UNL     1      22.873  40.028  83.129  1.00  0.00    -0.504 OA
ATOM     19  H   UNL     1      22.029  39.492  83.296  1.00  0.00     0.293 HD
ENDBRANCH  15  18
BRANCH  17  20
ATOM     20  O   UNL     1      20.994  41.062  84.968  1.00  0.00    -0.504 OA
ATOM     21  H   UNL     1      20.261  41.076  84.270  1.00  0.00     0.293 HD
ENDBRANCH  17  20
ENDBRANCH   1  12
BRANCH   6  22
ATOM     22  O   UNL     1      24.266  48.949  89.125  1.00  0.00    -0.507 OA
ATOM     23  H   UNL     1      23.542  48.507  89.671  1.00  0.00     0.293 HD
ENDBRANCH   6  22
BRANCH   8  24
ATOM     24  O   UNL     1      28.097  49.129  86.235  1.00  0.00    -0.508 OA
ATOM     25  H   UNL     1      28.097  50.123  86.041  1.00  0.00     0.293 HD
ENDBRANCH   8  24
TORSDOF 5
ENDMDL
MODEL 6
REMARK VINA RESULT:    -4.303      2.283      3.195
REMARK INTER + INTRA:          -5.359
REMARK INTER:                  -5.040
REMARK INTRA:                  -0.318
REMARK UNBOUND:                -0.301
REMARK SMILES O=c1cc(-c2ccc(O)c(O)c2)oc2cc(O)cc(O)c12
REMARK SMILES IDX 4 1 3 2 2 3 1 4 21 5 19 6 18 7 16 8 15 9 14 10 13 11 5 12
REMARK SMILES IDX 6 13 7 14 8 15 12 16 10 17 9 18 11 20 20 22 17 24
REMARK H PARENT 9 19 11 21 20 23 17 25
REMARK Flexibility Score: inf
ROOT
ATOM      1  C   UNL     1      24.425  48.677  86.717  1.00  0.00     0.138 A 
ATOM      2  C   UNL     1      25.092  49.805  87.212  1.00  0.00     0.100 A 
ATOM      3  C   UNL     1      24.357  50.852  87.770  1.00  0.00     0.197 A 
ATOM      4  O   UNL     1      24.979  51.878  88.150  1.00  0.00    -0.289 OA
ATOM      5  C   UNL     1      22.948  50.754  87.859  1.00  0.00     0.107 A 
ATOM      6  C   UNL     1      22.099  51.740  88.444  1.00  0.00     0.134 A 
ATOM      7  C   UNL     1      20.710  51.586  88.370  1.00  0.00     0.093 A 
ATOM      8  C   UNL     1      20.139  50.451  87.786  1.00  0.00     0.123 A 
ATOM      9  C   UNL     1      20.962  49.457  87.261  1.00  0.00     0.094 A 
ATOM     10  C   UNL     1      22.350  49.598  87.288  1.00  0.00     0.146 A 
ATOM     11  O   UNL     1      23.098  48.633  86.762  1.00  0.00    -0.456 OA
ENDROOT
BRANCH   1  12
ATOM     12  C   UNL     1      25.158  47.534  86.115  1.00  0.00     0.021 A 
ATOM     13  C   UNL     1      26.563  47.521  86.025  1.00  0.00     0.016 A 
ATOM     14  C   UNL     1      27.226  46.427  85.464  1.00  0.00     0.051 A 
ATOM     15  C   UNL     1      26.503  45.326  84.988  1.00  0.00     0.157 A 
ATOM     16  C   UNL     1      24.438  46.419  85.648  1.00  0.00     0.062 A 
ATOM     17  C   UNL     1      25.101  45.323  85.084  1.00  0.00     0.158 A 
BRANCH  15  18
ATOM     18  O   UNL     1      27.169  44.238  84.428  1.00  0.00    -0.504 OA
ATOM     19  H   UNL     1      26.666  43.428  84.083  1.00  0.00     0.293 HD
ENDBRANCH  15  18
BRANCH  17  20
ATOM     20  O   UNL     1      24.351  44.241  84.625  1.00  0.00    -0.504 OA
ATOM     21  H   UNL     1      23.446  44.360  84.186  1.00  0.00     0.293 HD
ENDBRANCH  17  20
ENDBRANCH   1  12
BRANCH   6  22
ATOM     22  O   UNL     1      22.567  52.868  89.125  1.00  0.00    -0.507 OA
ATOM     23  H   UNL     1      22.431  53.821  88.825  1.00  0.00     0.293 HD
ENDBRANCH   6  22
BRANCH   8  24
ATOM     24  O   UNL     1      18.756  50.300  87.731  1.00  0.00    -0.508 OA
ATOM     25  H   UNL     1      18.263  49.701  88.383  1.00  0.00     0.293 HD
ENDBRANCH   8  24
TORSDOF 5
ENDMDL
MODEL 7
REMARK VINA RESULT:    -4.161      2.933      7.041
REMARK INTER + INTRA:          -5.191
REMARK INTER:                  -4.928
REMARK INTRA:                  -0.263
REMARK UNBOUND:                -0.301
REMARK SMILES O=c1cc(-c2ccc(O)c(O)c2)oc2cc(O)cc(O)c12
REMARK SMILES IDX 4 1 3 2 2 3 1 4 21 5 19 6 18 7 16 8 15 9 14 10 13 11 5 12
REMARK SMILES IDX 6 13 7 14 8 15 12 16 10 17 9 18 11 20 20 22 17 24
REMARK H PARENT 9 19 11 21 20 23 17 25
REMARK Flexibility Score: inf
ROOT
ATOM      1  C   UNL     1      26.130  46.435  86.350  1.00  0.00     0.138 A 
ATOM      2  C   UNL     1      26.891  45.888  85.307  1.00  0.00     0.100 A 
ATOM      3  C   UNL     1      26.454  44.726  84.670  1.00  0.00     0.197 A 
ATOM      4  O   UNL     1      27.189  44.225  83.779  1.00  0.00    -0.289 OA
ATOM      5  C   UNL     1      25.234  44.125  85.060  1.00  0.00     0.107 A 
ATOM      6  C   UNL     1      24.670  42.962  84.455  1.00  0.00     0.134 A 
ATOM      7  C   UNL     1      23.514  42.392  85.003  1.00  0.00     0.093 A 
ATOM      8  C   UNL     1      22.869  42.976  86.096  1.00  0.00     0.123 A 
ATOM      9  C   UNL     1      23.382  44.142  86.659  1.00  0.00     0.094 A 
ATOM     10  C   UNL     1      24.552  44.716  86.158  1.00  0.00     0.146 A 
ATOM     11  O   UNL     1      25.016  45.821  86.734  1.00  0.00    -0.456 OA
ENDROOT
BRANCH   1  12
ATOM     12  C   UNL     1      26.547  47.670  87.061  1.00  0.00     0.021 A 
ATOM     13  C   UNL     1      27.076  47.631  88.364  1.00  0.00     0.016 A 
ATOM     14  C   UNL     1      27.470  48.809  89.004  1.00  0.00     0.051 A 
ATOM     15  C   UNL     1      27.350  50.043  88.354  1.00  0.00     0.157 A 
ATOM     16  C   UNL     1      26.442  48.912  86.408  1.00  0.00     0.062 A 
ATOM     17  C   UNL     1      26.835  50.093  87.048  1.00  0.00     0.158 A 
BRANCH  15  18
ATOM     18  O   UNL     1      27.743  51.216  88.996  1.00  0.00    -0.504 OA
ATOM     19  H   UNL     1      27.750  51.291  90.008  1.00  0.00     0.293 HD
ENDBRANCH  15  18
BRANCH  17  20
ATOM     20  O   UNL     1      26.707  51.305  86.371  1.00  0.00    -0.504 OA
ATOM     21  H   UNL     1      26.004  51.451  85.656  1.00  0.00     0.293 HD
ENDBRANCH  17  20
ENDBRANCH   1  12
BRANCH   6  22
ATOM     22  O   UNL     1      25.187  42.350  83.310  1.00  0.00    -0.507 OA
ATOM     23  H   UNL     1      25.992  41.743  83.294  1.00  0.00     0.293 HD
ENDBRANCH   6  22
BRANCH   8  24
ATOM     24  O   UNL     1      21.711  42.409  86.624  1.00  0.00    -0.508 OA
ATOM     25  H   UNL     1      21.171  42.880  87.340  1.00  0.00     0.293 HD
ENDBRANCH   8  24
TORSDOF 5
ENDMDL
MODEL 8
REMARK VINA RESULT:    -4.146      1.834      3.491
REMARK INTER + INTRA:          -5.174
REMARK INTER:                  -4.864
REMARK INTRA:                  -0.309
REMARK UNBOUND:                -0.301
REMARK SMILES O=c1cc(-c2ccc(O)c(O)c2)oc2cc(O)cc(O)c12
REMARK SMILES IDX 4 1 3 2 2 3 1 4 21 5 19 6 18 7 16 8 15 9 14 10 13 11 5 12
REMARK SMILES IDX 6 13 7 14 8 15 12 16 10 17 9 18 11 20 20 22 17 24
REMARK H PARENT 9 19 11 21 20 23 17 25
REMARK Flexibility Score: inf
ROOT
ATOM      1  C   UNL     1      23.079  47.359  86.932  1.00  0.00     0.138 A 
ATOM      2  C   UNL     1      21.745  47.479  87.346  1.00  0.00     0.100 A 
ATOM      3  C   UNL     1      21.271  48.712  87.798  1.00  0.00     0.197 A 
ATOM      4  O   UNL     1      20.087  48.774  88.220  1.00  0.00    -0.289 OA
ATOM      5  C   UNL     1      22.130  49.836  87.804  1.00  0.00     0.107 A 
ATOM      6  C   UNL     1      21.745  51.151  88.204  1.00  0.00     0.134 A 
ATOM      7  C   UNL     1      22.713  52.160  88.280  1.00  0.00     0.093 A 
ATOM      8  C   UNL     1      24.040  51.916  87.913  1.00  0.00     0.123 A 
ATOM      9  C   UNL     1      24.412  50.650  87.469  1.00  0.00     0.094 A 
ATOM     10  C   UNL     1      23.479  49.614  87.416  1.00  0.00     0.146 A 
ATOM     11  O   UNL     1      23.880  48.416  87.001  1.00  0.00    -0.456 OA
ENDROOT
BRANCH   1  12
ATOM     12  C   UNL     1      23.634  46.071  86.442  1.00  0.00     0.021 A 
ATOM     13  C   UNL     1      23.071  44.835  86.809  1.00  0.00     0.016 A 
ATOM     14  C   UNL     1      23.608  43.640  86.324  1.00  0.00     0.051 A 
ATOM     15  C   UNL     1      24.710  43.657  85.460  1.00  0.00     0.157 A 
ATOM     16  C   UNL     1      24.733  46.082  85.563  1.00  0.00     0.062 A 
ATOM     17  C   UNL     1      25.273  44.886  85.077  1.00  0.00     0.158 A 
BRANCH  15  18
ATOM     18  O   UNL     1      25.243  42.463  84.980  1.00  0.00    -0.504 OA
ATOM     19  H   UNL     1      25.603  42.384  84.035  1.00  0.00     0.293 HD
ENDBRANCH  15  18
BRANCH  17  20
ATOM     20  O   UNL     1      26.368  44.938  84.215  1.00  0.00    -0.504 OA
ATOM     21  H   UNL     1      27.083  45.650  84.296  1.00  0.00     0.293 HD
ENDBRANCH  17  20
ENDBRANCH   1  12
BRANCH   6  22
ATOM     22  O   UNL     1      20.432  51.521  88.510  1.00  0.00    -0.507 OA
ATOM     23  H   UNL     1      19.785  50.962  89.045  1.00  0.00     0.293 HD
ENDBRANCH   6  22
BRANCH   8  24
ATOM     24  O   UNL     1      24.992  52.931  87.977  1.00  0.00    -0.508 OA
ATOM     25  H   UNL     1      25.213  53.395  88.849  1.00  0.00     0.293 HD
ENDBRANCH   8  24
TORSDOF 5
ENDMDL
