MODEL 1
REMARK VINA RESULT:    -3.895      0.000      0.000
REMARK INTER + INTRA:          -6.676
REMARK INTER:                  -6.173
REMARK INTRA:                  -0.503
REMARK UNBOUND:                -0.503
REMARK SMILES CCCCCCCCCCCC(=O)[O-]
REMARK SMILES IDX 7 1 8 2 9 3 10 4 11 5 12 6 13 7 14 8 6 9 5 10 4 11 3 12 2 13
REMARK SMILES IDX 1 14
REMARK H PARENT
REMARK Flexibility Score: inf
ROOT
ATOM      1  C   UNL     1     149.888 133.817 163.969  1.00  0.00     0.000 C 
ENDROOT
BRANCH   1   2
ATOM      2  C   UNL     1     151.379 133.593 164.265  1.00  0.00     0.000 C 
BRANCH   2   3
ATOM      3  C   UNL     1     151.843 132.167 163.918  1.00  0.00     0.000 C 
BRANCH   3   4
ATOM      4  C   UNL     1     153.280 131.885 164.387  1.00  0.00     0.006 C 
BRANCH   4   5
ATOM      5  C   UNL     1     153.863 133.026 165.231  1.00  0.00     0.053 C 
BRANCH   5   6
ATOM      6  C   UNL     1     154.849 132.492 166.221  1.00  0.00     0.041 C 
ATOM      7  O   UNL     1     155.929 131.980 165.827  1.00  0.00    -0.550 OA
ATOM      8  O   UNL     1     154.552 132.512 167.578  1.00  0.00    -0.550 OA
ENDBRANCH   5   6
ENDBRANCH   4   5
ENDBRANCH   3   4
ENDBRANCH   2   3
ENDBRANCH   1   2
BRANCH   1   9
ATOM      9  C   UNL     1     149.216 132.586 163.338  1.00  0.00     0.000 C 
BRANCH   9  10
ATOM     10  C   UNL     1     147.742 132.496 163.749  1.00  0.00    -0.000 C 
BRANCH  10  11
ATOM     11  C   UNL     1     146.854 132.146 162.548  1.00  0.00    -0.000 C 
BRANCH  11  12
ATOM     12  C   UNL     1     147.159 133.062 161.353  1.00  0.00    -0.000 C 
BRANCH  12  13
ATOM     13  C   UNL     1     146.074 132.997 160.267  1.00  0.00    -0.003 C 
ATOM     14  C   UNL     1     145.064 131.875 160.507  1.00  0.00     0.004 C 
ENDBRANCH  12  13
ENDBRANCH  11  12
ENDBRANCH  10  11
ENDBRANCH   9  10
ENDBRANCH   1   9
TORSDOF 10
ENDMDL
MODEL 2
REMARK VINA RESULT:    -3.883      4.076      8.850
REMARK INTER + INTRA:          -6.656
REMARK INTER:                  -5.785
REMARK INTRA:                  -0.871
REMARK UNBOUND:                -0.503
REMARK SMILES CCCCCCCCCCCC(=O)[O-]
REMARK SMILES IDX 7 1 8 2 9 3 10 4 11 5 12 6 13 7 14 8 6 9 5 10 4 11 3 12 2 13
REMARK SMILES IDX 1 14
REMARK H PARENT
REMARK Flexibility Score: inf
ROOT
ATOM      1  C   UNL     1     157.157 132.250 167.039  1.00  0.00     0.000 C 
ENDROOT
BRANCH   1   2
ATOM      2  C   UNL     1     155.669 132.634 167.027  1.00  0.00     0.000 C 
BRANCH   2   3
ATOM      3  C   UNL     1     154.896 131.971 165.874  1.00  0.00     0.000 C 
BRANCH   3   4
ATOM      4  C   UNL     1     154.032 132.973 165.090  1.00  0.00     0.006 C 
BRANCH   4   5
ATOM      5  C   UNL     1     153.168 132.298 164.017  1.00  0.00     0.053 C 
BRANCH   5   6
ATOM      6  C   UNL     1     151.717 132.430 164.357  1.00  0.00     0.041 C 
ATOM      7  O   UNL     1     151.346 132.429 165.560  1.00  0.00    -0.550 OA
ATOM      8  O   UNL     1     150.769 132.502 163.344  1.00  0.00    -0.550 OA
ENDBRANCH   5   6
ENDBRANCH   4   5
ENDBRANCH   3   4
ENDBRANCH   2   3
ENDBRANCH   1   2
BRANCH   1   9
ATOM      9  C   UNL     1     157.926 132.887 168.207  1.00  0.00     0.000 C 
BRANCH   9  10
ATOM     10  C   UNL     1     157.052 132.958 169.465  1.00  0.00    -0.000 C 
BRANCH  10  11
ATOM     11  C   UNL     1     157.057 134.371 170.062  1.00  0.00    -0.000 C 
BRANCH  11  12
ATOM     12  C   UNL     1     155.913 135.217 169.483  1.00  0.00    -0.000 C 
BRANCH  12  13
ATOM     13  C   UNL     1     156.418 136.465 168.742  1.00  0.00    -0.003 C 
ATOM     14  C   UNL     1     156.593 136.232 167.242  1.00  0.00     0.004 C 
ENDBRANCH  12  13
ENDBRANCH  11  12
ENDBRANCH  10  11
ENDBRANCH   9  10
ENDBRANCH   1   9
TORSDOF 10
ENDMDL
MODEL 3
REMARK VINA RESULT:    -3.867      3.744      8.302
REMARK INTER + INTRA:          -6.631
REMARK INTER:                  -5.639
REMARK INTRA:                  -0.992
REMARK UNBOUND:                -0.503
REMARK SMILES CCCCCCCCCCCC(=O)[O-]
REMARK SMILES IDX 7 1 8 2 9 3 10 4 11 5 12 6 13 7 14 8 6 9 5 10 4 11 3 12 2 13
REMARK SMILES IDX 1 14
REMARK H PARENT
REMARK Flexibility Score: inf
ROOT
ATOM      1  C   UNL     1     153.559 134.305 166.642  1.00  0.00     0.000 C 
ENDROOT
BRANCH   1   2
ATOM      2  C   UNL     1     154.383 133.720 165.484  1.00  0.00     0.000 C 
BRANCH   2   3
ATOM      3  C   UNL     1     154.126 132.217 165.276  1.00  0.00     0.000 C 
BRANCH   3   4
ATOM      4  C   UNL     1     152.628 131.875 165.236  1.00  0.00     0.006 C 
BRANCH   4   5
ATOM      5  C   UNL     1     152.054 131.891 163.813  1.00  0.00     0.053 C 
BRANCH   5   6
ATOM      6  C   UNL     1     150.962 132.908 163.702  1.00  0.00     0.041 C 
ATOM      7  O   UNL     1     151.069 134.018 164.286  1.00  0.00    -0.550 OA
ATOM      8  O   UNL     1     149.805 132.611 162.994  1.00  0.00    -0.550 OA
ENDBRANCH   5   6
ENDBRANCH   4   5
ENDBRANCH   3   4
ENDBRANCH   2   3
ENDBRANCH   1   2
BRANCH   1   9
ATOM      9  C   UNL     1     154.300 135.421 167.394  1.00  0.00     0.000 C 
BRANCH   9  10
ATOM     10  C   UNL     1     155.673 135.688 166.765  1.00  0.00    -0.000 C 
BRANCH  10  11
ATOM     11  C   UNL     1     156.802 135.417 167.768  1.00  0.00    -0.000 C 
BRANCH  11  12
ATOM     12  C   UNL     1     156.394 134.331 168.774  1.00  0.00    -0.000 C 
BRANCH  12  13
ATOM     13  C   UNL     1     157.406 133.177 168.840  1.00  0.00    -0.003 C 
ATOM     14  C   UNL     1     157.761 132.622 167.461  1.00  0.00     0.004 C 
ENDBRANCH  12  13
ENDBRANCH  11  12
ENDBRANCH  10  11
ENDBRANCH   9  10
ENDBRANCH   1   9
TORSDOF 10
ENDMDL
MODEL 4
REMARK VINA RESULT:    -3.830      3.600      8.558
REMARK INTER + INTRA:          -6.572
REMARK INTER:                  -5.797
REMARK INTRA:                  -0.775
REMARK UNBOUND:                -0.503
REMARK SMILES CCCCCCCCCCCC(=O)[O-]
REMARK SMILES IDX 7 1 8 2 9 3 10 4 11 5 12 6 13 7 14 8 6 9 5 10 4 11 3 12 2 13
REMARK SMILES IDX 1 14
REMARK H PARENT
REMARK Flexibility Score: inf
ROOT
ATOM      1  C   UNL     1     154.183 132.247 166.994  1.00  0.00     0.000 C 
ENDROOT
BRANCH   1   2
ATOM      2  C   UNL     1     154.772 132.257 165.574  1.00  0.00     0.000 C 
BRANCH   2   3
ATOM      3  C   UNL     1     153.717 132.568 164.498  1.00  0.00     0.000 C 
BRANCH   3   4
ATOM      4  C   UNL     1     152.283 132.307 164.987  1.00  0.00     0.006 C 
BRANCH   4   5
ATOM      5  C   UNL     1     151.323 131.953 163.844  1.00  0.00     0.053 C 
BRANCH   5   6
ATOM      6  C   UNL     1     150.493 133.141 163.472  1.00  0.00     0.041 C 
ATOM      7  O   UNL     1     149.596 133.038 162.596  1.00  0.00    -0.550 OA
ATOM      8  O   UNL     1     150.746 134.376 164.057  1.00  0.00    -0.550 OA
ENDBRANCH   5   6
ENDBRANCH   4   5
ENDBRANCH   3   4
ENDBRANCH   2   3
ENDBRANCH   1   2
BRANCH   1   9
ATOM      9  C   UNL     1     155.224 132.586 168.072  1.00  0.00     0.000 C 
BRANCH   9  10
ATOM     10  C   UNL     1     156.642 132.579 167.487  1.00  0.00    -0.000 C 
BRANCH  10  11
ATOM     11  C   UNL     1     157.418 133.834 167.906  1.00  0.00    -0.000 C 
BRANCH  11  12
ATOM     12  C   UNL     1     156.595 135.104 167.642  1.00  0.00    -0.000 C 
BRANCH  12  13
ATOM     13  C   UNL     1     156.726 136.139 168.770  1.00  0.00    -0.003 C 
ATOM     14  C   UNL     1     156.319 135.581 170.134  1.00  0.00     0.004 C 
ENDBRANCH  12  13
ENDBRANCH  11  12
ENDBRANCH  10  11
ENDBRANCH   9  10
ENDBRANCH   1   9
TORSDOF 10
ENDMDL
MODEL 5
REMARK VINA RESULT:    -3.830      3.698      8.492
REMARK INTER + INTRA:          -6.572
REMARK INTER:                  -6.126
REMARK INTRA:                  -0.446
REMARK UNBOUND:                -0.503
REMARK SMILES CCCCCCCCCCCC(=O)[O-]
REMARK SMILES IDX 7 1 8 2 9 3 10 4 11 5 12 6 13 7 14 8 6 9 5 10 4 11 3 12 2 13
REMARK SMILES IDX 1 14
REMARK H PARENT
REMARK Flexibility Score: inf
ROOT
ATOM      1  C   UNL     1     152.860 132.736 165.194  1.00  0.00     0.000 C 
ENDROOT
BRANCH   1   2
ATOM      2  C   UNL     1     152.425 131.875 163.997  1.00  0.00     0.000 C 
BRANCH   2   3
ATOM      3  C   UNL     1     150.928 132.025 163.675  1.00  0.00     0.000 C 
BRANCH   3   4
ATOM      4  C   UNL     1     150.145 132.700 164.812  1.00  0.00     0.006 C 
BRANCH   4   5
ATOM      5  C   UNL     1     149.135 133.737 164.302  1.00  0.00     0.053 C 
BRANCH   5   6
ATOM      6  C   UNL     1     148.172 133.103 163.349  1.00  0.00     0.041 C 
ATOM      7  O   UNL     1     147.343 132.250 163.761  1.00  0.00    -0.550 OA
ATOM      8  O   UNL     1     148.224 133.416 161.997  1.00  0.00    -0.550 OA
ENDBRANCH   5   6
ENDBRANCH   4   5
ENDBRANCH   3   4
ENDBRANCH   2   3
ENDBRANCH   1   2
BRANCH   1   9
ATOM      9  C   UNL     1     154.335 133.161 165.116  1.00  0.00     0.000 C 
BRANCH   9  10
ATOM     10  C   UNL     1     155.232 132.169 165.865  1.00  0.00    -0.000 C 
BRANCH  10  11
ATOM     11  C   UNL     1     155.337 132.532 167.351  1.00  0.00    -0.000 C 
BRANCH  11  12
ATOM     12  C   UNL     1     156.473 133.537 167.593  1.00  0.00    -0.000 C 
BRANCH  12  13
ATOM     13  C   UNL     1     157.808 132.851 167.923  1.00  0.00    -0.003 C 
ATOM     14  C   UNL     1     158.010 132.641 169.423  1.00  0.00     0.004 C 
ENDBRANCH  12  13
ENDBRANCH  11  12
ENDBRANCH  10  11
ENDBRANCH   9  10
ENDBRANCH   1   9
TORSDOF 10
ENDMDL
MODEL 6
REMARK VINA RESULT:    -3.828      3.105      5.778
REMARK INTER + INTRA:          -6.569
REMARK INTER:                  -5.772
REMARK INTRA:                  -0.797
REMARK UNBOUND:                -0.503
REMARK SMILES CCCCCCCCCCCC(=O)[O-]
REMARK SMILES IDX 7 1 8 2 9 3 10 4 11 5 12 6 13 7 14 8 6 9 5 10 4 11 3 12 2 13
REMARK SMILES IDX 1 14
REMARK H PARENT
REMARK Flexibility Score: inf
ROOT
ATOM      1  C   UNL     1     155.186 133.621 166.864  1.00  0.00     0.000 C 
ENDROOT
BRANCH   1   2
ATOM      2  C   UNL     1     155.761 132.196 166.845  1.00  0.00     0.000 C 
BRANCH   2   3
ATOM      3  C   UNL     1     157.300 132.180 166.845  1.00  0.00     0.000 C 
BRANCH   3   4
ATOM      4  C   UNL     1     157.900 133.176 167.851  1.00  0.00     0.006 C 
BRANCH   4   5
ATOM      5  C   UNL     1     158.033 132.586 169.261  1.00  0.00     0.053 C 
BRANCH   5   6
ATOM      6  C   UNL     1     157.010 133.183 170.176  1.00  0.00     0.041 C 
ATOM      7  O   UNL     1     157.218 134.302 170.713  1.00  0.00    -0.550 OA
ATOM      8  O   UNL     1     155.850 132.480 170.474  1.00  0.00    -0.550 OA
ENDBRANCH   5   6
ENDBRANCH   4   5
ENDBRANCH   3   4
ENDBRANCH   2   3
ENDBRANCH   1   2
BRANCH   1   9
ATOM      9  C   UNL     1     154.000 133.795 165.902  1.00  0.00     0.000 C 
BRANCH   9  10
ATOM     10  C   UNL     1     154.262 133.079 164.572  1.00  0.00    -0.000 C 
BRANCH  10  11
ATOM     11  C   UNL     1     152.992 132.391 164.056  1.00  0.00    -0.000 C 
BRANCH  11  12
ATOM     12  C   UNL     1     152.066 132.002 165.218  1.00  0.00    -0.000 C 
BRANCH  12  13
ATOM     13  C   UNL     1     150.665 132.619 165.088  1.00  0.00    -0.003 C 
ATOM     14  C   UNL     1     149.994 132.287 163.755  1.00  0.00     0.004 C 
ENDBRANCH  12  13
ENDBRANCH  11  12
ENDBRANCH  10  11
ENDBRANCH   9  10
ENDBRANCH   1   9
TORSDOF 10
ENDMDL
MODEL 7
REMARK VINA RESULT:    -3.807      4.012      8.447
REMARK INTER + INTRA:          -6.535
REMARK INTER:                  -6.132
REMARK INTRA:                  -0.403
REMARK UNBOUND:                -0.503
REMARK SMILES CCCCCCCCCCCC(=O)[O-]
REMARK SMILES IDX 7 1 8 2 9 3 10 4 11 5 12 6 13 7 14 8 6 9 5 10 4 11 3 12 2 13
REMARK SMILES IDX 1 14
REMARK H PARENT
REMARK Flexibility Score: inf
ROOT
ATOM      1  C   UNL     1     152.226 131.922 164.999  1.00  0.00     0.000 C 
ENDROOT
BRANCH   1   2
ATOM      2  C   UNL     1     151.361 131.875 163.729  1.00  0.00     0.000 C 
BRANCH   2   3
ATOM      3  C   UNL     1     150.415 133.083 163.613  1.00  0.00     0.000 C 
BRANCH   3   4
ATOM      4  C   UNL     1     148.942 132.666 163.473  1.00  0.00     0.006 C 
BRANCH   4   5
ATOM      5  C   UNL     1     148.275 133.254 162.223  1.00  0.00     0.053 C 
BRANCH   5   6
ATOM      6  C   UNL     1     146.793 133.340 162.413  1.00  0.00     0.041 C 
ATOM      7  O   UNL     1     146.093 134.028 161.626  1.00  0.00    -0.550 OA
ATOM      8  O   UNL     1     146.193 132.700 163.490  1.00  0.00    -0.550 OA
ENDBRANCH   5   6
ENDBRANCH   4   5
ENDBRANCH   3   4
ENDBRANCH   2   3
ENDBRANCH   1   2
BRANCH   1   9
ATOM      9  C   UNL     1     152.741 133.335 165.315  1.00  0.00     0.000 C 
BRANCH   9  10
ATOM     10  C   UNL     1     154.246 133.443 165.042  1.00  0.00    -0.000 C 
BRANCH  10  11
ATOM     11  C   UNL     1     154.997 132.225 165.595  1.00  0.00    -0.000 C 
BRANCH  11  12
ATOM     12  C   UNL     1     155.795 132.595 166.854  1.00  0.00    -0.000 C 
BRANCH  12  13
ATOM     13  C   UNL     1     157.252 132.109 166.793  1.00  0.00    -0.003 C 
ATOM     14  C   UNL     1     158.105 132.656 167.937  1.00  0.00     0.004 C 
ENDBRANCH  12  13
ENDBRANCH  11  12
ENDBRANCH  10  11
ENDBRANCH   9  10
ENDBRANCH   1   9
TORSDOF 10
ENDMDL
MODEL 8
REMARK VINA RESULT:    -3.784      4.511      8.092
REMARK INTER + INTRA:          -6.498
REMARK INTER:                  -5.967
REMARK INTRA:                  -0.532
REMARK UNBOUND:                -0.503
REMARK SMILES CCCCCCCCCCCC(=O)[O-]
REMARK SMILES IDX 7 1 8 2 9 3 10 4 11 5 12 6 13 7 14 8 6 9 5 10 4 11 3 12 2 13
REMARK SMILES IDX 1 14
REMARK H PARENT
REMARK Flexibility Score: inf
ROOT
ATOM      1  C   UNL     1     150.694 133.563 163.766  1.00  0.00     0.000 C 
ENDROOT
BRANCH   1   2
ATOM      2  C   UNL     1     149.531 133.131 162.859  1.00  0.00     0.000 C 
BRANCH   2   3
ATOM      3  C   UNL     1     148.468 132.311 163.610  1.00  0.00     0.000 C 
BRANCH   3   4
ATOM      4  C   UNL     1     147.118 132.282 162.875  1.00  0.00     0.006 C 
BRANCH   4   5
ATOM      5  C   UNL     1     147.173 132.974 161.506  1.00  0.00     0.053 C 
BRANCH   5   6
ATOM      6  C   UNL     1     145.813 133.009 160.884  1.00  0.00     0.041 C 
ATOM      7  O   UNL     1     145.655 133.493 159.734  1.00  0.00    -0.550 OA
ATOM      8  O   UNL     1     144.711 132.552 161.596  1.00  0.00    -0.550 OA
ENDBRANCH   5   6
ENDBRANCH   4   5
ENDBRANCH   3   4
ENDBRANCH   2   3
ENDBRANCH   1   2
BRANCH   1   9
ATOM      9  C   UNL     1     150.661 132.877 165.141  1.00  0.00     0.000 C 
BRANCH   9  10
ATOM     10  C   UNL     1     151.813 131.876 165.283  1.00  0.00    -0.000 C 
BRANCH  10  11
ATOM     11  C   UNL     1     153.068 132.370 164.552  1.00  0.00    -0.000 C 
BRANCH  11  12
ATOM     12  C   UNL     1     154.044 133.042 165.528  1.00  0.00    -0.000 C 
BRANCH  12  13
ATOM     13  C   UNL     1     155.276 132.172 165.823  1.00  0.00    -0.003 C 
ATOM     14  C   UNL     1     155.979 132.565 167.123  1.00  0.00     0.004 C 
ENDBRANCH  12  13
ENDBRANCH  11  12
ENDBRANCH  10  11
ENDBRANCH   9  10
ENDBRANCH   1   9
TORSDOF 10
ENDMDL
MODEL 9
REMARK VINA RESULT:    -3.718      3.530      8.351
REMARK INTER + INTRA:          -6.395
REMARK INTER:                  -5.773
REMARK INTRA:                  -0.622
REMARK UNBOUND:                -0.503
REMARK SMILES CCCCCCCCCCCC(=O)[O-]
REMARK SMILES IDX 7 1 8 2 9 3 10 4 11 5 12 6 13 7 14 8 6 9 5 10 4 11 3 12 2 13
REMARK SMILES IDX 1 14
REMARK H PARENT
REMARK Flexibility Score: inf
ROOT
ATOM      1  C   UNL     1     154.312 133.002 165.053  1.00  0.00     0.000 C 
ENDROOT
BRANCH   1   2
ATOM      2  C   UNL     1     153.256 132.345 164.150  1.00  0.00     0.000 C 
BRANCH   2   3
ATOM      3  C   UNL     1     151.988 131.939 164.922  1.00  0.00     0.000 C 
BRANCH   3   4
ATOM      4  C   UNL     1     151.000 133.105 165.088  1.00  0.00     0.006 C 
BRANCH   4   5
ATOM      5  C   UNL     1     150.522 133.672 163.744  1.00  0.00     0.053 C 
BRANCH   5   6
ATOM      6  C   UNL     1     149.131 133.208 163.448  1.00  0.00     0.041 C 
ATOM      7  O   UNL     1     148.455 132.625 164.335  1.00  0.00    -0.550 OA
ATOM      8  O   UNL     1     148.599 133.374 162.175  1.00  0.00    -0.550 OA
ENDBRANCH   5   6
ENDBRANCH   4   5
ENDBRANCH   3   4
ENDBRANCH   2   3
ENDBRANCH   1   2
BRANCH   1   9
ATOM      9  C   UNL     1     155.007 131.996 165.984  1.00  0.00     0.000 C 
BRANCH   9  10
ATOM     10  C   UNL     1     155.335 132.636 167.337  1.00  0.00    -0.000 C 
BRANCH  10  11
ATOM     11  C   UNL     1     156.844 132.605 167.611  1.00  0.00    -0.000 C 
BRANCH  11  12
ATOM     12  C   UNL     1     157.375 134.010 167.929  1.00  0.00    -0.000 C 
BRANCH  12  13
ATOM     13  C   UNL     1     156.399 135.120 167.509  1.00  0.00    -0.003 C 
ATOM     14  C   UNL     1     156.553 136.390 168.345  1.00  0.00     0.004 C 
ENDBRANCH  12  13
ENDBRANCH  11  12
ENDBRANCH  10  11
ENDBRANCH   9  10
ENDBRANCH   1   9
TORSDOF 10
ENDMDL
