MODEL 1
REMARK VINA RESULT:    -7.513      0.000      0.000
REMARK INTER + INTRA:          -9.124
REMARK INTER:                  -8.831
REMARK INTRA:                  -0.293
REMARK UNBOUND:                -0.293
REMARK SMILES O=c1cc(-c2ccc(O)c(O)c2)oc2cc(O)cc(O)c12
REMARK SMILES IDX 4 1 3 2 2 3 1 4 21 5 19 6 18 7 16 8 15 9 14 10 13 11 5 12
REMARK SMILES IDX 6 13 7 14 8 15 12 16 10 17 9 18 11 20 20 22 17 24
REMARK H PARENT 9 19 11 21 20 23 17 25
REMARK Flexibility Score: inf
ROOT
ATOM      1  C   UNL     1       6.101 -12.271  13.329  1.00  0.00     0.138 A 
ATOM      2  C   UNL     1       6.161 -10.966  12.822  1.00  0.00     0.100 A 
ATOM      3  C   UNL     1       7.147 -10.092  13.281  1.00  0.00     0.197 A 
ATOM      4  O   UNL     1       7.140  -8.910  12.848  1.00  0.00    -0.289 OA
ATOM      5  C   UNL     1       8.101 -10.540  14.226  1.00  0.00     0.107 A 
ATOM      6  C   UNL     1       9.172  -9.748  14.741  1.00  0.00     0.134 A 
ATOM      7  C   UNL     1       9.994 -10.271  15.747  1.00  0.00     0.093 A 
ATOM      8  C   UNL     1       9.819 -11.575  16.217  1.00  0.00     0.123 A 
ATOM      9  C   UNL     1       8.809 -12.373  15.686  1.00  0.00     0.094 A 
ATOM     10  C   UNL     1       7.951 -11.869  14.705  1.00  0.00     0.146 A 
ATOM     11  O   UNL     1       6.988 -12.658  14.239  1.00  0.00    -0.456 OA
ENDROOT
BRANCH   1  12
ATOM     12  C   UNL     1       5.075 -13.244  12.874  1.00  0.00     0.021 A 
ATOM     13  C   UNL     1       3.743 -12.822  12.723  1.00  0.00     0.016 A 
ATOM     14  C   UNL     1       2.760 -13.713  12.288  1.00  0.00     0.051 A 
ATOM     15  C   UNL     1       3.091 -15.040  11.987  1.00  0.00     0.157 A 
ATOM     16  C   UNL     1       5.405 -14.577  12.556  1.00  0.00     0.062 A 
ATOM     17  C   UNL     1       4.421 -15.471  12.119  1.00  0.00     0.158 A 
BRANCH  15  18
ATOM     18  O   UNL     1       2.107 -15.928  11.556  1.00  0.00    -0.504 OA
ATOM     19  H   UNL     1       1.624 -16.541  12.202  1.00  0.00     0.293 HD
ENDBRANCH  15  18
BRANCH  17  20
ATOM     20  O   UNL     1       4.786 -16.783  11.816  1.00  0.00    -0.504 OA
ATOM     21  H   UNL     1       4.197 -17.390  11.260  1.00  0.00     0.293 HD
ENDBRANCH  17  20
ENDBRANCH   1  12
BRANCH   6  22
ATOM     22  O   UNL     1       9.485  -8.464  14.286  1.00  0.00    -0.507 OA
ATOM     23  H   UNL     1       9.481  -7.631  14.853  1.00  0.00     0.293 HD
ENDBRANCH   6  22
BRANCH   8  24
ATOM     24  O   UNL     1      10.652 -12.091  17.207  1.00  0.00    -0.508 OA
ATOM     25  H   UNL     1      11.322 -12.825  17.007  1.00  0.00     0.293 HD
ENDBRANCH   8  24
TORSDOF 5
ENDMDL
MODEL 2
REMARK VINA RESULT:    -7.428      1.668      3.331
REMARK INTER + INTRA:          -9.024
REMARK INTER:                  -8.735
REMARK INTRA:                  -0.288
REMARK UNBOUND:                -0.293
REMARK SMILES O=c1cc(-c2ccc(O)c(O)c2)oc2cc(O)cc(O)c12
REMARK SMILES IDX 4 1 3 2 2 3 1 4 21 5 19 6 18 7 16 8 15 9 14 10 13 11 5 12
REMARK SMILES IDX 6 13 7 14 8 15 12 16 10 17 9 18 11 20 20 22 17 24
REMARK H PARENT 9 19 11 21 20 23 17 25
REMARK Flexibility Score: inf
ROOT
ATOM      1  C   UNL     1       6.298 -13.973  13.774  1.00  0.00     0.138 A 
ATOM      2  C   UNL     1       7.034 -14.990  14.398  1.00  0.00     0.100 A 
ATOM      3  C   UNL     1       8.089 -14.657  15.249  1.00  0.00     0.197 A 
ATOM      4  O   UNL     1       8.765 -15.592  15.749  1.00  0.00    -0.289 OA
ATOM      5  C   UNL     1       8.384 -13.296  15.504  1.00  0.00     0.107 A 
ATOM      6  C   UNL     1       9.414 -12.837  16.380  1.00  0.00     0.134 A 
ATOM      7  C   UNL     1       9.676 -11.464  16.477  1.00  0.00     0.093 A 
ATOM      8  C   UNL     1       8.908 -10.532  15.774  1.00  0.00     0.123 A 
ATOM      9  C   UNL     1       7.869 -10.967  14.955  1.00  0.00     0.094 A 
ATOM     10  C   UNL     1       7.605 -12.331  14.812  1.00  0.00     0.146 A 
ATOM     11  O   UNL     1       6.615 -12.704  14.006  1.00  0.00    -0.456 OA
ENDROOT
BRANCH   1  12
ATOM     12  C   UNL     1       5.165 -14.271  12.863  1.00  0.00     0.021 A 
ATOM     13  C   UNL     1       5.331 -15.223  11.842  1.00  0.00     0.016 A 
ATOM     14  C   UNL     1       4.279 -15.528  10.976  1.00  0.00     0.051 A 
ATOM     15  C   UNL     1       3.038 -14.894  11.120  1.00  0.00     0.157 A 
ATOM     16  C   UNL     1       3.910 -13.646  13.010  1.00  0.00     0.062 A 
ATOM     17  C   UNL     1       2.854 -13.952  12.144  1.00  0.00     0.158 A 
BRANCH  15  18
ATOM     18  O   UNL     1       1.991 -15.199  10.252  1.00  0.00    -0.504 OA
ATOM     19  H   UNL     1       1.597 -16.132  10.202  1.00  0.00     0.293 HD
ENDBRANCH  15  18
BRANCH  17  20
ATOM     20  O   UNL     1       1.626 -13.311  12.321  1.00  0.00    -0.504 OA
ATOM     21  H   UNL     1       0.776 -13.652  11.892  1.00  0.00     0.293 HD
ENDBRANCH  17  20
ENDBRANCH   1  12
BRANCH   6  22
ATOM     22  O   UNL     1      10.186 -13.676  17.189  1.00  0.00    -0.507 OA
ATOM     23  H   UNL     1       9.830 -14.444  17.735  1.00  0.00     0.293 HD
ENDBRANCH   6  22
BRANCH   8  24
ATOM     24  O   UNL     1       9.167  -9.168  15.889  1.00  0.00    -0.508 OA
ATOM     25  H   UNL     1       8.932  -8.520  15.146  1.00  0.00     0.293 HD
ENDBRANCH   8  24
TORSDOF 5
ENDMDL
MODEL 3
REMARK VINA RESULT:    -7.087      1.887      2.842
REMARK INTER + INTRA:          -8.624
REMARK INTER:                  -8.346
REMARK INTRA:                  -0.278
REMARK UNBOUND:                -0.293
REMARK SMILES O=c1cc(-c2ccc(O)c(O)c2)oc2cc(O)cc(O)c12
REMARK SMILES IDX 4 1 3 2 2 3 1 4 21 5 19 6 18 7 16 8 15 9 14 10 13 11 5 12
REMARK SMILES IDX 6 13 7 14 8 15 12 16 10 17 9 18 11 20 20 22 17 24
REMARK H PARENT 9 19 11 21 20 23 17 25
REMARK Flexibility Score: inf
ROOT
ATOM      1  C   UNL     1       5.993 -13.805  13.548  1.00  0.00     0.138 A 
ATOM      2  C   UNL     1       6.274 -12.447  13.758  1.00  0.00     0.100 A 
ATOM      3  C   UNL     1       7.340 -12.082  14.581  1.00  0.00     0.197 A 
ATOM      4  O   UNL     1       7.531 -10.856  14.794  1.00  0.00    -0.289 OA
ATOM      5  C   UNL     1       8.152 -13.082  15.167  1.00  0.00     0.107 A 
ATOM      6  C   UNL     1       9.287 -12.828  15.996  1.00  0.00     0.134 A 
ATOM      7  C   UNL     1       9.954 -13.902  16.599  1.00  0.00     0.093 A 
ATOM      8  C   UNL     1       9.564 -15.221  16.358  1.00  0.00     0.123 A 
ATOM      9  C   UNL     1       8.489 -15.482  15.511  1.00  0.00     0.094 A 
ATOM     10  C   UNL     1       7.781 -14.432  14.921  1.00  0.00     0.146 A 
ATOM     11  O   UNL     1       6.750 -14.724  14.135  1.00  0.00    -0.456 OA
ENDROOT
BRANCH   1  12
ATOM     12  C   UNL     1       4.873 -14.249  12.681  1.00  0.00     0.021 A 
ATOM     13  C   UNL     1       5.087 -15.283  11.752  1.00  0.00     0.016 A 
ATOM     14  C   UNL     1       4.049 -15.726  10.930  1.00  0.00     0.051 A 
ATOM     15  C   UNL     1       2.776 -15.151  11.026  1.00  0.00     0.157 A 
ATOM     16  C   UNL     1       3.586 -13.684  12.782  1.00  0.00     0.062 A 
ATOM     17  C   UNL     1       2.544 -14.128  11.960  1.00  0.00     0.158 A 
BRANCH  15  18
ATOM     18  O   UNL     1       1.743 -15.595  10.202  1.00  0.00    -0.504 OA
ATOM     19  H   UNL     1       0.772 -15.535  10.488  1.00  0.00     0.293 HD
ENDBRANCH  15  18
BRANCH  17  20
ATOM     20  O   UNL     1       1.284 -13.543  12.088  1.00  0.00    -0.504 OA
ATOM     21  H   UNL     1       0.719 -13.660  12.920  1.00  0.00     0.293 HD
ENDBRANCH  17  20
ENDBRANCH   1  12
BRANCH   6  22
ATOM     22  O   UNL     1       9.810 -11.555  16.238  1.00  0.00    -0.507 OA
ATOM     23  H   UNL     1       9.479 -10.916  16.943  1.00  0.00     0.293 HD
ENDBRANCH   6  22
BRANCH   8  24
ATOM     24  O   UNL     1      10.244 -16.283  16.950  1.00  0.00    -0.508 OA
ATOM     25  H   UNL     1       9.990 -16.628  17.869  1.00  0.00     0.293 HD
ENDBRANCH   8  24
TORSDOF 5
ENDMDL
MODEL 4
REMARK VINA RESULT:    -6.874      5.463      6.693
REMARK INTER + INTRA:          -8.372
REMARK INTER:                  -8.104
REMARK INTRA:                  -0.268
REMARK UNBOUND:                -0.293
REMARK SMILES O=c1cc(-c2ccc(O)c(O)c2)oc2cc(O)cc(O)c12
REMARK SMILES IDX 4 1 3 2 2 3 1 4 21 5 19 6 18 7 16 8 15 9 14 10 13 11 5 12
REMARK SMILES IDX 6 13 7 14 8 15 12 16 10 17 9 18 11 20 20 22 17 24
REMARK H PARENT 9 19 11 21 20 23 17 25
REMARK Flexibility Score: inf
ROOT
ATOM      1  C   UNL     1      10.015 -10.242  16.038  1.00  0.00     0.138 A 
ATOM      2  C   UNL     1       9.594  -9.804  14.774  1.00  0.00     0.100 A 
ATOM      3  C   UNL     1      10.411 -10.014  13.663  1.00  0.00     0.197 A 
ATOM      4  O   UNL     1      10.031  -9.558  12.553  1.00  0.00    -0.289 OA
ATOM      5  C   UNL     1      11.640 -10.700  13.812  1.00  0.00     0.107 A 
ATOM      6  C   UNL     1      12.540 -11.002  12.745  1.00  0.00     0.134 A 
ATOM      7  C   UNL     1      13.773 -11.600  13.032  1.00  0.00     0.093 A 
ATOM      8  C   UNL     1      14.116 -11.959  14.338  1.00  0.00     0.123 A 
ATOM      9  C   UNL     1      13.224 -11.714  15.379  1.00  0.00     0.094 A 
ATOM     10  C   UNL     1      12.000 -11.088  15.131  1.00  0.00     0.146 A 
ATOM     11  O   UNL     1      11.187 -10.856  16.157  1.00  0.00    -0.456 OA
ENDROOT
BRANCH   1  12
ATOM     12  C   UNL     1       9.184 -10.047  17.253  1.00  0.00     0.021 A 
ATOM     13  C   UNL     1       9.030  -8.755  17.784  1.00  0.00     0.016 A 
ATOM     14  C   UNL     1       8.247  -8.543  18.921  1.00  0.00     0.051 A 
ATOM     15  C   UNL     1       7.597  -9.616  19.543  1.00  0.00     0.157 A 
ATOM     16  C   UNL     1       8.516 -11.121  17.875  1.00  0.00     0.062 A 
ATOM     17  C   UNL     1       7.731 -10.910  19.014  1.00  0.00     0.158 A 
BRANCH  15  18
ATOM     18  O   UNL     1       6.819  -9.401  20.679  1.00  0.00    -0.504 OA
ATOM     19  H   UNL     1       7.163  -9.614  21.608  1.00  0.00     0.293 HD
ENDBRANCH  15  18
BRANCH  17  20
ATOM     20  O   UNL     1       7.086 -11.999  19.603  1.00  0.00    -0.504 OA
ATOM     21  H   UNL     1       7.443 -12.943  19.523  1.00  0.00     0.293 HD
ENDBRANCH  17  20
ENDBRANCH   1  12
BRANCH   6  22
ATOM     22  O   UNL     1      12.264 -10.760  11.396  1.00  0.00    -0.507 OA
ATOM     23  H   UNL     1      11.450 -11.092  10.902  1.00  0.00     0.293 HD
ENDBRANCH   6  22
BRANCH   8  24
ATOM     24  O   UNL     1      15.338 -12.567  14.610  1.00  0.00    -0.508 OA
ATOM     25  H   UNL     1      15.709 -12.614  15.553  1.00  0.00     0.293 HD
ENDBRANCH   8  24
TORSDOF 5
ENDMDL
MODEL 5
REMARK VINA RESULT:    -6.766      5.510      8.006
REMARK INTER + INTRA:          -8.246
REMARK INTER:                  -7.946
REMARK INTRA:                  -0.301
REMARK UNBOUND:                -0.293
REMARK SMILES O=c1cc(-c2ccc(O)c(O)c2)oc2cc(O)cc(O)c12
REMARK SMILES IDX 4 1 3 2 2 3 1 4 21 5 19 6 18 7 16 8 15 9 14 10 13 11 5 12
REMARK SMILES IDX 6 13 7 14 8 15 12 16 10 17 9 18 11 20 20 22 17 24
REMARK H PARENT 9 19 11 21 20 23 17 25
REMARK Flexibility Score: inf
ROOT
ATOM      1  C   UNL     1      11.801 -13.044  15.209  1.00  0.00     0.138 A 
ATOM      2  C   UNL     1      12.325 -14.093  15.977  1.00  0.00     0.100 A 
ATOM      3  C   UNL     1      13.267 -14.956  15.415  1.00  0.00     0.197 A 
ATOM      4  O   UNL     1      13.676 -15.921  16.111  1.00  0.00    -0.289 OA
ATOM      5  C   UNL     1      13.713 -14.744  14.089  1.00  0.00     0.107 A 
ATOM      6  C   UNL     1      14.695 -15.538  13.423  1.00  0.00     0.134 A 
ATOM      7  C   UNL     1      14.984 -15.290  12.075  1.00  0.00     0.093 A 
ATOM      8  C   UNL     1      14.369 -14.242  11.386  1.00  0.00     0.123 A 
ATOM      9  C   UNL     1      13.446 -13.430  12.041  1.00  0.00     0.094 A 
ATOM     10  C   UNL     1      13.112 -13.673  13.375  1.00  0.00     0.146 A 
ATOM     11  O   UNL     1      12.212 -12.885  13.957  1.00  0.00    -0.456 OA
ENDROOT
BRANCH   1  12
ATOM     12  C   UNL     1      10.799 -12.095  15.758  1.00  0.00     0.021 A 
ATOM     13  C   UNL     1       9.833 -12.560  16.667  1.00  0.00     0.016 A 
ATOM     14  C   UNL     1       8.884 -11.687  17.205  1.00  0.00     0.051 A 
ATOM     15  C   UNL     1       8.889 -10.333  16.850  1.00  0.00     0.157 A 
ATOM     16  C   UNL     1      10.806 -10.728  15.416  1.00  0.00     0.062 A 
ATOM     17  C   UNL     1       9.857  -9.852  15.954  1.00  0.00     0.158 A 
BRANCH  15  18
ATOM     18  O   UNL     1       7.939  -9.465  17.387  1.00  0.00    -0.504 OA
ATOM     19  H   UNL     1       7.282  -9.769  18.096  1.00  0.00     0.293 HD
ENDBRANCH  15  18
BRANCH  17  20
ATOM     20  O   UNL     1       9.896  -8.505  15.590  1.00  0.00    -0.504 OA
ATOM     21  H   UNL     1      10.029  -8.211  14.631  1.00  0.00     0.293 HD
ENDBRANCH  17  20
ENDBRANCH   1  12
BRANCH   6  22
ATOM     22  O   UNL     1      15.428 -16.557  14.039  1.00  0.00    -0.507 OA
ATOM     23  H   UNL     1      15.520 -17.498  13.690  1.00  0.00     0.293 HD
ENDBRANCH   6  22
BRANCH   8  24
ATOM     24  O   UNL     1      14.674 -13.994  10.050  1.00  0.00    -0.508 OA
ATOM     25  H   UNL     1      14.335 -14.596   9.308  1.00  0.00     0.293 HD
ENDBRANCH   8  24
TORSDOF 5
ENDMDL
MODEL 6
REMARK VINA RESULT:    -6.612      5.456      8.030
REMARK INTER + INTRA:          -8.065
REMARK INTER:                  -7.769
REMARK INTRA:                  -0.296
REMARK UNBOUND:                -0.293
REMARK SMILES O=c1cc(-c2ccc(O)c(O)c2)oc2cc(O)cc(O)c12
REMARK SMILES IDX 4 1 3 2 2 3 1 4 21 5 19 6 18 7 16 8 15 9 14 10 13 11 5 12
REMARK SMILES IDX 6 13 7 14 8 15 12 16 10 17 9 18 11 20 20 22 17 24
REMARK H PARENT 9 19 11 21 20 23 17 25
REMARK Flexibility Score: inf
ROOT
ATOM      1  C   UNL     1      12.622 -13.733  14.436  1.00  0.00     0.138 A 
ATOM      2  C   UNL     1      12.069 -14.577  15.409  1.00  0.00     0.100 A 
ATOM      3  C   UNL     1      11.094 -14.084  16.278  1.00  0.00     0.197 A 
ATOM      4  O   UNL     1      10.659 -14.850  17.176  1.00  0.00    -0.289 OA
ATOM      5  C   UNL     1      10.645 -12.748  16.146  1.00  0.00     0.107 A 
ATOM      6  C   UNL     1       9.631 -12.147  16.952  1.00  0.00     0.134 A 
ATOM      7  C   UNL     1       9.340 -10.786  16.792  1.00  0.00     0.093 A 
ATOM      8  C   UNL     1       9.984 -10.020  15.818  1.00  0.00     0.123 A 
ATOM      9  C   UNL     1      10.939 -10.610  14.992  1.00  0.00     0.094 A 
ATOM     10  C   UNL     1      11.276 -11.956  15.150  1.00  0.00     0.146 A 
ATOM     11  O   UNL     1      12.206 -12.475  14.353  1.00  0.00    -0.456 OA
ENDROOT
BRANCH   1  12
ATOM     12  C   UNL     1      13.659 -14.206  13.485  1.00  0.00     0.021 A 
ATOM     13  C   UNL     1      14.681 -15.056  13.943  1.00  0.00     0.016 A 
ATOM     14  C   UNL     1      15.664 -15.522  13.068  1.00  0.00     0.051 A 
ATOM     15  C   UNL     1      15.640 -15.155  11.717  1.00  0.00     0.157 A 
ATOM     16  C   UNL     1      13.633 -13.851  12.121  1.00  0.00     0.062 A 
ATOM     17  C   UNL     1      14.616 -14.318  11.242  1.00  0.00     0.158 A 
BRANCH  15  18
ATOM     18  O   UNL     1      16.624 -15.620  10.846  1.00  0.00    -0.504 OA
ATOM     19  H   UNL     1      16.689 -16.599  10.592  1.00  0.00     0.293 HD
ENDBRANCH  15  18
BRANCH  17  20
ATOM     20  O   UNL     1      14.558 -13.944   9.899  1.00  0.00    -0.504 OA
ATOM     21  H   UNL     1      14.967 -14.508   9.165  1.00  0.00     0.293 HD
ENDBRANCH  17  20
ENDBRANCH   1  12
BRANCH   6  22
ATOM     22  O   UNL     1       8.871 -12.839  17.899  1.00  0.00    -0.507 OA
ATOM     23  H   UNL     1       9.242 -13.459  18.601  1.00  0.00     0.293 HD
ENDBRANCH   6  22
BRANCH   8  24
ATOM     24  O   UNL     1       9.677  -8.671  15.656  1.00  0.00    -0.508 OA
ATOM     25  H   UNL     1      10.383  -7.951  15.756  1.00  0.00     0.293 HD
ENDBRANCH   8  24
TORSDOF 5
ENDMDL
MODEL 7
REMARK VINA RESULT:    -6.579      1.437      7.450
REMARK INTER + INTRA:          -8.026
REMARK INTER:                  -7.753
REMARK INTRA:                  -0.273
REMARK UNBOUND:                -0.293
REMARK SMILES O=c1cc(-c2ccc(O)c(O)c2)oc2cc(O)cc(O)c12
REMARK SMILES IDX 4 1 3 2 2 3 1 4 21 5 19 6 18 7 16 8 15 9 14 10 13 11 5 12
REMARK SMILES IDX 6 13 7 14 8 15 12 16 10 17 9 18 11 20 20 22 17 24
REMARK H PARENT 9 19 11 21 20 23 17 25
REMARK Flexibility Score: inf
ROOT
ATOM      1  C   UNL     1       5.784 -12.748  13.077  1.00  0.00     0.138 A 
ATOM      2  C   UNL     1       6.197 -14.008  12.620  1.00  0.00     0.100 A 
ATOM      3  C   UNL     1       5.249 -14.916  12.148  1.00  0.00     0.197 A 
ATOM      4  O   UNL     1       5.645 -16.058  11.798  1.00  0.00    -0.289 OA
ATOM      5  C   UNL     1       3.884 -14.546  12.098  1.00  0.00     0.107 A 
ATOM      6  C   UNL     1       2.832 -15.377  11.604  1.00  0.00     0.134 A 
ATOM      7  C   UNL     1       1.506 -14.937  11.696  1.00  0.00     0.093 A 
ATOM      8  C   UNL     1       1.197 -13.676  12.211  1.00  0.00     0.123 A 
ATOM      9  C   UNL     1       2.220 -12.838  12.650  1.00  0.00     0.094 A 
ATOM     10  C   UNL     1       3.550 -13.261  12.602  1.00  0.00     0.146 A 
ATOM     11  O   UNL     1       4.494 -12.437  13.049  1.00  0.00    -0.456 OA
ENDROOT
BRANCH   1  12
ATOM     12  C   UNL     1       6.751 -11.743  13.587  1.00  0.00     0.021 A 
ATOM     13  C   UNL     1       7.489 -12.022  14.750  1.00  0.00     0.016 A 
ATOM     14  C   UNL     1       8.410 -11.098  15.247  1.00  0.00     0.051 A 
ATOM     15  C   UNL     1       8.617  -9.881  14.585  1.00  0.00     0.157 A 
ATOM     16  C   UNL     1       6.974 -10.522  12.918  1.00  0.00     0.062 A 
ATOM     17  C   UNL     1       7.898  -9.595  13.414  1.00  0.00     0.158 A 
BRANCH  15  18
ATOM     18  O   UNL     1       9.536  -8.960  15.085  1.00  0.00    -0.504 OA
ATOM     19  H   UNL     1       9.405  -7.962  14.968  1.00  0.00     0.293 HD
ENDBRANCH  15  18
BRANCH  17  20
ATOM     20  O   UNL     1       8.090  -8.397  12.725  1.00  0.00    -0.504 OA
ATOM     21  H   UNL     1       7.429  -7.632  12.782  1.00  0.00     0.293 HD
ENDBRANCH  17  20
ENDBRANCH   1  12
BRANCH   6  22
ATOM     22  O   UNL     1       3.036 -16.619  10.996  1.00  0.00    -0.507 OA
ATOM     23  H   UNL     1       2.580 -16.935  10.155  1.00  0.00     0.293 HD
ENDBRANCH   6  22
BRANCH   8  24
ATOM     24  O   UNL     1      -0.124 -13.242  12.284  1.00  0.00    -0.508 OA
ATOM     25  H   UNL     1      -0.378 -12.280  12.091  1.00  0.00     0.293 HD
ENDBRANCH   8  24
TORSDOF 5
ENDMDL
MODEL 8
REMARK VINA RESULT:    -6.235      5.098      7.825
REMARK INTER + INTRA:          -7.622
REMARK INTER:                  -7.356
REMARK INTRA:                  -0.266
REMARK UNBOUND:                -0.293
REMARK SMILES O=c1cc(-c2ccc(O)c(O)c2)oc2cc(O)cc(O)c12
REMARK SMILES IDX 4 1 3 2 2 3 1 4 21 5 19 6 18 7 16 8 15 9 14 10 13 11 5 12
REMARK SMILES IDX 6 13 7 14 8 15 12 16 10 17 9 18 11 20 20 22 17 24
REMARK H PARENT 9 19 11 21 20 23 17 25
REMARK Flexibility Score: inf
ROOT
ATOM      1  C   UNL     1      12.537 -11.949  14.839  1.00  0.00     0.138 A 
ATOM      2  C   UNL     1      13.686 -11.789  15.625  1.00  0.00     0.100 A 
ATOM      3  C   UNL     1      14.919 -12.231  15.143  1.00  0.00     0.197 A 
ATOM      4  O   UNL     1      15.923 -12.126  15.895  1.00  0.00    -0.289 OA
ATOM      5  C   UNL     1      15.006 -12.803  13.851  1.00  0.00     0.107 A 
ATOM      6  C   UNL     1      16.214 -13.257  13.241  1.00  0.00     0.134 A 
ATOM      7  C   UNL     1      16.160 -13.895  11.995  1.00  0.00     0.093 A 
ATOM      8  C   UNL     1      14.950 -14.044  11.312  1.00  0.00     0.123 A 
ATOM      9  C   UNL     1      13.773 -13.559  11.876  1.00  0.00     0.094 A 
ATOM     10  C   UNL     1      13.789 -12.948  13.133  1.00  0.00     0.146 A 
ATOM     11  O   UNL     1      12.640 -12.516  13.643  1.00  0.00    -0.456 OA
ENDROOT
BRANCH   1  12
ATOM     12  C   UNL     1      11.201 -11.494  15.301  1.00  0.00     0.021 A 
ATOM     13  C   UNL     1      10.525 -10.494  14.581  1.00  0.00     0.016 A 
ATOM     14  C   UNL     1       9.264 -10.053  14.989  1.00  0.00     0.051 A 
ATOM     15  C   UNL     1       8.651 -10.611  16.118  1.00  0.00     0.157 A 
ATOM     16  C   UNL     1      10.573 -12.061  16.429  1.00  0.00     0.062 A 
ATOM     17  C   UNL     1       9.309 -11.622  16.838  1.00  0.00     0.158 A 
BRANCH  15  18
ATOM     18  O   UNL     1       7.394 -10.167  16.524  1.00  0.00    -0.504 OA
ATOM     19  H   UNL     1       6.988 -10.455  17.407  1.00  0.00     0.293 HD
ENDBRANCH  15  18
BRANCH  17  20
ATOM     20  O   UNL     1       8.720 -12.205  17.961  1.00  0.00    -0.504 OA
ATOM     21  H   UNL     1       8.586 -11.694  18.824  1.00  0.00     0.293 HD
ENDBRANCH  17  20
ENDBRANCH   1  12
BRANCH   6  22
ATOM     22  O   UNL     1      17.485 -13.088  13.798  1.00  0.00    -0.507 OA
ATOM     23  H   UNL     1      17.692 -12.528  14.610  1.00  0.00     0.293 HD
ENDBRANCH   6  22
BRANCH   8  24
ATOM     24  O   UNL     1      14.909 -14.666  10.067  1.00  0.00    -0.508 OA
ATOM     25  H   UNL     1      15.632 -15.312   9.773  1.00  0.00     0.293 HD
ENDBRANCH   8  24
TORSDOF 5
ENDMDL
MODEL 9
REMARK VINA RESULT:    -6.207      4.723      7.727
REMARK INTER + INTRA:          -7.589
REMARK INTER:                  -7.293
REMARK INTRA:                  -0.295
REMARK UNBOUND:                -0.293
REMARK SMILES O=c1cc(-c2ccc(O)c(O)c2)oc2cc(O)cc(O)c12
REMARK SMILES IDX 4 1 3 2 2 3 1 4 21 5 19 6 18 7 16 8 15 9 14 10 13 11 5 12
REMARK SMILES IDX 6 13 7 14 8 15 12 16 10 17 9 18 11 20 20 22 17 24
REMARK H PARENT 9 19 11 21 20 23 17 25
REMARK Flexibility Score: inf
ROOT
ATOM      1  C   UNL     1      11.360 -13.254  16.209  1.00  0.00     0.138 A 
ATOM      2  C   UNL     1      12.702 -13.220  16.611  1.00  0.00     0.100 A 
ATOM      3  C   UNL     1      13.284 -14.357  17.174  1.00  0.00     0.197 A 
ATOM      4  O   UNL     1      14.474 -14.277  17.576  1.00  0.00    -0.289 OA
ATOM      5  C   UNL     1      12.526 -15.545  17.300  1.00  0.00     0.107 A 
ATOM      6  C   UNL     1      13.024 -16.776  17.827  1.00  0.00     0.134 A 
ATOM      7  C   UNL     1      12.150 -17.858  17.993  1.00  0.00     0.093 A 
ATOM      8  C   UNL     1      10.812 -17.773  17.599  1.00  0.00     0.123 A 
ATOM      9  C   UNL     1      10.330 -16.593  17.038  1.00  0.00     0.094 A 
ATOM     10  C   UNL     1      11.167 -15.485  16.890  1.00  0.00     0.146 A 
ATOM     11  O   UNL     1      10.661 -14.372  16.367  1.00  0.00    -0.456 OA
ENDROOT
BRANCH   1  12
ATOM     12  C   UNL     1      10.692 -12.075  15.602  1.00  0.00     0.021 A 
ATOM     13  C   UNL     1      11.377 -11.312  14.640  1.00  0.00     0.016 A 
ATOM     14  C   UNL     1      10.769 -10.203  14.048  1.00  0.00     0.051 A 
ATOM     15  C   UNL     1       9.463  -9.841  14.399  1.00  0.00     0.157 A 
ATOM     16  C   UNL     1       9.372 -11.713  15.941  1.00  0.00     0.062 A 
ATOM     17  C   UNL     1       8.761 -10.603  15.347  1.00  0.00     0.158 A 
BRANCH  15  18
ATOM     18  O   UNL     1       8.860  -8.732  13.807  1.00  0.00    -0.504 OA
ATOM     19  H   UNL     1       9.161  -7.788  14.018  1.00  0.00     0.293 HD
ENDBRANCH  15  18
BRANCH  17  20
ATOM     20  O   UNL     1       7.454 -10.275  15.709  1.00  0.00    -0.504 OA
ATOM     21  H   UNL     1       7.228  -9.894  16.619  1.00  0.00     0.293 HD
ENDBRANCH  17  20
ENDBRANCH   1  12
BRANCH   6  22
ATOM     22  O   UNL     1      14.359 -16.995  18.176  1.00  0.00    -0.507 OA
ATOM     23  H   UNL     1      14.845 -17.874  18.089  1.00  0.00     0.293 HD
ENDBRANCH   6  22
BRANCH   8  24
ATOM     24  O   UNL     1       9.955 -18.859  17.754  1.00  0.00    -0.508 OA
ATOM     25  H   UNL     1       8.954 -18.768  17.625  1.00  0.00     0.293 HD
ENDBRANCH   8  24
TORSDOF 5
ENDMDL
