MODEL 1
REMARK VINA RESULT:    -6.108      0.000      0.000
REMARK INTER + INTRA:         -12.808
REMARK INTER:                 -11.465
REMARK INTRA:                  -1.343
REMARK UNBOUND:                -1.343
REMARK SMILES CCCCCCCCC=CCCCCCCCC(=O)[O-]
REMARK SMILES IDX 10 1 9 2 11 3 12 4 13 5 14 6 15 7 16 8 17 9 18 10 19 11
REMARK SMILES IDX 20 12 8 13 7 14 6 15 5 16 4 17 3 18 2 19 1 20
REMARK H PARENT
REMARK Flexibility Score: inf
ROOT
ATOM      1  C   UNL     1      -0.834  45.185   0.762  1.00  0.00    -0.031 C 
ATOM      2  C   UNL     1       0.395  44.757   0.425  1.00  0.00    -0.031 C 
ENDROOT
BRANCH   1   3
ATOM      3  C   UNL     1      -1.357  45.200   2.178  1.00  0.00     0.027 C 
BRANCH   3   4
ATOM      4  C   UNL     1      -2.215  43.960   2.467  1.00  0.00     0.004 C 
BRANCH   4   5
ATOM      5  C   UNL     1      -2.698  43.892   3.927  1.00  0.00     0.000 C 
BRANCH   5   6
ATOM      6  C   UNL     1      -2.425  45.158   4.758  1.00  0.00     0.000 C 
BRANCH   6   7
ATOM      7  C   UNL     1      -3.261  45.219   6.046  1.00  0.00     0.000 C 
BRANCH   7   8
ATOM      8  C   UNL     1      -2.516  45.902   7.206  1.00  0.00     0.006 C 
BRANCH   8   9
ATOM      9  C   UNL     1      -1.307  46.741   6.766  1.00  0.00     0.053 C 
BRANCH   9  10
ATOM     10  C   UNL     1      -0.466  47.169   7.929  1.00  0.00     0.041 C 
ATOM     11  O   UNL     1      -0.265  46.383   8.892  1.00  0.00    -0.550 OA
ATOM     12  O   UNL     1       0.095  48.439   7.950  1.00  0.00    -0.550 OA
ENDBRANCH   9  10
ENDBRANCH   8   9
ENDBRANCH   7   8
ENDBRANCH   6   7
ENDBRANCH   5   6
ENDBRANCH   4   5
ENDBRANCH   3   4
ENDBRANCH   1   3
BRANCH   2  13
ATOM     13  C   UNL     1       1.403  44.200   1.401  1.00  0.00     0.027 C 
BRANCH  13  14
ATOM     14  C   UNL     1       2.465  45.237   1.791  1.00  0.00     0.004 C 
BRANCH  14  15
ATOM     15  C   UNL     1       2.048  46.057   3.023  1.00  0.00     0.000 C 
BRANCH  15  16
ATOM     16  C   UNL     1       3.058  45.944   4.175  1.00  0.00     0.000 C 
BRANCH  16  17
ATOM     17  C   UNL     1       4.258  45.050   3.825  1.00  0.00    -0.000 C 
BRANCH  17  18
ATOM     18  C   UNL     1       4.866  44.431   5.093  1.00  0.00    -0.000 C 
BRANCH  18  19
ATOM     19  C   UNL     1       3.967  44.607   6.326  1.00  0.00    -0.003 C 
ATOM     20  C   UNL     1       4.321  43.645   7.461  1.00  0.00     0.004 C 
ENDBRANCH  18  19
ENDBRANCH  17  18
ENDBRANCH  16  17
ENDBRANCH  15  16
ENDBRANCH  14  15
ENDBRANCH  13  14
ENDBRANCH   2  13
TORSDOF 15
ENDMDL
MODEL 2
REMARK VINA RESULT:    -6.056      1.655      3.440
REMARK INTER + INTRA:         -12.709
REMARK INTER:                 -11.463
REMARK INTRA:                  -1.246
REMARK UNBOUND:                -1.343
REMARK SMILES CCCCCCCCC=CCCCCCCCC(=O)[O-]
REMARK SMILES IDX 10 1 9 2 11 3 12 4 13 5 14 6 15 7 16 8 17 9 18 10 19 11
REMARK SMILES IDX 20 12 8 13 7 14 6 15 5 16 4 17 3 18 2 19 1 20
REMARK H PARENT
REMARK Flexibility Score: inf
ROOT
ATOM      1  C   UNL     1      -2.703  44.380   3.355  1.00  0.00    -0.031 C 
ATOM      2  C   UNL     1      -2.689  44.601   2.029  1.00  0.00    -0.031 C 
ENDROOT
BRANCH   1   3
ATOM      3  C   UNL     1      -2.037  45.286   4.363  1.00  0.00     0.027 C 
BRANCH   3   4
ATOM      4  C   UNL     1      -2.713  45.179   5.738  1.00  0.00     0.004 C 
BRANCH   4   5
ATOM      5  C   UNL     1      -2.334  46.334   6.682  1.00  0.00     0.000 C 
BRANCH   5   6
ATOM      6  C   UNL     1      -0.853  46.746   6.638  1.00  0.00     0.000 C 
BRANCH   6   7
ATOM      7  C   UNL     1      -0.506  47.840   7.662  1.00  0.00     0.000 C 
BRANCH   7   8
ATOM      8  C   UNL     1       0.992  47.871   8.013  1.00  0.00     0.006 C 
BRANCH   8   9
ATOM      9  C   UNL     1       1.397  46.886   9.119  1.00  0.00     0.053 C 
BRANCH   9  10
ATOM     10  C   UNL     1       0.315  46.710  10.140  1.00  0.00     0.041 C 
ATOM     11  O   UNL     1       0.203  47.522  11.096  1.00  0.00    -0.550 OA
ATOM     12  O   UNL     1      -0.570  45.645  10.037  1.00  0.00    -0.550 OA
ENDBRANCH   9  10
ENDBRANCH   8   9
ENDBRANCH   7   8
ENDBRANCH   6   7
ENDBRANCH   5   6
ENDBRANCH   4   5
ENDBRANCH   3   4
ENDBRANCH   1   3
BRANCH   2  13
ATOM     13  C   UNL     1      -1.980  45.755   1.363  1.00  0.00     0.027 C 
BRANCH  13  14
ATOM     14  C   UNL     1      -0.953  45.283   0.324  1.00  0.00     0.004 C 
BRANCH  14  15
ATOM     15  C   UNL     1      -0.085  44.129   0.852  1.00  0.00     0.000 C 
BRANCH  15  16
ATOM     16  C   UNL     1       1.406  44.495   0.914  1.00  0.00     0.000 C 
BRANCH  16  17
ATOM     17  C   UNL     1       1.770  45.279   2.184  1.00  0.00    -0.000 C 
BRANCH  17  18
ATOM     18  C   UNL     1       3.242  45.051   2.563  1.00  0.00    -0.000 C 
BRANCH  18  19
ATOM     19  C   UNL     1       3.674  45.885   3.780  1.00  0.00    -0.003 C 
ATOM     20  C   UNL     1       2.490  46.448   4.565  1.00  0.00     0.004 C 
ENDBRANCH  18  19
ENDBRANCH  17  18
ENDBRANCH  16  17
ENDBRANCH  15  16
ENDBRANCH  14  15
ENDBRANCH  13  14
ENDBRANCH   2  13
TORSDOF 15
ENDMDL
MODEL 3
REMARK VINA RESULT:    -6.034      1.832      4.778
REMARK INTER + INTRA:         -12.668
REMARK INTER:                 -11.095
REMARK INTRA:                  -1.574
REMARK UNBOUND:                -1.343
REMARK SMILES CCCCCCCCC=CCCCCCCCC(=O)[O-]
REMARK SMILES IDX 10 1 9 2 11 3 12 4 13 5 14 6 15 7 16 8 17 9 18 10 19 11
REMARK SMILES IDX 20 12 8 13 7 14 6 15 5 16 4 17 3 18 2 19 1 20
REMARK H PARENT
REMARK Flexibility Score: inf
ROOT
ATOM      1  C   UNL     1       2.612  45.243   2.017  1.00  0.00    -0.031 C 
ATOM      2  C   UNL     1       2.066  44.535   1.013  1.00  0.00    -0.031 C 
ENDROOT
BRANCH   1   3
ATOM      3  C   UNL     1       1.803  45.989   3.052  1.00  0.00     0.027 C 
BRANCH   3   4
ATOM      4  C   UNL     1       2.663  46.353   4.271  1.00  0.00     0.004 C 
BRANCH   4   5
ATOM      5  C   UNL     1       1.869  46.340   5.590  1.00  0.00     0.000 C 
BRANCH   5   6
ATOM      6  C   UNL     1       0.377  46.690   5.449  1.00  0.00     0.000 C 
BRANCH   6   7
ATOM      7  C   UNL     1      -0.390  46.579   6.777  1.00  0.00     0.000 C 
BRANCH   7   8
ATOM      8  C   UNL     1      -0.458  47.915   7.537  1.00  0.00     0.006 C 
BRANCH   8   9
ATOM      9  C   UNL     1       0.742  48.171   8.461  1.00  0.00     0.053 C 
BRANCH   9  10
ATOM     10  C   UNL     1       0.767  47.229   9.625  1.00  0.00     0.041 C 
ATOM     11  O   UNL     1       1.593  46.278   9.656  1.00  0.00    -0.550 OA
ATOM     12  O   UNL     1      -0.124  47.399  10.676  1.00  0.00    -0.550 OA
ENDBRANCH   9  10
ENDBRANCH   8   9
ENDBRANCH   7   8
ENDBRANCH   6   7
ENDBRANCH   5   6
ENDBRANCH   4   5
ENDBRANCH   3   4
ENDBRANCH   1   3
BRANCH   2  13
ATOM     13  C   UNL     1       0.583  44.419   0.757  1.00  0.00     0.027 C 
BRANCH  13  14
ATOM     14  C   UNL     1       0.221  44.730  -0.702  1.00  0.00     0.004 C 
BRANCH  14  15
ATOM     15  C   UNL     1      -1.220  45.247  -0.843  1.00  0.00     0.000 C 
BRANCH  15  16
ATOM     16  C   UNL     1      -1.729  45.928   0.437  1.00  0.00     0.000 C 
BRANCH  16  17
ATOM     17  C   UNL     1      -3.016  45.284   0.977  1.00  0.00    -0.000 C 
BRANCH  17  18
ATOM     18  C   UNL     1      -2.698  44.293   2.107  1.00  0.00    -0.000 C 
BRANCH  18  19
ATOM     19  C   UNL     1      -2.088  44.977   3.340  1.00  0.00    -0.003 C 
ATOM     20  C   UNL     1      -2.909  44.755   4.610  1.00  0.00     0.004 C 
ENDBRANCH  18  19
ENDBRANCH  17  18
ENDBRANCH  16  17
ENDBRANCH  15  16
ENDBRANCH  14  15
ENDBRANCH  13  14
ENDBRANCH   2  13
TORSDOF 15
ENDMDL
MODEL 4
REMARK VINA RESULT:    -6.004      5.977      9.245
REMARK INTER + INTRA:         -12.612
REMARK INTER:                 -11.507
REMARK INTRA:                  -1.104
REMARK UNBOUND:                -1.343
REMARK SMILES CCCCCCCCC=CCCCCCCCC(=O)[O-]
REMARK SMILES IDX 10 1 9 2 11 3 12 4 13 5 14 6 15 7 16 8 17 9 18 10 19 11
REMARK SMILES IDX 20 12 8 13 7 14 6 15 5 16 4 17 3 18 2 19 1 20
REMARK H PARENT
REMARK Flexibility Score: inf
ROOT
ATOM      1  C   UNL     1       1.454  44.497  -1.582  1.00  0.00    -0.031 C 
ATOM      2  C   UNL     1       0.416  44.762  -0.770  1.00  0.00    -0.031 C 
ENDROOT
BRANCH   1   3
ATOM      3  C   UNL     1       1.389  44.606  -3.087  1.00  0.00     0.027 C 
BRANCH   3   4
ATOM      4  C   UNL     1       2.790  44.513  -3.711  1.00  0.00     0.004 C 
BRANCH   4   5
ATOM      5  C   UNL     1       3.837  43.927  -2.746  1.00  0.00     0.000 C 
BRANCH   5   6
ATOM      6  C   UNL     1       5.294  44.037  -3.229  1.00  0.00     0.000 C 
BRANCH   6   7
ATOM      7  C   UNL     1       5.413  44.657  -4.631  1.00  0.00     0.000 C 
BRANCH   7   8
ATOM      8  C   UNL     1       6.865  45.006  -5.005  1.00  0.00     0.006 C 
BRANCH   8   9
ATOM      9  C   UNL     1       7.247  46.468  -4.733  1.00  0.00     0.053 C 
BRANCH   9  10
ATOM     10  C   UNL     1       7.786  46.661  -3.348  1.00  0.00     0.041 C 
ATOM     11  O   UNL     1       8.508  45.776  -2.818  1.00  0.00    -0.550 OA
ATOM     12  O   UNL     1       7.488  47.818  -2.642  1.00  0.00    -0.550 OA
ENDBRANCH   9  10
ENDBRANCH   8   9
ENDBRANCH   7   8
ENDBRANCH   6   7
ENDBRANCH   5   6
ENDBRANCH   4   5
ENDBRANCH   3   4
ENDBRANCH   1   3
BRANCH   2  13
ATOM     13  C   UNL     1      -0.960  45.163  -1.245  1.00  0.00     0.027 C 
BRANCH  13  14
ATOM     14  C   UNL     1      -1.992  45.148  -0.110  1.00  0.00     0.004 C 
BRANCH  14  15
ATOM     15  C   UNL     1      -1.881  46.389   0.791  1.00  0.00     0.000 C 
BRANCH  15  16
ATOM     16  C   UNL     1      -1.590  46.029   2.256  1.00  0.00     0.000 C 
BRANCH  16  17
ATOM     17  C   UNL     1      -0.164  45.493   2.462  1.00  0.00    -0.000 C 
BRANCH  17  18
ATOM     18  C   UNL     1       0.603  46.355   3.476  1.00  0.00    -0.000 C 
BRANCH  18  19
ATOM     19  C   UNL     1       2.121  46.129   3.415  1.00  0.00    -0.003 C 
ATOM     20  C   UNL     1       2.539  45.213   2.265  1.00  0.00     0.004 C 
ENDBRANCH  18  19
ENDBRANCH  17  18
ENDBRANCH  16  17
ENDBRANCH  15  16
ENDBRANCH  14  15
ENDBRANCH  13  14
ENDBRANCH   2  13
TORSDOF 15
ENDMDL
MODEL 5
REMARK VINA RESULT:    -5.986      1.388      2.444
REMARK INTER + INTRA:         -12.577
REMARK INTER:                 -11.434
REMARK INTRA:                  -1.143
REMARK UNBOUND:                -1.343
REMARK SMILES CCCCCCCCC=CCCCCCCCC(=O)[O-]
REMARK SMILES IDX 10 1 9 2 11 3 12 4 13 5 14 6 15 7 16 8 17 9 18 10 19 11
REMARK SMILES IDX 20 12 8 13 7 14 6 15 5 16 4 17 3 18 2 19 1 20
REMARK H PARENT
REMARK Flexibility Score: inf
ROOT
ATOM      1  C   UNL     1      -1.865  44.670   2.750  1.00  0.00    -0.031 C 
ATOM      2  C   UNL     1      -0.931  44.507   1.796  1.00  0.00    -0.031 C 
ENDROOT
BRANCH   1   3
ATOM      3  C   UNL     1      -1.726  45.634   3.903  1.00  0.00     0.027 C 
BRANCH   3   4
ATOM      4  C   UNL     1      -2.607  45.213   5.088  1.00  0.00     0.004 C 
BRANCH   4   5
ATOM      5  C   UNL     1      -2.178  45.867   6.415  1.00  0.00     0.000 C 
BRANCH   5   6
ATOM      6  C   UNL     1      -0.749  46.437   6.423  1.00  0.00     0.000 C 
BRANCH   6   7
ATOM      7  C   UNL     1      -0.602  47.667   7.333  1.00  0.00     0.000 C 
BRANCH   7   8
ATOM      8  C   UNL     1       0.855  47.922   7.755  1.00  0.00     0.006 C 
BRANCH   8   9
ATOM      9  C   UNL     1       1.283  47.162   9.019  1.00  0.00     0.053 C 
BRANCH   9  10
ATOM     10  C   UNL     1       0.882  47.880  10.271  1.00  0.00     0.041 C 
ATOM     11  O   UNL     1       0.084  47.344  11.084  1.00  0.00    -0.550 OA
ATOM     12  O   UNL     1       1.388  49.145  10.538  1.00  0.00    -0.550 OA
ENDBRANCH   9  10
ENDBRANCH   8   9
ENDBRANCH   7   8
ENDBRANCH   6   7
ENDBRANCH   5   6
ENDBRANCH   4   5
ENDBRANCH   3   4
ENDBRANCH   1   3
BRANCH   2  13
ATOM     13  C   UNL     1       0.392  45.232   1.764  1.00  0.00     0.027 C 
BRANCH  13  14
ATOM     14  C   UNL     1       1.530  44.337   1.254  1.00  0.00     0.004 C 
BRANCH  14  15
ATOM     15  C   UNL     1       2.910  44.839   1.711  1.00  0.00     0.000 C 
BRANCH  15  16
ATOM     16  C   UNL     1       2.814  46.034   2.672  1.00  0.00     0.000 C 
BRANCH  16  17
ATOM     17  C   UNL     1       3.169  45.658   4.119  1.00  0.00    -0.000 C 
BRANCH  17  18
ATOM     18  C   UNL     1       4.272  44.590   4.151  1.00  0.00    -0.000 C 
BRANCH  18  19
ATOM     19  C   UNL     1       5.044  44.577   5.480  1.00  0.00    -0.003 C 
ATOM     20  C   UNL     1       4.260  43.919   6.615  1.00  0.00     0.004 C 
ENDBRANCH  18  19
ENDBRANCH  17  18
ENDBRANCH  16  17
ENDBRANCH  15  16
ENDBRANCH  14  15
ENDBRANCH  13  14
ENDBRANCH   2  13
TORSDOF 15
ENDMDL
MODEL 6
REMARK VINA RESULT:    -5.970      2.329      5.563
REMARK INTER + INTRA:         -12.548
REMARK INTER:                 -11.471
REMARK INTRA:                  -1.077
REMARK UNBOUND:                -1.343
REMARK SMILES CCCCCCCCC=CCCCCCCCC(=O)[O-]
REMARK SMILES IDX 10 1 9 2 11 3 12 4 13 5 14 6 15 7 16 8 17 9 18 10 19 11
REMARK SMILES IDX 20 12 8 13 7 14 6 15 5 16 4 17 3 18 2 19 1 20
REMARK H PARENT
REMARK Flexibility Score: inf
ROOT
ATOM      1  C   UNL     1      -2.511  44.630   2.300  1.00  0.00    -0.031 C 
ATOM      2  C   UNL     1      -2.686  44.477   3.624  1.00  0.00    -0.031 C 
ENDROOT
BRANCH   1   3
ATOM      3  C   UNL     1      -1.604  45.671   1.690  1.00  0.00     0.027 C 
BRANCH   3   4
ATOM      4  C   UNL     1      -0.744  45.069   0.569  1.00  0.00     0.004 C 
BRANCH   4   5
ATOM      5  C   UNL     1       0.410  44.200   1.100  1.00  0.00     0.000 C 
BRANCH   5   6
ATOM      6  C   UNL     1       1.804  44.582   0.574  1.00  0.00     0.000 C 
BRANCH   6   7
ATOM      7  C   UNL     1       2.851  44.709   1.693  1.00  0.00     0.000 C 
BRANCH   7   8
ATOM      8  C   UNL     1       2.383  45.616   2.844  1.00  0.00     0.006 C 
BRANCH   8   9
ATOM      9  C   UNL     1       3.527  46.218   3.673  1.00  0.00     0.053 C 
BRANCH   9  10
ATOM     10  C   UNL     1       4.055  45.251   4.688  1.00  0.00     0.041 C 
ATOM     11  O   UNL     1       3.505  45.150   5.817  1.00  0.00    -0.550 OA
ATOM     12  O   UNL     1       5.157  44.462   4.388  1.00  0.00    -0.550 OA
ENDBRANCH   9  10
ENDBRANCH   8   9
ENDBRANCH   7   8
ENDBRANCH   6   7
ENDBRANCH   5   6
ENDBRANCH   4   5
ENDBRANCH   3   4
ENDBRANCH   1   3
BRANCH   2  13
ATOM     13  C   UNL     1      -2.036  45.340   4.678  1.00  0.00     0.027 C 
BRANCH  13  14
ATOM     14  C   UNL     1      -2.772  45.267   6.022  1.00  0.00     0.004 C 
BRANCH  14  15
ATOM     15  C   UNL     1      -2.286  46.342   7.008  1.00  0.00     0.000 C 
BRANCH  15  16
ATOM     16  C   UNL     1      -0.834  46.771   6.743  1.00  0.00     0.000 C 
BRANCH  16  17
ATOM     17  C   UNL     1      -0.456  48.065   7.479  1.00  0.00    -0.000 C 
BRANCH  17  18
ATOM     18  C   UNL     1       0.848  47.882   8.272  1.00  0.00    -0.000 C 
BRANCH  18  19
ATOM     19  C   UNL     1       0.675  48.177   9.770  1.00  0.00    -0.003 C 
ATOM     20  C   UNL     1       1.915  48.816  10.395  1.00  0.00     0.004 C 
ENDBRANCH  18  19
ENDBRANCH  17  18
ENDBRANCH  16  17
ENDBRANCH  15  16
ENDBRANCH  14  15
ENDBRANCH  13  14
ENDBRANCH   2  13
TORSDOF 15
ENDMDL
MODEL 7
REMARK VINA RESULT:    -5.954      2.896      4.794
REMARK INTER + INTRA:         -12.518
REMARK INTER:                 -11.011
REMARK INTRA:                  -1.507
REMARK UNBOUND:                -1.343
REMARK SMILES CCCCCCCCC=CCCCCCCCC(=O)[O-]
REMARK SMILES IDX 10 1 9 2 11 3 12 4 13 5 14 6 15 7 16 8 17 9 18 10 19 11
REMARK SMILES IDX 20 12 8 13 7 14 6 15 5 16 4 17 3 18 2 19 1 20
REMARK H PARENT
REMARK Flexibility Score: inf
ROOT
ATOM      1  C   UNL     1       2.986  44.237  -2.387  1.00  0.00    -0.031 C 
ATOM      2  C   UNL     1       3.092  44.516  -1.076  1.00  0.00    -0.031 C 
ENDROOT
BRANCH   1   3
ATOM      3  C   UNL     1       1.692  43.842  -3.058  1.00  0.00     0.027 C 
BRANCH   3   4
ATOM      4  C   UNL     1       0.847  45.077  -3.402  1.00  0.00     0.004 C 
BRANCH   4   5
ATOM      5  C   UNL     1      -0.607  44.965  -2.908  1.00  0.00     0.000 C 
BRANCH   5   6
ATOM      6  C   UNL     1      -0.971  45.910  -1.750  1.00  0.00     0.000 C 
BRANCH   6   7
ATOM      7  C   UNL     1      -1.600  45.175  -0.554  1.00  0.00     0.000 C 
BRANCH   7   8
ATOM      8  C   UNL     1      -1.660  46.046   0.713  1.00  0.00     0.006 C 
BRANCH   8   9
ATOM      9  C   UNL     1      -1.180  45.334   1.986  1.00  0.00     0.053 C 
BRANCH   9  10
ATOM     10  C   UNL     1      -2.322  44.893   2.849  1.00  0.00     0.041 C 
ATOM     11  O   UNL     1      -3.370  44.428   2.329  1.00  0.00    -0.550 OA
ATOM     12  O   UNL     1      -2.229  44.999   4.230  1.00  0.00    -0.550 OA
ENDBRANCH   9  10
ENDBRANCH   8   9
ENDBRANCH   7   8
ENDBRANCH   6   7
ENDBRANCH   5   6
ENDBRANCH   4   5
ENDBRANCH   3   4
ENDBRANCH   1   3
BRANCH   2  13
ATOM     13  C   UNL     1       1.951  44.437  -0.091  1.00  0.00     0.027 C 
BRANCH  13  14
ATOM     14  C   UNL     1       2.440  44.437   1.364  1.00  0.00     0.004 C 
BRANCH  14  15
ATOM     15  C   UNL     1       2.708  45.859   1.884  1.00  0.00     0.000 C 
BRANCH  15  16
ATOM     16  C   UNL     1       2.753  45.926   3.418  1.00  0.00     0.000 C 
BRANCH  16  17
ATOM     17  C   UNL     1       4.187  45.898   3.970  1.00  0.00    -0.000 C 
BRANCH  17  18
ATOM     18  C   UNL     1       4.472  44.566   4.681  1.00  0.00    -0.000 C 
BRANCH  18  19
ATOM     19  C   UNL     1       3.987  44.558   6.139  1.00  0.00    -0.003 C 
ATOM     20  C   UNL     1       4.194  43.208   6.826  1.00  0.00     0.004 C 
ENDBRANCH  18  19
ENDBRANCH  17  18
ENDBRANCH  16  17
ENDBRANCH  15  16
ENDBRANCH  14  15
ENDBRANCH  13  14
ENDBRANCH   2  13
TORSDOF 15
ENDMDL
MODEL 8
REMARK VINA RESULT:    -5.950      4.884      7.329
REMARK INTER + INTRA:         -12.510
REMARK INTER:                 -11.363
REMARK INTRA:                  -1.147
REMARK UNBOUND:                -1.343
REMARK SMILES CCCCCCCCC=CCCCCCCCC(=O)[O-]
REMARK SMILES IDX 10 1 9 2 11 3 12 4 13 5 14 6 15 7 16 8 17 9 18 10 19 11
REMARK SMILES IDX 20 12 8 13 7 14 6 15 5 16 4 17 3 18 2 19 1 20
REMARK H PARENT
REMARK Flexibility Score: inf
ROOT
ATOM      1  C   UNL     1      -1.499  44.608   0.311  1.00  0.00    -0.031 C 
ATOM      2  C   UNL     1      -1.092  44.446   1.583  1.00  0.00    -0.031 C 
ENDROOT
BRANCH   1   3
ATOM      3  C   UNL     1      -1.688  45.956  -0.342  1.00  0.00     0.027 C 
BRANCH   3   4
ATOM      4  C   UNL     1      -1.231  45.932  -1.808  1.00  0.00     0.004 C 
BRANCH   4   5
ATOM      5  C   UNL     1      -0.037  44.990  -2.047  1.00  0.00     0.000 C 
BRANCH   5   6
ATOM      6  C   UNL     1       0.274  44.703  -3.526  1.00  0.00     0.000 C 
BRANCH   6   7
ATOM      7  C   UNL     1       1.696  44.160  -3.743  1.00  0.00     0.000 C 
BRANCH   7   8
ATOM      8  C   UNL     1       2.561  44.237  -2.474  1.00  0.00     0.006 C 
BRANCH   8   9
ATOM      9  C   UNL     1       3.772  43.293  -2.482  1.00  0.00     0.053 C 
BRANCH   9  10
ATOM     10  C   UNL     1       5.019  43.980  -2.948  1.00  0.00     0.041 C 
ATOM     11  O   UNL     1       6.132  43.697  -2.432  1.00  0.00    -0.550 OA
ATOM     12  O   UNL     1       4.950  44.937  -3.951  1.00  0.00    -0.550 OA
ENDBRANCH   9  10
ENDBRANCH   8   9
ENDBRANCH   7   8
ENDBRANCH   6   7
ENDBRANCH   5   6
ENDBRANCH   4   5
ENDBRANCH   3   4
ENDBRANCH   1   3
BRANCH   2  13
ATOM     13  C   UNL     1      -0.807  45.578   2.540  1.00  0.00     0.027 C 
BRANCH  13  14
ATOM     14  C   UNL     1       0.694  45.744   2.812  1.00  0.00     0.004 C 
BRANCH  14  15
ATOM     15  C   UNL     1       1.556  45.093   1.718  1.00  0.00     0.000 C 
BRANCH  15  16
ATOM     16  C   UNL     1       3.031  44.964   2.128  1.00  0.00     0.000 C 
BRANCH  16  17
ATOM     17  C   UNL     1       3.503  46.130   3.011  1.00  0.00    -0.000 C 
BRANCH  17  18
ATOM     18  C   UNL     1       3.746  45.659   4.453  1.00  0.00    -0.000 C 
BRANCH  18  19
ATOM     19  C   UNL     1       4.753  44.501   4.535  1.00  0.00    -0.003 C 
ATOM     20  C   UNL     1       6.090  44.919   5.148  1.00  0.00     0.004 C 
ENDBRANCH  18  19
ENDBRANCH  17  18
ENDBRANCH  16  17
ENDBRANCH  15  16
ENDBRANCH  14  15
ENDBRANCH  13  14
ENDBRANCH   2  13
TORSDOF 15
ENDMDL
MODEL 9
REMARK VINA RESULT:    -5.912      2.331      4.535
REMARK INTER + INTRA:         -12.439
REMARK INTER:                 -11.314
REMARK INTRA:                  -1.125
REMARK UNBOUND:                -1.343
REMARK SMILES CCCCCCCCC=CCCCCCCCC(=O)[O-]
REMARK SMILES IDX 10 1 9 2 11 3 12 4 13 5 14 6 15 7 16 8 17 9 18 10 19 11
REMARK SMILES IDX 20 12 8 13 7 14 6 15 5 16 4 17 3 18 2 19 1 20
REMARK H PARENT
REMARK Flexibility Score: inf
ROOT
ATOM      1  C   UNL     1       2.265  45.736   3.015  1.00  0.00    -0.031 C 
ATOM      2  C   UNL     1       3.005  45.916   4.124  1.00  0.00    -0.031 C 
ENDROOT
BRANCH   1   3
ATOM      3  C   UNL     1       2.811  45.165   1.728  1.00  0.00     0.027 C 
BRANCH   3   4
ATOM      4  C   UNL     1       1.723  44.408   0.952  1.00  0.00     0.004 C 
BRANCH   4   5
ATOM      5  C   UNL     1       0.300  44.885   1.297  1.00  0.00     0.000 C 
BRANCH   5   6
ATOM      6  C   UNL     1      -0.794  43.812   1.156  1.00  0.00     0.000 C 
BRANCH   6   7
ATOM      7  C   UNL     1      -1.791  43.819   2.327  1.00  0.00     0.000 C 
BRANCH   7   8
ATOM      8  C   UNL     1      -2.027  45.228   2.897  1.00  0.00     0.006 C 
BRANCH   8   9
ATOM      9  C   UNL     1      -2.076  45.283   4.432  1.00  0.00     0.053 C 
BRANCH   9  10
ATOM     10  C   UNL     1      -3.214  44.482   4.987  1.00  0.00     0.041 C 
ATOM     11  O   UNL     1      -2.990  43.457   5.684  1.00  0.00    -0.550 OA
ATOM     12  O   UNL     1      -4.524  44.867   4.732  1.00  0.00    -0.550 OA
ENDBRANCH   9  10
ENDBRANCH   8   9
ENDBRANCH   7   8
ENDBRANCH   6   7
ENDBRANCH   5   6
ENDBRANCH   4   5
ENDBRANCH   3   4
ENDBRANCH   1   3
BRANCH   2  13
ATOM     13  C   UNL     1       4.480  45.612   4.225  1.00  0.00     0.027 C 
BRANCH  13  14
ATOM     14  C   UNL     1       4.753  44.325   5.016  1.00  0.00     0.004 C 
BRANCH  14  15
ATOM     15  C   UNL     1       4.033  44.317   6.374  1.00  0.00     0.000 C 
BRANCH  15  16
ATOM     16  C   UNL     1       4.402  43.095   7.229  1.00  0.00     0.000 C 
BRANCH  16  17
ATOM     17  C   UNL     1       4.174  43.332   8.730  1.00  0.00    -0.000 C 
BRANCH  17  18
ATOM     18  C   UNL     1       4.301  42.017   9.516  1.00  0.00    -0.000 C 
BRANCH  18  19
ATOM     19  C   UNL     1       5.578  41.959  10.368  1.00  0.00    -0.003 C 
ATOM     20  C   UNL     1       6.287  43.310  10.467  1.00  0.00     0.004 C 
ENDBRANCH  18  19
ENDBRANCH  17  18
ENDBRANCH  16  17
ENDBRANCH  15  16
ENDBRANCH  14  15
ENDBRANCH  13  14
ENDBRANCH   2  13
TORSDOF 15
ENDMDL
