MODEL 1
REMARK VINA RESULT:    -3.442      0.000      0.000
REMARK INTER + INTRA:         -11.179
REMARK INTER:                  -7.465
REMARK INTRA:                  -3.713
REMARK UNBOUND:                -3.713
REMARK SMILES CCCCCCCCCCCCCCCCCCCCCC(=O)[O-]
REMARK SMILES IDX 12 1 11 2 10 3 9 4 8 5 7 6 6 7 5 8 4 9 3 10 2 11 1 12 13 13
REMARK SMILES IDX 14 14 15 15 16 16 17 17 18 18 19 19 20 20 21 21 22 22 23 23
REMARK SMILES IDX 24 24
REMARK H PARENT
REMARK Flexibility Score: inf
ROOT
ATOM      1  C   UNL     1    -118.280  14.393  23.565  1.00  0.00     0.000 C 
ENDROOT
BRANCH   1   2
ATOM      2  C   UNL     1    -119.036  15.102  22.427  1.00  0.00     0.000 C 
BRANCH   2   3
ATOM      3  C   UNL     1    -118.541  14.677  21.035  1.00  0.00     0.000 C 
BRANCH   3   4
ATOM      4  C   UNL     1    -117.782  13.342  21.060  1.00  0.00    -0.000 C 
BRANCH   4   5
ATOM      5  C   UNL     1    -118.623  12.224  20.432  1.00  0.00    -0.000 C 
BRANCH   5   6
ATOM      6  C   UNL     1    -117.772  10.978  20.160  1.00  0.00    -0.000 C 
BRANCH   6   7
ATOM      7  C   UNL     1    -116.534  11.329  19.325  1.00  0.00    -0.000 C 
BRANCH   7   8
ATOM      8  C   UNL     1    -116.817  11.159  17.825  1.00  0.00    -0.000 C 
BRANCH   8   9
ATOM      9  C   UNL     1    -116.615  12.460  17.031  1.00  0.00    -0.000 C 
BRANCH   9  10
ATOM     10  C   UNL     1    -117.942  13.058  16.529  1.00  0.00    -0.000 C 
BRANCH  10  11
ATOM     11  C   UNL     1    -118.385  14.280  17.348  1.00  0.00    -0.003 C 
ATOM     12  C   UNL     1    -117.310  15.365  17.414  1.00  0.00     0.004 C 
ENDBRANCH  10  11
ENDBRANCH   9  10
ENDBRANCH   8   9
ENDBRANCH   7   8
ENDBRANCH   6   7
ENDBRANCH   5   6
ENDBRANCH   4   5
ENDBRANCH   3   4
ENDBRANCH   2   3
ENDBRANCH   1   2
BRANCH   1  13
ATOM     13  C   UNL     1    -119.234  13.835  24.643  1.00  0.00     0.000 C 
BRANCH  13  14
ATOM     14  C   UNL     1    -119.051  12.331  24.923  1.00  0.00     0.000 C 
BRANCH  14  15
ATOM     15  C   UNL     1    -119.544  11.396  23.805  1.00  0.00     0.000 C 
BRANCH  15  16
ATOM     16  C   UNL     1    -118.793  10.052  23.778  1.00  0.00     0.000 C 
BRANCH  16  17
ATOM     17  C   UNL     1    -117.399  10.154  24.422  1.00  0.00     0.000 C 
BRANCH  17  18
ATOM     18  C   UNL     1    -116.244  10.081  23.397  1.00  0.00     0.000 C 
BRANCH  18  19
ATOM     19  C   UNL     1    -115.528  11.428  23.178  1.00  0.00     0.000 C 
BRANCH  19  20
ATOM     20  C   UNL     1    -115.212  12.205  24.469  1.00  0.00     0.006 C 
BRANCH  20  21
ATOM     21  C   UNL     1    -114.202  11.475  25.363  1.00  0.00     0.053 C 
BRANCH  21  22
ATOM     22  C   UNL     1    -112.812  11.653  24.833  1.00  0.00     0.041 C 
ATOM     23  O   UNL     1    -112.309  12.806  24.750  1.00  0.00    -0.550 OA
ATOM     24  O   UNL     1    -112.087  10.552  24.393  1.00  0.00    -0.550 OA
ENDBRANCH  21  22
ENDBRANCH  20  21
ENDBRANCH  19  20
ENDBRANCH  18  19
ENDBRANCH  17  18
ENDBRANCH  16  17
ENDBRANCH  15  16
ENDBRANCH  14  15
ENDBRANCH  13  14
ENDBRANCH   1  13
TORSDOF 20
ENDMDL
MODEL 2
REMARK VINA RESULT:    -3.283      1.208      2.580
REMARK INTER + INTRA:         -10.835
REMARK INTER:                  -7.544
REMARK INTRA:                  -3.291
REMARK UNBOUND:                -3.713
REMARK SMILES CCCCCCCCCCCCCCCCCCCCCC(=O)[O-]
REMARK SMILES IDX 12 1 11 2 10 3 9 4 8 5 7 6 6 7 5 8 4 9 3 10 2 11 1 12 13 13
REMARK SMILES IDX 14 14 15 15 16 16 17 17 18 18 19 19 20 20 21 21 22 22 23 23
REMARK SMILES IDX 24 24
REMARK H PARENT
REMARK Flexibility Score: inf
ROOT
ATOM      1  C   UNL     1    -118.039  14.432  22.595  1.00  0.00     0.000 C 
ENDROOT
BRANCH   1   2
ATOM      2  C   UNL     1    -119.425  14.869  22.086  1.00  0.00     0.000 C 
BRANCH   2   3
ATOM      3  C   UNL     1    -119.544  14.791  20.555  1.00  0.00     0.000 C 
BRANCH   3   4
ATOM      4  C   UNL     1    -118.181  14.875  19.852  1.00  0.00    -0.000 C 
BRANCH   4   5
ATOM      5  C   UNL     1    -118.343  14.755  18.332  1.00  0.00    -0.000 C 
BRANCH   5   6
ATOM      6  C   UNL     1    -117.666  13.486  17.802  1.00  0.00    -0.000 C 
BRANCH   6   7
ATOM      7  C   UNL     1    -118.706  12.464  17.329  1.00  0.00    -0.000 C 
BRANCH   7   8
ATOM      8  C   UNL     1    -118.623  11.171  18.154  1.00  0.00    -0.000 C 
BRANCH   8   9
ATOM      9  C   UNL     1    -119.152  11.346  19.587  1.00  0.00    -0.000 C 
BRANCH   9  10
ATOM     10  C   UNL     1    -118.179  10.800  20.647  1.00  0.00    -0.000 C 
BRANCH  10  11
ATOM     11  C   UNL     1    -116.814  11.504  20.613  1.00  0.00    -0.003 C 
ATOM     12  C   UNL     1    -115.655  10.530  20.392  1.00  0.00     0.004 C 
ENDBRANCH  10  11
ENDBRANCH   9  10
ENDBRANCH   8   9
ENDBRANCH   7   8
ENDBRANCH   6   7
ENDBRANCH   5   6
ENDBRANCH   4   5
ENDBRANCH   3   4
ENDBRANCH   2   3
ENDBRANCH   1   2
BRANCH   1  13
ATOM     13  C   UNL     1    -118.029  14.175  24.117  1.00  0.00     0.000 C 
BRANCH  13  14
ATOM     14  C   UNL     1    -119.359  13.623  24.668  1.00  0.00     0.000 C 
BRANCH  14  15
ATOM     15  C   UNL     1    -119.301  12.170  25.170  1.00  0.00     0.000 C 
BRANCH  15  16
ATOM     16  C   UNL     1    -118.513  11.244  24.226  1.00  0.00     0.000 C 
BRANCH  16  17
ATOM     17  C   UNL     1    -117.327  10.566  24.935  1.00  0.00     0.000 C 
BRANCH  17  18
ATOM     18  C   UNL     1    -116.089  10.391  24.026  1.00  0.00     0.000 C 
BRANCH  18  19
ATOM     19  C   UNL     1    -115.197  11.645  23.952  1.00  0.00     0.000 C 
BRANCH  19  20
ATOM     20  C   UNL     1    -114.350  11.906  25.210  1.00  0.00     0.006 C 
BRANCH  20  21
ATOM     21  C   UNL     1    -112.869  12.139  24.886  1.00  0.00     0.053 C 
BRANCH  21  22
ATOM     22  C   UNL     1    -112.190  10.838  24.585  1.00  0.00     0.041 C 
ATOM     23  O   UNL     1    -112.289   9.871  25.389  1.00  0.00    -0.550 OA
ATOM     24  O   UNL     1    -111.416  10.703  23.439  1.00  0.00    -0.550 OA
ENDBRANCH  21  22
ENDBRANCH  20  21
ENDBRANCH  19  20
ENDBRANCH  18  19
ENDBRANCH  17  18
ENDBRANCH  16  17
ENDBRANCH  15  16
ENDBRANCH  14  15
ENDBRANCH  13  14
ENDBRANCH   1  13
TORSDOF 20
ENDMDL
MODEL 3
REMARK VINA RESULT:    -3.239      2.476      5.005
REMARK INTER + INTRA:         -10.738
REMARK INTER:                  -8.006
REMARK INTRA:                  -2.732
REMARK UNBOUND:                -3.713
REMARK SMILES CCCCCCCCCCCCCCCCCCCCCC(=O)[O-]
REMARK SMILES IDX 12 1 11 2 10 3 9 4 8 5 7 6 6 7 5 8 4 9 3 10 2 11 1 12 13 13
REMARK SMILES IDX 14 14 15 15 16 16 17 17 18 18 19 19 20 20 21 21 22 22 23 23
REMARK SMILES IDX 24 24
REMARK H PARENT
REMARK Flexibility Score: inf
ROOT
ATOM      1  C   UNL     1    -112.066  11.007  24.120  1.00  0.00     0.000 C 
ENDROOT
BRANCH   1   2
ATOM      2  C   UNL     1    -112.837   9.706  23.832  1.00  0.00     0.000 C 
BRANCH   2   3
ATOM      3  C   UNL     1    -112.657   9.220  22.385  1.00  0.00     0.000 C 
BRANCH   3   4
ATOM      4  C   UNL     1    -113.993   8.885  21.705  1.00  0.00    -0.000 C 
BRANCH   4   5
ATOM      5  C   UNL     1    -113.901   9.097  20.189  1.00  0.00    -0.000 C 
BRANCH   5   6
ATOM      6  C   UNL     1    -115.279   9.404  19.589  1.00  0.00    -0.000 C 
BRANCH   6   7
ATOM      7  C   UNL     1    -115.148   9.967  18.169  1.00  0.00    -0.000 C 
BRANCH   7   8
ATOM      8  C   UNL     1    -116.525  10.333  17.593  1.00  0.00    -0.000 C 
BRANCH   8   9
ATOM      9  C   UNL     1    -116.595  11.788  17.102  1.00  0.00    -0.000 C 
BRANCH   9  10
ATOM     10  C   UNL     1    -117.756  12.572  17.741  1.00  0.00    -0.000 C 
BRANCH  10  11
ATOM     11  C   UNL     1    -117.644  14.086  17.506  1.00  0.00    -0.003 C 
ATOM     12  C   UNL     1    -117.920  14.899  18.771  1.00  0.00     0.004 C 
ENDBRANCH  10  11
ENDBRANCH   9  10
ENDBRANCH   8   9
ENDBRANCH   7   8
ENDBRANCH   6   7
ENDBRANCH   5   6
ENDBRANCH   4   5
ENDBRANCH   3   4
ENDBRANCH   2   3
ENDBRANCH   1   2
BRANCH   1  13
ATOM     13  C   UNL     1    -112.832  11.941  25.082  1.00  0.00     0.000 C 
BRANCH  13  14
ATOM     14  C   UNL     1    -114.326  11.592  25.237  1.00  0.00     0.000 C 
BRANCH  14  15
ATOM     15  C   UNL     1    -115.288  12.472  24.420  1.00  0.00     0.000 C 
BRANCH  15  16
ATOM     16  C   UNL     1    -116.350  11.652  23.666  1.00  0.00     0.000 C 
BRANCH  16  17
ATOM     17  C   UNL     1    -116.071  11.592  22.153  1.00  0.00     0.000 C 
BRANCH  17  18
ATOM     18  C   UNL     1    -117.148  12.304  21.304  1.00  0.00     0.000 C 
BRANCH  18  19
ATOM     19  C   UNL     1    -118.588  12.040  21.785  1.00  0.00     0.000 C 
BRANCH  19  20
ATOM     20  C   UNL     1    -119.401  13.306  22.106  1.00  0.00     0.006 C 
BRANCH  20  21
ATOM     21  C   UNL     1    -118.511  14.512  22.433  1.00  0.00     0.053 C 
BRANCH  21  22
ATOM     22  C   UNL     1    -118.352  14.655  23.915  1.00  0.00     0.041 C 
ATOM     23  O   UNL     1    -119.164  14.091  24.697  1.00  0.00    -0.550 OA
ATOM     24  O   UNL     1    -117.331  15.443  24.434  1.00  0.00    -0.550 OA
ENDBRANCH  21  22
ENDBRANCH  20  21
ENDBRANCH  19  20
ENDBRANCH  18  19
ENDBRANCH  17  18
ENDBRANCH  16  17
ENDBRANCH  15  16
ENDBRANCH  14  15
ENDBRANCH  13  14
ENDBRANCH   1  13
TORSDOF 20
ENDMDL
MODEL 4
REMARK VINA RESULT:    -3.234      2.869      6.302
REMARK INTER + INTRA:         -10.728
REMARK INTER:                  -7.776
REMARK INTRA:                  -2.952
REMARK UNBOUND:                -3.713
REMARK SMILES CCCCCCCCCCCCCCCCCCCCCC(=O)[O-]
REMARK SMILES IDX 12 1 11 2 10 3 9 4 8 5 7 6 6 7 5 8 4 9 3 10 2 11 1 12 13 13
REMARK SMILES IDX 14 14 15 15 16 16 17 17 18 18 19 19 20 20 21 21 22 22 23 23
REMARK SMILES IDX 24 24
REMARK H PARENT
REMARK Flexibility Score: inf
ROOT
ATOM      1  C   UNL     1    -116.584  13.357  23.871  1.00  0.00     0.000 C 
ENDROOT
BRANCH   1   2
ATOM      2  C   UNL     1    -117.308  12.001  23.945  1.00  0.00     0.000 C 
BRANCH   2   3
ATOM      3  C   UNL     1    -117.562  11.390  22.557  1.00  0.00     0.000 C 
BRANCH   3   4
ATOM      4  C   UNL     1    -116.533  11.848  21.513  1.00  0.00    -0.000 C 
BRANCH   4   5
ATOM      5  C   UNL     1    -115.686  10.665  21.027  1.00  0.00    -0.000 C 
BRANCH   5   6
ATOM      6  C   UNL     1    -116.093   9.367  21.733  1.00  0.00    -0.000 C 
BRANCH   6   7
ATOM      7  C   UNL     1    -115.037   8.945  22.762  1.00  0.00    -0.000 C 
BRANCH   7   8
ATOM      8  C   UNL     1    -113.705   9.669  22.511  1.00  0.00    -0.000 C 
BRANCH   8   9
ATOM      9  C   UNL     1    -112.740   9.568  23.705  1.00  0.00    -0.000 C 
BRANCH   9  10
ATOM     10  C   UNL     1    -112.030  10.901  24.004  1.00  0.00    -0.000 C 
BRANCH  10  11
ATOM     11  C   UNL     1    -112.961  11.929  24.665  1.00  0.00    -0.003 C 
ATOM     12  C   UNL     1    -113.914  11.295  25.678  1.00  0.00     0.004 C 
ENDBRANCH  10  11
ENDBRANCH   9  10
ENDBRANCH   8   9
ENDBRANCH   7   8
ENDBRANCH   6   7
ENDBRANCH   5   6
ENDBRANCH   4   5
ENDBRANCH   3   4
ENDBRANCH   2   3
ENDBRANCH   1   2
BRANCH   1  13
ATOM     13  C   UNL     1    -117.533  14.544  24.145  1.00  0.00     0.000 C 
BRANCH  13  14
ATOM     14  C   UNL     1    -118.967  14.124  24.525  1.00  0.00     0.000 C 
BRANCH  14  15
ATOM     15  C   UNL     1    -120.019  14.330  23.421  1.00  0.00     0.000 C 
BRANCH  15  16
ATOM     16  C   UNL     1    -119.482  15.148  22.232  1.00  0.00     0.000 C 
BRANCH  16  17
ATOM     17  C   UNL     1    -119.340  14.295  20.959  1.00  0.00     0.000 C 
BRANCH  17  18
ATOM     18  C   UNL     1    -118.137  14.704  20.079  1.00  0.00     0.000 C 
BRANCH  18  19
ATOM     19  C   UNL     1    -118.258  14.239  18.615  1.00  0.00     0.000 C 
BRANCH  19  20
ATOM     20  C   UNL     1    -117.832  12.781  18.367  1.00  0.00     0.006 C 
BRANCH  20  21
ATOM     21  C   UNL     1    -116.862  12.642  17.187  1.00  0.00     0.053 C 
BRANCH  21  22
ATOM     22  C   UNL     1    -116.363  11.234  17.085  1.00  0.00     0.041 C 
ATOM     23  O   UNL     1    -115.266  10.911  17.618  1.00  0.00    -0.550 OA
ATOM     24  O   UNL     1    -117.086  10.287  16.370  1.00  0.00    -0.550 OA
ENDBRANCH  21  22
ENDBRANCH  20  21
ENDBRANCH  19  20
ENDBRANCH  18  19
ENDBRANCH  17  18
ENDBRANCH  16  17
ENDBRANCH  15  16
ENDBRANCH  14  15
ENDBRANCH  13  14
ENDBRANCH   1  13
TORSDOF 20
ENDMDL
MODEL 5
REMARK VINA RESULT:    -3.214      1.435      2.792
REMARK INTER + INTRA:         -10.684
REMARK INTER:                  -6.932
REMARK INTRA:                  -3.752
REMARK UNBOUND:                -3.713
REMARK SMILES CCCCCCCCCCCCCCCCCCCCCC(=O)[O-]
REMARK SMILES IDX 12 1 11 2 10 3 9 4 8 5 7 6 6 7 5 8 4 9 3 10 2 11 1 12 13 13
REMARK SMILES IDX 14 14 15 15 16 16 17 17 18 18 19 19 20 20 21 21 22 22 23 23
REMARK SMILES IDX 24 24
REMARK H PARENT
REMARK Flexibility Score: inf
ROOT
ATOM      1  C   UNL     1    -118.252  14.284  20.004  1.00  0.00     0.000 C 
ENDROOT
BRANCH   1   2
ATOM      2  C   UNL     1    -117.484  12.986  20.313  1.00  0.00     0.000 C 
BRANCH   2   3
ATOM      3  C   UNL     1    -118.400  11.869  20.839  1.00  0.00     0.000 C 
BRANCH   3   4
ATOM      4  C   UNL     1    -117.698  10.503  20.887  1.00  0.00    -0.000 C 
BRANCH   4   5
ATOM      5  C   UNL     1    -116.203  10.647  20.574  1.00  0.00    -0.000 C 
BRANCH   5   6
ATOM      6  C   UNL     1    -115.609   9.317  20.096  1.00  0.00    -0.000 C 
BRANCH   6   7
ATOM      7  C   UNL     1    -115.226   9.387  18.613  1.00  0.00    -0.000 C 
BRANCH   7   8
ATOM      8  C   UNL     1    -115.610  10.746  18.008  1.00  0.00    -0.000 C 
BRANCH   8   9
ATOM      9  C   UNL     1    -116.545  10.613  16.795  1.00  0.00    -0.000 C 
BRANCH   9  10
ATOM     10  C   UNL     1    -117.685  11.647  16.812  1.00  0.00    -0.000 C 
BRANCH  10  11
ATOM     11  C   UNL     1    -118.986  11.080  17.399  1.00  0.00    -0.003 C 
ATOM     12  C   UNL     1    -120.097  12.128  17.487  1.00  0.00     0.004 C 
ENDBRANCH  10  11
ENDBRANCH   9  10
ENDBRANCH   8   9
ENDBRANCH   7   8
ENDBRANCH   6   7
ENDBRANCH   5   6
ENDBRANCH   4   5
ENDBRANCH   3   4
ENDBRANCH   2   3
ENDBRANCH   1   2
BRANCH   1  13
ATOM     13  C   UNL     1    -119.577  14.382  20.790  1.00  0.00     0.000 C 
BRANCH  13  14
ATOM     14  C   UNL     1    -119.494  15.265  22.051  1.00  0.00     0.000 C 
BRANCH  14  15
ATOM     15  C   UNL     1    -119.191  14.508  23.356  1.00  0.00     0.000 C 
BRANCH  15  16
ATOM     16  C   UNL     1    -117.781  14.801  23.901  1.00  0.00     0.000 C 
BRANCH  16  17
ATOM     17  C   UNL     1    -116.857  13.574  23.809  1.00  0.00     0.000 C 
BRANCH  17  18
ATOM     18  C   UNL     1    -117.541  12.259  24.246  1.00  0.00     0.000 C 
BRANCH  18  19
ATOM     19  C   UNL     1    -116.556  11.092  24.455  1.00  0.00     0.000 C 
BRANCH  19  20
ATOM     20  C   UNL     1    -115.099  11.404  24.073  1.00  0.00     0.006 C 
BRANCH  20  21
ATOM     21  C   UNL     1    -114.167  11.454  25.290  1.00  0.00     0.053 C 
BRANCH  21  22
ATOM     22  C   UNL     1    -112.747  11.638  24.852  1.00  0.00     0.041 C 
ATOM     23  O   UNL     1    -112.250  12.795  24.783  1.00  0.00    -0.550 OA
ATOM     24  O   UNL     1    -111.982  10.538  24.482  1.00  0.00    -0.550 OA
ENDBRANCH  21  22
ENDBRANCH  20  21
ENDBRANCH  19  20
ENDBRANCH  18  19
ENDBRANCH  17  18
ENDBRANCH  16  17
ENDBRANCH  15  16
ENDBRANCH  14  15
ENDBRANCH  13  14
ENDBRANCH   1  13
TORSDOF 20
ENDMDL
MODEL 6
REMARK VINA RESULT:    -3.185      3.293      6.904
REMARK INTER + INTRA:         -10.621
REMARK INTER:                  -7.443
REMARK INTRA:                  -3.178
REMARK UNBOUND:                -3.713
REMARK SMILES CCCCCCCCCCCCCCCCCCCCCC(=O)[O-]
REMARK SMILES IDX 12 1 11 2 10 3 9 4 8 5 7 6 6 7 5 8 4 9 3 10 2 11 1 12 13 13
REMARK SMILES IDX 14 14 15 15 16 16 17 17 18 18 19 19 20 20 21 21 22 22 23 23
REMARK SMILES IDX 24 24
REMARK H PARENT
REMARK Flexibility Score: inf
ROOT
ATOM      1  C   UNL     1    -118.613  13.885  24.619  1.00  0.00     0.000 C 
ENDROOT
BRANCH   1   2
ATOM      2  C   UNL     1    -119.978  13.255  24.284  1.00  0.00     0.000 C 
BRANCH   2   3
ATOM      3  C   UNL     1    -119.976  11.725  24.436  1.00  0.00     0.000 C 
BRANCH   3   4
ATOM      4  C   UNL     1    -119.677  11.001  23.115  1.00  0.00    -0.000 C 
BRANCH   4   5
ATOM      5  C   UNL     1    -118.311  10.305  23.171  1.00  0.00    -0.000 C 
BRANCH   5   6
ATOM      6  C   UNL     1    -117.925   9.962  24.614  1.00  0.00    -0.000 C 
BRANCH   6   7
ATOM      7  C   UNL     1    -116.504  10.443  24.933  1.00  0.00    -0.000 C 
BRANCH   7   8
ATOM      8  C   UNL     1    -116.008  11.437  23.872  1.00  0.00    -0.000 C 
BRANCH   8   9
ATOM      9  C   UNL     1    -115.035  12.480  24.444  1.00  0.00    -0.000 C 
BRANCH   9  10
ATOM     10  C   UNL     1    -113.922  11.845  25.296  1.00  0.00    -0.000 C 
BRANCH  10  11
ATOM     11  C   UNL     1    -112.601  11.699  24.526  1.00  0.00    -0.003 C 
ATOM     12  C   UNL     1    -112.070  10.264  24.535  1.00  0.00     0.004 C 
ENDBRANCH  10  11
ENDBRANCH   9  10
ENDBRANCH   8   9
ENDBRANCH   7   8
ENDBRANCH   6   7
ENDBRANCH   5   6
ENDBRANCH   4   5
ENDBRANCH   3   4
ENDBRANCH   2   3
ENDBRANCH   1   2
BRANCH   1  13
ATOM     13  C   UNL     1    -117.995  14.619  23.410  1.00  0.00     0.000 C 
BRANCH  13  14
ATOM     14  C   UNL     1    -118.993  14.898  22.269  1.00  0.00     0.000 C 
BRANCH  14  15
ATOM     15  C   UNL     1    -118.547  14.408  20.880  1.00  0.00     0.000 C 
BRANCH  15  16
ATOM     16  C   UNL     1    -117.598  13.197  20.952  1.00  0.00     0.000 C 
BRANCH  16  17
ATOM     17  C   UNL     1    -118.004  12.083  19.971  1.00  0.00     0.000 C 
BRANCH  17  18
ATOM     18  C   UNL     1    -117.024  11.923  18.787  1.00  0.00     0.000 C 
BRANCH  18  19
ATOM     19  C   UNL     1    -117.723  11.845  17.415  1.00  0.00     0.000 C 
BRANCH  19  20
ATOM     20  C   UNL     1    -117.330  12.960  16.430  1.00  0.00     0.006 C 
BRANCH  20  21
ATOM     21  C   UNL     1    -117.123  14.313  17.122  1.00  0.00     0.053 C 
BRANCH  21  22
ATOM     22  C   UNL     1    -118.235  15.253  16.773  1.00  0.00     0.041 C 
ATOM     23  O   UNL     1    -117.979  16.373  16.254  1.00  0.00    -0.550 OA
ATOM     24  O   UNL     1    -119.552  14.911  17.056  1.00  0.00    -0.550 OA
ENDBRANCH  21  22
ENDBRANCH  20  21
ENDBRANCH  19  20
ENDBRANCH  18  19
ENDBRANCH  17  18
ENDBRANCH  16  17
ENDBRANCH  15  16
ENDBRANCH  14  15
ENDBRANCH  13  14
ENDBRANCH   1  13
TORSDOF 20
ENDMDL
MODEL 7
REMARK VINA RESULT:    -3.166      2.746      6.558
REMARK INTER + INTRA:         -10.580
REMARK INTER:                  -7.268
REMARK INTRA:                  -3.312
REMARK UNBOUND:                -3.713
REMARK SMILES CCCCCCCCCCCCCCCCCCCCCC(=O)[O-]
REMARK SMILES IDX 12 1 11 2 10 3 9 4 8 5 7 6 6 7 5 8 4 9 3 10 2 11 1 12 13 13
REMARK SMILES IDX 14 14 15 15 16 16 17 17 18 18 19 19 20 20 21 21 22 22 23 23
REMARK SMILES IDX 24 24
REMARK H PARENT
REMARK Flexibility Score: inf
ROOT
ATOM      1  C   UNL     1    -118.242  14.865  22.926  1.00  0.00     0.000 C 
ENDROOT
BRANCH   1   2
ATOM      2  C   UNL     1    -118.415  14.314  24.353  1.00  0.00     0.000 C 
BRANCH   2   3
ATOM      3  C   UNL     1    -119.825  13.755  24.604  1.00  0.00     0.000 C 
BRANCH   3   4
ATOM      4  C   UNL     1    -119.841  12.223  24.716  1.00  0.00    -0.000 C 
BRANCH   4   5
ATOM      5  C   UNL     1    -119.889  11.575  23.327  1.00  0.00    -0.000 C 
BRANCH   5   6
ATOM      6  C   UNL     1    -118.654  10.702  23.081  1.00  0.00    -0.000 C 
BRANCH   6   7
ATOM      7  C   UNL     1    -117.882  11.176  21.844  1.00  0.00    -0.000 C 
BRANCH   7   8
ATOM      8  C   UNL     1    -116.504  11.734  22.235  1.00  0.00    -0.000 C 
BRANCH   8   9
ATOM      9  C   UNL     1    -116.038  11.250  23.618  1.00  0.00    -0.000 C 
BRANCH   9  10
ATOM     10  C   UNL     1    -115.145  12.279  24.335  1.00  0.00    -0.000 C 
BRANCH  10  11
ATOM     11  C   UNL     1    -114.109  11.618  25.257  1.00  0.00    -0.003 C 
ATOM     12  C   UNL     1    -112.701  12.184  25.059  1.00  0.00     0.004 C 
ENDBRANCH  10  11
ENDBRANCH   9  10
ENDBRANCH   8   9
ENDBRANCH   7   8
ENDBRANCH   6   7
ENDBRANCH   5   6
ENDBRANCH   4   5
ENDBRANCH   3   4
ENDBRANCH   2   3
ENDBRANCH   1   2
BRANCH   1  13
ATOM     13  C   UNL     1    -119.596  15.119  22.228  1.00  0.00     0.000 C 
BRANCH  13  14
ATOM     14  C   UNL     1    -119.629  14.687  20.749  1.00  0.00     0.000 C 
BRANCH  14  15
ATOM     15  C   UNL     1    -118.267  14.285  20.158  1.00  0.00     0.000 C 
BRANCH  15  16
ATOM     16  C   UNL     1    -117.925  15.056  18.870  1.00  0.00     0.000 C 
BRANCH  16  17
ATOM     17  C   UNL     1    -118.831  14.652  17.694  1.00  0.00     0.000 C 
BRANCH  17  18
ATOM     18  C   UNL     1    -118.062  14.460  16.367  1.00  0.00     0.000 C 
BRANCH  18  19
ATOM     19  C   UNL     1    -116.735  13.694  16.530  1.00  0.00     0.000 C 
BRANCH  19  20
ATOM     20  C   UNL     1    -116.874  12.161  16.541  1.00  0.00     0.006 C 
BRANCH  20  21
ATOM     21  C   UNL     1    -116.783  11.571  17.954  1.00  0.00     0.053 C 
BRANCH  21  22
ATOM     22  C   UNL     1    -117.957  10.683  18.225  1.00  0.00     0.041 C 
ATOM     23  O   UNL     1    -119.099  11.183  18.414  1.00  0.00    -0.550 OA
ATOM     24  O   UNL     1    -117.787   9.306  18.309  1.00  0.00    -0.550 OA
ENDBRANCH  21  22
ENDBRANCH  20  21
ENDBRANCH  19  20
ENDBRANCH  18  19
ENDBRANCH  17  18
ENDBRANCH  16  17
ENDBRANCH  15  16
ENDBRANCH  14  15
ENDBRANCH  13  14
ENDBRANCH   1  13
TORSDOF 20
ENDMDL
MODEL 8
REMARK VINA RESULT:    -3.020      1.284      3.900
REMARK INTER + INTRA:         -10.265
REMARK INTER:                  -6.826
REMARK INTRA:                  -3.439
REMARK UNBOUND:                -3.713
REMARK SMILES CCCCCCCCCCCCCCCCCCCCCC(=O)[O-]
REMARK SMILES IDX 12 1 11 2 10 3 9 4 8 5 7 6 6 7 5 8 4 9 3 10 2 11 1 12 13 13
REMARK SMILES IDX 14 14 15 15 16 16 17 17 18 18 19 19 20 20 21 21 22 22 23 23
REMARK SMILES IDX 24 24
REMARK H PARENT
REMARK Flexibility Score: inf
ROOT
ATOM      1  C   UNL     1    -117.442  11.570  21.282  1.00  0.00     0.000 C 
ENDROOT
BRANCH   1   2
ATOM      2  C   UNL     1    -116.755  11.788  19.922  1.00  0.00     0.000 C 
BRANCH   2   3
ATOM      3  C   UNL     1    -117.575  11.227  18.749  1.00  0.00     0.000 C 
BRANCH   3   4
ATOM      4  C   UNL     1    -118.298  12.326  17.956  1.00  0.00    -0.000 C 
BRANCH   4   5
ATOM      5  C   UNL     1    -117.580  13.673  18.111  1.00  0.00    -0.000 C 
BRANCH   5   6
ATOM      6  C   UNL     1    -118.547  14.763  18.587  1.00  0.00    -0.000 C 
BRANCH   6   7
ATOM      7  C   UNL     1    -119.686  14.162  19.421  1.00  0.00    -0.000 C 
BRANCH   7   8
ATOM      8  C   UNL     1    -119.965  15.017  20.666  1.00  0.00    -0.000 C 
BRANCH   8   9
ATOM      9  C   UNL     1    -118.952  14.770  21.796  1.00  0.00    -0.000 C 
BRANCH   9  10
ATOM     10  C   UNL     1    -119.631  14.446  23.139  1.00  0.00    -0.000 C 
BRANCH  10  11
ATOM     11  C   UNL     1    -118.623  14.061  24.232  1.00  0.00    -0.003 C 
ATOM     12  C   UNL     1    -117.362  14.926  24.200  1.00  0.00     0.004 C 
ENDBRANCH  10  11
ENDBRANCH   9  10
ENDBRANCH   8   9
ENDBRANCH   7   8
ENDBRANCH   6   7
ENDBRANCH   5   6
ENDBRANCH   4   5
ENDBRANCH   3   4
ENDBRANCH   2   3
ENDBRANCH   1   2
BRANCH   1  13
ATOM     13  C   UNL     1    -118.767  10.789  21.150  1.00  0.00     0.000 C 
BRANCH  13  14
ATOM     14  C   UNL     1    -119.735  10.993  22.332  1.00  0.00     0.000 C 
BRANCH  14  15
ATOM     15  C   UNL     1    -119.728   9.867  23.381  1.00  0.00     0.000 C 
BRANCH  15  16
ATOM     16  C   UNL     1    -119.284  10.352  24.773  1.00  0.00     0.000 C 
BRANCH  16  17
ATOM     17  C   UNL     1    -118.009   9.639  25.256  1.00  0.00     0.000 C 
BRANCH  17  18
ATOM     18  C   UNL     1    -117.090   9.178  24.101  1.00  0.00     0.000 C 
BRANCH  18  19
ATOM     19  C   UNL     1    -115.728   9.899  24.072  1.00  0.00     0.000 C 
BRANCH  19  20
ATOM     20  C   UNL     1    -115.623  11.113  25.012  1.00  0.00     0.006 C 
BRANCH  20  21
ATOM     21  C   UNL     1    -114.636  12.170  24.503  1.00  0.00     0.053 C 
BRANCH  21  22
ATOM     22  C   UNL     1    -113.254  11.874  24.996  1.00  0.00     0.041 C 
ATOM     23  O   UNL     1    -112.303  12.657  24.727  1.00  0.00    -0.550 OA
ATOM     24  O   UNL     1    -113.005  10.713  25.720  1.00  0.00    -0.550 OA
ENDBRANCH  21  22
ENDBRANCH  20  21
ENDBRANCH  19  20
ENDBRANCH  18  19
ENDBRANCH  17  18
ENDBRANCH  16  17
ENDBRANCH  15  16
ENDBRANCH  14  15
ENDBRANCH  13  14
ENDBRANCH   1  13
TORSDOF 20
ENDMDL
MODEL 9
REMARK VINA RESULT:    -3.020      3.012      6.262
REMARK INTER + INTRA:         -10.264
REMARK INTER:                  -6.271
REMARK INTRA:                  -3.993
REMARK UNBOUND:                -3.713
REMARK SMILES CCCCCCCCCCCCCCCCCCCCCC(=O)[O-]
REMARK SMILES IDX 12 1 11 2 10 3 9 4 8 5 7 6 6 7 5 8 4 9 3 10 2 11 1 12 13 13
REMARK SMILES IDX 14 14 15 15 16 16 17 17 18 18 19 19 20 20 21 21 22 22 23 23
REMARK SMILES IDX 24 24
REMARK H PARENT
REMARK Flexibility Score: inf
ROOT
ATOM      1  C   UNL     1    -118.552  13.323  24.364  1.00  0.00     0.000 C 
ENDROOT
BRANCH   1   2
ATOM      2  C   UNL     1    -119.777  12.530  23.874  1.00  0.00     0.000 C 
BRANCH   2   3
ATOM      3  C   UNL     1    -119.579  11.010  23.980  1.00  0.00     0.000 C 
BRANCH   3   4
ATOM      4  C   UNL     1    -119.324  10.351  22.616  1.00  0.00    -0.000 C 
BRANCH   4   5
ATOM      5  C   UNL     1    -119.633  11.325  21.473  1.00  0.00    -0.000 C 
BRANCH   5   6
ATOM      6  C   UNL     1    -118.570  11.240  20.372  1.00  0.00    -0.000 C 
BRANCH   6   7
ATOM      7  C   UNL     1    -117.302  12.007  20.770  1.00  0.00    -0.000 C 
BRANCH   7   8
ATOM      8  C   UNL     1    -116.050  11.139  20.574  1.00  0.00    -0.000 C 
BRANCH   8   9
ATOM      9  C   UNL     1    -115.885  10.076  21.673  1.00  0.00    -0.000 C 
BRANCH   9  10
ATOM     10  C   UNL     1    -114.913  10.519  22.781  1.00  0.00    -0.000 C 
BRANCH  10  11
ATOM     11  C   UNL     1    -115.639  11.064  24.020  1.00  0.00    -0.003 C 
ATOM     12  C   UNL     1    -115.038  12.377  24.524  1.00  0.00     0.004 C 
ENDBRANCH  10  11
ENDBRANCH   9  10
ENDBRANCH   8   9
ENDBRANCH   7   8
ENDBRANCH   6   7
ENDBRANCH   5   6
ENDBRANCH   4   5
ENDBRANCH   3   4
ENDBRANCH   2   3
ENDBRANCH   1   2
BRANCH   1  13
ATOM     13  C   UNL     1    -118.218  14.515  23.442  1.00  0.00     0.000 C 
BRANCH  13  14
ATOM     14  C   UNL     1    -119.385  14.951  22.535  1.00  0.00     0.000 C 
BRANCH  14  15
ATOM     15  C   UNL     1    -118.997  15.260  21.078  1.00  0.00     0.000 C 
BRANCH  15  16
ATOM     16  C   UNL     1    -120.003  14.692  20.061  1.00  0.00     0.000 C 
BRANCH  16  17
ATOM     17  C   UNL     1    -119.374  14.493  18.671  1.00  0.00     0.000 C 
BRANCH  17  18
ATOM     18  C   UNL     1    -117.882  14.894  18.612  1.00  0.00     0.000 C 
BRANCH  18  19
ATOM     19  C   UNL     1    -117.307  14.922  17.182  1.00  0.00     0.000 C 
BRANCH  19  20
ATOM     20  C   UNL     1    -117.494  13.617  16.389  1.00  0.00     0.006 C 
BRANCH  20  21
ATOM     21  C   UNL     1    -116.780  12.425  17.038  1.00  0.00     0.053 C 
BRANCH  21  22
ATOM     22  C   UNL     1    -117.546  11.162  16.793  1.00  0.00     0.041 C 
ATOM     23  O   UNL     1    -116.940  10.107  16.461  1.00  0.00    -0.550 OA
ATOM     24  O   UNL     1    -118.933  11.156  16.893  1.00  0.00    -0.550 OA
ENDBRANCH  21  22
ENDBRANCH  20  21
ENDBRANCH  19  20
ENDBRANCH  18  19
ENDBRANCH  17  18
ENDBRANCH  16  17
ENDBRANCH  15  16
ENDBRANCH  14  15
ENDBRANCH  13  14
ENDBRANCH   1  13
TORSDOF 20
ENDMDL
