MODEL 1
REMARK VINA RESULT:    -6.995      0.000      0.000
REMARK INTER + INTRA:          -8.731
REMARK INTER:                  -8.427
REMARK INTRA:                  -0.304
REMARK UNBOUND:                -0.304
REMARK SMILES O=c1c(O)c(-c2ccc(O)c(O)c2)oc2cc(O)cc(O)c12
REMARK SMILES IDX 5 1 3 2 2 3 1 4 22 5 20 6 19 7 17 8 16 9 15 10 14 11 6 12
REMARK SMILES IDX 7 13 8 14 9 15 13 16 11 17 10 18 12 20 4 22 21 24 18 26
REMARK H PARENT 10 19 12 21 4 23 21 25 18 27
REMARK Flexibility Score: inf
ROOT
ATOM      1  C   UNL     1      54.740   5.367  79.426  1.00  0.00     0.180 A 
ATOM      2  C   UNL     1      54.197   5.462  80.720  1.00  0.00     0.208 A 
ATOM      3  C   UNL     1      52.924   4.924  80.965  1.00  0.00     0.238 A 
ATOM      4  O   UNL     1      52.421   5.060  82.111  1.00  0.00    -0.285 OA
ATOM      5  C   UNL     1      52.216   4.285  79.920  1.00  0.00     0.111 A 
ATOM      6  C   UNL     1      50.936   3.669  80.065  1.00  0.00     0.134 A 
ATOM      7  C   UNL     1      50.272   3.181  78.934  1.00  0.00     0.093 A 
ATOM      8  C   UNL     1      50.867   3.226  77.673  1.00  0.00     0.123 A 
ATOM      9  C   UNL     1      52.143   3.772  77.528  1.00  0.00     0.094 A 
ATOM     10  C   UNL     1      52.817   4.300  78.634  1.00  0.00     0.146 A 
ATOM     11  O   UNL     1      54.025   4.820  78.451  1.00  0.00    -0.452 OA
ENDROOT
BRANCH   1  12
ATOM     12  C   UNL     1      56.086   5.888  79.097  1.00  0.00     0.025 A 
ATOM     13  C   UNL     1      57.220   5.124  79.412  1.00  0.00     0.016 A 
ATOM     14  C   UNL     1      58.501   5.606  79.130  1.00  0.00     0.051 A 
ATOM     15  C   UNL     1      58.668   6.867  78.543  1.00  0.00     0.157 A 
ATOM     16  C   UNL     1      56.259   7.162  78.526  1.00  0.00     0.062 A 
ATOM     17  C   UNL     1      57.540   7.650  78.244  1.00  0.00     0.158 A 
BRANCH  15  18
ATOM     18  O   UNL     1      59.947   7.344  78.260  1.00  0.00    -0.504 OA
ATOM     19  H   UNL     1      60.543   7.726  78.984  1.00  0.00     0.293 HD
ENDBRANCH  15  18
BRANCH  17  20
ATOM     20  O   UNL     1      57.673   8.915  77.673  1.00  0.00    -0.504 OA
ATOM     21  H   UNL     1      58.575   9.359  77.552  1.00  0.00     0.293 HD
ENDBRANCH  17  20
ENDBRANCH   1  12
BRANCH   2  22
ATOM     22  O   UNL     1      54.904   6.118  81.732  1.00  0.00    -0.502 OA
ATOM     23  H   UNL     1      54.442   6.597  82.496  1.00  0.00     0.293 HD
ENDBRANCH   2  22
BRANCH   6  24
ATOM     24  O   UNL     1      50.292   3.489  81.293  1.00  0.00    -0.507 OA
ATOM     25  H   UNL     1      49.681   2.718  81.515  1.00  0.00     0.293 HD
ENDBRANCH   6  24
BRANCH   8  26
ATOM     26  O   UNL     1      50.184   2.716  76.571  1.00  0.00    -0.508 OA
ATOM     27  H   UNL     1      50.658   2.526  75.696  1.00  0.00     0.293 HD
ENDBRANCH   8  26
TORSDOF 6
ENDMDL
MODEL 2
REMARK VINA RESULT:    -6.801      1.669      7.052
REMARK INTER + INTRA:          -8.497
REMARK INTER:                  -8.175
REMARK INTRA:                  -0.322
REMARK UNBOUND:                -0.304
REMARK SMILES O=c1c(O)c(-c2ccc(O)c(O)c2)oc2cc(O)cc(O)c12
REMARK SMILES IDX 5 1 3 2 2 3 1 4 22 5 20 6 19 7 17 8 16 9 15 10 14 11 6 12
REMARK SMILES IDX 7 13 8 14 9 15 13 16 11 17 10 18 12 20 4 22 21 24 18 26
REMARK H PARENT 10 19 12 21 4 23 21 25 18 27
REMARK Flexibility Score: inf
ROOT
ATOM      1  C   UNL     1      54.732   5.675  78.562  1.00  0.00     0.180 A 
ATOM      2  C   UNL     1      55.917   4.974  78.845  1.00  0.00     0.208 A 
ATOM      3  C   UNL     1      57.152   5.611  78.642  1.00  0.00     0.238 A 
ATOM      4  O   UNL     1      58.209   4.959  78.846  1.00  0.00    -0.285 OA
ATOM      5  C   UNL     1      57.186   6.946  78.173  1.00  0.00     0.111 A 
ATOM      6  C   UNL     1      58.379   7.703  77.969  1.00  0.00     0.134 A 
ATOM      7  C   UNL     1      58.300   8.970  77.379  1.00  0.00     0.093 A 
ATOM      8  C   UNL     1      57.069   9.534  77.045  1.00  0.00     0.123 A 
ATOM      9  C   UNL     1      55.892   8.828  77.294  1.00  0.00     0.094 A 
ATOM     10  C   UNL     1      55.941   7.546  77.849  1.00  0.00     0.146 A 
ATOM     11  O   UNL     1      54.799   6.903  78.061  1.00  0.00    -0.452 OA
ENDROOT
BRANCH   1  12
ATOM     12  C   UNL     1      53.394   5.079  78.774  1.00  0.00     0.025 A 
ATOM     13  C   UNL     1      52.760   5.228  80.017  1.00  0.00     0.016 A 
ATOM     14  C   UNL     1      51.506   4.655  80.246  1.00  0.00     0.051 A 
ATOM     15  C   UNL     1      50.875   3.911  79.241  1.00  0.00     0.157 A 
ATOM     16  C   UNL     1      52.766   4.314  77.775  1.00  0.00     0.062 A 
ATOM     17  C   UNL     1      51.511   3.736  78.001  1.00  0.00     0.158 A 
BRANCH  15  18
ATOM     18  O   UNL     1      49.623   3.343  79.472  1.00  0.00    -0.504 OA
ATOM     19  H   UNL     1      49.382   2.426  79.115  1.00  0.00     0.293 HD
ENDBRANCH  15  18
BRANCH  17  20
ATOM     20  O   UNL     1      50.916   2.989  76.985  1.00  0.00    -0.504 OA
ATOM     21  H   UNL     1      51.087   1.997  76.877  1.00  0.00     0.293 HD
ENDBRANCH  17  20
ENDBRANCH   1  12
BRANCH   2  22
ATOM     22  O   UNL     1      55.861   3.648  79.286  1.00  0.00    -0.502 OA
ATOM     23  H   UNL     1      56.229   2.877  78.742  1.00  0.00     0.293 HD
ENDBRANCH   2  22
BRANCH   6  24
ATOM     24  O   UNL     1      59.652   7.271  78.352  1.00  0.00    -0.507 OA
ATOM     25  H   UNL     1      59.846   6.403  78.827  1.00  0.00     0.293 HD
ENDBRANCH   6  24
BRANCH   8  26
ATOM     26  O   UNL     1      57.027  10.805  76.473  1.00  0.00    -0.508 OA
ATOM     27  H   UNL     1      56.148  11.251  76.238  1.00  0.00     0.293 HD
ENDBRANCH   8  26
TORSDOF 6
ENDMDL
MODEL 3
REMARK VINA RESULT:    -6.638      1.729      7.097
REMARK INTER + INTRA:          -8.300
REMARK INTER:                  -8.256
REMARK INTRA:                  -0.044
REMARK UNBOUND:                -0.304
REMARK SMILES O=c1c(O)c(-c2ccc(O)c(O)c2)oc2cc(O)cc(O)c12
REMARK SMILES IDX 5 1 3 2 2 3 1 4 22 5 20 6 19 7 17 8 16 9 15 10 14 11 6 12
REMARK SMILES IDX 7 13 8 14 9 15 13 16 11 17 10 18 12 20 4 22 21 24 18 26
REMARK H PARENT 10 19 12 21 4 23 21 25 18 27
REMARK Flexibility Score: inf
ROOT
ATOM      1  C   UNL     1      54.146   4.674  79.080  1.00  0.00     0.180 A 
ATOM      2  C   UNL     1      54.705   5.554  78.137  1.00  0.00     0.208 A 
ATOM      3  C   UNL     1      56.064   5.891  78.242  1.00  0.00     0.238 A 
ATOM      4  O   UNL     1      56.546   6.721  77.427  1.00  0.00    -0.285 OA
ATOM      5  C   UNL     1      56.850   5.333  79.278  1.00  0.00     0.111 A 
ATOM      6  C   UNL     1      58.246   5.573  79.457  1.00  0.00     0.134 A 
ATOM      7  C   UNL     1      58.894   5.072  80.592  1.00  0.00     0.093 A 
ATOM      8  C   UNL     1      58.213   4.286  81.522  1.00  0.00     0.123 A 
ATOM      9  C   UNL     1      56.862   3.995  81.327  1.00  0.00     0.094 A 
ATOM     10  C   UNL     1      56.179   4.511  80.222  1.00  0.00     0.146 A 
ATOM     11  O   UNL     1      54.892   4.219  80.079  1.00  0.00    -0.452 OA
ENDROOT
BRANCH   1  12
ATOM     12  C   UNL     1      52.727   4.253  79.020  1.00  0.00     0.025 A 
ATOM     13  C   UNL     1      51.936   4.323  80.176  1.00  0.00     0.016 A 
ATOM     14  C   UNL     1      50.601   3.910  80.148  1.00  0.00     0.051 A 
ATOM     15  C   UNL     1      50.042   3.407  78.966  1.00  0.00     0.157 A 
ATOM     16  C   UNL     1      52.168   3.728  77.841  1.00  0.00     0.062 A 
ATOM     17  C   UNL     1      50.833   3.311  77.808  1.00  0.00     0.158 A 
BRANCH  15  18
ATOM     18  O   UNL     1      48.710   2.999  78.939  1.00  0.00    -0.504 OA
ATOM     19  H   UNL     1      48.349   2.323  79.602  1.00  0.00     0.293 HD
ENDBRANCH  15  18
BRANCH  17  20
ATOM     20  O   UNL     1      50.311   2.801  76.620  1.00  0.00    -0.504 OA
ATOM     21  H   UNL     1      49.315   2.680  76.478  1.00  0.00     0.293 HD
ENDBRANCH  17  20
ENDBRANCH   1  12
BRANCH   2  22
ATOM     22  O   UNL     1      53.906   6.111  77.134  1.00  0.00    -0.502 OA
ATOM     23  H   UNL     1      54.280   6.717  76.414  1.00  0.00     0.293 HD
ENDBRANCH   2  22
BRANCH   6  24
ATOM     24  O   UNL     1      59.041   6.268  78.541  1.00  0.00    -0.507 OA
ATOM     25  H   UNL     1      60.043   6.183  78.468  1.00  0.00     0.293 HD
ENDBRANCH   6  24
BRANCH   8  26
ATOM     26  O   UNL     1      58.893   3.790  82.632  1.00  0.00    -0.508 OA
ATOM     27  H   UNL     1      58.987   4.334  83.482  1.00  0.00     0.293 HD
ENDBRANCH   8  26
TORSDOF 6
ENDMDL
MODEL 4
REMARK VINA RESULT:    -6.506      9.340     11.212
REMARK INTER + INTRA:          -8.141
REMARK INTER:                  -7.824
REMARK INTRA:                  -0.318
REMARK UNBOUND:                -0.304
REMARK SMILES O=c1c(O)c(-c2ccc(O)c(O)c2)oc2cc(O)cc(O)c12
REMARK SMILES IDX 5 1 3 2 2 3 1 4 22 5 20 6 19 7 17 8 16 9 15 10 14 11 6 12
REMARK SMILES IDX 7 13 8 14 9 15 13 16 11 17 10 18 12 20 4 22 21 24 18 26
REMARK H PARENT 10 19 12 21 4 23 21 25 18 27
REMARK Flexibility Score: inf
ROOT
ATOM      1  C   UNL     1      46.574   2.490  73.220  1.00  0.00     0.180 A 
ATOM      2  C   UNL     1      47.808   2.217  73.835  1.00  0.00     0.208 A 
ATOM      3  C   UNL     1      48.057   0.923  74.320  1.00  0.00     0.238 A 
ATOM      4  O   UNL     1      49.142   0.699  74.917  1.00  0.00    -0.285 OA
ATOM      5  C   UNL     1      47.075  -0.085  74.170  1.00  0.00     0.111 A 
ATOM      6  C   UNL     1      47.235  -1.441  74.587  1.00  0.00     0.134 A 
ATOM      7  C   UNL     1      46.149  -2.321  74.508  1.00  0.00     0.093 A 
ATOM      8  C   UNL     1      44.930  -1.914  73.966  1.00  0.00     0.123 A 
ATOM      9  C   UNL     1      44.780  -0.607  73.500  1.00  0.00     0.094 A 
ATOM     10  C   UNL     1      45.835   0.305  73.600  1.00  0.00     0.146 A 
ATOM     11  O   UNL     1      45.648   1.541  73.154  1.00  0.00    -0.452 OA
ENDROOT
BRANCH   1  12
ATOM     12  C   UNL     1      46.249   3.823  72.663  1.00  0.00     0.025 A 
ATOM     13  C   UNL     1      45.431   4.697  73.395  1.00  0.00     0.016 A 
ATOM     14  C   UNL     1      45.094   5.951  72.879  1.00  0.00     0.051 A 
ATOM     15  C   UNL     1      45.557   6.343  71.616  1.00  0.00     0.157 A 
ATOM     16  C   UNL     1      46.695   4.212  71.387  1.00  0.00     0.062 A 
ATOM     17  C   UNL     1      46.358   5.466  70.866  1.00  0.00     0.158 A 
BRANCH  15  18
ATOM     18  O   UNL     1      45.221   7.596  71.105  1.00  0.00    -0.504 OA
ATOM     19  H   UNL     1      45.246   7.788  70.110  1.00  0.00     0.293 HD
ENDBRANCH  15  18
BRANCH  17  20
ATOM     20  O   UNL     1      46.823   5.821  69.600  1.00  0.00    -0.504 OA
ATOM     21  H   UNL     1      46.433   6.599  69.082  1.00  0.00     0.293 HD
ENDBRANCH  17  20
ENDBRANCH   1  12
BRANCH   2  22
ATOM     22  O   UNL     1      48.755   3.233  73.993  1.00  0.00    -0.502 OA
ATOM     23  H   UNL     1      48.767   4.062  73.409  1.00  0.00     0.293 HD
ENDBRANCH   2  22
BRANCH   6  24
ATOM     24  O   UNL     1      48.438  -1.975  75.058  1.00  0.00    -0.507 OA
ATOM     25  H   UNL     1      48.748  -2.922  74.899  1.00  0.00     0.293 HD
ENDBRANCH   6  24
BRANCH   8  26
ATOM     26  O   UNL     1      43.875  -2.821  73.887  1.00  0.00    -0.508 OA
ATOM     27  H   UNL     1      42.981  -2.561  73.487  1.00  0.00     0.293 HD
ENDBRANCH   8  26
TORSDOF 6
ENDMDL
MODEL 5
REMARK VINA RESULT:    -6.464     10.461     12.092
REMARK INTER + INTRA:          -8.090
REMARK INTER:                  -7.756
REMARK INTRA:                  -0.335
REMARK UNBOUND:                -0.304
REMARK SMILES O=c1c(O)c(-c2ccc(O)c(O)c2)oc2cc(O)cc(O)c12
REMARK SMILES IDX 5 1 3 2 2 3 1 4 22 5 20 6 19 7 17 8 16 9 15 10 14 11 6 12
REMARK SMILES IDX 7 13 8 14 9 15 13 16 11 17 10 18 12 20 4 22 21 24 18 26
REMARK H PARENT 10 19 12 21 4 23 21 25 18 27
REMARK Flexibility Score: inf
ROOT
ATOM      1  C   UNL     1      45.902   2.395  73.565  1.00  0.00     0.180 A 
ATOM      2  C   UNL     1      45.376   3.284  74.519  1.00  0.00     0.208 A 
ATOM      3  C   UNL     1      45.205   4.634  74.172  1.00  0.00     0.238 A 
ATOM      4  O   UNL     1      44.785   5.434  75.048  1.00  0.00    -0.285 OA
ATOM      5  C   UNL     1      45.549   5.075  72.873  1.00  0.00     0.111 A 
ATOM      6  C   UNL     1      45.382   6.412  72.400  1.00  0.00     0.134 A 
ATOM      7  C   UNL     1      45.877   6.766  71.139  1.00  0.00     0.093 A 
ATOM      8  C   UNL     1      46.474   5.819  70.308  1.00  0.00     0.123 A 
ATOM      9  C   UNL     1      46.590   4.496  70.735  1.00  0.00     0.094 A 
ATOM     10  C   UNL     1      46.138   4.120  72.003  1.00  0.00     0.146 A 
ATOM     11  O   UNL     1      46.276   2.853  72.376  1.00  0.00    -0.452 OA
ENDROOT
BRANCH   1  12
ATOM     12  C   UNL     1      46.087   0.954  73.848  1.00  0.00     0.025 A 
ATOM     13  C   UNL     1      47.328   0.495  74.312  1.00  0.00     0.016 A 
ATOM     14  C   UNL     1      47.532  -0.865  74.565  1.00  0.00     0.051 A 
ATOM     15  C   UNL     1      46.500  -1.787  74.342  1.00  0.00     0.157 A 
ATOM     16  C   UNL     1      45.061   0.022  73.606  1.00  0.00     0.062 A 
ATOM     17  C   UNL     1      45.261  -1.340  73.856  1.00  0.00     0.158 A 
BRANCH  15  18
ATOM     18  O   UNL     1      46.705  -3.142  74.598  1.00  0.00    -0.504 OA
ATOM     19  H   UNL     1      47.599  -3.586  74.423  1.00  0.00     0.293 HD
ENDBRANCH  15  18
BRANCH  17  20
ATOM     20  O   UNL     1      44.219  -2.234  73.610  1.00  0.00    -0.504 OA
ATOM     21  H   UNL     1      44.111  -3.092  74.137  1.00  0.00     0.293 HD
ENDBRANCH  17  20
ENDBRANCH   1  12
BRANCH   2  22
ATOM     22  O   UNL     1      45.063   2.831  75.804  1.00  0.00    -0.502 OA
ATOM     23  H   UNL     1      44.395   3.304  76.401  1.00  0.00     0.293 HD
ENDBRANCH   2  22
BRANCH   6  24
ATOM     24  O   UNL     1      44.717   7.414  73.113  1.00  0.00    -0.507 OA
ATOM     25  H   UNL     1      44.057   8.063  72.714  1.00  0.00     0.293 HD
ENDBRANCH   6  24
BRANCH   8  26
ATOM     26  O   UNL     1      46.941   6.203  69.052  1.00  0.00    -0.508 OA
ATOM     27  H   UNL     1      46.454   5.942  68.203  1.00  0.00     0.293 HD
ENDBRANCH   8  26
TORSDOF 6
ENDMDL
MODEL 6
REMARK VINA RESULT:    -6.417      1.798      6.809
REMARK INTER + INTRA:          -8.034
REMARK INTER:                  -7.985
REMARK INTRA:                  -0.049
REMARK UNBOUND:                -0.304
REMARK SMILES O=c1c(O)c(-c2ccc(O)c(O)c2)oc2cc(O)cc(O)c12
REMARK SMILES IDX 5 1 3 2 2 3 1 4 22 5 20 6 19 7 17 8 16 9 15 10 14 11 6 12
REMARK SMILES IDX 7 13 8 14 9 15 13 16 11 17 10 18 12 20 4 22 21 24 18 26
REMARK H PARENT 10 19 12 21 4 23 21 25 18 27
REMARK Flexibility Score: inf
ROOT
ATOM      1  C   UNL     1      54.324   3.950  79.839  1.00  0.00     0.180 A 
ATOM      2  C   UNL     1      54.764   3.425  81.067  1.00  0.00     0.208 A 
ATOM      3  C   UNL     1      56.054   3.744  81.521  1.00  0.00     0.238 A 
ATOM      4  O   UNL     1      56.462   3.228  82.594  1.00  0.00    -0.285 OA
ATOM      5  C   UNL     1      56.881   4.595  80.749  1.00  0.00     0.111 A 
ATOM      6  C   UNL     1      58.191   5.017  81.131  1.00  0.00     0.134 A 
ATOM      7  C   UNL     1      58.969   5.754  80.231  1.00  0.00     0.093 A 
ATOM      8  C   UNL     1      58.463   6.140  78.990  1.00  0.00     0.123 A 
ATOM      9  C   UNL     1      57.163   5.784  78.629  1.00  0.00     0.094 A 
ATOM     10  C   UNL     1      56.375   5.018  79.492  1.00  0.00     0.146 A 
ATOM     11  O   UNL     1      55.147   4.691  79.108  1.00  0.00    -0.452 OA
ENDROOT
BRANCH   1  12
ATOM     12  C   UNL     1      52.969   3.678  79.307  1.00  0.00     0.025 A 
ATOM     13  C   UNL     1      52.821   3.246  77.981  1.00  0.00     0.016 A 
ATOM     14  C   UNL     1      51.550   3.005  77.452  1.00  0.00     0.051 A 
ATOM     15  C   UNL     1      50.408   3.208  78.237  1.00  0.00     0.157 A 
ATOM     16  C   UNL     1      51.818   3.901  80.085  1.00  0.00     0.062 A 
ATOM     17  C   UNL     1      50.544   3.663  79.559  1.00  0.00     0.158 A 
BRANCH  15  18
ATOM     18  O   UNL     1      49.142   2.964  77.707  1.00  0.00    -0.504 OA
ATOM     19  H   UNL     1      48.953   3.060  76.716  1.00  0.00     0.293 HD
ENDBRANCH  15  18
BRANCH  17  20
ATOM     20  O   UNL     1      49.426   3.889  80.361  1.00  0.00    -0.504 OA
ATOM     21  H   UNL     1      49.150   4.820  80.649  1.00  0.00     0.293 HD
ENDBRANCH  17  20
ENDBRANCH   1  12
BRANCH   2  22
ATOM     22  O   UNL     1      53.939   2.569  81.802  1.00  0.00    -0.502 OA
ATOM     23  H   UNL     1      53.338   1.882  81.363  1.00  0.00     0.293 HD
ENDBRANCH   2  22
BRANCH   6  24
ATOM     24  O   UNL     1      58.757   4.764  82.384  1.00  0.00    -0.507 OA
ATOM     25  H   UNL     1      59.687   4.404  82.532  1.00  0.00     0.293 HD
ENDBRANCH   6  24
BRANCH   8  26
ATOM     26  O   UNL     1      59.261   6.887  78.125  1.00  0.00    -0.508 OA
ATOM     27  H   UNL     1      58.893   7.265  77.259  1.00  0.00     0.293 HD
ENDBRANCH   8  26
TORSDOF 6
ENDMDL
MODEL 7
REMARK VINA RESULT:    -6.302      1.871      7.165
REMARK INTER + INTRA:          -7.895
REMARK INTER:                  -7.715
REMARK INTRA:                  -0.181
REMARK UNBOUND:                -0.304
REMARK SMILES O=c1c(O)c(-c2ccc(O)c(O)c2)oc2cc(O)cc(O)c12
REMARK SMILES IDX 5 1 3 2 2 3 1 4 22 5 20 6 19 7 17 8 16 9 15 10 14 11 6 12
REMARK SMILES IDX 7 13 8 14 9 15 13 16 11 17 10 18 12 20 4 22 21 24 18 26
REMARK H PARENT 10 19 12 21 4 23 21 25 18 27
REMARK Flexibility Score: inf
ROOT
ATOM      1  C   UNL     1      53.877   6.456  78.239  1.00  0.00     0.180 A 
ATOM      2  C   UNL     1      53.465   7.760  77.911  1.00  0.00     0.208 A 
ATOM      3  C   UNL     1      54.440   8.734  77.639  1.00  0.00     0.238 A 
ATOM      4  O   UNL     1      54.067   9.912  77.399  1.00  0.00    -0.285 OA
ATOM      5  C   UNL     1      55.812   8.388  77.683  1.00  0.00     0.111 A 
ATOM      6  C   UNL     1      56.883   9.284  77.387  1.00  0.00     0.134 A 
ATOM      7  C   UNL     1      58.205   8.871  77.590  1.00  0.00     0.093 A 
ATOM      8  C   UNL     1      58.498   7.575  78.015  1.00  0.00     0.123 A 
ATOM      9  C   UNL     1      57.460   6.672  78.251  1.00  0.00     0.094 A 
ATOM     10  C   UNL     1      56.129   7.066  78.092  1.00  0.00     0.146 A 
ATOM     11  O   UNL     1      55.171   6.180  78.337  1.00  0.00    -0.452 OA
ENDROOT
BRANCH   1  12
ATOM     12  C   UNL     1      52.908   5.371  78.513  1.00  0.00     0.025 A 
ATOM     13  C   UNL     1      52.782   4.310  77.604  1.00  0.00     0.016 A 
ATOM     14  C   UNL     1      51.859   3.286  77.832  1.00  0.00     0.051 A 
ATOM     15  C   UNL     1      51.037   3.316  78.966  1.00  0.00     0.157 A 
ATOM     16  C   UNL     1      52.067   5.408  79.640  1.00  0.00     0.062 A 
ATOM     17  C   UNL     1      51.139   4.385  79.871  1.00  0.00     0.158 A 
BRANCH  15  18
ATOM     18  O   UNL     1      50.119   2.292  79.193  1.00  0.00    -0.504 OA
ATOM     19  H   UNL     1      49.842   2.025  80.130  1.00  0.00     0.293 HD
ENDBRANCH  15  18
BRANCH  17  20
ATOM     20  O   UNL     1      50.325   4.452  81.002  1.00  0.00    -0.504 OA
ATOM     21  H   UNL     1      49.548   5.097  81.067  1.00  0.00     0.293 HD
ENDBRANCH  17  20
ENDBRANCH   1  12
BRANCH   2  22
ATOM     22  O   UNL     1      52.106   8.085  77.894  1.00  0.00    -0.502 OA
ATOM     23  H   UNL     1      51.430   7.572  77.341  1.00  0.00     0.293 HD
ENDBRANCH   2  22
BRANCH   6  24
ATOM     24  O   UNL     1      56.704  10.570  76.869  1.00  0.00    -0.507 OA
ATOM     25  H   UNL     1      55.858  11.112  76.955  1.00  0.00     0.293 HD
ENDBRANCH   6  24
BRANCH   8  26
ATOM     26  O   UNL     1      59.826   7.192  78.191  1.00  0.00    -0.508 OA
ATOM     27  H   UNL     1      60.584   7.686  77.734  1.00  0.00     0.293 HD
ENDBRANCH   8  26
TORSDOF 6
ENDMDL
MODEL 8
REMARK VINA RESULT:    -6.290      9.167     11.835
REMARK INTER + INTRA:          -7.881
REMARK INTER:                  -7.694
REMARK INTRA:                  -0.188
REMARK UNBOUND:                -0.304
REMARK SMILES O=c1c(O)c(-c2ccc(O)c(O)c2)oc2cc(O)cc(O)c12
REMARK SMILES IDX 5 1 3 2 2 3 1 4 22 5 20 6 19 7 17 8 16 9 15 10 14 11 6 12
REMARK SMILES IDX 7 13 8 14 9 15 13 16 11 17 10 18 12 20 4 22 21 24 18 26
REMARK H PARENT 10 19 12 21 4 23 21 25 18 27
REMARK Flexibility Score: inf
ROOT
ATOM      1  C   UNL     1      45.961   5.052  71.771  1.00  0.00     0.180 A 
ATOM      2  C   UNL     1      44.900   4.226  71.361  1.00  0.00     0.208 A 
ATOM      3  C   UNL     1      44.860   2.896  71.808  1.00  0.00     0.238 A 
ATOM      4  O   UNL     1      43.938   2.146  71.395  1.00  0.00    -0.285 OA
ATOM      5  C   UNL     1      45.873   2.413  72.671  1.00  0.00     0.111 A 
ATOM      6  C   UNL     1      45.912   1.095  73.218  1.00  0.00     0.134 A 
ATOM      7  C   UNL     1      47.029   0.685  73.955  1.00  0.00     0.093 A 
ATOM      8  C   UNL     1      48.078   1.564  74.221  1.00  0.00     0.123 A 
ATOM      9  C   UNL     1      48.024   2.874  73.742  1.00  0.00     0.094 A 
ATOM     10  C   UNL     1      46.939   3.301  72.972  1.00  0.00     0.146 A 
ATOM     11  O   UNL     1      46.930   4.552  72.527  1.00  0.00    -0.452 OA
ENDROOT
BRANCH   1  12
ATOM     12  C   UNL     1      46.057   6.472  71.360  1.00  0.00     0.025 A 
ATOM     13  C   UNL     1      45.857   7.482  72.313  1.00  0.00     0.016 A 
ATOM     14  C   UNL     1      45.921   8.828  71.944  1.00  0.00     0.051 A 
ATOM     15  C   UNL     1      46.172   9.184  70.612  1.00  0.00     0.157 A 
ATOM     16  C   UNL     1      46.289   6.833  70.021  1.00  0.00     0.062 A 
ATOM     17  C   UNL     1      46.352   8.180  69.646  1.00  0.00     0.158 A 
BRANCH  15  18
ATOM     18  O   UNL     1      46.239  10.527  70.247  1.00  0.00    -0.504 OA
ATOM     19  H   UNL     1      45.460  10.995  69.799  1.00  0.00     0.293 HD
ENDBRANCH  15  18
BRANCH  17  20
ATOM     20  O   UNL     1      46.589   8.501  68.310  1.00  0.00    -0.504 OA
ATOM     21  H   UNL     1      47.515   8.728  67.967  1.00  0.00     0.293 HD
ENDBRANCH  17  20
ENDBRANCH   1  12
BRANCH   2  22
ATOM     22  O   UNL     1      43.922   4.717  70.491  1.00  0.00    -0.502 OA
ATOM     23  H   UNL     1      43.032   4.252  70.354  1.00  0.00     0.293 HD
ENDBRANCH   2  22
BRANCH   6  24
ATOM     24  O   UNL     1      44.874   0.167  73.090  1.00  0.00    -0.507 OA
ATOM     25  H   UNL     1      44.348  -0.218  73.859  1.00  0.00     0.293 HD
ENDBRANCH   6  24
BRANCH   8  26
ATOM     26  O   UNL     1      49.168   1.128  74.972  1.00  0.00    -0.508 OA
ATOM     27  H   UNL     1      49.101   0.994  75.975  1.00  0.00     0.293 HD
ENDBRANCH   8  26
TORSDOF 6
ENDMDL
MODEL 9
REMARK VINA RESULT:    -6.099      9.355     12.087
REMARK INTER + INTRA:          -7.651
REMARK INTER:                  -7.685
REMARK INTRA:                   0.034
REMARK UNBOUND:                -0.304
REMARK SMILES O=c1c(O)c(-c2ccc(O)c(O)c2)oc2cc(O)cc(O)c12
REMARK SMILES IDX 5 1 3 2 2 3 1 4 22 5 20 6 19 7 17 8 16 9 15 10 14 11 6 12
REMARK SMILES IDX 7 13 8 14 9 15 13 16 11 17 10 18 12 20 4 22 21 24 18 26
REMARK H PARENT 10 19 12 21 4 23 21 25 18 27
REMARK Flexibility Score: inf
ROOT
ATOM      1  C   UNL     1      46.459   3.738  72.399  1.00  0.00     0.180 A 
ATOM      2  C   UNL     1      45.841   3.647  71.139  1.00  0.00     0.208 A 
ATOM      3  C   UNL     1      45.397   4.821  70.511  1.00  0.00     0.238 A 
ATOM      4  O   UNL     1      44.796   4.727  69.409  1.00  0.00    -0.285 OA
ATOM      5  C   UNL     1      45.588   6.073  71.143  1.00  0.00     0.111 A 
ATOM      6  C   UNL     1      45.213   7.331  70.581  1.00  0.00     0.134 A 
ATOM      7  C   UNL     1      45.332   8.494  71.350  1.00  0.00     0.093 A 
ATOM      8  C   UNL     1      45.872   8.456  72.636  1.00  0.00     0.123 A 
ATOM      9  C   UNL     1      46.297   7.240  73.173  1.00  0.00     0.094 A 
ATOM     10  C   UNL     1      46.158   6.056  72.443  1.00  0.00     0.146 A 
ATOM     11  O   UNL     1      46.565   4.920  72.995  1.00  0.00    -0.452 OA
ENDROOT
BRANCH   1  12
ATOM     12  C   UNL     1      46.976   2.548  73.111  1.00  0.00     0.025 A 
ATOM     13  C   UNL     1      48.297   2.544  73.583  1.00  0.00     0.016 A 
ATOM     14  C   UNL     1      48.813   1.423  74.238  1.00  0.00     0.051 A 
ATOM     15  C   UNL     1      48.018   0.282  74.419  1.00  0.00     0.157 A 
ATOM     16  C   UNL     1      46.189   1.394  73.276  1.00  0.00     0.062 A 
ATOM     17  C   UNL     1      46.702   0.268  73.930  1.00  0.00     0.158 A 
BRANCH  15  18
ATOM     18  O   UNL     1      48.534  -0.834  75.076  1.00  0.00    -0.504 OA
ATOM     19  H   UNL     1      48.311  -1.029  76.044  1.00  0.00     0.293 HD
ENDBRANCH  15  18
BRANCH  17  20
ATOM     20  O   UNL     1      45.890  -0.856  74.081  1.00  0.00    -0.504 OA
ATOM     21  H   UNL     1      44.887  -0.817  73.950  1.00  0.00     0.293 HD
ENDBRANCH  17  20
ENDBRANCH   1  12
BRANCH   2  22
ATOM     22  O   UNL     1      45.642   2.398  70.543  1.00  0.00    -0.502 OA
ATOM     23  H   UNL     1      44.896   1.773  70.824  1.00  0.00     0.293 HD
ENDBRANCH   2  22
BRANCH   6  24
ATOM     24  O   UNL     1      44.749   7.492  69.273  1.00  0.00    -0.507 OA
ATOM     25  H   UNL     1      45.324   7.432  68.446  1.00  0.00     0.293 HD
ENDBRANCH   6  24
BRANCH   8  26
ATOM     26  O   UNL     1      45.990   9.636  73.367  1.00  0.00    -0.508 OA
ATOM     27  H   UNL     1      45.796  10.539  72.950  1.00  0.00     0.293 HD
ENDBRANCH   8  26
TORSDOF 6
ENDMDL
