MODEL 1
REMARK VINA RESULT:     0.119      0.000      0.000
REMARK INTER + INTRA:          -0.370
REMARK INTER:                   0.231
REMARK INTRA:                  -0.600
REMARK UNBOUND:                -0.600
REMARK SMILES CCCCCCCCCCCCCCCCCC(=O)[O-]
REMARK SMILES IDX 10 1 11 2 12 3 13 4 14 5 15 6 16 7 17 8 18 9 19 10 20 11
REMARK SMILES IDX 9 12 8 13 7 14 6 15 5 16 4 17 3 18 2 19 1 20
REMARK H PARENT
REMARK Flexibility Score: inf
ROOT
ATOM      1  C   UNL     1       1.476  59.888  -5.184  1.00  0.00     0.000 C 
ENDROOT
BRANCH   1   2
ATOM      2  C   UNL     1       0.193  60.401  -4.504  1.00  0.00     0.000 C 
BRANCH   2   3
ATOM      3  C   UNL     1      -0.857  59.316  -4.200  1.00  0.00     0.000 C 
BRANCH   3   4
ATOM      4  C   UNL     1      -1.344  59.315  -2.734  1.00  0.00     0.000 C 
BRANCH   4   5
ATOM      5  C   UNL     1      -2.832  58.958  -2.610  1.00  0.00     0.000 C 
BRANCH   5   6
ATOM      6  C   UNL     1      -3.558  59.140  -3.952  1.00  0.00     0.000 C 
BRANCH   6   7
ATOM      7  C   UNL     1      -4.128  60.556  -4.130  1.00  0.00     0.006 C 
BRANCH   7   8
ATOM      8  C   UNL     1      -3.526  61.290  -5.336  1.00  0.00     0.053 C 
BRANCH   8   9
ATOM      9  C   UNL     1      -3.925  60.615  -6.610  1.00  0.00     0.041 C 
ATOM     10  O   UNL     1      -4.786  61.143  -7.363  1.00  0.00    -0.550 OA
ATOM     11  O   UNL     1      -3.385  59.380  -6.943  1.00  0.00    -0.550 OA
ENDBRANCH   8   9
ENDBRANCH   7   8
ENDBRANCH   6   7
ENDBRANCH   5   6
ENDBRANCH   4   5
ENDBRANCH   3   4
ENDBRANCH   2   3
ENDBRANCH   1   2
BRANCH   1  12
ATOM     12  C   UNL     1       1.268  59.229  -6.564  1.00  0.00     0.000 C 
BRANCH  12  13
ATOM     13  C   UNL     1       2.556  58.970  -7.365  1.00  0.00    -0.000 C 
BRANCH  13  14
ATOM     14  C   UNL     1       3.688  59.950  -7.010  1.00  0.00    -0.000 C 
BRANCH  14  15
ATOM     15  C   UNL     1       4.755  60.039  -8.114  1.00  0.00    -0.000 C 
BRANCH  15  16
ATOM     16  C   UNL     1       5.769  58.883  -8.043  1.00  0.00    -0.000 C 
BRANCH  16  17
ATOM     17  C   UNL     1       7.075  59.284  -7.336  1.00  0.00    -0.000 C 
BRANCH  17  18
ATOM     18  C   UNL     1       7.807  60.432  -8.049  1.00  0.00    -0.000 C 
BRANCH  18  19
ATOM     19  C   UNL     1       9.314  60.159  -8.122  1.00  0.00    -0.003 C 
ATOM     20  C   UNL     1       9.680  58.876  -7.380  1.00  0.00     0.004 C 
ENDBRANCH  18  19
ENDBRANCH  17  18
ENDBRANCH  16  17
ENDBRANCH  15  16
ENDBRANCH  14  15
ENDBRANCH  13  14
ENDBRANCH  12  13
ENDBRANCH   1  12
TORSDOF 16
ENDMDL
MODEL 2
REMARK VINA RESULT:     1.069      4.034      6.471
REMARK INTER + INTRA:           1.469
REMARK INTER:                   2.506
REMARK INTRA:                  -1.037
REMARK UNBOUND:                -0.600
REMARK SMILES CCCCCCCCCCCCCCCCCC(=O)[O-]
REMARK SMILES IDX 10 1 11 2 12 3 13 4 14 5 15 6 16 7 17 8 18 9 19 10 20 11
REMARK SMILES IDX 9 12 8 13 7 14 6 15 5 16 4 17 3 18 2 19 1 20
REMARK H PARENT
REMARK Flexibility Score: inf
ROOT
ATOM      1  C   UNL     1      -3.335  61.056  -4.284  1.00  0.00     0.000 C 
ENDROOT
BRANCH   1   2
ATOM      2  C   UNL     1      -3.780  59.767  -3.568  1.00  0.00     0.000 C 
BRANCH   2   3
ATOM      3  C   UNL     1      -2.635  58.929  -2.971  1.00  0.00     0.000 C 
BRANCH   3   4
ATOM      4  C   UNL     1      -1.240  59.301  -3.521  1.00  0.00     0.000 C 
BRANCH   4   5
ATOM      5  C   UNL     1      -0.713  60.621  -2.941  1.00  0.00     0.000 C 
BRANCH   5   6
ATOM      6  C   UNL     1       0.793  60.533  -2.649  1.00  0.00     0.000 C 
BRANCH   6   7
ATOM      7  C   UNL     1       1.092  60.171  -1.186  1.00  0.00     0.006 C 
BRANCH   7   8
ATOM      8  C   UNL     1       0.583  61.230  -0.197  1.00  0.00     0.053 C 
BRANCH   8   9
ATOM      9  C   UNL     1       1.561  62.357  -0.090  1.00  0.00     0.041 C 
ATOM     10  O   UNL     1       2.163  62.570   0.996  1.00  0.00    -0.550 OA
ATOM     11  O   UNL     1       1.770  63.203  -1.171  1.00  0.00    -0.550 OA
ENDBRANCH   8   9
ENDBRANCH   7   8
ENDBRANCH   6   7
ENDBRANCH   5   6
ENDBRANCH   4   5
ENDBRANCH   3   4
ENDBRANCH   2   3
ENDBRANCH   1   2
BRANCH   1  12
ATOM     12  C   UNL     1      -3.779  61.175  -5.757  1.00  0.00     0.000 C 
BRANCH  12  13
ATOM     13  C   UNL     1      -4.223  59.856  -6.415  1.00  0.00    -0.000 C 
BRANCH  13  14
ATOM     14  C   UNL     1      -3.038  58.959  -6.813  1.00  0.00    -0.000 C 
BRANCH  14  15
ATOM     15  C   UNL     1      -2.225  59.545  -7.981  1.00  0.00    -0.000 C 
BRANCH  15  16
ATOM     16  C   UNL     1      -0.841  58.885  -8.120  1.00  0.00    -0.000 C 
BRANCH  16  17
ATOM     17  C   UNL     1      -0.009  58.978  -6.830  1.00  0.00    -0.000 C 
BRANCH  17  18
ATOM     18  C   UNL     1       1.436  59.430  -7.088  1.00  0.00    -0.000 C 
BRANCH  18  19
ATOM     19  C   UNL     1       2.116  59.864  -5.783  1.00  0.00    -0.003 C 
ATOM     20  C   UNL     1       3.386  59.057  -5.526  1.00  0.00     0.004 C 
ENDBRANCH  18  19
ENDBRANCH  17  18
ENDBRANCH  16  17
ENDBRANCH  15  16
ENDBRANCH  14  15
ENDBRANCH  13  14
ENDBRANCH  12  13
ENDBRANCH   1  12
TORSDOF 16
ENDMDL
MODEL 3
REMARK VINA RESULT:     1.276      4.045      9.085
REMARK INTER + INTRA:           1.870
REMARK INTER:                   1.038
REMARK INTRA:                   0.832
REMARK UNBOUND:                -0.600
REMARK SMILES CCCCCCCCCCCCCCCCCC(=O)[O-]
REMARK SMILES IDX 10 1 11 2 12 3 13 4 14 5 15 6 16 7 17 8 18 9 19 10 20 11
REMARK SMILES IDX 9 12 8 13 7 14 6 15 5 16 4 17 3 18 2 19 1 20
REMARK H PARENT
REMARK Flexibility Score: inf
ROOT
ATOM      1  C   UNL     1       0.100  60.270  -5.610  1.00  0.00     0.000 C 
ENDROOT
BRANCH   1   2
ATOM      2  C   UNL     1       1.396  60.106  -4.795  1.00  0.00     0.000 C 
BRANCH   2   3
ATOM      3  C   UNL     1       2.660  59.843  -5.635  1.00  0.00     0.000 C 
BRANCH   3   4
ATOM      4  C   UNL     1       2.430  58.878  -6.819  1.00  0.00     0.000 C 
BRANCH   4   5
ATOM      5  C   UNL     1       3.092  59.370  -8.114  1.00  0.00     0.000 C 
BRANCH   5   6
ATOM      6  C   UNL     1       4.430  60.066  -7.821  1.00  0.00     0.000 C 
BRANCH   6   7
ATOM      7  C   UNL     1       5.641  59.170  -8.120  1.00  0.00     0.006 C 
BRANCH   7   8
ATOM      8  C   UNL     1       6.483  58.875  -6.870  1.00  0.00     0.053 C 
BRANCH   8   9
ATOM      9  C   UNL     1       7.881  59.376  -7.053  1.00  0.00     0.041 C 
ATOM     10  O   UNL     1       8.772  59.087  -6.209  1.00  0.00    -0.550 OA
ATOM     11  O   UNL     1       8.191  60.203  -8.125  1.00  0.00    -0.550 OA
ENDBRANCH   8   9
ENDBRANCH   7   8
ENDBRANCH   6   7
ENDBRANCH   5   6
ENDBRANCH   4   5
ENDBRANCH   3   4
ENDBRANCH   2   3
ENDBRANCH   1   2
BRANCH   1  12
ATOM     12  C   UNL     1      -0.111  59.223  -6.725  1.00  0.00     0.000 C 
BRANCH  12  13
ATOM     13  C   UNL     1      -1.425  59.364  -7.514  1.00  0.00    -0.000 C 
BRANCH  13  14
ATOM     14  C   UNL     1      -2.655  58.901  -6.713  1.00  0.00    -0.000 C 
BRANCH  14  15
ATOM     15  C   UNL     1      -3.657  60.041  -6.465  1.00  0.00    -0.000 C 
BRANCH  15  16
ATOM     16  C   UNL     1      -3.410  60.756  -5.125  1.00  0.00    -0.000 C 
BRANCH  16  17
ATOM     17  C   UNL     1      -3.817  59.900  -3.914  1.00  0.00    -0.000 C 
BRANCH  17  18
ATOM     18  C   UNL     1      -2.615  59.477  -3.056  1.00  0.00    -0.000 C 
BRANCH  18  19
ATOM     19  C   UNL     1      -1.410  60.390  -3.311  1.00  0.00    -0.003 C 
ATOM     20  C   UNL     1      -0.536  60.513  -2.066  1.00  0.00     0.004 C 
ENDBRANCH  18  19
ENDBRANCH  17  18
ENDBRANCH  16  17
ENDBRANCH  15  16
ENDBRANCH  14  15
ENDBRANCH  13  14
ENDBRANCH  12  13
ENDBRANCH   1  12
TORSDOF 16
ENDMDL
MODEL 4
REMARK VINA RESULT:     1.431      2.365      3.238
REMARK INTER + INTRA:           2.170
REMARK INTER:                   2.039
REMARK INTRA:                   0.132
REMARK UNBOUND:                -0.600
REMARK SMILES CCCCCCCCCCCCCCCCCC(=O)[O-]
REMARK SMILES IDX 10 1 11 2 12 3 13 4 14 5 15 6 16 7 17 8 18 9 19 10 20 11
REMARK SMILES IDX 9 12 8 13 7 14 6 15 5 16 4 17 3 18 2 19 1 20
REMARK H PARENT
REMARK Flexibility Score: inf
ROOT
ATOM      1  C   UNL     1      -0.123  60.046  -4.572  1.00  0.00     0.000 C 
ENDROOT
BRANCH   1   2
ATOM      2  C   UNL     1      -0.819  59.353  -5.758  1.00  0.00     0.000 C 
BRANCH   2   3
ATOM      3  C   UNL     1      -2.274  59.793  -6.003  1.00  0.00     0.000 C 
BRANCH   3   4
ATOM      4  C   UNL     1      -2.633  61.144  -5.346  1.00  0.00     0.000 C 
BRANCH   4   5
ATOM      5  C   UNL     1      -4.081  61.182  -4.835  1.00  0.00     0.000 C 
BRANCH   5   6
ATOM      6  C   UNL     1      -4.564  59.777  -4.441  1.00  0.00     0.000 C 
BRANCH   6   7
ATOM      7  C   UNL     1      -4.108  59.369  -3.031  1.00  0.00     0.006 C 
BRANCH   7   8
ATOM      8  C   UNL     1      -2.610  59.041  -2.965  1.00  0.00     0.053 C 
BRANCH   8   9
ATOM      9  C   UNL     1      -2.124  59.101  -1.552  1.00  0.00     0.041 C 
ATOM     10  O   UNL     1      -0.900  59.275  -1.311  1.00  0.00    -0.550 OA
ATOM     11  O   UNL     1      -3.013  58.915  -0.501  1.00  0.00    -0.550 OA
ENDBRANCH   8   9
ENDBRANCH   7   8
ENDBRANCH   6   7
ENDBRANCH   5   6
ENDBRANCH   4   5
ENDBRANCH   3   4
ENDBRANCH   2   3
ENDBRANCH   1   2
BRANCH   1  12
ATOM     12  C   UNL     1       1.418  59.969  -4.580  1.00  0.00     0.000 C 
BRANCH  12  13
ATOM     13  C   UNL     1       2.024  59.096  -5.693  1.00  0.00    -0.000 C 
BRANCH  13  14
ATOM     14  C   UNL     1       2.343  59.894  -6.970  1.00  0.00    -0.000 C 
BRANCH  14  15
ATOM     15  C   UNL     1       3.650  59.434  -7.638  1.00  0.00    -0.000 C 
BRANCH  15  16
ATOM     16  C   UNL     1       4.542  60.618  -8.054  1.00  0.00    -0.000 C 
BRANCH  16  17
ATOM     17  C   UNL     1       6.031  60.239  -8.125  1.00  0.00    -0.000 C 
BRANCH  17  18
ATOM     18  C   UNL     1       6.353  58.949  -7.356  1.00  0.00    -0.000 C 
BRANCH  18  19
ATOM     19  C   UNL     1       7.845  58.879  -7.004  1.00  0.00    -0.003 C 
ATOM     20  C   UNL     1       8.681  59.715  -7.969  1.00  0.00     0.004 C 
ENDBRANCH  18  19
ENDBRANCH  17  18
ENDBRANCH  16  17
ENDBRANCH  15  16
ENDBRANCH  14  15
ENDBRANCH  13  14
ENDBRANCH  12  13
ENDBRANCH   1  12
TORSDOF 16
ENDMDL
MODEL 5
REMARK VINA RESULT:     1.683      3.417      6.244
REMARK INTER + INTRA:           2.658
REMARK INTER:                   2.562
REMARK INTRA:                   0.096
REMARK UNBOUND:                -0.600
REMARK SMILES CCCCCCCCCCCCCCCCCC(=O)[O-]
REMARK SMILES IDX 10 1 11 2 12 3 13 4 14 5 15 6 16 7 17 8 18 9 19 10 20 11
REMARK SMILES IDX 9 12 8 13 7 14 6 15 5 16 4 17 3 18 2 19 1 20
REMARK H PARENT
REMARK Flexibility Score: inf
ROOT
ATOM      1  C   UNL     1      -4.107  61.097  -4.200  1.00  0.00     0.000 C 
ENDROOT
BRANCH   1   2
ATOM      2  C   UNL     1      -2.938  61.490  -5.122  1.00  0.00     0.000 C 
BRANCH   2   3
ATOM      3  C   UNL     1      -3.348  61.898  -6.550  1.00  0.00     0.000 C 
BRANCH   3   4
ATOM      4  C   UNL     1      -4.852  61.710  -6.842  1.00  0.00     0.000 C 
BRANCH   4   5
ATOM      5  C   UNL     1      -5.105  60.868  -8.101  1.00  0.00     0.000 C 
BRANCH   5   6
ATOM      6  C   UNL     1      -5.125  59.368  -7.767  1.00  0.00     0.000 C 
BRANCH   6   7
ATOM      7  C   UNL     1      -3.796  58.876  -7.174  1.00  0.00     0.006 C 
BRANCH   7   8
ATOM      8  C   UNL     1      -2.608  59.087  -8.123  1.00  0.00     0.053 C 
BRANCH   8   9
ATOM      9  C   UNL     1      -1.316  58.939  -7.384  1.00  0.00     0.041 C 
ATOM     10  O   UNL     1      -1.307  58.914  -6.124  1.00  0.00    -0.550 OA
ATOM     11  O   UNL     1      -0.117  58.880  -8.082  1.00  0.00    -0.550 OA
ENDBRANCH   8   9
ENDBRANCH   7   8
ENDBRANCH   6   7
ENDBRANCH   5   6
ENDBRANCH   4   5
ENDBRANCH   3   4
ENDBRANCH   2   3
ENDBRANCH   1   2
BRANCH   1  12
ATOM     12  C   UNL     1      -4.225  59.589  -3.897  1.00  0.00     0.000 C 
BRANCH  12  13
ATOM     13  C   UNL     1      -3.975  59.195  -2.431  1.00  0.00    -0.000 C 
BRANCH  13  14
ATOM     14  C   UNL     1      -2.483  59.000  -2.111  1.00  0.00    -0.000 C 
BRANCH  14  15
ATOM     15  C   UNL     1      -1.585  59.985  -2.879  1.00  0.00    -0.000 C 
BRANCH  15  16
ATOM     16  C   UNL     1      -0.342  60.397  -2.069  1.00  0.00    -0.000 C 
BRANCH  16  17
ATOM     17  C   UNL     1       0.818  60.863  -2.963  1.00  0.00    -0.000 C 
BRANCH  17  18
ATOM     18  C   UNL     1       0.998  59.983  -4.210  1.00  0.00    -0.000 C 
BRANCH  18  19
ATOM     19  C   UNL     1       1.513  60.810  -5.395  1.00  0.00    -0.003 C 
ATOM     20  C   UNL     1       2.231  59.928  -6.413  1.00  0.00     0.004 C 
ENDBRANCH  18  19
ENDBRANCH  17  18
ENDBRANCH  16  17
ENDBRANCH  15  16
ENDBRANCH  14  15
ENDBRANCH  13  14
ENDBRANCH  12  13
ENDBRANCH   1  12
TORSDOF 16
ENDMDL
MODEL 6
REMARK VINA RESULT:     1.785      4.230      9.759
REMARK INTER + INTRA:           2.854
REMARK INTER:                   2.293
REMARK INTRA:                   0.561
REMARK UNBOUND:                -0.600
REMARK SMILES CCCCCCCCCCCCCCCCCC(=O)[O-]
REMARK SMILES IDX 10 1 11 2 12 3 13 4 14 5 15 6 16 7 17 8 18 9 19 10 20 11
REMARK SMILES IDX 9 12 8 13 7 14 6 15 5 16 4 17 3 18 2 19 1 20
REMARK H PARENT
REMARK Flexibility Score: inf
ROOT
ATOM      1  C   UNL     1       0.602  60.328  -4.534  1.00  0.00     0.000 C 
ENDROOT
BRANCH   1   2
ATOM      2  C   UNL     1       2.036  60.282  -5.093  1.00  0.00     0.000 C 
BRANCH   2   3
ATOM      3  C   UNL     1       2.483  58.905  -5.617  1.00  0.00     0.000 C 
BRANCH   3   4
ATOM      4  C   UNL     1       3.919  58.892  -6.186  1.00  0.00     0.000 C 
BRANCH   4   5
ATOM      5  C   UNL     1       3.948  59.075  -7.710  1.00  0.00     0.000 C 
BRANCH   5   6
ATOM      6  C   UNL     1       4.664  60.378  -8.096  1.00  0.00     0.000 C 
BRANCH   6   7
ATOM      7  C   UNL     1       6.193  60.228  -8.123  1.00  0.00     0.006 C 
BRANCH   7   8
ATOM      8  C   UNL     1       6.680  58.989  -7.359  1.00  0.00     0.053 C 
BRANCH   8   9
ATOM      9  C   UNL     1       8.124  59.132  -6.997  1.00  0.00     0.041 C 
ATOM     10  O   UNL     1       8.511  58.875  -5.826  1.00  0.00    -0.550 OA
ATOM     11  O   UNL     1       9.035  59.599  -7.936  1.00  0.00    -0.550 OA
ENDBRANCH   8   9
ENDBRANCH   7   8
ENDBRANCH   6   7
ENDBRANCH   5   6
ENDBRANCH   4   5
ENDBRANCH   3   4
ENDBRANCH   2   3
ENDBRANCH   1   2
BRANCH   1  12
ATOM     12  C   UNL     1      -0.160  58.987  -4.572  1.00  0.00     0.000 C 
BRANCH  12  13
ATOM     13  C   UNL     1      -1.678  59.103  -4.802  1.00  0.00    -0.000 C 
BRANCH  13  14
ATOM     14  C   UNL     1      -2.227  60.502  -4.470  1.00  0.00    -0.000 C 
BRANCH  14  15
ATOM     15  C   UNL     1      -3.486  60.444  -3.589  1.00  0.00    -0.000 C 
BRANCH  15  16
ATOM     16  C   UNL     1      -4.311  59.167  -3.829  1.00  0.00    -0.000 C 
BRANCH  16  17
ATOM     17  C   UNL     1      -4.941  59.126  -5.231  1.00  0.00    -0.000 C 
BRANCH  17  18
ATOM     18  C   UNL     1      -4.705  60.418  -6.027  1.00  0.00    -0.000 C 
BRANCH  18  19
ATOM     19  C   UNL     1      -3.870  60.144  -7.284  1.00  0.00    -0.003 C 
ATOM     20  C   UNL     1      -4.457  58.995  -8.098  1.00  0.00     0.004 C 
ENDBRANCH  18  19
ENDBRANCH  17  18
ENDBRANCH  16  17
ENDBRANCH  15  16
ENDBRANCH  14  15
ENDBRANCH  13  14
ENDBRANCH  12  13
ENDBRANCH   1  12
TORSDOF 16
ENDMDL
MODEL 7
REMARK VINA RESULT:     1.887      1.582      3.132
REMARK INTER + INTRA:           3.053
REMARK INTER:                   3.685
REMARK INTRA:                  -0.633
REMARK UNBOUND:                -0.600
REMARK SMILES CCCCCCCCCCCCCCCCCC(=O)[O-]
REMARK SMILES IDX 10 1 11 2 12 3 13 4 14 5 15 6 16 7 17 8 18 9 19 10 20 11
REMARK SMILES IDX 9 12 8 13 7 14 6 15 5 16 4 17 3 18 2 19 1 20
REMARK H PARENT
REMARK Flexibility Score: inf
ROOT
ATOM      1  C   UNL     1       0.562  61.111  -2.193  1.00  0.00     0.000 C 
ENDROOT
BRANCH   1   2
ATOM      2  C   UNL     1       0.529  60.332  -0.865  1.00  0.00     0.000 C 
BRANCH   2   3
ATOM      3  C   UNL     1      -0.074  58.918  -0.959  1.00  0.00     0.000 C 
BRANCH   3   4
ATOM      4  C   UNL     1      -1.617  58.904  -1.025  1.00  0.00     0.000 C 
BRANCH   4   5
ATOM      5  C   UNL     1      -2.150  59.361  -2.390  1.00  0.00     0.000 C 
BRANCH   5   6
ATOM      6  C   UNL     1      -3.687  59.388  -2.403  1.00  0.00     0.000 C 
BRANCH   6   7
ATOM      7  C   UNL     1      -4.275  58.971  -3.760  1.00  0.00     0.006 C 
BRANCH   7   8
ATOM      8  C   UNL     1      -3.326  59.260  -4.931  1.00  0.00     0.053 C 
BRANCH   8   9
ATOM      9  C   UNL     1      -3.940  60.252  -5.868  1.00  0.00     0.041 C 
ATOM     10  O   UNL     1      -3.757  61.486  -5.691  1.00  0.00    -0.550 OA
ATOM     11  O   UNL     1      -4.754  59.818  -6.906  1.00  0.00    -0.550 OA
ENDBRANCH   8   9
ENDBRANCH   7   8
ENDBRANCH   6   7
ENDBRANCH   5   6
ENDBRANCH   4   5
ENDBRANCH   3   4
ENDBRANCH   2   3
ENDBRANCH   1   2
BRANCH   1  12
ATOM     12  C   UNL     1       1.072  60.312  -3.410  1.00  0.00     0.000 C 
BRANCH  12  13
ATOM     13  C   UNL     1       0.086  60.212  -4.588  1.00  0.00    -0.000 C 
BRANCH  13  14
ATOM     14  C   UNL     1       0.785  60.259  -5.958  1.00  0.00    -0.000 C 
BRANCH  14  15
ATOM     15  C   UNL     1       1.364  58.894  -6.368  1.00  0.00    -0.000 C 
BRANCH  15  16
ATOM     16  C   UNL     1       1.909  58.899  -7.808  1.00  0.00    -0.000 C 
BRANCH  16  17
ATOM     17  C   UNL     1       2.731  60.158  -8.125  1.00  0.00    -0.000 C 
BRANCH  17  18
ATOM     18  C   UNL     1       3.966  60.304  -7.223  1.00  0.00    -0.000 C 
BRANCH  18  19
ATOM     19  C   UNL     1       4.704  58.967  -7.082  1.00  0.00    -0.003 C 
ATOM     20  C   UNL     1       5.996  58.961  -7.895  1.00  0.00     0.004 C 
ENDBRANCH  18  19
ENDBRANCH  17  18
ENDBRANCH  16  17
ENDBRANCH  15  16
ENDBRANCH  14  15
ENDBRANCH  13  14
ENDBRANCH  12  13
ENDBRANCH   1  12
TORSDOF 16
ENDMDL
MODEL 8
REMARK VINA RESULT:     2.203      3.565      8.220
REMARK INTER + INTRA:           3.664
REMARK INTER:                   5.309
REMARK INTRA:                  -1.645
REMARK UNBOUND:                -0.600
REMARK SMILES CCCCCCCCCCCCCCCCCC(=O)[O-]
REMARK SMILES IDX 10 1 11 2 12 3 13 4 14 5 15 6 16 7 17 8 18 9 19 10 20 11
REMARK SMILES IDX 9 12 8 13 7 14 6 15 5 16 4 17 3 18 2 19 1 20
REMARK H PARENT
REMARK Flexibility Score: inf
ROOT
ATOM      1  C   UNL     1       1.180  61.178  -1.620  1.00  0.00     0.000 C 
ENDROOT
BRANCH   1   2
ATOM      2  C   UNL     1       1.408  60.210  -2.796  1.00  0.00     0.000 C 
BRANCH   2   3
ATOM      3  C   UNL     1       0.869  60.702  -4.153  1.00  0.00     0.000 C 
BRANCH   3   4
ATOM      4  C   UNL     1       0.148  59.606  -4.969  1.00  0.00     0.000 C 
BRANCH   4   5
ATOM      5  C   UNL     1      -0.148  60.046  -6.409  1.00  0.00     0.000 C 
BRANCH   5   6
ATOM      6  C   UNL     1       0.077  58.891  -7.398  1.00  0.00     0.000 C 
BRANCH   6   7
ATOM      7  C   UNL     1       1.485  58.902  -8.011  1.00  0.00     0.006 C 
BRANCH   7   8
ATOM      8  C   UNL     1       2.203  60.246  -7.823  1.00  0.00     0.053 C 
BRANCH   8   9
ATOM      9  C   UNL     1       3.583  60.030  -7.286  1.00  0.00     0.041 C 
ATOM     10  O   UNL     1       3.745  59.585  -6.118  1.00  0.00    -0.550 OA
ATOM     11  O   UNL     1       4.690  60.369  -8.053  1.00  0.00    -0.550 OA
ENDBRANCH   8   9
ENDBRANCH   7   8
ENDBRANCH   6   7
ENDBRANCH   5   6
ENDBRANCH   4   5
ENDBRANCH   3   4
ENDBRANCH   2   3
ENDBRANCH   1   2
BRANCH   1  12
ATOM     12  C   UNL     1       0.523  60.550  -0.373  1.00  0.00     0.000 C 
BRANCH  12  13
ATOM     13  C   UNL     1      -0.327  59.296  -0.642  1.00  0.00    -0.000 C 
BRANCH  13  14
ATOM     14  C   UNL     1      -1.838  59.563  -0.528  1.00  0.00    -0.000 C 
BRANCH  14  15
ATOM     15  C   UNL     1      -2.642  58.875  -1.645  1.00  0.00    -0.000 C 
BRANCH  15  16
ATOM     16  C   UNL     1      -2.175  59.301  -3.049  1.00  0.00    -0.000 C 
BRANCH  16  17
ATOM     17  C   UNL     1      -3.163  60.259  -3.735  1.00  0.00    -0.000 C 
BRANCH  17  18
ATOM     18  C   UNL     1      -3.911  59.602  -4.905  1.00  0.00    -0.000 C 
BRANCH  18  19
ATOM     19  C   UNL     1      -4.066  60.581  -6.076  1.00  0.00    -0.003 C 
ATOM     20  C   UNL     1      -3.634  59.942  -7.393  1.00  0.00     0.004 C 
ENDBRANCH  18  19
ENDBRANCH  17  18
ENDBRANCH  16  17
ENDBRANCH  15  16
ENDBRANCH  14  15
ENDBRANCH  13  14
ENDBRANCH  12  13
ENDBRANCH   1  12
TORSDOF 16
ENDMDL
