MODEL 1
REMARK VINA RESULT:    -7.103      0.000      0.000
REMARK INTER + INTRA:          -8.885
REMARK INTER:                  -8.556
REMARK INTRA:                  -0.329
REMARK UNBOUND:                -0.329
REMARK SMILES O=c1c(O)c(-c2ccc(O)c(O)c2)oc2cc(O)cc(O)c12
REMARK SMILES IDX 5 1 3 2 2 3 1 4 22 5 20 6 19 7 17 8 16 9 15 10 14 11 6 12
REMARK SMILES IDX 7 13 8 14 9 15 13 16 11 17 10 18 12 20 4 22 21 24 18 26
REMARK H PARENT 10 19 12 21 4 23 21 25 18 27
REMARK Flexibility Score: inf
ROOT
ATOM      1  C   UNL     1       3.715 -18.979   7.659  1.00  0.00     0.180 A 
ATOM      2  C   UNL     1       2.645 -18.231   7.139  1.00  0.00     0.208 A 
ATOM      3  C   UNL     1       2.745 -16.830   7.110  1.00  0.00     0.238 A 
ATOM      4  O   UNL     1       1.807 -16.168   6.594  1.00  0.00    -0.285 OA
ATOM      5  C   UNL     1       3.905 -16.196   7.614  1.00  0.00     0.111 A 
ATOM      6  C   UNL     1       4.097 -14.783   7.671  1.00  0.00     0.134 A 
ATOM      7  C   UNL     1       5.338 -14.269   8.069  1.00  0.00     0.093 A 
ATOM      8  C   UNL     1       6.370 -15.115   8.474  1.00  0.00     0.123 A 
ATOM      9  C   UNL     1       6.174 -16.496   8.480  1.00  0.00     0.094 A 
ATOM     10  C   UNL     1       4.960 -17.040   8.053  1.00  0.00     0.146 A 
ATOM     11  O   UNL     1       4.817 -18.359   8.064  1.00  0.00    -0.452 OA
ENDROOT
BRANCH   1  12
ATOM     12  C   UNL     1       3.673 -20.457   7.746  1.00  0.00     0.025 A 
ATOM     13  C   UNL     1       4.169 -21.226   6.682  1.00  0.00     0.016 A 
ATOM     14  C   UNL     1       4.158 -22.621   6.751  1.00  0.00     0.051 A 
ATOM     15  C   UNL     1       3.667 -23.269   7.889  1.00  0.00     0.157 A 
ATOM     16  C   UNL     1       3.199 -21.110   8.899  1.00  0.00     0.062 A 
ATOM     17  C   UNL     1       3.189 -22.511   8.970  1.00  0.00     0.158 A 
BRANCH  15  18
ATOM     18  O   UNL     1       3.667 -24.663   7.929  1.00  0.00    -0.504 OA
ATOM     19  H   UNL     1       4.144 -25.181   8.658  1.00  0.00     0.293 HD
ENDBRANCH  15  18
BRANCH  17  20
ATOM     20  O   UNL     1       2.712 -23.149  10.113  1.00  0.00    -0.504 OA
ATOM     21  H   UNL     1       2.588 -24.155  10.148  1.00  0.00     0.293 HD
ENDBRANCH  17  20
ENDBRANCH   1  12
BRANCH   2  22
ATOM     22  O   UNL     1       1.517 -18.878   6.626  1.00  0.00    -0.502 OA
ATOM     23  H   UNL     1       1.459 -19.187   5.663  1.00  0.00     0.293 HD
ENDBRANCH   2  22
BRANCH   6  24
ATOM     24  O   UNL     1       3.101 -13.848   7.376  1.00  0.00    -0.507 OA
ATOM     25  H   UNL     1       2.487 -13.428   8.057  1.00  0.00     0.293 HD
ENDBRANCH   6  24
BRANCH   8  26
ATOM     26  O   UNL     1       7.586 -14.567   8.880  1.00  0.00    -0.508 OA
ATOM     27  H   UNL     1       7.636 -13.874   9.617  1.00  0.00     0.293 HD
ENDBRANCH   8  26
TORSDOF 6
ENDMDL
MODEL 2
REMARK VINA RESULT:    -6.922      1.737      6.991
REMARK INTER + INTRA:          -8.667
REMARK INTER:                  -8.368
REMARK INTRA:                  -0.299
REMARK UNBOUND:                -0.329
REMARK SMILES O=c1c(O)c(-c2ccc(O)c(O)c2)oc2cc(O)cc(O)c12
REMARK SMILES IDX 5 1 3 2 2 3 1 4 22 5 20 6 19 7 17 8 16 9 15 10 14 11 6 12
REMARK SMILES IDX 7 13 8 14 9 15 13 16 11 17 10 18 12 20 4 22 21 24 18 26
REMARK H PARENT 10 19 12 21 4 23 21 25 18 27
REMARK Flexibility Score: inf
ROOT
ATOM      1  C   UNL     1       4.768 -18.306   6.956  1.00  0.00     0.180 A 
ATOM      2  C   UNL     1       4.949 -18.760   5.638  1.00  0.00     0.208 A 
ATOM      3  C   UNL     1       4.790 -20.128   5.361  1.00  0.00     0.238 A 
ATOM      4  O   UNL     1       4.899 -20.521   4.170  1.00  0.00    -0.285 OA
ATOM      5  C   UNL     1       4.468 -21.026   6.407  1.00  0.00     0.111 A 
ATOM      6  C   UNL     1       4.322 -22.436   6.249  1.00  0.00     0.134 A 
ATOM      7  C   UNL     1       3.873 -23.210   7.327  1.00  0.00     0.093 A 
ATOM      8  C   UNL     1       3.629 -22.634   8.573  1.00  0.00     0.123 A 
ATOM      9  C   UNL     1       3.825 -21.265   8.756  1.00  0.00     0.094 A 
ATOM     10  C   UNL     1       4.237 -20.461   7.690  1.00  0.00     0.146 A 
ATOM     11  O   UNL     1       4.402 -19.162   7.902  1.00  0.00    -0.452 OA
ENDROOT
BRANCH   1  12
ATOM     12  C   UNL     1       4.943 -16.884   7.329  1.00  0.00     0.025 A 
ATOM     13  C   UNL     1       3.885 -15.983   7.132  1.00  0.00     0.016 A 
ATOM     14  C   UNL     1       4.021 -14.641   7.496  1.00  0.00     0.051 A 
ATOM     15  C   UNL     1       5.208 -14.182   8.076  1.00  0.00     0.157 A 
ATOM     16  C   UNL     1       6.129 -16.425   7.931  1.00  0.00     0.062 A 
ATOM     17  C   UNL     1       6.266 -15.078   8.299  1.00  0.00     0.158 A 
BRANCH  15  18
ATOM     18  O   UNL     1       5.315 -12.837   8.427  1.00  0.00    -0.504 OA
ATOM     19  H   UNL     1       5.445 -12.109   7.735  1.00  0.00     0.293 HD
ENDBRANCH  15  18
BRANCH  17  20
ATOM     20  O   UNL     1       7.447 -14.631   8.889  1.00  0.00    -0.504 OA
ATOM     21  H   UNL     1       8.289 -14.483   8.346  1.00  0.00     0.293 HD
ENDBRANCH  17  20
ENDBRANCH   1  12
BRANCH   2  22
ATOM     22  O   UNL     1       5.245 -17.854   4.615  1.00  0.00    -0.502 OA
ATOM     23  H   UNL     1       4.631 -17.709   3.823  1.00  0.00     0.293 HD
ENDBRANCH   2  22
BRANCH   6  24
ATOM     24  O   UNL     1       4.629 -23.125   5.072  1.00  0.00    -0.507 OA
ATOM     25  H   UNL     1       4.458 -22.776   4.141  1.00  0.00     0.293 HD
ENDBRANCH   6  24
BRANCH   8  26
ATOM     26  O   UNL     1       3.199 -23.438   9.628  1.00  0.00    -0.508 OA
ATOM     27  H   UNL     1       3.580 -24.365   9.777  1.00  0.00     0.293 HD
ENDBRANCH   8  26
TORSDOF 6
ENDMDL
MODEL 3
REMARK VINA RESULT:    -6.710      2.498      3.178
REMARK INTER + INTRA:          -8.412
REMARK INTER:                  -8.256
REMARK INTRA:                  -0.156
REMARK UNBOUND:                -0.329
REMARK SMILES O=c1c(O)c(-c2ccc(O)c(O)c2)oc2cc(O)cc(O)c12
REMARK SMILES IDX 5 1 3 2 2 3 1 4 22 5 20 6 19 7 17 8 16 9 15 10 14 11 6 12
REMARK SMILES IDX 7 13 8 14 9 15 13 16 11 17 10 18 12 20 4 22 21 24 18 26
REMARK H PARENT 10 19 12 21 4 23 21 25 18 27
REMARK Flexibility Score: inf
ROOT
ATOM      1  C   UNL     1       4.861 -17.294   6.521  1.00  0.00     0.180 A 
ATOM      2  C   UNL     1       4.988 -16.925   5.170  1.00  0.00     0.208 A 
ATOM      3  C   UNL     1       5.022 -15.561   4.838  1.00  0.00     0.238 A 
ATOM      4  O   UNL     1       5.192 -15.237   3.633  1.00  0.00    -0.285 OA
ATOM      5  C   UNL     1       4.912 -14.584   5.856  1.00  0.00     0.111 A 
ATOM      6  C   UNL     1       4.895 -13.175   5.629  1.00  0.00     0.134 A 
ATOM      7  C   UNL     1       4.914 -12.299   6.722  1.00  0.00     0.093 A 
ATOM      8  C   UNL     1       4.884 -12.780   8.031  1.00  0.00     0.123 A 
ATOM      9  C   UNL     1       4.840 -14.155   8.263  1.00  0.00     0.094 A 
ATOM     10  C   UNL     1       4.858 -15.055   7.195  1.00  0.00     0.146 A 
ATOM     11  O   UNL     1       4.826 -16.355   7.459  1.00  0.00    -0.452 OA
ENDROOT
BRANCH   1  12
ATOM     12  C   UNL     1       4.792 -18.710   6.947  1.00  0.00     0.025 A 
ATOM     13  C   UNL     1       3.601 -19.209   7.497  1.00  0.00     0.016 A 
ATOM     14  C   UNL     1       3.507 -20.547   7.886  1.00  0.00     0.051 A 
ATOM     15  C   UNL     1       4.595 -21.411   7.718  1.00  0.00     0.157 A 
ATOM     16  C   UNL     1       5.878 -19.586   6.760  1.00  0.00     0.062 A 
ATOM     17  C   UNL     1       5.784 -20.929   7.149  1.00  0.00     0.158 A 
BRANCH  15  18
ATOM     18  O   UNL     1       4.472 -22.741   8.118  1.00  0.00    -0.504 OA
ATOM     19  H   UNL     1       5.150 -23.185   8.727  1.00  0.00     0.293 HD
ENDBRANCH  15  18
BRANCH  17  20
ATOM     20  O   UNL     1       6.867 -21.788   6.965  1.00  0.00    -0.504 OA
ATOM     21  H   UNL     1       7.629 -21.556   6.338  1.00  0.00     0.293 HD
ENDBRANCH  17  20
ENDBRANCH   1  12
BRANCH   2  22
ATOM     22  O   UNL     1       5.118 -17.906   4.182  1.00  0.00    -0.502 OA
ATOM     23  H   UNL     1       5.443 -17.695   3.247  1.00  0.00     0.293 HD
ENDBRANCH   2  22
BRANCH   6  24
ATOM     24  O   UNL     1       4.831 -12.590   4.362  1.00  0.00    -0.507 OA
ATOM     25  H   UNL     1       4.577 -11.629   4.185  1.00  0.00     0.293 HD
ENDBRANCH   6  24
BRANCH   8  26
ATOM     26  O   UNL     1       4.887 -11.879   9.094  1.00  0.00    -0.508 OA
ATOM     27  H   UNL     1       4.377 -11.005   9.049  1.00  0.00     0.293 HD
ENDBRANCH   8  26
TORSDOF 6
ENDMDL
MODEL 4
REMARK VINA RESULT:    -6.710      1.672      2.282
REMARK INTER + INTRA:          -8.412
REMARK INTER:                  -8.398
REMARK INTRA:                  -0.014
REMARK UNBOUND:                -0.329
REMARK SMILES O=c1c(O)c(-c2ccc(O)c(O)c2)oc2cc(O)cc(O)c12
REMARK SMILES IDX 5 1 3 2 2 3 1 4 22 5 20 6 19 7 17 8 16 9 15 10 14 11 6 12
REMARK SMILES IDX 7 13 8 14 9 15 13 16 11 17 10 18 12 20 4 22 21 24 18 26
REMARK H PARENT 10 19 12 21 4 23 21 25 18 27
REMARK Flexibility Score: inf
ROOT
ATOM      1  C   UNL     1       3.331 -18.326   7.578  1.00  0.00     0.180 A 
ATOM      2  C   UNL     1       2.087 -18.083   6.970  1.00  0.00     0.208 A 
ATOM      3  C   UNL     1       1.609 -16.764   6.903  1.00  0.00     0.238 A 
ATOM      4  O   UNL     1       0.521 -16.545   6.309  1.00  0.00    -0.285 OA
ATOM      5  C   UNL     1       2.371 -15.709   7.459  1.00  0.00     0.111 A 
ATOM      6  C   UNL     1       1.965 -14.341   7.483  1.00  0.00     0.134 A 
ATOM      7  C   UNL     1       2.858 -13.363   7.941  1.00  0.00     0.093 A 
ATOM      8  C   UNL     1       4.115 -13.711   8.436  1.00  0.00     0.123 A 
ATOM      9  C   UNL     1       4.499 -15.052   8.472  1.00  0.00     0.094 A 
ATOM     10  C   UNL     1       3.645 -16.046   7.988  1.00  0.00     0.146 A 
ATOM     11  O   UNL     1       4.052 -17.308   8.031  1.00  0.00    -0.452 OA
ENDROOT
BRANCH   1  12
ATOM     12  C   UNL     1       3.889 -19.692   7.709  1.00  0.00     0.025 A 
ATOM     13  C   UNL     1       3.106 -20.706   8.282  1.00  0.00     0.016 A 
ATOM     14  C   UNL     1       3.605 -22.006   8.397  1.00  0.00     0.051 A 
ATOM     15  C   UNL     1       4.884 -22.316   7.926  1.00  0.00     0.157 A 
ATOM     16  C   UNL     1       5.168 -20.011   7.217  1.00  0.00     0.062 A 
ATOM     17  C   UNL     1       5.669 -21.316   7.329  1.00  0.00     0.158 A 
BRANCH  15  18
ATOM     18  O   UNL     1       5.356 -23.622   8.056  1.00  0.00    -0.504 OA
ATOM     19  H   UNL     1       5.796 -24.115   7.288  1.00  0.00     0.293 HD
ENDBRANCH  15  18
BRANCH  17  20
ATOM     20  O   UNL     1       6.939 -21.622   6.845  1.00  0.00    -0.504 OA
ATOM     21  H   UNL     1       7.127 -21.692   5.852  1.00  0.00     0.293 HD
ENDBRANCH  17  20
ENDBRANCH   1  12
BRANCH   2  22
ATOM     22  O   UNL     1       1.360 -19.136   6.407  1.00  0.00    -0.502 OA
ATOM     23  H   UNL     1       0.573 -18.984   5.789  1.00  0.00     0.293 HD
ENDBRANCH   2  22
BRANCH   6  24
ATOM     24  O   UNL     1       0.698 -13.896   7.097  1.00  0.00    -0.507 OA
ATOM     25  H   UNL     1       0.201 -14.215   6.279  1.00  0.00     0.293 HD
ENDBRANCH   6  24
BRANCH   8  26
ATOM     26  O   UNL     1       4.971 -12.713   8.899  1.00  0.00    -0.508 OA
ATOM     27  H   UNL     1       4.672 -12.040   9.595  1.00  0.00     0.293 HD
ENDBRANCH   8  26
TORSDOF 6
ENDMDL
MODEL 5
REMARK VINA RESULT:    -6.647      2.377      2.642
REMARK INTER + INTRA:          -8.337
REMARK INTER:                  -8.312
REMARK INTRA:                  -0.025
REMARK UNBOUND:                -0.329
REMARK SMILES O=c1c(O)c(-c2ccc(O)c(O)c2)oc2cc(O)cc(O)c12
REMARK SMILES IDX 5 1 3 2 2 3 1 4 22 5 20 6 19 7 17 8 16 9 15 10 14 11 6 12
REMARK SMILES IDX 7 13 8 14 9 15 13 16 11 17 10 18 12 20 4 22 21 24 18 26
REMARK H PARENT 10 19 12 21 4 23 21 25 18 27
REMARK Flexibility Score: inf
ROOT
ATOM      1  C   UNL     1       5.023 -17.992   6.419  1.00  0.00     0.180 A 
ATOM      2  C   UNL     1       5.128 -17.655   5.058  1.00  0.00     0.208 A 
ATOM      3  C   UNL     1       5.148 -16.299   4.693  1.00  0.00     0.238 A 
ATOM      4  O   UNL     1       5.297 -16.002   3.479  1.00  0.00    -0.285 OA
ATOM      5  C   UNL     1       5.046 -15.299   5.690  1.00  0.00     0.111 A 
ATOM      6  C   UNL     1       5.015 -13.896   5.431  1.00  0.00     0.134 A 
ATOM      7  C   UNL     1       5.045 -12.995   6.503  1.00  0.00     0.093 A 
ATOM      8  C   UNL     1       5.038 -13.445   7.823  1.00  0.00     0.123 A 
ATOM      9  C   UNL     1       5.008 -14.814   8.088  1.00  0.00     0.094 A 
ATOM     10  C   UNL     1       5.015 -15.739   7.040  1.00  0.00     0.146 A 
ATOM     11  O   UNL     1       4.996 -17.032   7.335  1.00  0.00    -0.452 OA
ENDROOT
BRANCH   1  12
ATOM     12  C   UNL     1       4.971 -19.399   6.879  1.00  0.00     0.025 A 
ATOM     13  C   UNL     1       6.005 -20.280   6.524  1.00  0.00     0.016 A 
ATOM     14  C   UNL     1       5.986 -21.606   6.964  1.00  0.00     0.051 A 
ATOM     15  C   UNL     1       4.946 -22.068   7.776  1.00  0.00     0.157 A 
ATOM     16  C   UNL     1       3.937 -19.860   7.714  1.00  0.00     0.062 A 
ATOM     17  C   UNL     1       3.918 -21.190   8.157  1.00  0.00     0.158 A 
BRANCH  15  18
ATOM     18  O   UNL     1       4.954 -23.397   8.198  1.00  0.00    -0.504 OA
ATOM     19  H   UNL     1       4.686 -24.158   7.585  1.00  0.00     0.293 HD
ENDBRANCH  15  18
BRANCH  17  20
ATOM     20  O   UNL     1       2.886 -21.639   8.978  1.00  0.00    -0.504 OA
ATOM     21  H   UNL     1       2.130 -22.211   8.618  1.00  0.00     0.293 HD
ENDBRANCH  17  20
ENDBRANCH   1  12
BRANCH   2  22
ATOM     22  O   UNL     1       5.249 -18.657   4.091  1.00  0.00    -0.502 OA
ATOM     23  H   UNL     1       5.155 -18.471   3.100  1.00  0.00     0.293 HD
ENDBRANCH   2  22
BRANCH   6  24
ATOM     24  O   UNL     1       4.928 -13.341   4.151  1.00  0.00    -0.507 OA
ATOM     25  H   UNL     1       4.218 -12.688   3.855  1.00  0.00     0.293 HD
ENDBRANCH   6  24
BRANCH   8  26
ATOM     26  O   UNL     1       5.052 -12.519   8.864  1.00  0.00    -0.508 OA
ATOM     27  H   UNL     1       4.413 -12.594   9.647  1.00  0.00     0.293 HD
ENDBRANCH   8  26
TORSDOF 6
ENDMDL
MODEL 6
REMARK VINA RESULT:    -6.554      2.335      3.383
REMARK INTER + INTRA:          -8.224
REMARK INTER:                  -7.971
REMARK INTRA:                  -0.254
REMARK UNBOUND:                -0.329
REMARK SMILES O=c1c(O)c(-c2ccc(O)c(O)c2)oc2cc(O)cc(O)c12
REMARK SMILES IDX 5 1 3 2 2 3 1 4 22 5 20 6 19 7 17 8 16 9 15 10 14 11 6 12
REMARK SMILES IDX 7 13 8 14 9 15 13 16 11 17 10 18 12 20 4 22 21 24 18 26
REMARK H PARENT 10 19 12 21 4 23 21 25 18 27
REMARK Flexibility Score: inf
ROOT
ATOM      1  C   UNL     1       4.938 -17.874   6.893  1.00  0.00     0.180 A 
ATOM      2  C   UNL     1       5.378 -16.958   7.864  1.00  0.00     0.208 A 
ATOM      3  C   UNL     1       5.402 -15.590   7.548  1.00  0.00     0.238 A 
ATOM      4  O   UNL     1       5.745 -14.769   8.439  1.00  0.00    -0.285 OA
ATOM      5  C   UNL     1       5.002 -15.157   6.261  1.00  0.00     0.111 A 
ATOM      6  C   UNL     1       5.025 -13.801   5.819  1.00  0.00     0.134 A 
ATOM      7  C   UNL     1       4.482 -13.472   4.569  1.00  0.00     0.093 A 
ATOM      8  C   UNL     1       3.980 -14.458   3.721  1.00  0.00     0.123 A 
ATOM      9  C   UNL     1       4.007 -15.795   4.119  1.00  0.00     0.094 A 
ATOM     10  C   UNL     1       4.508 -16.150   5.374  1.00  0.00     0.146 A 
ATOM     11  O   UNL     1       4.507 -17.431   5.719  1.00  0.00    -0.452 OA
ENDROOT
BRANCH   1  12
ATOM     12  C   UNL     1       4.908 -19.333   7.144  1.00  0.00     0.025 A 
ATOM     13  C   UNL     1       5.913 -20.148   6.600  1.00  0.00     0.016 A 
ATOM     14  C   UNL     1       5.916 -21.524   6.841  1.00  0.00     0.051 A 
ATOM     15  C   UNL     1       4.927 -22.104   7.641  1.00  0.00     0.157 A 
ATOM     16  C   UNL     1       3.926 -19.916   7.966  1.00  0.00     0.062 A 
ATOM     17  C   UNL     1       3.929 -21.297   8.211  1.00  0.00     0.158 A 
BRANCH  15  18
ATOM     18  O   UNL     1       4.955 -23.481   7.862  1.00  0.00    -0.504 OA
ATOM     19  H   UNL     1       5.794 -23.960   8.168  1.00  0.00     0.293 HD
ENDBRANCH  15  18
BRANCH  17  20
ATOM     20  O   UNL     1       2.949 -21.867   9.021  1.00  0.00    -0.504 OA
ATOM     21  H   UNL     1       2.788 -22.867   9.037  1.00  0.00     0.293 HD
ENDBRANCH  17  20
ENDBRANCH   1  12
BRANCH   2  22
ATOM     22  O   UNL     1       5.748 -17.404   9.137  1.00  0.00    -0.502 OA
ATOM     23  H   UNL     1       6.057 -18.353   9.311  1.00  0.00     0.293 HD
ENDBRANCH   2  22
BRANCH   6  24
ATOM     24  O   UNL     1       5.587 -12.751   6.550  1.00  0.00    -0.507 OA
ATOM     25  H   UNL     1       6.474 -12.316   6.341  1.00  0.00     0.293 HD
ENDBRANCH   6  24
BRANCH   8  26
ATOM     26  O   UNL     1       3.462 -14.097   2.478  1.00  0.00    -0.508 OA
ATOM     27  H   UNL     1       2.472 -14.166   2.277  1.00  0.00     0.293 HD
ENDBRANCH   8  26
TORSDOF 6
ENDMDL
MODEL 7
REMARK VINA RESULT:    -6.162      1.605      2.883
REMARK INTER + INTRA:          -7.752
REMARK INTER:                  -7.453
REMARK INTRA:                  -0.300
REMARK UNBOUND:                -0.329
REMARK SMILES O=c1c(O)c(-c2ccc(O)c(O)c2)oc2cc(O)cc(O)c12
REMARK SMILES IDX 5 1 3 2 2 3 1 4 22 5 20 6 19 7 17 8 16 9 15 10 14 11 6 12
REMARK SMILES IDX 7 13 8 14 9 15 13 16 11 17 10 18 12 20 4 22 21 24 18 26
REMARK H PARENT 10 19 12 21 4 23 21 25 18 27
REMARK Flexibility Score: inf
ROOT
ATOM      1  C   UNL     1       3.599 -18.845   7.602  1.00  0.00     0.180 A 
ATOM      2  C   UNL     1       4.862 -18.248   7.451  1.00  0.00     0.208 A 
ATOM      3  C   UNL     1       4.982 -16.858   7.620  1.00  0.00     0.238 A 
ATOM      4  O   UNL     1       6.125 -16.336   7.539  1.00  0.00    -0.285 OA
ATOM      5  C   UNL     1       3.837 -16.083   7.921  1.00  0.00     0.111 A 
ATOM      6  C   UNL     1       3.835 -14.664   8.074  1.00  0.00     0.134 A 
ATOM      7  C   UNL     1       2.669 -14.016   8.500  1.00  0.00     0.093 A 
ATOM      8  C   UNL     1       1.488 -14.727   8.715  1.00  0.00     0.123 A 
ATOM      9  C   UNL     1       1.463 -16.107   8.511  1.00  0.00     0.094 A 
ATOM     10  C   UNL     1       2.620 -16.787   8.122  1.00  0.00     0.146 A 
ATOM     11  O   UNL     1       2.556 -18.101   7.948  1.00  0.00    -0.452 OA
ENDROOT
BRANCH   1  12
ATOM     12  C   UNL     1       3.389 -20.299   7.414  1.00  0.00     0.025 A 
ATOM     13  C   UNL     1       2.941 -20.777   6.173  1.00  0.00     0.016 A 
ATOM     14  C   UNL     1       2.756 -22.147   5.967  1.00  0.00     0.051 A 
ATOM     15  C   UNL     1       3.030 -23.059   6.991  1.00  0.00     0.157 A 
ATOM     16  C   UNL     1       3.684 -21.220   8.436  1.00  0.00     0.062 A 
ATOM     17  C   UNL     1       3.500 -22.595   8.230  1.00  0.00     0.158 A 
BRANCH  15  18
ATOM     18  O   UNL     1       2.834 -24.420   6.757  1.00  0.00    -0.504 OA
ATOM     19  H   UNL     1       1.964 -24.782   6.386  1.00  0.00     0.293 HD
ENDBRANCH  15  18
BRANCH  17  20
ATOM     20  O   UNL     1       3.788 -23.500   9.250  1.00  0.00    -0.504 OA
ATOM     21  H   UNL     1       4.070 -24.453   9.051  1.00  0.00     0.293 HD
ENDBRANCH  17  20
ENDBRANCH   1  12
BRANCH   2  22
ATOM     22  O   UNL     1       5.985 -19.034   7.176  1.00  0.00    -0.502 OA
ATOM     23  H   UNL     1       6.113 -19.956   7.574  1.00  0.00     0.293 HD
ENDBRANCH   2  22
BRANCH   6  24
ATOM     24  O   UNL     1       4.936 -13.848   7.796  1.00  0.00    -0.507 OA
ATOM     25  H   UNL     1       5.358 -13.211   8.453  1.00  0.00     0.293 HD
ENDBRANCH   6  24
BRANCH   8  26
ATOM     26  O   UNL     1       0.342 -14.047   9.123  1.00  0.00    -0.508 OA
ATOM     27  H   UNL     1      -0.070 -14.205  10.035  1.00  0.00     0.293 HD
ENDBRANCH   8  26
TORSDOF 6
ENDMDL
MODEL 8
REMARK VINA RESULT:    -6.135      1.957      3.734
REMARK INTER + INTRA:          -7.720
REMARK INTER:                  -7.612
REMARK INTRA:                  -0.107
REMARK UNBOUND:                -0.329
REMARK SMILES O=c1c(O)c(-c2ccc(O)c(O)c2)oc2cc(O)cc(O)c12
REMARK SMILES IDX 5 1 3 2 2 3 1 4 22 5 20 6 19 7 17 8 16 9 15 10 14 11 6 12
REMARK SMILES IDX 7 13 8 14 9 15 13 16 11 17 10 18 12 20 4 22 21 24 18 26
REMARK H PARENT 10 19 12 21 4 23 21 25 18 27
REMARK Flexibility Score: inf
ROOT
ATOM      1  C   UNL     1       3.876 -17.944   7.513  1.00  0.00     0.180 A 
ATOM      2  C   UNL     1       4.660 -16.941   8.110  1.00  0.00     0.208 A 
ATOM      3  C   UNL     1       4.306 -15.596   7.918  1.00  0.00     0.238 A 
ATOM      4  O   UNL     1       4.978 -14.704   8.500  1.00  0.00    -0.285 OA
ATOM      5  C   UNL     1       3.184 -15.269   7.118  1.00  0.00     0.111 A 
ATOM      6  C   UNL     1       2.759 -13.940   6.822  1.00  0.00     0.134 A 
ATOM      7  C   UNL     1       1.559 -13.736   6.128  1.00  0.00     0.093 A 
ATOM      8  C   UNL     1       0.806 -14.814   5.662  1.00  0.00     0.123 A 
ATOM      9  C   UNL     1       1.244 -16.118   5.894  1.00  0.00     0.094 A 
ATOM     10  C   UNL     1       2.417 -16.353   6.615  1.00  0.00     0.146 A 
ATOM     11  O   UNL     1       2.793 -17.608   6.823  1.00  0.00    -0.452 OA
ENDROOT
BRANCH   1  12
ATOM     12  C   UNL     1       4.201 -19.382   7.650  1.00  0.00     0.025 A 
ATOM     13  C   UNL     1       3.222 -20.269   8.125  1.00  0.00     0.016 A 
ATOM     14  C   UNL     1       3.499 -21.633   8.243  1.00  0.00     0.051 A 
ATOM     15  C   UNL     1       4.751 -22.134   7.873  1.00  0.00     0.157 A 
ATOM     16  C   UNL     1       5.453 -19.892   7.259  1.00  0.00     0.062 A 
ATOM     17  C   UNL     1       5.732 -21.261   7.375  1.00  0.00     0.158 A 
BRANCH  15  18
ATOM     18  O   UNL     1       5.000 -23.500   8.004  1.00  0.00    -0.504 OA
ATOM     19  H   UNL     1       4.685 -24.173   7.315  1.00  0.00     0.293 HD
ENDBRANCH  15  18
BRANCH  17  20
ATOM     20  O   UNL     1       6.977 -21.756   6.992  1.00  0.00    -0.504 OA
ATOM     21  H   UNL     1       7.067 -22.612   6.457  1.00  0.00     0.293 HD
ENDBRANCH  17  20
ENDBRANCH   1  12
BRANCH   2  22
ATOM     22  O   UNL     1       5.750 -17.285   8.915  1.00  0.00    -0.502 OA
ATOM     23  H   UNL     1       6.708 -17.205   8.596  1.00  0.00     0.293 HD
ENDBRANCH   2  22
BRANCH   6  24
ATOM     24  O   UNL     1       3.485 -12.794   7.161  1.00  0.00    -0.507 OA
ATOM     25  H   UNL     1       3.123 -12.024   7.702  1.00  0.00     0.293 HD
ENDBRANCH   6  24
BRANCH   8  26
ATOM     26  O   UNL     1      -0.374 -14.574   4.961  1.00  0.00    -0.508 OA
ATOM     27  H   UNL     1      -0.368 -14.366   3.969  1.00  0.00     0.293 HD
ENDBRANCH   8  26
TORSDOF 6
ENDMDL
MODEL 9
REMARK VINA RESULT:    -6.125      2.184      6.954
REMARK INTER + INTRA:          -7.708
REMARK INTER:                  -7.392
REMARK INTRA:                  -0.316
REMARK UNBOUND:                -0.329
REMARK SMILES O=c1c(O)c(-c2ccc(O)c(O)c2)oc2cc(O)cc(O)c12
REMARK SMILES IDX 5 1 3 2 2 3 1 4 22 5 20 6 19 7 17 8 16 9 15 10 14 11 6 12
REMARK SMILES IDX 7 13 8 14 9 15 13 16 11 17 10 18 12 20 4 22 21 24 18 26
REMARK H PARENT 10 19 12 21 4 23 21 25 18 27
REMARK Flexibility Score: inf
ROOT
ATOM      1  C   UNL     1       4.002 -16.299   6.788  1.00  0.00     0.180 A 
ATOM      2  C   UNL     1       2.658 -16.699   6.689  1.00  0.00     0.208 A 
ATOM      3  C   UNL     1       2.360 -18.070   6.623  1.00  0.00     0.238 A 
ATOM      4  O   UNL     1       1.152 -18.425   6.590  1.00  0.00    -0.285 OA
ATOM      5  C   UNL     1       3.408 -19.022   6.639  1.00  0.00     0.111 A 
ATOM      6  C   UNL     1       3.223 -20.433   6.536  1.00  0.00     0.134 A 
ATOM      7  C   UNL     1       4.322 -21.287   6.696  1.00  0.00     0.093 A 
ATOM      8  C   UNL     1       5.607 -20.778   6.888  1.00  0.00     0.123 A 
ATOM      9  C   UNL     1       5.807 -19.398   6.930  1.00  0.00     0.094 A 
ATOM     10  C   UNL     1       4.726 -18.522   6.812  1.00  0.00     0.146 A 
ATOM     11  O   UNL     1       4.958 -17.217   6.868  1.00  0.00    -0.452 OA
ENDROOT
BRANCH   1  12
ATOM     12  C   UNL     1       4.396 -14.872   6.837  1.00  0.00     0.025 A 
ATOM     13  C   UNL     1       4.705 -14.200   5.644  1.00  0.00     0.016 A 
ATOM     14  C   UNL     1       5.059 -12.849   5.665  1.00  0.00     0.051 A 
ATOM     15  C   UNL     1       5.095 -12.145   6.873  1.00  0.00     0.157 A 
ATOM     16  C   UNL     1       4.413 -14.157   8.049  1.00  0.00     0.062 A 
ATOM     17  C   UNL     1       4.767 -12.801   8.070  1.00  0.00     0.158 A 
BRANCH  15  18
ATOM     18  O   UNL     1       5.455 -10.798   6.862  1.00  0.00    -0.504 OA
ATOM     19  H   UNL     1       6.300 -10.470   6.411  1.00  0.00     0.293 HD
ENDBRANCH  15  18
BRANCH  17  20
ATOM     20  O   UNL     1       4.787 -12.102   9.276  1.00  0.00    -0.504 OA
ATOM     21  H   UNL     1       5.657 -11.864   9.738  1.00  0.00     0.293 HD
ENDBRANCH  17  20
ENDBRANCH   1  12
BRANCH   2  22
ATOM     22  O   UNL     1       1.637 -15.745   6.696  1.00  0.00    -0.502 OA
ATOM     23  H   UNL     1       1.051 -15.582   7.507  1.00  0.00     0.293 HD
ENDBRANCH   2  22
BRANCH   6  24
ATOM     24  O   UNL     1       1.997 -21.041   6.254  1.00  0.00    -0.507 OA
ATOM     25  H   UNL     1       1.149 -20.896   6.782  1.00  0.00     0.293 HD
ENDBRANCH   6  24
BRANCH   8  26
ATOM     26  O   UNL     1       6.679 -21.657   7.027  1.00  0.00    -0.508 OA
ATOM     27  H   UNL     1       6.835 -22.171   7.886  1.00  0.00     0.293 HD
ENDBRANCH   8  26
TORSDOF 6
ENDMDL
