MODEL 1
REMARK VINA RESULT:    -2.458      0.000      0.000
REMARK INTER + INTRA:          -7.595
REMARK INTER:                  -4.614
REMARK INTRA:                  -2.981
REMARK UNBOUND:                -2.981
REMARK SMILES CCCCCCCCC=CCCCCCCCC(=O)[O-]
REMARK SMILES IDX 10 1 9 2 11 3 12 4 13 5 14 6 15 7 16 8 17 9 18 10 19 11
REMARK SMILES IDX 20 12 8 13 7 14 6 15 5 16 4 17 3 18 2 19 1 20
REMARK H PARENT
REMARK Flexibility Score: inf
ROOT
ATOM      1  C   UNL     1     146.628 149.116 141.495  1.00  0.00    -0.031 C 
ATOM      2  C   UNL     1     147.202 148.697 142.637  1.00  0.00    -0.031 C 
ENDROOT
BRANCH   1   3
ATOM      3  C   UNL     1     145.701 148.294 140.630  1.00  0.00     0.027 C 
BRANCH   3   4
ATOM      4  C   UNL     1     144.234 148.539 141.004  1.00  0.00     0.004 C 
BRANCH   4   5
ATOM      5  C   UNL     1     143.971 150.004 141.396  1.00  0.00     0.000 C 
BRANCH   5   6
ATOM      6  C   UNL     1     143.328 150.128 142.794  1.00  0.00     0.000 C 
BRANCH   6   7
ATOM      7  C   UNL     1     143.307 148.804 143.584  1.00  0.00     0.000 C 
BRANCH   7   8
ATOM      8  C   UNL     1     144.061 148.841 144.924  1.00  0.00     0.006 C 
BRANCH   8   9
ATOM      9  C   UNL     1     144.731 150.197 145.191  1.00  0.00     0.053 C 
BRANCH   9  10
ATOM     10  C   UNL     1     144.604 150.569 146.634  1.00  0.00     0.041 C 
ATOM     11  O   UNL     1     144.448 149.676 147.508  1.00  0.00    -0.550 OA
ATOM     12  O   UNL     1     144.633 151.903 147.014  1.00  0.00    -0.550 OA
ENDBRANCH   9  10
ENDBRANCH   8   9
ENDBRANCH   7   8
ENDBRANCH   6   7
ENDBRANCH   5   6
ENDBRANCH   4   5
ENDBRANCH   3   4
ENDBRANCH   1   3
BRANCH   2  13
ATOM     13  C   UNL     1     146.989 147.346 143.271  1.00  0.00     0.027 C 
BRANCH  13  14
ATOM     14  C   UNL     1     148.123 146.358 142.955  1.00  0.00     0.004 C 
BRANCH  14  15
ATOM     15  C   UNL     1     147.765 145.409 141.797  1.00  0.00     0.000 C 
BRANCH  15  16
ATOM     16  C   UNL     1     146.726 144.345 142.194  1.00  0.00     0.000 C 
BRANCH  16  17
ATOM     17  C   UNL     1     145.275 144.665 141.793  1.00  0.00    -0.000 C 
BRANCH  17  18
ATOM     18  C   UNL     1     144.344 144.859 143.004  1.00  0.00    -0.000 C 
BRANCH  18  19
ATOM     19  C   UNL     1     144.942 144.283 144.297  1.00  0.00    -0.003 C 
ATOM     20  C   UNL     1     144.810 145.237 145.483  1.00  0.00     0.004 C 
ENDBRANCH  18  19
ENDBRANCH  17  18
ENDBRANCH  16  17
ENDBRANCH  15  16
ENDBRANCH  14  15
ENDBRANCH  13  14
ENDBRANCH   2  13
TORSDOF 15
ENDMDL
MODEL 2
REMARK VINA RESULT:    -2.451      1.385      2.741
REMARK INTER + INTRA:          -7.581
REMARK INTER:                  -4.520
REMARK INTRA:                  -3.061
REMARK UNBOUND:                -2.981
REMARK SMILES CCCCCCCCC=CCCCCCCCC(=O)[O-]
REMARK SMILES IDX 10 1 9 2 11 3 12 4 13 5 14 6 15 7 16 8 17 9 18 10 19 11
REMARK SMILES IDX 20 12 8 13 7 14 6 15 5 16 4 17 3 18 2 19 1 20
REMARK H PARENT
REMARK Flexibility Score: inf
ROOT
ATOM      1  C   UNL     1     146.800 149.636 142.029  1.00  0.00    -0.031 C 
ATOM      2  C   UNL     1     147.267 148.820 142.990  1.00  0.00    -0.031 C 
ENDROOT
BRANCH   1   3
ATOM      3  C   UNL     1     145.883 149.220 140.901  1.00  0.00     0.027 C 
BRANCH   3   4
ATOM      4  C   UNL     1     144.413 149.442 141.274  1.00  0.00     0.004 C 
BRANCH   4   5
ATOM      5  C   UNL     1     143.632 148.120 141.374  1.00  0.00     0.000 C 
BRANCH   5   6
ATOM      6  C   UNL     1     143.250 147.776 142.830  1.00  0.00     0.000 C 
BRANCH   6   7
ATOM      7  C   UNL     1     143.179 149.006 143.757  1.00  0.00     0.000 C 
BRANCH   7   8
ATOM      8  C   UNL     1     144.094 148.937 144.991  1.00  0.00     0.006 C 
BRANCH   8   9
ATOM      9  C   UNL     1     144.685 150.303 145.368  1.00  0.00     0.053 C 
BRANCH   9  10
ATOM     10  C   UNL     1     144.641 150.502 146.850  1.00  0.00     0.041 C 
ATOM     11  O   UNL     1     144.357 149.541 147.611  1.00  0.00    -0.550 OA
ATOM     12  O   UNL     1     144.891 151.756 147.391  1.00  0.00    -0.550 OA
ENDBRANCH   9  10
ENDBRANCH   8   9
ENDBRANCH   7   8
ENDBRANCH   6   7
ENDBRANCH   5   6
ENDBRANCH   4   5
ENDBRANCH   3   4
ENDBRANCH   1   3
BRANCH   2  13
ATOM     13  C   UNL     1     146.927 147.358 143.130  1.00  0.00     0.027 C 
BRANCH  13  14
ATOM     14  C   UNL     1     148.076 146.437 142.689  1.00  0.00     0.004 C 
BRANCH  14  15
ATOM     15  C   UNL     1     147.581 145.245 141.852  1.00  0.00     0.000 C 
BRANCH  15  16
ATOM     16  C   UNL     1     146.077 145.321 141.532  1.00  0.00     0.000 C 
BRANCH  16  17
ATOM     17  C   UNL     1     145.726 145.364 140.034  1.00  0.00    -0.000 C 
BRANCH  17  18
ATOM     18  C   UNL     1     146.963 145.516 139.130  1.00  0.00    -0.000 C 
BRANCH  18  19
ATOM     19  C   UNL     1     147.016 146.887 138.439  1.00  0.00    -0.003 C 
ATOM     20  C   UNL     1     145.698 147.256 137.759  1.00  0.00     0.004 C 
ENDBRANCH  18  19
ENDBRANCH  17  18
ENDBRANCH  16  17
ENDBRANCH  15  16
ENDBRANCH  14  15
ENDBRANCH  13  14
ENDBRANCH   2  13
TORSDOF 15
ENDMDL
MODEL 3
REMARK VINA RESULT:    -2.438      1.538      4.152
REMARK INTER + INTRA:          -7.557
REMARK INTER:                  -4.454
REMARK INTRA:                  -3.102
REMARK UNBOUND:                -2.981
REMARK SMILES CCCCCCCCC=CCCCCCCCC(=O)[O-]
REMARK SMILES IDX 10 1 9 2 11 3 12 4 13 5 14 6 15 7 16 8 17 9 18 10 19 11
REMARK SMILES IDX 20 12 8 13 7 14 6 15 5 16 4 17 3 18 2 19 1 20
REMARK H PARENT
REMARK Flexibility Score: inf
ROOT
ATOM      1  C   UNL     1     147.385 148.589 143.022  1.00  0.00    -0.031 C 
ATOM      2  C   UNL     1     146.900 149.736 142.515  1.00  0.00    -0.031 C 
ENDROOT
BRANCH   1   3
ATOM      3  C   UNL     1     147.166 147.214 142.434  1.00  0.00     0.027 C 
BRANCH   3   4
ATOM      4  C   UNL     1     146.079 146.451 143.202  1.00  0.00     0.004 C 
BRANCH   4   5
ATOM      5  C   UNL     1     144.718 146.499 142.486  1.00  0.00     0.000 C 
BRANCH   5   6
ATOM      6  C   UNL     1     143.608 147.090 143.380  1.00  0.00     0.000 C 
BRANCH   6   7
ATOM      7  C   UNL     1     144.138 147.745 144.671  1.00  0.00     0.000 C 
BRANCH   7   8
ATOM      8  C   UNL     1     143.574 149.146 144.962  1.00  0.00     0.006 C 
BRANCH   8   9
ATOM      9  C   UNL     1     144.661 150.150 145.369  1.00  0.00     0.053 C 
BRANCH   9  10
ATOM     10  C   UNL     1     144.532 150.504 146.817  1.00  0.00     0.041 C 
ATOM     11  O   UNL     1     144.460 151.709 147.171  1.00  0.00    -0.550 OA
ATOM     12  O   UNL     1     144.515 149.503 147.779  1.00  0.00    -0.550 OA
ENDBRANCH   9  10
ENDBRANCH   8   9
ENDBRANCH   7   8
ENDBRANCH   6   7
ENDBRANCH   5   6
ENDBRANCH   4   5
ENDBRANCH   3   4
ENDBRANCH   1   3
BRANCH   2  13
ATOM     13  C   UNL     1     146.086 149.853 141.252  1.00  0.00     0.027 C 
BRANCH  13  14
ATOM     14  C   UNL     1     144.604 150.154 141.528  1.00  0.00     0.004 C 
BRANCH  14  15
ATOM     15  C   UNL     1     143.749 150.101 140.249  1.00  0.00     0.000 C 
BRANCH  15  16
ATOM     16  C   UNL     1     142.952 148.790 140.117  1.00  0.00     0.000 C 
BRANCH  16  17
ATOM     17  C   UNL     1     143.494 147.796 139.075  1.00  0.00    -0.000 C 
BRANCH  17  18
ATOM     18  C   UNL     1     144.427 148.453 138.042  1.00  0.00    -0.000 C 
BRANCH  18  19
ATOM     19  C   UNL     1     145.591 147.535 137.639  1.00  0.00    -0.003 C 
ATOM     20  C   UNL     1     146.527 147.221 138.805  1.00  0.00     0.004 C 
ENDBRANCH  18  19
ENDBRANCH  17  18
ENDBRANCH  16  17
ENDBRANCH  15  16
ENDBRANCH  14  15
ENDBRANCH  13  14
ENDBRANCH   2  13
TORSDOF 15
ENDMDL
MODEL 4
REMARK VINA RESULT:    -2.431      3.215      4.517
REMARK INTER + INTRA:          -7.543
REMARK INTER:                  -4.466
REMARK INTRA:                  -3.078
REMARK UNBOUND:                -2.981
REMARK SMILES CCCCCCCCC=CCCCCCCCC(=O)[O-]
REMARK SMILES IDX 10 1 9 2 11 3 12 4 13 5 14 6 15 7 16 8 17 9 18 10 19 11
REMARK SMILES IDX 20 12 8 13 7 14 6 15 5 16 4 17 3 18 2 19 1 20
REMARK H PARENT
REMARK Flexibility Score: inf
ROOT
ATOM      1  C   UNL     1     146.676 149.710 142.963  1.00  0.00    -0.031 C 
ATOM      2  C   UNL     1     147.327 148.581 142.631  1.00  0.00    -0.031 C 
ENDROOT
BRANCH   1   3
ATOM      3  C   UNL     1     145.440 149.782 143.831  1.00  0.00     0.027 C 
BRANCH   3   4
ATOM      4  C   UNL     1     144.167 149.818 142.978  1.00  0.00     0.004 C 
BRANCH   4   5
ATOM      5  C   UNL     1     143.495 148.437 142.876  1.00  0.00     0.000 C 
BRANCH   5   6
ATOM      6  C   UNL     1     143.697 147.789 141.490  1.00  0.00     0.000 C 
BRANCH   6   7
ATOM      7  C   UNL     1     144.136 148.788 140.400  1.00  0.00     0.000 C 
BRANCH   7   8
ATOM      8  C   UNL     1     144.783 148.147 139.161  1.00  0.00     0.006 C 
BRANCH   8   9
ATOM      9  C   UNL     1     145.179 146.681 139.390  1.00  0.00     0.053 C 
BRANCH   9  10
ATOM     10  C   UNL     1     146.655 146.505 139.221  1.00  0.00     0.041 C 
ATOM     11  O   UNL     1     147.418 147.506 139.220  1.00  0.00    -0.550 OA
ATOM     12  O   UNL     1     147.188 145.236 139.040  1.00  0.00    -0.550 OA
ENDBRANCH   9  10
ENDBRANCH   8   9
ENDBRANCH   7   8
ENDBRANCH   6   7
ENDBRANCH   5   6
ENDBRANCH   4   5
ENDBRANCH   3   4
ENDBRANCH   1   3
BRANCH   2  13
ATOM     13  C   UNL     1     146.959 147.196 143.099  1.00  0.00     0.027 C 
BRANCH  13  14
ATOM     14  C   UNL     1     148.019 146.146 142.733  1.00  0.00     0.004 C 
BRANCH  14  15
ATOM     15  C   UNL     1     147.414 144.742 142.559  1.00  0.00     0.000 C 
BRANCH  15  16
ATOM     16  C   UNL     1     145.882 144.764 142.414  1.00  0.00     0.000 C 
BRANCH  16  17
ATOM     17  C   UNL     1     145.108 144.024 143.519  1.00  0.00    -0.000 C 
BRANCH  17  18
ATOM     18  C   UNL     1     143.987 144.876 144.143  1.00  0.00    -0.000 C 
BRANCH  18  19
ATOM     19  C   UNL     1     144.476 145.691 145.350  1.00  0.00    -0.003 C 
ATOM     20  C   UNL     1     145.273 144.850 146.346  1.00  0.00     0.004 C 
ENDBRANCH  18  19
ENDBRANCH  17  18
ENDBRANCH  16  17
ENDBRANCH  15  16
ENDBRANCH  14  15
ENDBRANCH  13  14
ENDBRANCH   2  13
TORSDOF 15
ENDMDL
MODEL 5
REMARK VINA RESULT:    -2.345      2.732      3.884
REMARK INTER + INTRA:          -7.382
REMARK INTER:                  -4.254
REMARK INTRA:                  -3.127
REMARK UNBOUND:                -2.981
REMARK SMILES CCCCCCCCC=CCCCCCCCC(=O)[O-]
REMARK SMILES IDX 10 1 9 2 11 3 12 4 13 5 14 6 15 7 16 8 17 9 18 10 19 11
REMARK SMILES IDX 20 12 8 13 7 14 6 15 5 16 4 17 3 18 2 19 1 20
REMARK H PARENT
REMARK Flexibility Score: inf
ROOT
ATOM      1  C   UNL     1     147.277 147.771 143.000  1.00  0.00    -0.031 C 
ATOM      2  C   UNL     1     147.341 146.690 142.202  1.00  0.00    -0.031 C 
ENDROOT
BRANCH   1   3
ATOM      3  C   UNL     1     146.998 149.182 142.536  1.00  0.00     0.027 C 
BRANCH   3   4
ATOM      4  C   UNL     1     145.861 149.815 143.348  1.00  0.00     0.004 C 
BRANCH   4   5
ATOM      5  C   UNL     1     144.886 148.761 143.903  1.00  0.00     0.000 C 
BRANCH   5   6
ATOM      6  C   UNL     1     143.599 148.652 143.057  1.00  0.00     0.000 C 
BRANCH   6   7
ATOM      7  C   UNL     1     143.660 147.551 141.980  1.00  0.00     0.000 C 
BRANCH   7   8
ATOM      8  C   UNL     1     143.268 148.010 140.565  1.00  0.00     0.006 C 
BRANCH   8   9
ATOM      9  C   UNL     1     144.393 148.779 139.858  1.00  0.00     0.053 C 
BRANCH   9  10
ATOM     10  C   UNL     1     143.975 150.190 139.591  1.00  0.00     0.041 C 
ATOM     11  O   UNL     1     144.229 151.096 140.427  1.00  0.00    -0.550 OA
ATOM     12  O   UNL     1     143.284 150.503 138.428  1.00  0.00    -0.550 OA
ENDBRANCH   9  10
ENDBRANCH   8   9
ENDBRANCH   7   8
ENDBRANCH   6   7
ENDBRANCH   5   6
ENDBRANCH   4   5
ENDBRANCH   3   4
ENDBRANCH   1   3
BRANCH   2  13
ATOM     13  C   UNL     1     147.108 146.694 140.713  1.00  0.00     0.027 C 
BRANCH  13  14
ATOM     14  C   UNL     1     146.928 145.280 140.137  1.00  0.00     0.004 C 
BRANCH  14  15
ATOM     15  C   UNL     1     146.395 144.287 141.184  1.00  0.00     0.000 C 
BRANCH  15  16
ATOM     16  C   UNL     1     144.867 144.111 141.120  1.00  0.00     0.000 C 
BRANCH  16  17
ATOM     17  C   UNL     1     144.162 143.997 142.483  1.00  0.00    -0.000 C 
BRANCH  17  18
ATOM     18  C   UNL     1     145.136 144.067 143.673  1.00  0.00    -0.000 C 
BRANCH  18  19
ATOM     19  C   UNL     1     144.772 145.187 144.660  1.00  0.00    -0.003 C 
ATOM     20  C   UNL     1     145.233 144.890 146.086  1.00  0.00     0.004 C 
ENDBRANCH  18  19
ENDBRANCH  17  18
ENDBRANCH  16  17
ENDBRANCH  15  16
ENDBRANCH  14  15
ENDBRANCH  13  14
ENDBRANCH   2  13
TORSDOF 15
ENDMDL
MODEL 6
REMARK VINA RESULT:    -2.344      1.598      3.125
REMARK INTER + INTRA:          -7.380
REMARK INTER:                  -4.688
REMARK INTRA:                  -2.692
REMARK UNBOUND:                -2.981
REMARK SMILES CCCCCCCCC=CCCCCCCCC(=O)[O-]
REMARK SMILES IDX 10 1 9 2 11 3 12 4 13 5 14 6 15 7 16 8 17 9 18 10 19 11
REMARK SMILES IDX 20 12 8 13 7 14 6 15 5 16 4 17 3 18 2 19 1 20
REMARK H PARENT
REMARK Flexibility Score: inf
ROOT
ATOM      1  C   UNL     1     145.561 149.833 143.821  1.00  0.00    -0.031 C 
ATOM      2  C   UNL     1     146.598 149.685 142.978  1.00  0.00    -0.031 C 
ENDROOT
BRANCH   1   3
ATOM      3  C   UNL     1     144.139 150.139 143.411  1.00  0.00     0.027 C 
BRANCH   3   4
ATOM      4  C   UNL     1     143.190 149.004 143.816  1.00  0.00     0.004 C 
BRANCH   4   5
ATOM      5  C   UNL     1     143.845 148.024 144.806  1.00  0.00     0.000 C 
BRANCH   5   6
ATOM      6  C   UNL     1     143.087 147.957 146.148  1.00  0.00     0.000 C 
BRANCH   6   7
ATOM      7  C   UNL     1     143.672 148.882 147.235  1.00  0.00     0.000 C 
BRANCH   7   8
ATOM      8  C   UNL     1     143.168 150.335 147.184  1.00  0.00     0.006 C 
BRANCH   8   9
ATOM      9  C   UNL     1     144.307 151.352 147.026  1.00  0.00     0.053 C 
BRANCH   9  10
ATOM     10  C   UNL     1     145.124 151.423 148.276  1.00  0.00     0.041 C 
ATOM     11  O   UNL     1     146.380 151.381 148.216  1.00  0.00    -0.550 OA
ATOM     12  O   UNL     1     144.498 151.511 149.512  1.00  0.00    -0.550 OA
ENDBRANCH   9  10
ENDBRANCH   8   9
ENDBRANCH   7   8
ENDBRANCH   6   7
ENDBRANCH   5   6
ENDBRANCH   4   5
ENDBRANCH   3   4
ENDBRANCH   1   3
BRANCH   2  13
ATOM     13  C   UNL     1     146.514 149.762 141.475  1.00  0.00     0.027 C 
BRANCH  13  14
ATOM     14  C   UNL     1     146.420 148.378 140.815  1.00  0.00     0.004 C 
BRANCH  14  15
ATOM     15  C   UNL     1     144.965 147.915 140.631  1.00  0.00     0.000 C 
BRANCH  15  16
ATOM     16  C   UNL     1     144.690 146.538 141.262  1.00  0.00     0.000 C 
BRANCH  16  17
ATOM     17  C   UNL     1     145.699 146.097 142.338  1.00  0.00    -0.000 C 
BRANCH  17  18
ATOM     18  C   UNL     1     146.475 144.825 141.952  1.00  0.00    -0.000 C 
BRANCH  18  19
ATOM     19  C   UNL     1     147.989 144.978 142.164  1.00  0.00    -0.003 C 
ATOM     20  C   UNL     1     148.351 146.241 142.946  1.00  0.00     0.004 C 
ENDBRANCH  18  19
ENDBRANCH  17  18
ENDBRANCH  16  17
ENDBRANCH  15  16
ENDBRANCH  14  15
ENDBRANCH  13  14
ENDBRANCH   2  13
TORSDOF 15
ENDMDL
MODEL 7
REMARK VINA RESULT:    -2.341      3.265      6.222
REMARK INTER + INTRA:          -7.374
REMARK INTER:                  -4.789
REMARK INTRA:                  -2.585
REMARK UNBOUND:                -2.981
REMARK SMILES CCCCCCCCC=CCCCCCCCC(=O)[O-]
REMARK SMILES IDX 10 1 9 2 11 3 12 4 13 5 14 6 15 7 16 8 17 9 18 10 19 11
REMARK SMILES IDX 20 12 8 13 7 14 6 15 5 16 4 17 3 18 2 19 1 20
REMARK H PARENT
REMARK Flexibility Score: inf
ROOT
ATOM      1  C   UNL     1     145.728 149.867 141.518  1.00  0.00    -0.031 C 
ATOM      2  C   UNL     1     144.424 150.148 141.686  1.00  0.00    -0.031 C 
ENDROOT
BRANCH   1   3
ATOM      3  C   UNL     1     146.747 149.752 142.628  1.00  0.00     0.027 C 
BRANCH   3   4
ATOM      4  C   UNL     1     147.335 148.338 142.694  1.00  0.00     0.004 C 
BRANCH   4   5
ATOM      5  C   UNL     1     146.361 147.331 143.332  1.00  0.00     0.000 C 
BRANCH   5   6
ATOM      6  C   UNL     1     146.135 146.092 142.440  1.00  0.00     0.000 C 
BRANCH   6   7
ATOM      7  C   UNL     1     144.666 145.902 142.009  1.00  0.00     0.000 C 
BRANCH   7   8
ATOM      8  C   UNL     1     144.286 146.599 140.692  1.00  0.00     0.006 C 
BRANCH   8   9
ATOM      9  C   UNL     1     145.150 146.142 139.507  1.00  0.00     0.053 C 
BRANCH   9  10
ATOM     10  C   UNL     1     145.890 147.302 138.921  1.00  0.00     0.041 C 
ATOM     11  O   UNL     1     145.308 148.096 138.137  1.00  0.00    -0.550 OA
ATOM     12  O   UNL     1     147.232 147.495 139.222  1.00  0.00    -0.550 OA
ENDBRANCH   9  10
ENDBRANCH   8   9
ENDBRANCH   7   8
ENDBRANCH   6   7
ENDBRANCH   5   6
ENDBRANCH   4   5
ENDBRANCH   3   4
ENDBRANCH   1   3
BRANCH   2  13
ATOM     13  C   UNL     1     143.746 150.360 143.015  1.00  0.00     0.027 C 
BRANCH  13  14
ATOM     14  C   UNL     1     143.156 149.064 143.594  1.00  0.00     0.004 C 
BRANCH  14  15
ATOM     15  C   UNL     1     143.530 148.861 145.072  1.00  0.00     0.000 C 
BRANCH  15  16
ATOM     16  C   UNL     1     144.521 149.919 145.590  1.00  0.00     0.000 C 
BRANCH  16  17
ATOM     17  C   UNL     1     144.181 150.519 146.966  1.00  0.00    -0.000 C 
BRANCH  17  18
ATOM     18  C   UNL     1     145.291 151.432 147.517  1.00  0.00    -0.000 C 
BRANCH  18  19
ATOM     19  C   UNL     1     145.738 151.020 148.927  1.00  0.00    -0.003 C 
ATOM     20  C   UNL     1     145.520 149.533 149.206  1.00  0.00     0.004 C 
ENDBRANCH  18  19
ENDBRANCH  17  18
ENDBRANCH  16  17
ENDBRANCH  15  16
ENDBRANCH  14  15
ENDBRANCH  13  14
ENDBRANCH   2  13
TORSDOF 15
ENDMDL
MODEL 8
REMARK VINA RESULT:    -2.330      3.463      6.100
REMARK INTER + INTRA:          -7.354
REMARK INTER:                  -4.384
REMARK INTRA:                  -2.971
REMARK UNBOUND:                -2.981
REMARK SMILES CCCCCCCCC=CCCCCCCCC(=O)[O-]
REMARK SMILES IDX 10 1 9 2 11 3 12 4 13 5 14 6 15 7 16 8 17 9 18 10 19 11
REMARK SMILES IDX 20 12 8 13 7 14 6 15 5 16 4 17 3 18 2 19 1 20
REMARK H PARENT
REMARK Flexibility Score: inf
ROOT
ATOM      1  C   UNL     1     147.377 148.872 142.971  1.00  0.00    -0.031 C 
ATOM      2  C   UNL     1     146.849 149.767 142.117  1.00  0.00    -0.031 C 
ENDROOT
BRANCH   1   3
ATOM      3  C   UNL     1     146.957 147.424 143.089  1.00  0.00     0.027 C 
BRANCH   3   4
ATOM      4  C   UNL     1     148.140 146.484 142.826  1.00  0.00     0.004 C 
BRANCH   4   5
ATOM      5  C   UNL     1     147.705 145.182 142.130  1.00  0.00     0.000 C 
BRANCH   5   6
ATOM      6  C   UNL     1     146.227 145.222 141.688  1.00  0.00     0.000 C 
BRANCH   6   7
ATOM      7  C   UNL     1     146.029 144.992 140.176  1.00  0.00     0.000 C 
BRANCH   7   8
ATOM      8  C   UNL     1     146.048 146.270 139.321  1.00  0.00     0.006 C 
BRANCH   8   9
ATOM      9  C   UNL     1     144.640 146.790 138.999  1.00  0.00     0.053 C 
BRANCH   9  10
ATOM     10  C   UNL     1     144.697 147.825 137.921  1.00  0.00     0.041 C 
ATOM     11  O   UNL     1     145.447 147.662 136.924  1.00  0.00    -0.550 OA
ATOM     12  O   UNL     1     143.939 148.984 138.027  1.00  0.00    -0.550 OA
ENDBRANCH   9  10
ENDBRANCH   8   9
ENDBRANCH   7   8
ENDBRANCH   6   7
ENDBRANCH   5   6
ENDBRANCH   4   5
ENDBRANCH   3   4
ENDBRANCH   1   3
BRANCH   2  13
ATOM     13  C   UNL     1     145.773 149.470 141.104  1.00  0.00     0.027 C 
BRANCH  13  14
ATOM     14  C   UNL     1     144.512 150.323 141.312  1.00  0.00     0.004 C 
BRANCH  14  15
ATOM     15  C   UNL     1     143.250 149.464 141.503  1.00  0.00     0.000 C 
BRANCH  15  16
ATOM     16  C   UNL     1     143.460 148.305 142.495  1.00  0.00     0.000 C 
BRANCH  16  17
ATOM     17  C   UNL     1     142.908 148.547 143.911  1.00  0.00    -0.000 C 
BRANCH  17  18
ATOM     18  C   UNL     1     144.013 148.694 144.972  1.00  0.00    -0.000 C 
BRANCH  18  19
ATOM     19  C   UNL     1     144.582 150.120 145.028  1.00  0.00    -0.003 C 
ATOM     20  C   UNL     1     143.502 151.193 144.897  1.00  0.00     0.004 C 
ENDBRANCH  18  19
ENDBRANCH  17  18
ENDBRANCH  16  17
ENDBRANCH  15  16
ENDBRANCH  14  15
ENDBRANCH  13  14
ENDBRANCH   2  13
TORSDOF 15
ENDMDL
MODEL 9
REMARK VINA RESULT:    -2.325      1.380      3.897
REMARK INTER + INTRA:          -7.345
REMARK INTER:                  -4.289
REMARK INTRA:                  -3.056
REMARK UNBOUND:                -2.981
REMARK SMILES CCCCCCCCC=CCCCCCCCC(=O)[O-]
REMARK SMILES IDX 10 1 9 2 11 3 12 4 13 5 14 6 15 7 16 8 17 9 18 10 19 11
REMARK SMILES IDX 20 12 8 13 7 14 6 15 5 16 4 17 3 18 2 19 1 20
REMARK H PARENT
REMARK Flexibility Score: inf
ROOT
ATOM      1  C   UNL     1     146.086 145.571 142.386  1.00  0.00    -0.031 C 
ATOM      2  C   UNL     1     147.089 146.435 142.150  1.00  0.00    -0.031 C 
ENDROOT
BRANCH   1   3
ATOM      3  C   UNL     1     145.149 145.624 143.571  1.00  0.00     0.027 C 
BRANCH   3   4
ATOM      4  C   UNL     1     143.753 146.101 143.150  1.00  0.00     0.004 C 
BRANCH   4   5
ATOM      5  C   UNL     1     143.110 147.019 144.204  1.00  0.00     0.000 C 
BRANCH   5   6
ATOM      6  C   UNL     1     144.116 147.457 145.290  1.00  0.00     0.000 C 
BRANCH   6   7
ATOM      7  C   UNL     1     143.499 147.557 146.699  1.00  0.00     0.000 C 
BRANCH   7   8
ATOM      8  C   UNL     1     143.610 148.944 147.355  1.00  0.00     0.006 C 
BRANCH   8   9
ATOM      9  C   UNL     1     144.236 149.992 146.423  1.00  0.00     0.053 C 
BRANCH   9  10
ATOM     10  C   UNL     1     144.812 151.122 147.217  1.00  0.00     0.041 C 
ATOM     11  O   UNL     1     144.527 152.312 146.924  1.00  0.00    -0.550 OA
ATOM     12  O   UNL     1     145.682 150.862 148.266  1.00  0.00    -0.550 OA
ENDBRANCH   9  10
ENDBRANCH   8   9
ENDBRANCH   7   8
ENDBRANCH   6   7
ENDBRANCH   5   6
ENDBRANCH   4   5
ENDBRANCH   3   4
ENDBRANCH   1   3
BRANCH   2  13
ATOM     13  C   UNL     1     147.428 147.628 143.008  1.00  0.00     0.027 C 
BRANCH  13  14
ATOM     14  C   UNL     1     147.037 148.961 142.352  1.00  0.00     0.004 C 
BRANCH  14  15
ATOM     15  C   UNL     1     146.050 149.769 143.212  1.00  0.00     0.000 C 
BRANCH  15  16
ATOM     16  C   UNL     1     144.662 149.907 142.561  1.00  0.00     0.000 C 
BRANCH  16  17
ATOM     17  C   UNL     1     144.637 149.745 141.030  1.00  0.00    -0.000 C 
BRANCH  17  18
ATOM     18  C   UNL     1     143.595 148.719 140.550  1.00  0.00    -0.000 C 
BRANCH  18  19
ATOM     19  C   UNL     1     144.241 147.525 139.830  1.00  0.00    -0.003 C 
ATOM     20  C   UNL     1     145.540 147.898 139.116  1.00  0.00     0.004 C 
ENDBRANCH  18  19
ENDBRANCH  17  18
ENDBRANCH  16  17
ENDBRANCH  15  16
ENDBRANCH  14  15
ENDBRANCH  13  14
ENDBRANCH   2  13
TORSDOF 15
ENDMDL
