MODEL 1
REMARK VINA RESULT:    -3.589      0.000      0.000
REMARK INTER + INTRA:          -6.914
REMARK INTER:                  -6.107
REMARK INTRA:                  -0.807
REMARK UNBOUND:                -0.807
REMARK SMILES CCCCCCCCCCCCCC(=O)[O-]
REMARK SMILES IDX 8 1 9 2 10 3 11 4 12 5 13 6 14 7 15 8 16 9 7 10 6 11 5 12
REMARK SMILES IDX 4 13 3 14 2 15 1 16
REMARK H PARENT
REMARK Flexibility Score: inf
ROOT
ATOM      1  C   UNL     1      48.257  32.624  86.511  1.00  0.00     0.000 C 
ENDROOT
BRANCH   1   2
ATOM      2  C   UNL     1      47.520  31.562  87.335  1.00  0.00     0.000 C 
BRANCH   2   3
ATOM      3  C   UNL     1      47.422  31.979  88.810  1.00  0.00     0.000 C 
BRANCH   3   4
ATOM      4  C   UNL     1      46.005  31.814  89.381  1.00  0.00     0.000 C 
BRANCH   4   5
ATOM      5  C   UNL     1      46.009  31.422  90.869  1.00  0.00     0.006 C 
BRANCH   5   6
ATOM      6  C   UNL     1      44.936  30.374  91.194  1.00  0.00     0.053 C 
BRANCH   6   7
ATOM      7  C   UNL     1      43.931  30.890  92.178  1.00  0.00     0.041 C 
ATOM      8  O   UNL     1      42.941  30.182  92.502  1.00  0.00    -0.550 OA
ATOM      9  O   UNL     1      44.070  32.163  92.713  1.00  0.00    -0.550 OA
ENDBRANCH   6   7
ENDBRANCH   5   6
ENDBRANCH   4   5
ENDBRANCH   3   4
ENDBRANCH   2   3
ENDBRANCH   1   2
BRANCH   1  10
ATOM     10  C   UNL     1      48.266  33.978  87.236  1.00  0.00     0.000 C 
BRANCH  10  11
ATOM     11  C   UNL     1      49.121  35.030  86.515  1.00  0.00    -0.000 C 
BRANCH  11  12
ATOM     12  C   UNL     1      49.859  35.963  87.493  1.00  0.00    -0.000 C 
BRANCH  12  13
ATOM     13  C   UNL     1      51.380  35.741  87.487  1.00  0.00    -0.000 C 
BRANCH  13  14
ATOM     14  C   UNL     1      51.767  34.296  87.839  1.00  0.00    -0.000 C 
BRANCH  14  15
ATOM     15  C   UNL     1      52.440  33.603  86.648  1.00  0.00    -0.003 C 
ATOM     16  C   UNL     1      52.742  34.599  85.532  1.00  0.00     0.004 C 
ENDBRANCH  14  15
ENDBRANCH  13  14
ENDBRANCH  12  13
ENDBRANCH  11  12
ENDBRANCH  10  11
ENDBRANCH   1  10
TORSDOF 12
ENDMDL
MODEL 2
REMARK VINA RESULT:    -3.562     16.282     17.824
REMARK INTER + INTRA:          -6.867
REMARK INTER:                  -5.202
REMARK INTRA:                  -1.664
REMARK UNBOUND:                -0.807
REMARK SMILES CCCCCCCCCCCCCC(=O)[O-]
REMARK SMILES IDX 8 1 9 2 10 3 11 4 12 5 13 6 14 7 15 8 16 9 7 10 6 11 5 12
REMARK SMILES IDX 4 13 3 14 2 15 1 16
REMARK H PARENT
REMARK Flexibility Score: inf
ROOT
ATOM      1  C   UNL     1      44.125  22.473  75.613  1.00  0.00     0.000 C 
ENDROOT
BRANCH   1   2
ATOM      2  C   UNL     1      42.912  21.579  75.331  1.00  0.00     0.000 C 
BRANCH   2   3
ATOM      3  C   UNL     1      41.618  22.226  75.848  1.00  0.00     0.000 C 
BRANCH   3   4
ATOM      4  C   UNL     1      41.423  22.039  77.360  1.00  0.00     0.000 C 
BRANCH   4   5
ATOM      5  C   UNL     1      40.386  20.951  77.692  1.00  0.00     0.006 C 
BRANCH   5   6
ATOM      6  C   UNL     1      40.657  20.289  79.050  1.00  0.00     0.053 C 
BRANCH   6   7
ATOM      7  C   UNL     1      39.406  20.150  79.863  1.00  0.00     0.041 C 
ATOM      8  O   UNL     1      39.203  19.109  80.541  1.00  0.00    -0.550 OA
ATOM      9  O   UNL     1      38.450  21.157  79.847  1.00  0.00    -0.550 OA
ENDBRANCH   6   7
ENDBRANCH   5   6
ENDBRANCH   4   5
ENDBRANCH   3   4
ENDBRANCH   2   3
ENDBRANCH   1   2
BRANCH   1  10
ATOM     10  C   UNL     1      45.420  21.823  75.102  1.00  0.00     0.000 C 
BRANCH  10  11
ATOM     11  C   UNL     1      45.220  20.361  74.676  1.00  0.00    -0.000 C 
BRANCH  11  12
ATOM     12  C   UNL     1      46.212  19.405  75.365  1.00  0.00    -0.000 C 
BRANCH  12  13
ATOM     13  C   UNL     1      45.536  18.512  76.418  1.00  0.00    -0.000 C 
BRANCH  13  14
ATOM     14  C   UNL     1      45.667  19.075  77.842  1.00  0.00    -0.000 C 
BRANCH  14  15
ATOM     15  C   UNL     1      44.340  19.678  78.316  1.00  0.00    -0.003 C 
ATOM     16  C   UNL     1      44.562  21.013  79.022  1.00  0.00     0.004 C 
ENDBRANCH  14  15
ENDBRANCH  13  14
ENDBRANCH  12  13
ENDBRANCH  11  12
ENDBRANCH  10  11
ENDBRANCH   1  10
TORSDOF 12
ENDMDL
MODEL 3
REMARK VINA RESULT:    -3.483      4.622      7.052
REMARK INTER + INTRA:          -6.733
REMARK INTER:                  -4.796
REMARK INTRA:                  -1.937
REMARK UNBOUND:                -0.807
REMARK SMILES CCCCCCCCCCCCCC(=O)[O-]
REMARK SMILES IDX 8 1 9 2 10 3 11 4 12 5 13 6 14 7 15 8 16 9 7 10 6 11 5 12
REMARK SMILES IDX 4 13 3 14 2 15 1 16
REMARK H PARENT
REMARK Flexibility Score: inf
ROOT
ATOM      1  C   UNL     1      52.380  34.453  84.539  1.00  0.00     0.000 C 
ENDROOT
BRANCH   1   2
ATOM      2  C   UNL     1      51.806  33.107  84.081  1.00  0.00     0.000 C 
BRANCH   2   3
ATOM      3  C   UNL     1      50.593  33.309  83.161  1.00  0.00     0.000 C 
BRANCH   3   4
ATOM      4  C   UNL     1      49.902  34.664  83.378  1.00  0.00     0.000 C 
BRANCH   4   5
ATOM      5  C   UNL     1      48.369  34.542  83.440  1.00  0.00     0.006 C 
BRANCH   5   6
ATOM      6  C   UNL     1      47.894  33.099  83.224  1.00  0.00     0.053 C 
BRANCH   6   7
ATOM      7  C   UNL     1      46.974  32.985  82.046  1.00  0.00     0.041 C 
ATOM      8  O   UNL     1      47.418  33.143  80.878  1.00  0.00    -0.550 OA
ATOM      9  O   UNL     1      45.622  32.736  82.240  1.00  0.00    -0.550 OA
ENDBRANCH   6   7
ENDBRANCH   5   6
ENDBRANCH   4   5
ENDBRANCH   3   4
ENDBRANCH   2   3
ENDBRANCH   1   2
BRANCH   1  10
ATOM     10  C   UNL     1      52.993  34.343  85.942  1.00  0.00     0.000 C 
BRANCH  10  11
ATOM     11  C   UNL     1      52.412  35.371  86.925  1.00  0.00    -0.000 C 
BRANCH  11  12
ATOM     12  C   UNL     1      51.140  34.862  87.627  1.00  0.00    -0.000 C 
BRANCH  12  13
ATOM     13  C   UNL     1      49.870  35.575  87.136  1.00  0.00    -0.000 C 
BRANCH  13  14
ATOM     14  C   UNL     1      48.642  34.651  87.123  1.00  0.00    -0.000 C 
BRANCH  14  15
ATOM     15  C   UNL     1      49.047  33.206  86.810  1.00  0.00    -0.003 C 
ATOM     16  C   UNL     1      47.924  32.232  87.154  1.00  0.00     0.004 C 
ENDBRANCH  14  15
ENDBRANCH  13  14
ENDBRANCH  12  13
ENDBRANCH  11  12
ENDBRANCH  10  11
ENDBRANCH   1  10
TORSDOF 12
ENDMDL
MODEL 4
REMARK VINA RESULT:    -3.473      4.418      7.967
REMARK INTER + INTRA:          -6.716
REMARK INTER:                  -5.784
REMARK INTRA:                  -0.932
REMARK UNBOUND:                -0.807
REMARK SMILES CCCCCCCCCCCCCC(=O)[O-]
REMARK SMILES IDX 8 1 9 2 10 3 11 4 12 5 13 6 14 7 15 8 16 9 7 10 6 11 5 12
REMARK SMILES IDX 4 13 3 14 2 15 1 16
REMARK H PARENT
REMARK Flexibility Score: inf
ROOT
ATOM      1  C   UNL     1      48.821  33.890  86.101  1.00  0.00     0.000 C 
ENDROOT
BRANCH   1   2
ATOM      2  C   UNL     1      48.566  34.993  87.135  1.00  0.00     0.000 C 
BRANCH   2   3
ATOM      3  C   UNL     1      49.857  35.764  87.449  1.00  0.00     0.000 C 
BRANCH   3   4
ATOM      4  C   UNL     1      51.083  34.845  87.570  1.00  0.00     0.000 C 
BRANCH   4   5
ATOM      5  C   UNL     1      52.284  35.351  86.750  1.00  0.00     0.006 C 
BRANCH   5   6
ATOM      6  C   UNL     1      52.896  34.245  85.880  1.00  0.00     0.053 C 
BRANCH   6   7
ATOM      7  C   UNL     1      53.841  33.380  86.658  1.00  0.00     0.041 C 
ATOM      8  O   UNL     1      54.531  33.874  87.589  1.00  0.00    -0.550 OA
ATOM      9  O   UNL     1      53.981  32.037  86.336  1.00  0.00    -0.550 OA
ENDBRANCH   6   7
ENDBRANCH   5   6
ENDBRANCH   4   5
ENDBRANCH   3   4
ENDBRANCH   2   3
ENDBRANCH   1   2
BRANCH   1  10
ATOM     10  C   UNL     1      48.232  32.551  86.565  1.00  0.00     0.000 C 
BRANCH  10  11
ATOM     11  C   UNL     1      47.721  32.599  88.013  1.00  0.00    -0.000 C 
BRANCH  11  12
ATOM     12  C   UNL     1      48.478  31.631  88.939  1.00  0.00    -0.000 C 
BRANCH  12  13
ATOM     13  C   UNL     1      47.642  31.200  90.154  1.00  0.00    -0.000 C 
BRANCH  13  14
ATOM     14  C   UNL     1      46.177  31.654  90.054  1.00  0.00    -0.000 C 
BRANCH  14  15
ATOM     15  C   UNL     1      45.275  30.794  90.947  1.00  0.00    -0.003 C 
ATOM     16  C   UNL     1      44.389  31.664  91.835  1.00  0.00     0.004 C 
ENDBRANCH  14  15
ENDBRANCH  13  14
ENDBRANCH  12  13
ENDBRANCH  11  12
ENDBRANCH  10  11
ENDBRANCH   1  10
TORSDOF 12
ENDMDL
MODEL 5
REMARK VINA RESULT:    -3.470      1.158      1.982
REMARK INTER + INTRA:          -6.711
REMARK INTER:                  -5.791
REMARK INTRA:                  -0.920
REMARK UNBOUND:                -0.807
REMARK SMILES CCCCCCCCCCCCCC(=O)[O-]
REMARK SMILES IDX 8 1 9 2 10 3 11 4 12 5 13 6 14 7 15 8 16 9 7 10 6 11 5 12
REMARK SMILES IDX 4 13 3 14 2 15 1 16
REMARK H PARENT
REMARK Flexibility Score: inf
ROOT
ATOM      1  C   UNL     1      49.296  33.065  86.964  1.00  0.00     0.000 C 
ENDROOT
BRANCH   1   2
ATOM      2  C   UNL     1      47.947  33.164  87.685  1.00  0.00     0.000 C 
BRANCH   2   3
ATOM      3  C   UNL     1      47.746  31.979  88.643  1.00  0.00     0.000 C 
BRANCH   3   4
ATOM      4  C   UNL     1      46.345  31.956  89.273  1.00  0.00     0.000 C 
BRANCH   4   5
ATOM      5  C   UNL     1      46.354  31.413  90.713  1.00  0.00     0.006 C 
BRANCH   5   6
ATOM      6  C   UNL     1      45.157  30.493  90.991  1.00  0.00     0.053 C 
BRANCH   6   7
ATOM      7  C   UNL     1      44.168  31.129  91.920  1.00  0.00     0.041 C 
ATOM      8  O   UNL     1      44.403  32.262  92.417  1.00  0.00    -0.550 OA
ATOM      9  O   UNL     1      43.000  30.459  92.259  1.00  0.00    -0.550 OA
ENDBRANCH   6   7
ENDBRANCH   5   6
ENDBRANCH   4   5
ENDBRANCH   3   4
ENDBRANCH   2   3
ENDBRANCH   1   2
BRANCH   1  10
ATOM     10  C   UNL     1      50.419  33.686  87.807  1.00  0.00     0.000 C 
BRANCH  10  11
ATOM     11  C   UNL     1      50.698  35.150  87.436  1.00  0.00    -0.000 C 
BRANCH  11  12
ATOM     12  C   UNL     1      52.173  35.396  87.069  1.00  0.00    -0.000 C 
BRANCH  12  13
ATOM     13  C   UNL     1      52.766  34.265  86.215  1.00  0.00    -0.000 C 
BRANCH  13  14
ATOM     14  C   UNL     1      52.758  34.592  84.713  1.00  0.00    -0.000 C 
BRANCH  14  15
ATOM     15  C   UNL     1      51.726  33.735  83.971  1.00  0.00    -0.003 C 
ATOM     16  C   UNL     1      50.430  34.508  83.741  1.00  0.00     0.004 C 
ENDBRANCH  14  15
ENDBRANCH  13  14
ENDBRANCH  12  13
ENDBRANCH  11  12
ENDBRANCH  10  11
ENDBRANCH   1  10
TORSDOF 12
ENDMDL
MODEL 6
REMARK VINA RESULT:    -3.467      3.610      5.564
REMARK INTER + INTRA:          -6.706
REMARK INTER:                  -5.160
REMARK INTRA:                  -1.547
REMARK UNBOUND:                -0.807
REMARK SMILES CCCCCCCCCCCCCC(=O)[O-]
REMARK SMILES IDX 8 1 9 2 10 3 11 4 12 5 13 6 14 7 15 8 16 9 7 10 6 11 5 12
REMARK SMILES IDX 4 13 3 14 2 15 1 16
REMARK H PARENT
REMARK Flexibility Score: inf
ROOT
ATOM      1  C   UNL     1      53.307  33.576  86.324  1.00  0.00     0.000 C 
ENDROOT
BRANCH   1   2
ATOM      2  C   UNL     1      53.764  32.165  86.714  1.00  0.00     0.000 C 
BRANCH   2   3
ATOM      3  C   UNL     1      53.605  31.932  88.224  1.00  0.00     0.000 C 
BRANCH   3   4
ATOM      4  C   UNL     1      52.229  31.357  88.595  1.00  0.00     0.000 C 
BRANCH   4   5
ATOM      5  C   UNL     1      51.408  32.312  89.480  1.00  0.00     0.006 C 
BRANCH   5   6
ATOM      6  C   UNL     1      51.977  32.416  90.901  1.00  0.00     0.053 C 
BRANCH   6   7
ATOM      7  C   UNL     1      51.061  31.802  91.916  1.00  0.00     0.041 C 
ATOM      8  O   UNL     1      50.898  32.352  93.037  1.00  0.00    -0.550 OA
ATOM      9  O   UNL     1      50.411  30.608  91.635  1.00  0.00    -0.550 OA
ENDBRANCH   6   7
ENDBRANCH   5   6
ENDBRANCH   4   5
ENDBRANCH   3   4
ENDBRANCH   2   3
ENDBRANCH   1   2
BRANCH   1  10
ATOM     10  C   UNL     1      53.641  34.588  87.429  1.00  0.00     0.000 C 
BRANCH  10  11
ATOM     11  C   UNL     1      52.449  35.491  87.784  1.00  0.00    -0.000 C 
BRANCH  11  12
ATOM     12  C   UNL     1      51.204  35.189  86.930  1.00  0.00    -0.000 C 
BRANCH  12  13
ATOM     13  C   UNL     1      49.916  35.762  87.541  1.00  0.00    -0.000 C 
BRANCH  13  14
ATOM     14  C   UNL     1      48.649  35.240  86.845  1.00  0.00    -0.000 C 
BRANCH  14  15
ATOM     15  C   UNL     1      48.748  33.733  86.586  1.00  0.00    -0.003 C 
ATOM     16  C   UNL     1      48.087  32.936  87.707  1.00  0.00     0.004 C 
ENDBRANCH  14  15
ENDBRANCH  13  14
ENDBRANCH  12  13
ENDBRANCH  11  12
ENDBRANCH  10  11
ENDBRANCH   1  10
TORSDOF 12
ENDMDL
MODEL 7
REMARK VINA RESULT:    -3.442      4.363      6.566
REMARK INTER + INTRA:          -6.664
REMARK INTER:                  -5.107
REMARK INTRA:                  -1.557
REMARK UNBOUND:                -0.807
REMARK SMILES CCCCCCCCCCCCCC(=O)[O-]
REMARK SMILES IDX 8 1 9 2 10 3 11 4 12 5 13 6 14 7 15 8 16 9 7 10 6 11 5 12
REMARK SMILES IDX 4 13 3 14 2 15 1 16
REMARK H PARENT
REMARK Flexibility Score: inf
ROOT
ATOM      1  C   UNL     1      48.903  30.765  89.871  1.00  0.00     0.000 C 
ENDROOT
BRANCH   1   2
ATOM      2  C   UNL     1      49.816  31.037  91.073  1.00  0.00     0.000 C 
BRANCH   2   3
ATOM      3  C   UNL     1      51.091  31.776  90.641  1.00  0.00     0.000 C 
BRANCH   3   4
ATOM      4  C   UNL     1      50.936  32.488  89.288  1.00  0.00     0.000 C 
BRANCH   4   5
ATOM      5  C   UNL     1      52.106  32.202  88.331  1.00  0.00     0.006 C 
BRANCH   5   6
ATOM      6  C   UNL     1      53.464  32.546  88.958  1.00  0.00     0.053 C 
BRANCH   6   7
ATOM      7  C   UNL     1      53.597  34.013  89.232  1.00  0.00     0.041 C 
ATOM      8  O   UNL     1      53.914  34.417  90.382  1.00  0.00    -0.550 OA
ATOM      9  O   UNL     1      53.341  34.935  88.226  1.00  0.00    -0.550 OA
ENDBRANCH   6   7
ENDBRANCH   5   6
ENDBRANCH   4   5
ENDBRANCH   3   4
ENDBRANCH   2   3
ENDBRANCH   1   2
BRANCH   1  10
ATOM     10  C   UNL     1      47.508  31.368  90.090  1.00  0.00     0.000 C 
BRANCH  10  11
ATOM     11  C   UNL     1      46.961  32.066  88.836  1.00  0.00    -0.000 C 
BRANCH  11  12
ATOM     12  C   UNL     1      47.620  31.556  87.541  1.00  0.00    -0.000 C 
BRANCH  12  13
ATOM     13  C   UNL     1      48.253  32.688  86.716  1.00  0.00    -0.000 C 
BRANCH  13  14
ATOM     14  C   UNL     1      48.204  34.044  87.437  1.00  0.00    -0.000 C 
BRANCH  14  15
ATOM     15  C   UNL     1      48.896  35.131  86.607  1.00  0.00    -0.003 C 
ATOM     16  C   UNL     1      50.048  35.766  87.381  1.00  0.00     0.004 C 
ENDBRANCH  14  15
ENDBRANCH  13  14
ENDBRANCH  12  13
ENDBRANCH  11  12
ENDBRANCH  10  11
ENDBRANCH   1  10
TORSDOF 12
ENDMDL
MODEL 8
REMARK VINA RESULT:    -3.430      3.259      5.051
REMARK INTER + INTRA:          -6.643
REMARK INTER:                  -5.050
REMARK INTRA:                  -1.592
REMARK UNBOUND:                -0.807
REMARK SMILES CCCCCCCCCCCCCC(=O)[O-]
REMARK SMILES IDX 8 1 9 2 10 3 11 4 12 5 13 6 14 7 15 8 16 9 7 10 6 11 5 12
REMARK SMILES IDX 4 13 3 14 2 15 1 16
REMARK H PARENT
REMARK Flexibility Score: inf
ROOT
ATOM      1  C   UNL     1      51.143  34.940  87.496  1.00  0.00     0.000 C 
ENDROOT
BRANCH   1   2
ATOM      2  C   UNL     1      50.146  36.104  87.493  1.00  0.00     0.000 C 
BRANCH   2   3
ATOM      3  C   UNL     1      48.703  35.593  87.356  1.00  0.00     0.000 C 
BRANCH   3   4
ATOM      4  C   UNL     1      48.624  34.201  86.712  1.00  0.00     0.000 C 
BRANCH   4   5
ATOM      5  C   UNL     1      48.066  33.136  87.672  1.00  0.00     0.006 C 
BRANCH   5   6
ATOM      6  C   UNL     1      48.956  31.887  87.733  1.00  0.00     0.053 C 
BRANCH   6   7
ATOM      7  C   UNL     1      49.470  31.635  89.118  1.00  0.00     0.041 C 
ATOM      8  O   UNL     1      50.701  31.738  89.365  1.00  0.00    -0.550 OA
ATOM      9  O   UNL     1      48.595  31.256  90.127  1.00  0.00    -0.550 OA
ENDBRANCH   6   7
ENDBRANCH   5   6
ENDBRANCH   4   5
ENDBRANCH   3   4
ENDBRANCH   2   3
ENDBRANCH   1   2
BRANCH   1  10
ATOM     10  C   UNL     1      52.468  35.346  86.834  1.00  0.00     0.000 C 
BRANCH  10  11
ATOM     11  C   UNL     1      52.699  34.641  85.489  1.00  0.00    -0.000 C 
BRANCH  11  12
ATOM     12  C   UNL     1      51.915  33.321  85.372  1.00  0.00    -0.000 C 
BRANCH  12  13
ATOM     13  C   UNL     1      51.046  33.262  84.105  1.00  0.00    -0.000 C 
BRANCH  13  14
ATOM     14  C   UNL     1      50.425  34.622  83.750  1.00  0.00    -0.000 C 
BRANCH  14  15
ATOM     15  C   UNL     1      49.468  34.493  82.560  1.00  0.00    -0.003 C 
ATOM     16  C   UNL     1      48.037  34.246  83.028  1.00  0.00     0.004 C 
ENDBRANCH  14  15
ENDBRANCH  13  14
ENDBRANCH  12  13
ENDBRANCH  11  12
ENDBRANCH  10  11
ENDBRANCH   1  10
TORSDOF 12
ENDMDL
MODEL 9
REMARK VINA RESULT:    -3.425      6.403      8.333
REMARK INTER + INTRA:          -6.635
REMARK INTER:                  -4.905
REMARK INTRA:                  -1.730
REMARK UNBOUND:                -0.807
REMARK SMILES CCCCCCCCCCCCCC(=O)[O-]
REMARK SMILES IDX 8 1 9 2 10 3 11 4 12 5 13 6 14 7 15 8 16 9 7 10 6 11 5 12
REMARK SMILES IDX 4 13 3 14 2 15 1 16
REMARK H PARENT
REMARK Flexibility Score: inf
ROOT
ATOM      1  C   UNL     1      48.656  33.394  85.205  1.00  0.00     0.000 C 
ENDROOT
BRANCH   1   2
ATOM      2  C   UNL     1      48.795  34.580  84.244  1.00  0.00     0.000 C 
BRANCH   2   3
ATOM      3  C   UNL     1      50.113  34.503  83.459  1.00  0.00     0.000 C 
BRANCH   3   4
ATOM      4  C   UNL     1      50.723  33.092  83.459  1.00  0.00     0.000 C 
BRANCH   4   5
ATOM      5  C   UNL     1      52.173  33.075  82.945  1.00  0.00     0.006 C 
BRANCH   5   6
ATOM      6  C   UNL     1      52.714  34.488  82.691  1.00  0.00     0.053 C 
BRANCH   6   7
ATOM      7  C   UNL     1      52.973  34.733  81.235  1.00  0.00     0.041 C 
ATOM      8  O   UNL     1      54.139  34.624  80.772  1.00  0.00    -0.550 OA
ATOM      9  O   UNL     1      51.933  35.112  80.397  1.00  0.00    -0.550 OA
ENDBRANCH   6   7
ENDBRANCH   5   6
ENDBRANCH   4   5
ENDBRANCH   3   4
ENDBRANCH   2   3
ENDBRANCH   1   2
BRANCH   1  10
ATOM     10  C   UNL     1      48.708  33.859  86.668  1.00  0.00     0.000 C 
BRANCH  10  11
ATOM     11  C   UNL     1      48.783  35.387  86.801  1.00  0.00    -0.000 C 
BRANCH  11  12
ATOM     12  C   UNL     1      50.081  35.859  87.481  1.00  0.00    -0.000 C 
BRANCH  12  13
ATOM     13  C   UNL     1      51.188  34.793  87.442  1.00  0.00    -0.000 C 
BRANCH  13  14
ATOM     14  C   UNL     1      52.255  35.089  86.375  1.00  0.00    -0.000 C 
BRANCH  14  15
ATOM     15  C   UNL     1      53.320  33.987  86.347  1.00  0.00    -0.003 C 
ATOM     16  C   UNL     1      54.190  34.030  87.601  1.00  0.00     0.004 C 
ENDBRANCH  14  15
ENDBRANCH  13  14
ENDBRANCH  12  13
ENDBRANCH  11  12
ENDBRANCH  10  11
ENDBRANCH   1  10
TORSDOF 12
ENDMDL
