MODEL 1
REMARK VINA RESULT:    -4.928      0.000      0.000
REMARK INTER + INTRA:         -15.374
REMARK INTER:                 -12.417
REMARK INTRA:                  -2.957
REMARK UNBOUND:                -2.957
REMARK SMILES CCCCCCCCCCCCCCCCCCCCCCCCCCCC(=O)[O-]
REMARK SMILES IDX 15 1 16 2 17 3 18 4 19 5 20 6 21 7 22 8 23 9 24 10 25 11
REMARK SMILES IDX 26 12 27 13 28 14 29 15 30 16 14 17 13 18 12 19 11 20 10 21
REMARK SMILES IDX 9 22 8 23 7 24 6 25 5 26 4 27 3 28 2 29 1 30
REMARK H PARENT
REMARK Flexibility Score: inf
ROOT
ATOM      1  C   UNL     1      21.570  -1.786  61.285  1.00  0.00     0.000 C 
ENDROOT
BRANCH   1   2
ATOM      2  C   UNL     1      22.120  -0.530  61.984  1.00  0.00     0.000 C 
BRANCH   2   3
ATOM      3  C   UNL     1      21.070   0.185  62.854  1.00  0.00     0.000 C 
BRANCH   3   4
ATOM      4  C   UNL     1      21.082   1.727  62.773  1.00  0.00     0.000 C 
BRANCH   4   5
ATOM      5  C   UNL     1      21.034   2.458  64.127  1.00  0.00     0.000 C 
BRANCH   5   6
ATOM      6  C   UNL     1      22.242   2.203  65.051  1.00  0.00     0.000 C 
BRANCH   6   7
ATOM      7  C   UNL     1      23.230   3.386  65.132  1.00  0.00     0.000 C 
BRANCH   7   8
ATOM      8  C   UNL     1      24.501   3.049  65.925  1.00  0.00     0.000 C 
BRANCH   8   9
ATOM      9  C   UNL     1      25.759   3.390  65.116  1.00  0.00     0.000 C 
BRANCH   9  10
ATOM     10  C   UNL     1      26.557   2.127  64.774  1.00  0.00     0.000 C 
BRANCH  10  11
ATOM     11  C   UNL     1      26.085   1.519  63.445  1.00  0.00     0.000 C 
BRANCH  11  12
ATOM     12  C   UNL     1      25.762   2.581  62.384  1.00  0.00     0.006 C 
BRANCH  12  13
ATOM     13  C   UNL     1      24.361   2.410  61.779  1.00  0.00     0.053 C 
BRANCH  13  14
ATOM     14  C   UNL     1      23.792   3.735  61.379  1.00  0.00     0.041 C 
ATOM     15  O   UNL     1      23.219   3.869  60.265  1.00  0.00    -0.550 OA
ATOM     16  O   UNL     1      23.881   4.820  62.244  1.00  0.00    -0.550 OA
ENDBRANCH  13  14
ENDBRANCH  12  13
ENDBRANCH  11  12
ENDBRANCH  10  11
ENDBRANCH   9  10
ENDBRANCH   8   9
ENDBRANCH   7   8
ENDBRANCH   6   7
ENDBRANCH   5   6
ENDBRANCH   4   5
ENDBRANCH   3   4
ENDBRANCH   2   3
ENDBRANCH   1   2
BRANCH   1  17
ATOM     17  C   UNL     1      22.543  -2.979  61.334  1.00  0.00     0.000 C 
BRANCH  17  18
ATOM     18  C   UNL     1      23.344  -3.125  62.642  1.00  0.00     0.000 C 
BRANCH  18  19
ATOM     19  C   UNL     1      24.864  -3.172  62.410  1.00  0.00     0.000 C 
BRANCH  19  20
ATOM     20  C   UNL     1      25.444  -1.805  62.011  1.00  0.00     0.000 C 
BRANCH  20  21
ATOM     21  C   UNL     1      26.015  -1.788  60.584  1.00  0.00     0.000 C 
BRANCH  21  22
ATOM     22  C   UNL     1      25.768  -3.132  59.883  1.00  0.00    -0.000 C 
BRANCH  22  23
ATOM     23  C   UNL     1      25.183  -2.974  58.470  1.00  0.00    -0.000 C 
BRANCH  23  24
ATOM     24  C   UNL     1      23.646  -2.916  58.469  1.00  0.00    -0.000 C 
BRANCH  24  25
ATOM     25  C   UNL     1      23.067  -2.716  57.059  1.00  0.00    -0.000 C 
BRANCH  25  26
ATOM     26  C   UNL     1      23.912  -3.400  55.974  1.00  0.00    -0.000 C 
BRANCH  26  27
ATOM     27  C   UNL     1      23.158  -3.447  54.636  1.00  0.00    -0.000 C 
BRANCH  27  28
ATOM     28  C   UNL     1      22.492  -2.108  54.283  1.00  0.00    -0.000 C 
BRANCH  28  29
ATOM     29  C   UNL     1      21.914  -2.091  52.860  1.00  0.00    -0.003 C 
ATOM     30  C   UNL     1      20.778  -1.079  52.741  1.00  0.00     0.004 C 
ENDBRANCH  28  29
ENDBRANCH  27  28
ENDBRANCH  26  27
ENDBRANCH  25  26
ENDBRANCH  24  25
ENDBRANCH  23  24
ENDBRANCH  22  23
ENDBRANCH  21  22
ENDBRANCH  20  21
ENDBRANCH  19  20
ENDBRANCH  18  19
ENDBRANCH  17  18
ENDBRANCH   1  17
TORSDOF 26
ENDMDL
MODEL 2
REMARK VINA RESULT:    -4.922      1.762      4.341
REMARK INTER + INTRA:         -15.360
REMARK INTER:                 -13.103
REMARK INTRA:                  -2.257
REMARK UNBOUND:                -2.957
REMARK SMILES CCCCCCCCCCCCCCCCCCCCCCCCCCCC(=O)[O-]
REMARK SMILES IDX 15 1 16 2 17 3 18 4 19 5 20 6 21 7 22 8 23 9 24 10 25 11
REMARK SMILES IDX 26 12 27 13 28 14 29 15 30 16 14 17 13 18 12 19 11 20 10 21
REMARK SMILES IDX 9 22 8 23 7 24 6 25 5 26 4 27 3 28 2 29 1 30
REMARK H PARENT
REMARK Flexibility Score: inf
ROOT
ATOM      1  C   UNL     1      25.494  -1.707  62.009  1.00  0.00     0.000 C 
ENDROOT
BRANCH   1   2
ATOM      2  C   UNL     1      24.721  -2.988  62.370  1.00  0.00     0.000 C 
BRANCH   2   3
ATOM      3  C   UNL     1      23.206  -2.755  62.522  1.00  0.00     0.000 C 
BRANCH   3   4
ATOM      4  C   UNL     1      22.393  -2.811  61.211  1.00  0.00     0.000 C 
BRANCH   4   5
ATOM      5  C   UNL     1      21.400  -1.653  61.003  1.00  0.00     0.000 C 
BRANCH   5   6
ATOM      6  C   UNL     1      21.072  -0.836  62.268  1.00  0.00     0.000 C 
BRANCH   6   7
ATOM      7  C   UNL     1      21.130   0.692  62.061  1.00  0.00     0.000 C 
BRANCH   7   8
ATOM      8  C   UNL     1      22.513   1.284  62.372  1.00  0.00     0.000 C 
BRANCH   8   9
ATOM      9  C   UNL     1      22.394   2.492  63.311  1.00  0.00     0.000 C 
BRANCH   9  10
ATOM     10  C   UNL     1      23.169   3.696  62.764  1.00  0.00     0.000 C 
BRANCH  10  11
ATOM     11  C   UNL     1      24.198   3.259  61.711  1.00  0.00     0.000 C 
BRANCH  11  12
ATOM     12  C   UNL     1      25.617   3.124  62.282  1.00  0.00     0.006 C 
BRANCH  12  13
ATOM     13  C   UNL     1      25.790   1.871  63.153  1.00  0.00     0.053 C 
BRANCH  13  14
ATOM     14  C   UNL     1      26.210   2.245  64.540  1.00  0.00     0.041 C 
ATOM     15  O   UNL     1      27.348   1.914  64.969  1.00  0.00    -0.550 OA
ATOM     16  O   UNL     1      25.351   2.973  65.355  1.00  0.00    -0.550 OA
ENDBRANCH  13  14
ENDBRANCH  12  13
ENDBRANCH  11  12
ENDBRANCH  10  11
ENDBRANCH   9  10
ENDBRANCH   8   9
ENDBRANCH   7   8
ENDBRANCH   6   7
ENDBRANCH   5   6
ENDBRANCH   4   5
ENDBRANCH   3   4
ENDBRANCH   2   3
ENDBRANCH   1   2
BRANCH   1  17
ATOM     17  C   UNL     1      26.092  -1.742  60.590  1.00  0.00     0.000 C 
BRANCH  17  18
ATOM     18  C   UNL     1      25.787  -3.014  59.776  1.00  0.00     0.000 C 
BRANCH  18  19
ATOM     19  C   UNL     1      25.272  -2.709  58.360  1.00  0.00     0.000 C 
BRANCH  19  20
ATOM     20  C   UNL     1      23.794  -3.091  58.173  1.00  0.00     0.000 C 
BRANCH  20  21
ATOM     21  C   UNL     1      23.213  -2.612  56.834  1.00  0.00     0.000 C 
BRANCH  21  22
ATOM     22  C   UNL     1      23.455  -3.654  55.732  1.00  0.00    -0.000 C 
BRANCH  22  23
ATOM     23  C   UNL     1      23.376  -3.060  54.316  1.00  0.00    -0.000 C 
BRANCH  23  24
ATOM     24  C   UNL     1      22.107  -2.218  54.097  1.00  0.00    -0.000 C 
BRANCH  24  25
ATOM     25  C   UNL     1      21.801  -1.994  52.608  1.00  0.00    -0.000 C 
BRANCH  25  26
ATOM     26  C   UNL     1      20.874  -0.791  52.373  1.00  0.00    -0.000 C 
BRANCH  26  27
ATOM     27  C   UNL     1      19.749  -0.750  53.418  1.00  0.00    -0.000 C 
BRANCH  27  28
ATOM     28  C   UNL     1      18.418  -0.248  52.837  1.00  0.00    -0.000 C 
BRANCH  28  29
ATOM     29  C   UNL     1      17.772   0.847  53.698  1.00  0.00    -0.003 C 
ATOM     30  C   UNL     1      18.175   0.702  55.163  1.00  0.00     0.004 C 
ENDBRANCH  28  29
ENDBRANCH  27  28
ENDBRANCH  26  27
ENDBRANCH  25  26
ENDBRANCH  24  25
ENDBRANCH  23  24
ENDBRANCH  22  23
ENDBRANCH  21  22
ENDBRANCH  20  21
ENDBRANCH  19  20
ENDBRANCH  18  19
ENDBRANCH  17  18
ENDBRANCH   1  17
TORSDOF 26
ENDMDL
MODEL 3
REMARK VINA RESULT:    -4.878      2.021      4.250
REMARK INTER + INTRA:         -15.250
REMARK INTER:                 -10.931
REMARK INTRA:                  -4.319
REMARK UNBOUND:                -2.957
REMARK SMILES CCCCCCCCCCCCCCCCCCCCCCCCCCCC(=O)[O-]
REMARK SMILES IDX 15 1 16 2 17 3 18 4 19 5 20 6 21 7 22 8 23 9 24 10 25 11
REMARK SMILES IDX 26 12 27 13 28 14 29 15 30 16 14 17 13 18 12 19 11 20 10 21
REMARK SMILES IDX 9 22 8 23 7 24 6 25 5 26 4 27 3 28 2 29 1 30
REMARK H PARENT
REMARK Flexibility Score: inf
ROOT
ATOM      1  C   UNL     1      21.386  -0.105  60.941  1.00  0.00     0.000 C 
ENDROOT
BRANCH   1   2
ATOM      2  C   UNL     1      21.022   0.929  62.022  1.00  0.00     0.000 C 
BRANCH   2   3
ATOM      3  C   UNL     1      21.283   0.422  63.452  1.00  0.00     0.000 C 
BRANCH   3   4
ATOM      4  C   UNL     1      20.892   1.399  64.582  1.00  0.00     0.000 C 
BRANCH   4   5
ATOM      5  C   UNL     1      21.182   2.884  64.299  1.00  0.00     0.000 C 
BRANCH   5   6
ATOM      6  C   UNL     1      22.590   3.365  64.705  1.00  0.00     0.000 C 
BRANCH   6   7
ATOM      7  C   UNL     1      23.163   2.651  65.947  1.00  0.00     0.000 C 
BRANCH   7   8
ATOM      8  C   UNL     1      24.568   3.144  66.323  1.00  0.00     0.000 C 
BRANCH   8   9
ATOM      9  C   UNL     1      25.420   3.378  65.069  1.00  0.00     0.000 C 
BRANCH   9  10
ATOM     10  C   UNL     1      26.338   2.181  64.792  1.00  0.00     0.000 C 
BRANCH  10  11
ATOM     11  C   UNL     1      26.148   1.660  63.360  1.00  0.00     0.000 C 
BRANCH  11  12
ATOM     12  C   UNL     1      25.687   2.753  62.383  1.00  0.00     0.006 C 
BRANCH  12  13
ATOM     13  C   UNL     1      24.269   2.510  61.847  1.00  0.00     0.053 C 
BRANCH  13  14
ATOM     14  C   UNL     1      23.680   3.780  61.316  1.00  0.00     0.041 C 
ATOM     15  O   UNL     1      23.213   3.822  60.146  1.00  0.00    -0.550 OA
ATOM     16  O   UNL     1      23.633   4.914  62.119  1.00  0.00    -0.550 OA
ENDBRANCH  13  14
ENDBRANCH  12  13
ENDBRANCH  11  12
ENDBRANCH  10  11
ENDBRANCH   9  10
ENDBRANCH   8   9
ENDBRANCH   7   8
ENDBRANCH   6   7
ENDBRANCH   5   6
ENDBRANCH   4   5
ENDBRANCH   3   4
ENDBRANCH   2   3
ENDBRANCH   1   2
BRANCH   1  17
ATOM     17  C   UNL     1      21.229  -1.560  61.421  1.00  0.00     0.000 C 
BRANCH  17  18
ATOM     18  C   UNL     1      20.992  -2.600  60.310  1.00  0.00     0.000 C 
BRANCH  18  19
ATOM     19  C   UNL     1      22.299  -3.196  59.759  1.00  0.00     0.000 C 
BRANCH  19  20
ATOM     20  C   UNL     1      22.772  -2.498  58.473  1.00  0.00     0.000 C 
BRANCH  20  21
ATOM     21  C   UNL     1      24.172  -2.945  58.026  1.00  0.00     0.000 C 
BRANCH  21  22
ATOM     22  C   UNL     1      24.902  -3.668  59.167  1.00  0.00    -0.000 C 
BRANCH  22  23
ATOM     23  C   UNL     1      26.401  -3.330  59.231  1.00  0.00    -0.000 C 
BRANCH  23  24
ATOM     24  C   UNL     1      26.661  -1.838  59.501  1.00  0.00    -0.000 C 
BRANCH  24  25
ATOM     25  C   UNL     1      26.484  -1.470  60.983  1.00  0.00    -0.000 C 
BRANCH  25  26
ATOM     26  C   UNL     1      25.084  -0.917  61.288  1.00  0.00    -0.000 C 
BRANCH  26  27
ATOM     27  C   UNL     1      24.435  -1.674  62.457  1.00  0.00    -0.000 C 
BRANCH  27  28
ATOM     28  C   UNL     1      24.858  -3.150  62.516  1.00  0.00    -0.000 C 
BRANCH  28  29
ATOM     29  C   UNL     1      23.662  -4.101  62.671  1.00  0.00    -0.003 C 
ATOM     30  C   UNL     1      23.197  -4.165  64.124  1.00  0.00     0.004 C 
ENDBRANCH  28  29
ENDBRANCH  27  28
ENDBRANCH  26  27
ENDBRANCH  25  26
ENDBRANCH  24  25
ENDBRANCH  23  24
ENDBRANCH  22  23
ENDBRANCH  21  22
ENDBRANCH  20  21
ENDBRANCH  19  20
ENDBRANCH  18  19
ENDBRANCH  17  18
ENDBRANCH   1  17
TORSDOF 26
ENDMDL
MODEL 4
REMARK VINA RESULT:    -4.758      2.641      9.227
REMARK INTER + INTRA:         -14.947
REMARK INTER:                 -12.326
REMARK INTRA:                  -2.621
REMARK UNBOUND:                -2.957
REMARK SMILES CCCCCCCCCCCCCCCCCCCCCCCCCCCC(=O)[O-]
REMARK SMILES IDX 15 1 16 2 17 3 18 4 19 5 20 6 21 7 22 8 23 9 24 10 25 11
REMARK SMILES IDX 26 12 27 13 28 14 29 15 30 16 14 17 13 18 12 19 11 20 10 21
REMARK SMILES IDX 9 22 8 23 7 24 6 25 5 26 4 27 3 28 2 29 1 30
REMARK H PARENT
REMARK Flexibility Score: inf
ROOT
ATOM      1  C   UNL     1      23.771  -3.316  62.700  1.00  0.00     0.000 C 
ENDROOT
BRANCH   1   2
ATOM      2  C   UNL     1      25.229  -3.246  62.212  1.00  0.00     0.000 C 
BRANCH   2   3
ATOM      3  C   UNL     1      25.412  -3.780  60.780  1.00  0.00     0.000 C 
BRANCH   3   4
ATOM      4  C   UNL     1      25.470  -2.705  59.674  1.00  0.00     0.000 C 
BRANCH   4   5
ATOM      5  C   UNL     1      24.972  -3.157  58.289  1.00  0.00     0.000 C 
BRANCH   5   6
ATOM      6  C   UNL     1      23.461  -2.976  58.045  1.00  0.00     0.000 C 
BRANCH   6   7
ATOM      7  C   UNL     1      23.106  -2.518  56.615  1.00  0.00     0.000 C 
BRANCH   7   8
ATOM      8  C   UNL     1      23.457  -3.566  55.549  1.00  0.00     0.000 C 
BRANCH   8   9
ATOM      9  C   UNL     1      23.279  -2.993  54.137  1.00  0.00     0.000 C 
BRANCH   9  10
ATOM     10  C   UNL     1      21.947  -2.245  54.007  1.00  0.00     0.000 C 
BRANCH  10  11
ATOM     11  C   UNL     1      21.744  -1.723  52.577  1.00  0.00     0.000 C 
BRANCH  11  12
ATOM     12  C   UNL     1      20.437  -0.934  52.409  1.00  0.00     0.006 C 
BRANCH  12  13
ATOM     13  C   UNL     1      19.654  -0.797  53.723  1.00  0.00     0.053 C 
BRANCH  13  14
ATOM     14  C   UNL     1      18.409   0.009  53.515  1.00  0.00     0.041 C 
ATOM     15  O   UNL     1      17.917   0.672  54.467  1.00  0.00    -0.550 OA
ATOM     16  O   UNL     1      17.802   0.040  52.265  1.00  0.00    -0.550 OA
ENDBRANCH  13  14
ENDBRANCH  12  13
ENDBRANCH  11  12
ENDBRANCH  10  11
ENDBRANCH   9  10
ENDBRANCH   8   9
ENDBRANCH   7   8
ENDBRANCH   6   7
ENDBRANCH   5   6
ENDBRANCH   4   5
ENDBRANCH   3   4
ENDBRANCH   2   3
ENDBRANCH   1   2
BRANCH   1  17
ATOM     17  C   UNL     1      22.748  -3.298  61.548  1.00  0.00     0.000 C 
BRANCH  17  18
ATOM     18  C   UNL     1      22.191  -1.910  61.181  1.00  0.00     0.000 C 
BRANCH  18  19
ATOM     19  C   UNL     1      22.072  -0.972  62.395  1.00  0.00     0.000 C 
BRANCH  19  20
ATOM     20  C   UNL     1      22.123   0.514  62.002  1.00  0.00     0.000 C 
BRANCH  20  21
ATOM     21  C   UNL     1      21.129   1.379  62.791  1.00  0.00     0.000 C 
BRANCH  21  22
ATOM     22  C   UNL     1      21.851   2.546  63.480  1.00  0.00    -0.000 C 
BRANCH  22  23
ATOM     23  C   UNL     1      21.870   2.421  65.012  1.00  0.00    -0.000 C 
BRANCH  23  24
ATOM     24  C   UNL     1      23.256   2.714  65.613  1.00  0.00    -0.000 C 
BRANCH  24  25
ATOM     25  C   UNL     1      23.971   3.874  64.902  1.00  0.00    -0.000 C 
BRANCH  25  26
ATOM     26  C   UNL     1      25.373   3.486  64.408  1.00  0.00    -0.000 C 
BRANCH  26  27
ATOM     27  C   UNL     1      25.488   3.659  62.886  1.00  0.00    -0.000 C 
BRANCH  27  28
ATOM     28  C   UNL     1      25.262   2.346  62.121  1.00  0.00    -0.000 C 
BRANCH  28  29
ATOM     29  C   UNL     1      25.640   1.108  62.947  1.00  0.00    -0.003 C 
ATOM     30  C   UNL     1      25.756  -0.129  62.060  1.00  0.00     0.004 C 
ENDBRANCH  28  29
ENDBRANCH  27  28
ENDBRANCH  26  27
ENDBRANCH  25  26
ENDBRANCH  24  25
ENDBRANCH  23  24
ENDBRANCH  22  23
ENDBRANCH  21  22
ENDBRANCH  20  21
ENDBRANCH  19  20
ENDBRANCH  18  19
ENDBRANCH  17  18
ENDBRANCH   1  17
TORSDOF 26
ENDMDL
MODEL 5
REMARK VINA RESULT:    -4.732      2.596      8.733
REMARK INTER + INTRA:         -14.882
REMARK INTER:                 -12.388
REMARK INTRA:                  -2.494
REMARK UNBOUND:                -2.957
REMARK SMILES CCCCCCCCCCCCCCCCCCCCCCCCCCCC(=O)[O-]
REMARK SMILES IDX 15 1 16 2 17 3 18 4 19 5 20 6 21 7 22 8 23 9 24 10 25 11
REMARK SMILES IDX 26 12 27 13 28 14 29 15 30 16 14 17 13 18 12 19 11 20 10 21
REMARK SMILES IDX 9 22 8 23 7 24 6 25 5 26 4 27 3 28 2 29 1 30
REMARK H PARENT
REMARK Flexibility Score: inf
ROOT
ATOM      1  C   UNL     1      21.016   0.362  62.312  1.00  0.00     0.000 C 
ENDROOT
BRANCH   1   2
ATOM      2  C   UNL     1      21.019  -0.404  60.978  1.00  0.00     0.000 C 
BRANCH   2   3
ATOM      3  C   UNL     1      21.419  -1.883  61.132  1.00  0.00     0.000 C 
BRANCH   3   4
ATOM      4  C   UNL     1      21.424  -2.708  59.827  1.00  0.00     0.000 C 
BRANCH   4   5
ATOM      5  C   UNL     1      22.747  -2.688  59.040  1.00  0.00     0.000 C 
BRANCH   5   6
ATOM      6  C   UNL     1      22.610  -2.369  57.538  1.00  0.00     0.000 C 
BRANCH   6   7
ATOM      7  C   UNL     1      23.659  -3.071  56.649  1.00  0.00     0.000 C 
BRANCH   7   8
ATOM      8  C   UNL     1      23.150  -3.341  55.226  1.00  0.00     0.000 C 
BRANCH   8   9
ATOM      9  C   UNL     1      22.596  -2.060  54.590  1.00  0.00     0.000 C 
BRANCH   9  10
ATOM     10  C   UNL     1      22.117  -2.316  53.156  1.00  0.00     0.000 C 
BRANCH  10  11
ATOM     11  C   UNL     1      21.204  -1.181  52.668  1.00  0.00     0.000 C 
BRANCH  11  12
ATOM     12  C   UNL     1      19.907  -1.066  53.484  1.00  0.00     0.006 C 
BRANCH  12  13
ATOM     13  C   UNL     1      18.778  -0.373  52.708  1.00  0.00     0.053 C 
BRANCH  13  14
ATOM     14  C   UNL     1      17.866   0.359  53.643  1.00  0.00     0.041 C 
ATOM     15  O   UNL     1      16.680   0.613  53.303  1.00  0.00    -0.550 OA
ATOM     16  O   UNL     1      18.323   0.748  54.897  1.00  0.00    -0.550 OA
ENDBRANCH  13  14
ENDBRANCH  12  13
ENDBRANCH  11  12
ENDBRANCH  10  11
ENDBRANCH   9  10
ENDBRANCH   8   9
ENDBRANCH   7   8
ENDBRANCH   6   7
ENDBRANCH   5   6
ENDBRANCH   4   5
ENDBRANCH   3   4
ENDBRANCH   2   3
ENDBRANCH   1   2
BRANCH   1  17
ATOM     17  C   UNL     1      22.133   1.419  62.404  1.00  0.00     0.000 C 
BRANCH  17  18
ATOM     18  C   UNL     1      21.828   2.625  63.313  1.00  0.00     0.000 C 
BRANCH  18  19
ATOM     19  C   UNL     1      21.623   2.228  64.785  1.00  0.00     0.000 C 
BRANCH  19  20
ATOM     20  C   UNL     1      22.812   2.625  65.675  1.00  0.00     0.000 C 
BRANCH  20  21
ATOM     21  C   UNL     1      23.825   3.530  64.959  1.00  0.00     0.000 C 
BRANCH  21  22
ATOM     22  C   UNL     1      25.258   3.198  65.398  1.00  0.00    -0.000 C 
BRANCH  22  23
ATOM     23  C   UNL     1      26.069   2.478  64.308  1.00  0.00    -0.000 C 
BRANCH  23  24
ATOM     24  C   UNL     1      25.615   2.854  62.887  1.00  0.00    -0.000 C 
BRANCH  24  25
ATOM     25  C   UNL     1      25.223   1.625  62.052  1.00  0.00    -0.000 C 
BRANCH  25  26
ATOM     26  C   UNL     1      25.946   0.349  62.508  1.00  0.00    -0.000 C 
BRANCH  26  27
ATOM     27  C   UNL     1      25.621  -0.831  61.579  1.00  0.00    -0.000 C 
BRANCH  27  28
ATOM     28  C   UNL     1      24.817  -1.936  62.282  1.00  0.00    -0.000 C 
BRANCH  28  29
ATOM     29  C   UNL     1      25.245  -3.346  61.849  1.00  0.00    -0.003 C 
ATOM     30  C   UNL     1      25.889  -3.323  60.466  1.00  0.00     0.004 C 
ENDBRANCH  28  29
ENDBRANCH  27  28
ENDBRANCH  26  27
ENDBRANCH  25  26
ENDBRANCH  24  25
ENDBRANCH  23  24
ENDBRANCH  22  23
ENDBRANCH  21  22
ENDBRANCH  20  21
ENDBRANCH  19  20
ENDBRANCH  18  19
ENDBRANCH  17  18
ENDBRANCH   1  17
TORSDOF 26
ENDMDL
MODEL 6
REMARK VINA RESULT:    -4.718      4.548      7.402
REMARK INTER + INTRA:         -14.847
REMARK INTER:                 -12.269
REMARK INTRA:                  -2.578
REMARK UNBOUND:                -2.957
REMARK SMILES CCCCCCCCCCCCCCCCCCCCCCCCCCCC(=O)[O-]
REMARK SMILES IDX 15 1 16 2 17 3 18 4 19 5 20 6 21 7 22 8 23 9 24 10 25 11
REMARK SMILES IDX 26 12 27 13 28 14 29 15 30 16 14 17 13 18 12 19 11 20 10 21
REMARK SMILES IDX 9 22 8 23 7 24 6 25 5 26 4 27 3 28 2 29 1 30
REMARK H PARENT
REMARK Flexibility Score: inf
ROOT
ATOM      1  C   UNL     1      25.838   1.269  62.801  1.00  0.00     0.000 C 
ENDROOT
BRANCH   1   2
ATOM      2  C   UNL     1      25.491   2.696  62.341  1.00  0.00     0.000 C 
BRANCH   2   3
ATOM      3  C   UNL     1      25.652   3.745  63.458  1.00  0.00     0.000 C 
BRANCH   3   4
ATOM      4  C   UNL     1      24.512   3.784  64.499  1.00  0.00     0.000 C 
BRANCH   4   5
ATOM      5  C   UNL     1      24.799   3.046  65.819  1.00  0.00     0.000 C 
BRANCH   5   6
ATOM      6  C   UNL     1      23.557   2.723  66.672  1.00  0.00     0.000 C 
BRANCH   6   7
ATOM      7  C   UNL     1      23.626   3.272  68.113  1.00  0.00     0.000 C 
BRANCH   7   8
ATOM      8  C   UNL     1      22.513   2.719  69.016  1.00  0.00     0.000 C 
BRANCH   8   9
ATOM      9  C   UNL     1      22.999   2.584  70.465  1.00  0.00     0.000 C 
BRANCH   9  10
ATOM     10  C   UNL     1      21.832   2.296  71.416  1.00  0.00     0.000 C 
BRANCH  10  11
ATOM     11  C   UNL     1      21.220   0.915  71.136  1.00  0.00     0.000 C 
BRANCH  11  12
ATOM     12  C   UNL     1      19.737   0.830  71.527  1.00  0.00     0.006 C 
BRANCH  12  13
ATOM     13  C   UNL     1      18.870   0.193  70.431  1.00  0.00     0.053 C 
BRANCH  13  14
ATOM     14  C   UNL     1      17.729  -0.566  71.033  1.00  0.00     0.041 C 
ATOM     15  O   UNL     1      16.944   0.002  71.838  1.00  0.00    -0.550 OA
ATOM     16  O   UNL     1      17.523  -1.898  70.692  1.00  0.00    -0.550 OA
ENDBRANCH  13  14
ENDBRANCH  12  13
ENDBRANCH  11  12
ENDBRANCH  10  11
ENDBRANCH   9  10
ENDBRANCH   8   9
ENDBRANCH   7   8
ENDBRANCH   6   7
ENDBRANCH   5   6
ENDBRANCH   4   5
ENDBRANCH   3   4
ENDBRANCH   2   3
ENDBRANCH   1   2
BRANCH   1  17
ATOM     17  C   UNL     1      25.155   0.179  61.952  1.00  0.00     0.000 C 
BRANCH  17  18
ATOM     18  C   UNL     1      25.931  -1.146  61.830  1.00  0.00     0.000 C 
BRANCH  18  19
ATOM     19  C   UNL     1      26.194  -1.554  60.371  1.00  0.00     0.000 C 
BRANCH  19  20
ATOM     20  C   UNL     1      25.785  -3.008  60.080  1.00  0.00     0.000 C 
BRANCH  20  21
ATOM     21  C   UNL     1      25.514  -3.823  61.354  1.00  0.00     0.000 C 
BRANCH  21  22
ATOM     22  C   UNL     1      24.121  -4.467  61.302  1.00  0.00    -0.000 C 
BRANCH  22  23
ATOM     23  C   UNL     1      22.994  -3.494  61.688  1.00  0.00    -0.000 C 
BRANCH  23  24
ATOM     24  C   UNL     1      22.175  -3.026  60.473  1.00  0.00    -0.000 C 
BRANCH  24  25
ATOM     25  C   UNL     1      21.393  -1.733  60.755  1.00  0.00    -0.000 C 
BRANCH  25  26
ATOM     26  C   UNL     1      21.974  -0.940  61.935  1.00  0.00    -0.000 C 
BRANCH  26  27
ATOM     27  C   UNL     1      21.092   0.272  62.272  1.00  0.00    -0.000 C 
BRANCH  27  28
ATOM     28  C   UNL     1      21.895   1.576  62.391  1.00  0.00    -0.000 C 
BRANCH  28  29
ATOM     29  C   UNL     1      21.506   2.400  63.627  1.00  0.00    -0.003 C 
ATOM     30  C   UNL     1      20.975   1.501  64.740  1.00  0.00     0.004 C 
ENDBRANCH  28  29
ENDBRANCH  27  28
ENDBRANCH  26  27
ENDBRANCH  25  26
ENDBRANCH  24  25
ENDBRANCH  23  24
ENDBRANCH  22  23
ENDBRANCH  21  22
ENDBRANCH  20  21
ENDBRANCH  19  20
ENDBRANCH  18  19
ENDBRANCH  17  18
ENDBRANCH   1  17
TORSDOF 26
ENDMDL
MODEL 7
REMARK VINA RESULT:    -4.703      4.616     10.429
REMARK INTER + INTRA:         -14.808
REMARK INTER:                 -12.891
REMARK INTRA:                  -1.917
REMARK UNBOUND:                -2.957
REMARK SMILES CCCCCCCCCCCCCCCCCCCCCCCCCCCC(=O)[O-]
REMARK SMILES IDX 15 1 16 2 17 3 18 4 19 5 20 6 21 7 22 8 23 9 24 10 25 11
REMARK SMILES IDX 26 12 27 13 28 14 29 15 30 16 14 17 13 18 12 19 11 20 10 21
REMARK SMILES IDX 9 22 8 23 7 24 6 25 5 26 4 27 3 28 2 29 1 30
REMARK H PARENT
REMARK Flexibility Score: inf
ROOT
ATOM      1  C   UNL     1      22.831   3.740  63.734  1.00  0.00     0.000 C 
ENDROOT
BRANCH   1   2
ATOM      2  C   UNL     1      22.867   2.839  62.486  1.00  0.00     0.000 C 
BRANCH   2   3
ATOM      3  C   UNL     1      24.206   2.912  61.729  1.00  0.00     0.000 C 
BRANCH   3   4
ATOM      4  C   UNL     1      25.470   2.736  62.599  1.00  0.00     0.000 C 
BRANCH   4   5
ATOM      5  C   UNL     1      25.958   1.286  62.764  1.00  0.00     0.000 C 
BRANCH   5   6
ATOM      6  C   UNL     1      25.125   0.225  62.019  1.00  0.00     0.000 C 
BRANCH   6   7
ATOM      7  C   UNL     1      25.774  -1.175  61.987  1.00  0.00     0.000 C 
BRANCH   7   8
ATOM      8  C   UNL     1      26.047  -1.674  60.560  1.00  0.00     0.000 C 
BRANCH   8   9
ATOM      9  C   UNL     1      25.706  -3.164  60.426  1.00  0.00     0.000 C 
BRANCH   9  10
ATOM     10  C   UNL     1      25.091  -3.470  59.056  1.00  0.00     0.000 C 
BRANCH  10  11
ATOM     11  C   UNL     1      23.687  -2.858  58.932  1.00  0.00     0.000 C 
BRANCH  11  12
ATOM     12  C   UNL     1      22.655  -3.544  59.840  1.00  0.00     0.006 C 
BRANCH  12  13
ATOM     13  C   UNL     1      21.536  -2.594  60.290  1.00  0.00     0.053 C 
BRANCH  13  14
ATOM     14  C   UNL     1      21.912  -1.898  61.561  1.00  0.00     0.041 C 
ATOM     15  O   UNL     1      21.432  -0.764  61.829  1.00  0.00    -0.550 OA
ATOM     16  O   UNL     1      22.781  -2.510  62.458  1.00  0.00    -0.550 OA
ENDBRANCH  13  14
ENDBRANCH  12  13
ENDBRANCH  11  12
ENDBRANCH  10  11
ENDBRANCH   9  10
ENDBRANCH   8   9
ENDBRANCH   7   8
ENDBRANCH   6   7
ENDBRANCH   5   6
ENDBRANCH   4   5
ENDBRANCH   3   4
ENDBRANCH   2   3
ENDBRANCH   1   2
BRANCH   1  17
ATOM     17  C   UNL     1      22.571   2.958  65.035  1.00  0.00     0.000 C 
BRANCH  17  18
ATOM     18  C   UNL     1      23.714   2.995  66.068  1.00  0.00     0.000 C 
BRANCH  18  19
ATOM     19  C   UNL     1      23.284   2.487  67.455  1.00  0.00     0.000 C 
BRANCH  19  20
ATOM     20  C   UNL     1      23.328   3.587  68.528  1.00  0.00     0.000 C 
BRANCH  20  21
ATOM     21  C   UNL     1      23.352   3.029  69.960  1.00  0.00     0.000 C 
BRANCH  21  22
ATOM     22  C   UNL     1      22.139   2.122  70.211  1.00  0.00    -0.000 C 
BRANCH  22  23
ATOM     23  C   UNL     1      21.841   1.917  71.706  1.00  0.00    -0.000 C 
BRANCH  23  24
ATOM     24  C   UNL     1      20.606   1.033  71.947  1.00  0.00    -0.000 C 
BRANCH  24  25
ATOM     25  C   UNL     1      19.815   0.764  70.657  1.00  0.00    -0.000 C 
BRANCH  25  26
ATOM     26  C   UNL     1      18.512  -0.008  70.917  1.00  0.00    -0.000 C 
BRANCH  26  27
ATOM     27  C   UNL     1      18.005  -0.681  69.632  1.00  0.00    -0.000 C 
BRANCH  27  28
ATOM     28  C   UNL     1      17.405  -2.072  69.888  1.00  0.00    -0.000 C 
BRANCH  28  29
ATOM     29  C   UNL     1      15.979  -2.005  70.455  1.00  0.00    -0.003 C 
ATOM     30  C   UNL     1      15.898  -2.683  71.819  1.00  0.00     0.004 C 
ENDBRANCH  28  29
ENDBRANCH  27  28
ENDBRANCH  26  27
ENDBRANCH  25  26
ENDBRANCH  24  25
ENDBRANCH  23  24
ENDBRANCH  22  23
ENDBRANCH  21  22
ENDBRANCH  20  21
ENDBRANCH  19  20
ENDBRANCH  18  19
ENDBRANCH  17  18
ENDBRANCH   1  17
TORSDOF 26
ENDMDL
MODEL 8
REMARK VINA RESULT:    -4.614      2.997      5.411
REMARK INTER + INTRA:         -14.584
REMARK INTER:                 -10.145
REMARK INTRA:                  -4.439
REMARK UNBOUND:                -2.957
REMARK SMILES CCCCCCCCCCCCCCCCCCCCCCCCCCCC(=O)[O-]
REMARK SMILES IDX 15 1 16 2 17 3 18 4 19 5 20 6 21 7 22 8 23 9 24 10 25 11
REMARK SMILES IDX 26 12 27 13 28 14 29 15 30 16 14 17 13 18 12 19 11 20 10 21
REMARK SMILES IDX 9 22 8 23 7 24 6 25 5 26 4 27 3 28 2 29 1 30
REMARK H PARENT
REMARK Flexibility Score: inf
ROOT
ATOM      1  C   UNL     1      21.523   0.281  63.357  1.00  0.00     0.000 C 
ENDROOT
BRANCH   1   2
ATOM      2  C   UNL     1      20.996   1.383  64.294  1.00  0.00     0.000 C 
BRANCH   2   3
ATOM      3  C   UNL     1      21.106   2.794  63.687  1.00  0.00     0.000 C 
BRANCH   3   4
ATOM      4  C   UNL     1      22.545   3.317  63.485  1.00  0.00     0.000 C 
BRANCH   4   5
ATOM      5  C   UNL     1      23.005   3.426  62.020  1.00  0.00     0.000 C 
BRANCH   5   6
ATOM      6  C   UNL     1      24.467   3.012  61.760  1.00  0.00     0.000 C 
BRANCH   6   7
ATOM      7  C   UNL     1      24.750   1.516  62.016  1.00  0.00     0.000 C 
BRANCH   7   8
ATOM      8  C   UNL     1      25.768   1.286  63.143  1.00  0.00     0.000 C 
BRANCH   8   9
ATOM      9  C   UNL     1      26.281   2.620  63.699  1.00  0.00     0.000 C 
BRANCH   9  10
ATOM     10  C   UNL     1      26.034   2.722  65.209  1.00  0.00     0.000 C 
BRANCH  10  11
ATOM     11  C   UNL     1      24.538   2.587  65.533  1.00  0.00     0.000 C 
BRANCH  11  12
ATOM     12  C   UNL     1      24.122   3.392  66.774  1.00  0.00     0.006 C 
BRANCH  12  13
ATOM     13  C   UNL     1      23.108   2.645  67.653  1.00  0.00     0.053 C 
BRANCH  13  14
ATOM     14  C   UNL     1      23.234   3.070  69.083  1.00  0.00     0.041 C 
ATOM     15  O   UNL     1      23.819   4.147  69.375  1.00  0.00    -0.550 OA
ATOM     16  O   UNL     1      22.691   2.283  70.093  1.00  0.00    -0.550 OA
ENDBRANCH  13  14
ENDBRANCH  12  13
ENDBRANCH  11  12
ENDBRANCH  10  11
ENDBRANCH   9  10
ENDBRANCH   8   9
ENDBRANCH   7   8
ENDBRANCH   6   7
ENDBRANCH   5   6
ENDBRANCH   4   5
ENDBRANCH   3   4
ENDBRANCH   2   3
ENDBRANCH   1   2
BRANCH   1  17
ATOM     17  C   UNL     1      20.713   0.159  62.053  1.00  0.00     0.000 C 
BRANCH  17  18
ATOM     18  C   UNL     1      21.548   0.017  60.766  1.00  0.00     0.000 C 
BRANCH  18  19
ATOM     19  C   UNL     1      21.002  -1.060  59.814  1.00  0.00     0.000 C 
BRANCH  19  20
ATOM     20  C   UNL     1      21.152  -2.482  60.380  1.00  0.00     0.000 C 
BRANCH  20  21
ATOM     21  C   UNL     1      22.224  -3.309  59.654  1.00  0.00     0.000 C 
BRANCH  21  22
ATOM     22  C   UNL     1      22.869  -2.492  58.525  1.00  0.00    -0.000 C 
BRANCH  22  23
ATOM     23  C   UNL     1      24.204  -3.083  58.042  1.00  0.00    -0.000 C 
BRANCH  23  24
ATOM     24  C   UNL     1      25.145  -3.446  59.203  1.00  0.00    -0.000 C 
BRANCH  24  25
ATOM     25  C   UNL     1      26.212  -2.368  59.453  1.00  0.00    -0.000 C 
BRANCH  25  26
ATOM     26  C   UNL     1      25.934  -1.548  60.722  1.00  0.00    -0.000 C 
BRANCH  26  27
ATOM     27  C   UNL     1      25.522  -2.461  61.888  1.00  0.00    -0.000 C 
BRANCH  27  28
ATOM     28  C   UNL     1      24.149  -2.093  62.472  1.00  0.00    -0.000 C 
BRANCH  28  29
ATOM     29  C   UNL     1      23.399  -3.312  63.029  1.00  0.00    -0.003 C 
ATOM     30  C   UNL     1      23.979  -4.612  62.480  1.00  0.00     0.004 C 
ENDBRANCH  28  29
ENDBRANCH  27  28
ENDBRANCH  26  27
ENDBRANCH  25  26
ENDBRANCH  24  25
ENDBRANCH  23  24
ENDBRANCH  22  23
ENDBRANCH  21  22
ENDBRANCH  20  21
ENDBRANCH  19  20
ENDBRANCH  18  19
ENDBRANCH  17  18
ENDBRANCH   1  17
TORSDOF 26
ENDMDL
MODEL 9
REMARK VINA RESULT:    -4.593      2.387      5.190
REMARK INTER + INTRA:         -14.531
REMARK INTER:                 -12.769
REMARK INTRA:                  -1.762
REMARK UNBOUND:                -2.957
REMARK SMILES CCCCCCCCCCCCCCCCCCCCCCCCCCCC(=O)[O-]
REMARK SMILES IDX 15 1 16 2 17 3 18 4 19 5 20 6 21 7 22 8 23 9 24 10 25 11
REMARK SMILES IDX 26 12 27 13 28 14 29 15 30 16 14 17 13 18 12 19 11 20 10 21
REMARK SMILES IDX 9 22 8 23 7 24 6 25 5 26 4 27 3 28 2 29 1 30
REMARK H PARENT
REMARK Flexibility Score: inf
ROOT
ATOM      1  C   UNL     1      22.386  -2.852  60.094  1.00  0.00     0.000 C 
ENDROOT
BRANCH   1   2
ATOM      2  C   UNL     1      22.919  -2.135  61.348  1.00  0.00     0.000 C 
BRANCH   2   3
ATOM      3  C   UNL     1      23.935  -2.980  62.139  1.00  0.00     0.000 C 
BRANCH   3   4
ATOM      4  C   UNL     1      25.417  -2.608  61.922  1.00  0.00     0.000 C 
BRANCH   4   5
ATOM      5  C   UNL     1      25.678  -1.142  61.533  1.00  0.00     0.000 C 
BRANCH   5   6
ATOM      6  C   UNL     1      25.218  -0.098  62.570  1.00  0.00     0.000 C 
BRANCH   6   7
ATOM      7  C   UNL     1      25.676   1.342  62.257  1.00  0.00     0.000 C 
BRANCH   7   8
ATOM      8  C   UNL     1      25.794   2.217  63.513  1.00  0.00     0.000 C 
BRANCH   8   9
ATOM      9  C   UNL     1      25.349   3.656  63.223  1.00  0.00     0.000 C 
BRANCH   9  10
ATOM     10  C   UNL     1      24.262   4.109  64.205  1.00  0.00     0.000 C 
BRANCH  10  11
ATOM     11  C   UNL     1      23.962   3.013  65.238  1.00  0.00     0.000 C 
BRANCH  11  12
ATOM     12  C   UNL     1      22.476   2.624  65.281  1.00  0.00     0.006 C 
BRANCH  12  13
ATOM     13  C   UNL     1      21.732   2.982  63.985  1.00  0.00     0.053 C 
BRANCH  13  14
ATOM     14  C   UNL     1      21.725   1.819  63.042  1.00  0.00     0.041 C 
ATOM     15  O   UNL     1      22.351   1.884  61.951  1.00  0.00    -0.550 OA
ATOM     16  O   UNL     1      21.038   0.657  63.376  1.00  0.00    -0.550 OA
ENDBRANCH  13  14
ENDBRANCH  12  13
ENDBRANCH  11  12
ENDBRANCH  10  11
ENDBRANCH   9  10
ENDBRANCH   8   9
ENDBRANCH   7   8
ENDBRANCH   6   7
ENDBRANCH   5   6
ENDBRANCH   4   5
ENDBRANCH   3   4
ENDBRANCH   2   3
ENDBRANCH   1   2
BRANCH   1  17
ATOM     17  C   UNL     1      23.458  -3.695  59.379  1.00  0.00     0.000 C 
BRANCH  17  18
ATOM     18  C   UNL     1      24.188  -2.992  58.219  1.00  0.00     0.000 C 
BRANCH  18  19
ATOM     19  C   UNL     1      23.270  -2.714  57.016  1.00  0.00     0.000 C 
BRANCH  19  20
ATOM     20  C   UNL     1      23.499  -3.699  55.858  1.00  0.00     0.000 C 
BRANCH  20  21
ATOM     21  C   UNL     1      23.459  -3.025  54.478  1.00  0.00     0.000 C 
BRANCH  21  22
ATOM     22  C   UNL     1      22.127  -2.289  54.271  1.00  0.00    -0.000 C 
BRANCH  22  23
ATOM     23  C   UNL     1      21.776  -2.088  52.787  1.00  0.00    -0.000 C 
BRANCH  23  24
ATOM     24  C   UNL     1      20.948  -0.815  52.542  1.00  0.00    -0.000 C 
BRANCH  24  25
ATOM     25  C   UNL     1      19.647  -0.794  53.360  1.00  0.00    -0.000 C 
BRANCH  25  26
ATOM     26  C   UNL     1      18.471  -0.187  52.580  1.00  0.00    -0.000 C 
BRANCH  26  27
ATOM     27  C   UNL     1      17.470   0.488  53.530  1.00  0.00    -0.000 C 
BRANCH  27  28
ATOM     28  C   UNL     1      17.018   1.870  53.031  1.00  0.00    -0.000 C 
BRANCH  28  29
ATOM     29  C   UNL     1      16.075   2.575  54.017  1.00  0.00    -0.003 C 
ATOM     30  C   UNL     1      16.287   2.064  55.440  1.00  0.00     0.004 C 
ENDBRANCH  28  29
ENDBRANCH  27  28
ENDBRANCH  26  27
ENDBRANCH  25  26
ENDBRANCH  24  25
ENDBRANCH  23  24
ENDBRANCH  22  23
ENDBRANCH  21  22
ENDBRANCH  20  21
ENDBRANCH  19  20
ENDBRANCH  18  19
ENDBRANCH  17  18
ENDBRANCH   1  17
TORSDOF 26
ENDMDL
