MODEL 1
REMARK VINA RESULT:    -4.055      0.000      0.000
REMARK INTER + INTRA:          -9.681
REMARK INTER:                  -7.373
REMARK INTRA:                  -2.308
REMARK UNBOUND:                -2.308
REMARK SMILES CCCCCCCCCCCCCCCC(=O)[O-]
REMARK SMILES IDX 9 1 10 2 11 3 12 4 13 5 14 6 15 7 16 8 17 9 18 10 8 11 7 12
REMARK SMILES IDX 6 13 5 14 4 15 3 16 2 17 1 18
REMARK H PARENT
REMARK Flexibility Score: inf
ROOT
ATOM      1  C   UNL     1     115.181 120.888 131.279  1.00  0.00     0.000 C 
ENDROOT
BRANCH   1   2
ATOM      2  C   UNL     1     114.936 122.344 131.694  1.00  0.00     0.000 C 
BRANCH   2   3
ATOM      3  C   UNL     1     116.193 123.199 131.476  1.00  0.00     0.000 C 
BRANCH   3   4
ATOM      4  C   UNL     1     116.982 122.798 130.217  1.00  0.00     0.000 C 
BRANCH   4   5
ATOM      5  C   UNL     1     116.926 123.814 129.062  1.00  0.00     0.000 C 
BRANCH   5   6
ATOM      6  C   UNL     1     115.659 123.675 128.200  1.00  0.00     0.006 C 
BRANCH   6   7
ATOM      7  C   UNL     1     115.604 122.330 127.462  1.00  0.00     0.053 C 
BRANCH   7   8
ATOM      8  C   UNL     1     114.304 121.622 127.686  1.00  0.00     0.041 C 
ATOM      9  O   UNL     1     113.218 122.257 127.621  1.00  0.00    -0.550 OA
ATOM     10  O   UNL     1     114.289 120.257 127.941  1.00  0.00    -0.550 OA
ENDBRANCH   7   8
ENDBRANCH   6   7
ENDBRANCH   5   6
ENDBRANCH   4   5
ENDBRANCH   3   4
ENDBRANCH   2   3
ENDBRANCH   1   2
BRANCH   1  11
ATOM     11  C   UNL     1     115.135 119.954 132.498  1.00  0.00     0.000 C 
BRANCH  11  12
ATOM     12  C   UNL     1     114.732 120.682 133.790  1.00  0.00    -0.000 C 
BRANCH  12  13
ATOM     13  C   UNL     1     115.913 120.867 134.759  1.00  0.00    -0.000 C 
BRANCH  13  14
ATOM     14  C   UNL     1     116.729 119.577 134.948  1.00  0.00    -0.000 C 
BRANCH  14  15
ATOM     15  C   UNL     1     118.205 119.748 134.549  1.00  0.00    -0.000 C 
BRANCH  15  16
ATOM     16  C   UNL     1     118.476 121.091 133.852  1.00  0.00    -0.000 C 
BRANCH  16  17
ATOM     17  C   UNL     1     119.287 120.933 132.557  1.00  0.00    -0.003 C 
ATOM     18  C   UNL     1     118.735 119.796 131.700  1.00  0.00     0.004 C 
ENDBRANCH  16  17
ENDBRANCH  15  16
ENDBRANCH  14  15
ENDBRANCH  13  14
ENDBRANCH  12  13
ENDBRANCH  11  12
ENDBRANCH   1  11
TORSDOF 14
ENDMDL
MODEL 2
REMARK VINA RESULT:    -4.023      6.017      8.275
REMARK INTER + INTRA:          -9.623
REMARK INTER:                  -7.426
REMARK INTRA:                  -2.197
REMARK UNBOUND:                -2.308
REMARK SMILES CCCCCCCCCCCCCCCC(=O)[O-]
REMARK SMILES IDX 9 1 10 2 11 3 12 4 13 5 14 6 15 7 16 8 17 9 18 10 8 11 7 12
REMARK SMILES IDX 6 13 5 14 4 15 3 16 2 17 1 18
REMARK H PARENT
REMARK Flexibility Score: inf
ROOT
ATOM      1  C   UNL     1     116.822 126.457 128.581  1.00  0.00     0.000 C 
ENDROOT
BRANCH   1   2
ATOM      2  C   UNL     1     117.555 125.754 129.730  1.00  0.00     0.000 C 
BRANCH   2   3
ATOM      3  C   UNL     1     118.067 126.770 130.761  1.00  0.00     0.000 C 
BRANCH   3   4
ATOM      4  C   UNL     1     117.411 128.155 130.617  1.00  0.00     0.000 C 
BRANCH   4   5
ATOM      5  C   UNL     1     118.374 129.297 130.247  1.00  0.00     0.000 C 
BRANCH   5   6
ATOM      6  C   UNL     1     119.814 128.813 130.003  1.00  0.00     0.006 C 
BRANCH   6   7
ATOM      7  C   UNL     1     120.389 129.345 128.683  1.00  0.00     0.053 C 
BRANCH   7   8
ATOM      8  C   UNL     1     120.589 130.828 128.719  1.00  0.00     0.041 C 
ATOM      9  O   UNL     1     121.511 131.326 129.417  1.00  0.00    -0.550 OA
ATOM     10  O   UNL     1     119.774 131.659 127.961  1.00  0.00    -0.550 OA
ENDBRANCH   7   8
ENDBRANCH   6   7
ENDBRANCH   5   6
ENDBRANCH   4   5
ENDBRANCH   3   4
ENDBRANCH   2   3
ENDBRANCH   1   2
BRANCH   1  11
ATOM     11  C   UNL     1     117.466 126.116 127.229  1.00  0.00     0.000 C 
BRANCH  11  12
ATOM     12  C   UNL     1     119.002 126.131 127.280  1.00  0.00    -0.000 C 
BRANCH  12  13
ATOM     13  C   UNL     1     119.626 124.839 126.723  1.00  0.00    -0.000 C 
BRANCH  13  14
ATOM     14  C   UNL     1     118.568 123.797 126.325  1.00  0.00    -0.000 C 
BRANCH  14  15
ATOM     15  C   UNL     1     118.689 122.494 127.134  1.00  0.00    -0.000 C 
BRANCH  15  16
ATOM     16  C   UNL     1     117.400 122.153 127.899  1.00  0.00    -0.000 C 
BRANCH  16  17
ATOM     17  C   UNL     1     116.139 122.692 127.206  1.00  0.00    -0.003 C 
ATOM     18  C   UNL     1     115.089 123.117 128.230  1.00  0.00     0.004 C 
ENDBRANCH  16  17
ENDBRANCH  15  16
ENDBRANCH  14  15
ENDBRANCH  13  14
ENDBRANCH  12  13
ENDBRANCH  11  12
ENDBRANCH   1  11
TORSDOF 14
ENDMDL
MODEL 3
REMARK VINA RESULT:    -3.982      2.911      6.493
REMARK INTER + INTRA:          -9.548
REMARK INTER:                  -7.854
REMARK INTRA:                  -1.694
REMARK UNBOUND:                -2.308
REMARK SMILES CCCCCCCCCCCCCCCC(=O)[O-]
REMARK SMILES IDX 9 1 10 2 11 3 12 4 13 5 14 6 15 7 16 8 17 9 18 10 8 11 7 12
REMARK SMILES IDX 6 13 5 14 4 15 3 16 2 17 1 18
REMARK H PARENT
REMARK Flexibility Score: inf
ROOT
ATOM      1  C   UNL     1     117.374 126.849 129.464  1.00  0.00     0.000 C 
ENDROOT
BRANCH   1   2
ATOM      2  C   UNL     1     117.295 126.204 130.854  1.00  0.00     0.000 C 
BRANCH   2   3
ATOM      3  C   UNL     1     117.434 124.678 130.762  1.00  0.00     0.000 C 
BRANCH   3   4
ATOM      4  C   UNL     1     116.288 123.927 131.463  1.00  0.00     0.000 C 
BRANCH   4   5
ATOM      5  C   UNL     1     116.253 122.408 131.211  1.00  0.00     0.000 C 
BRANCH   5   6
ATOM      6  C   UNL     1     114.860 121.795 131.434  1.00  0.00     0.006 C 
BRANCH   6   7
ATOM      7  C   UNL     1     114.935 120.402 132.074  1.00  0.00     0.053 C 
BRANCH   7   8
ATOM      8  C   UNL     1     115.412 120.464 133.492  1.00  0.00     0.041 C 
ATOM      9  O   UNL     1     114.612 120.771 134.415  1.00  0.00    -0.550 OA
ATOM     10  O   UNL     1     116.731 120.159 133.798  1.00  0.00    -0.550 OA
ENDBRANCH   7   8
ENDBRANCH   6   7
ENDBRANCH   5   6
ENDBRANCH   4   5
ENDBRANCH   3   4
ENDBRANCH   2   3
ENDBRANCH   1   2
BRANCH   1  11
ATOM     11  C   UNL     1     116.788 125.918 128.392  1.00  0.00     0.000 C 
BRANCH  11  12
ATOM     12  C   UNL     1     117.786 125.607 127.265  1.00  0.00    -0.000 C 
BRANCH  12  13
ATOM     13  C   UNL     1     117.554 124.222 126.635  1.00  0.00    -0.000 C 
BRANCH  13  14
ATOM     14  C   UNL     1     117.310 123.128 127.687  1.00  0.00    -0.000 C 
BRANCH  14  15
ATOM     15  C   UNL     1     116.033 122.316 127.410  1.00  0.00    -0.000 C 
BRANCH  15  16
ATOM     16  C   UNL     1     114.759 123.047 127.863  1.00  0.00    -0.000 C 
BRANCH  16  17
ATOM     17  C   UNL     1     113.497 122.183 127.717  1.00  0.00    -0.003 C 
ATOM     18  C   UNL     1     113.373 121.628 126.300  1.00  0.00     0.004 C 
ENDBRANCH  16  17
ENDBRANCH  15  16
ENDBRANCH  14  15
ENDBRANCH  13  14
ENDBRANCH  12  13
ENDBRANCH  11  12
ENDBRANCH   1  11
TORSDOF 14
ENDMDL
MODEL 4
REMARK VINA RESULT:    -3.949      3.204      4.655
REMARK INTER + INTRA:          -9.488
REMARK INTER:                  -6.781
REMARK INTRA:                  -2.708
REMARK UNBOUND:                -2.308
REMARK SMILES CCCCCCCCCCCCCCCC(=O)[O-]
REMARK SMILES IDX 9 1 10 2 11 3 12 4 13 5 14 6 15 7 16 8 17 9 18 10 8 11 7 12
REMARK SMILES IDX 6 13 5 14 4 15 3 16 2 17 1 18
REMARK H PARENT
REMARK Flexibility Score: inf
ROOT
ATOM      1  C   UNL     1     115.467 119.366 129.122  1.00  0.00     0.000 C 
ENDROOT
BRANCH   1   2
ATOM      2  C   UNL     1     115.286 120.479 128.082  1.00  0.00     0.000 C 
BRANCH   2   3
ATOM      3  C   UNL     1     114.627 121.716 128.707  1.00  0.00     0.000 C 
BRANCH   3   4
ATOM      4  C   UNL     1     115.066 123.033 128.043  1.00  0.00     0.000 C 
BRANCH   4   5
ATOM      5  C   UNL     1     116.357 122.944 127.209  1.00  0.00     0.000 C 
BRANCH   5   6
ATOM      6  C   UNL     1     117.236 124.201 127.327  1.00  0.00     0.006 C 
BRANCH   6   7
ATOM      7  C   UNL     1     118.364 124.219 126.287  1.00  0.00     0.053 C 
BRANCH   7   8
ATOM      8  C   UNL     1     119.568 124.960 126.782  1.00  0.00     0.041 C 
ATOM      9  O   UNL     1     119.479 126.177 127.091  1.00  0.00    -0.550 OA
ATOM     10  O   UNL     1     120.781 124.300 126.927  1.00  0.00    -0.550 OA
ENDBRANCH   7   8
ENDBRANCH   6   7
ENDBRANCH   5   6
ENDBRANCH   4   5
ENDBRANCH   3   4
ENDBRANCH   2   3
ENDBRANCH   1   2
BRANCH   1  11
ATOM     11  C   UNL     1     116.885 119.390 129.711  1.00  0.00     0.000 C 
BRANCH  11  12
ATOM     12  C   UNL     1     117.913 120.026 128.762  1.00  0.00    -0.000 C 
BRANCH  12  13
ATOM     13  C   UNL     1     118.694 121.178 129.421  1.00  0.00    -0.000 C 
BRANCH  13  14
ATOM     14  C   UNL     1     118.191 121.497 130.838  1.00  0.00    -0.000 C 
BRANCH  14  15
ATOM     15  C   UNL     1     117.502 122.870 130.925  1.00  0.00    -0.000 C 
BRANCH  15  16
ATOM     16  C   UNL     1     116.174 122.816 131.697  1.00  0.00    -0.000 C 
BRANCH  16  17
ATOM     17  C   UNL     1     116.063 121.578 132.600  1.00  0.00    -0.003 C 
ATOM     18  C   UNL     1     114.720 120.878 132.409  1.00  0.00     0.004 C 
ENDBRANCH  16  17
ENDBRANCH  15  16
ENDBRANCH  14  15
ENDBRANCH  13  14
ENDBRANCH  12  13
ENDBRANCH  11  12
ENDBRANCH   1  11
TORSDOF 14
ENDMDL
MODEL 5
REMARK VINA RESULT:    -3.906      2.810      6.796
REMARK INTER + INTRA:          -9.410
REMARK INTER:                  -7.630
REMARK INTRA:                  -1.781
REMARK UNBOUND:                -2.308
REMARK SMILES CCCCCCCCCCCCCCCC(=O)[O-]
REMARK SMILES IDX 9 1 10 2 11 3 12 4 13 5 14 6 15 7 16 8 17 9 18 10 8 11 7 12
REMARK SMILES IDX 6 13 5 14 4 15 3 16 2 17 1 18
REMARK H PARENT
REMARK Flexibility Score: inf
ROOT
ATOM      1  C   UNL     1     116.846 123.945 131.035  1.00  0.00     0.000 C 
ENDROOT
BRANCH   1   2
ATOM      2  C   UNL     1     116.745 122.489 131.507  1.00  0.00     0.000 C 
BRANCH   2   3
ATOM      3  C   UNL     1     115.282 122.025 131.554  1.00  0.00     0.000 C 
BRANCH   3   4
ATOM      4  C   UNL     1     115.122 120.596 132.102  1.00  0.00     0.000 C 
BRANCH   4   5
ATOM      5  C   UNL     1     114.748 120.508 133.593  1.00  0.00     0.000 C 
BRANCH   5   6
ATOM      6  C   UNL     1     115.895 119.977 134.470  1.00  0.00     0.006 C 
BRANCH   6   7
ATOM      7  C   UNL     1     116.889 121.081 134.854  1.00  0.00     0.053 C 
BRANCH   7   8
ATOM      8  C   UNL     1     118.288 120.741 134.441  1.00  0.00     0.041 C 
ATOM      9  O   UNL     1     119.266 121.146 135.124  1.00  0.00    -0.550 OA
ATOM     10  O   UNL     1     118.512 119.955 133.318  1.00  0.00    -0.550 OA
ENDBRANCH   7   8
ENDBRANCH   6   7
ENDBRANCH   5   6
ENDBRANCH   4   5
ENDBRANCH   3   4
ENDBRANCH   2   3
ENDBRANCH   1   2
BRANCH   1  11
ATOM     11  C   UNL     1     117.609 124.040 129.705  1.00  0.00     0.000 C 
BRANCH  11  12
ATOM     12  C   UNL     1     116.835 124.821 128.630  1.00  0.00    -0.000 C 
BRANCH  12  13
ATOM     13  C   UNL     1     116.253 123.906 127.538  1.00  0.00    -0.000 C 
BRANCH  13  14
ATOM     14  C   UNL     1     116.516 122.417 127.813  1.00  0.00    -0.000 C 
BRANCH  14  15
ATOM     15  C   UNL     1     115.227 121.578 127.803  1.00  0.00    -0.000 C 
BRANCH  15  16
ATOM     16  C   UNL     1     113.973 122.420 128.088  1.00  0.00    -0.000 C 
BRANCH  16  17
ATOM     17  C   UNL     1     112.900 122.271 126.999  1.00  0.00    -0.003 C 
ATOM     18  C   UNL     1     113.434 121.480 125.807  1.00  0.00     0.004 C 
ENDBRANCH  16  17
ENDBRANCH  15  16
ENDBRANCH  14  15
ENDBRANCH  13  14
ENDBRANCH  12  13
ENDBRANCH  11  12
ENDBRANCH   1  11
TORSDOF 14
ENDMDL
MODEL 6
REMARK VINA RESULT:    -3.868      2.212      3.629
REMARK INTER + INTRA:          -9.341
REMARK INTER:                  -6.894
REMARK INTRA:                  -2.447
REMARK UNBOUND:                -2.308
REMARK SMILES CCCCCCCCCCCCCCCC(=O)[O-]
REMARK SMILES IDX 9 1 10 2 11 3 12 4 13 5 14 6 15 7 16 8 17 9 18 10 8 11 7 12
REMARK SMILES IDX 6 13 5 14 4 15 3 16 2 17 1 18
REMARK H PARENT
REMARK Flexibility Score: inf
ROOT
ATOM      1  C   UNL     1     118.881 120.143 132.943  1.00  0.00     0.000 C 
ENDROOT
BRANCH   1   2
ATOM      2  C   UNL     1     119.054 121.021 131.698  1.00  0.00     0.000 C 
BRANCH   2   3
ATOM      3  C   UNL     1     118.360 122.379 131.880  1.00  0.00     0.000 C 
BRANCH   3   4
ATOM      4  C   UNL     1     118.119 123.115 130.550  1.00  0.00     0.000 C 
BRANCH   4   5
ATOM      5  C   UNL     1     118.732 122.439 129.310  1.00  0.00     0.000 C 
BRANCH   5   6
ATOM      6  C   UNL     1     117.679 122.030 128.267  1.00  0.00     0.006 C 
BRANCH   6   7
ATOM      7  C   UNL     1     116.707 123.173 127.945  1.00  0.00     0.053 C 
BRANCH   7   8
ATOM      8  C   UNL     1     117.348 124.230 127.101  1.00  0.00     0.041 C 
ATOM      9  O   UNL     1     118.116 123.907 126.157  1.00  0.00    -0.550 OA
ATOM     10  O   UNL     1     117.078 125.571 127.340  1.00  0.00    -0.550 OA
ENDBRANCH   7   8
ENDBRANCH   6   7
ENDBRANCH   5   6
ENDBRANCH   4   5
ENDBRANCH   3   4
ENDBRANCH   2   3
ENDBRANCH   1   2
BRANCH   1  11
ATOM     11  C   UNL     1     118.052 120.865 134.015  1.00  0.00     0.000 C 
BRANCH  11  12
ATOM     12  C   UNL     1     117.019 119.947 134.688  1.00  0.00    -0.000 C 
BRANCH  12  13
ATOM     13  C   UNL     1     115.579 120.471 134.545  1.00  0.00    -0.000 C 
BRANCH  13  14
ATOM     14  C   UNL     1     114.934 120.071 133.208  1.00  0.00    -0.000 C 
BRANCH  14  15
ATOM     15  C   UNL     1     114.669 121.280 132.295  1.00  0.00    -0.000 C 
BRANCH  15  16
ATOM     16  C   UNL     1     115.151 121.048 130.854  1.00  0.00    -0.000 C 
BRANCH  16  17
ATOM     17  C   UNL     1     115.839 119.687 130.671  1.00  0.00    -0.003 C 
ATOM     18  C   UNL     1     115.537 119.100 129.294  1.00  0.00     0.004 C 
ENDBRANCH  16  17
ENDBRANCH  15  16
ENDBRANCH  14  15
ENDBRANCH  13  14
ENDBRANCH  12  13
ENDBRANCH  11  12
ENDBRANCH   1  11
TORSDOF 14
ENDMDL
MODEL 7
REMARK VINA RESULT:    -3.847      2.403      3.921
REMARK INTER + INTRA:          -9.303
REMARK INTER:                  -7.190
REMARK INTRA:                  -2.114
REMARK UNBOUND:                -2.308
REMARK SMILES CCCCCCCCCCCCCCCC(=O)[O-]
REMARK SMILES IDX 9 1 10 2 11 3 12 4 13 5 14 6 15 7 16 8 17 9 18 10 8 11 7 12
REMARK SMILES IDX 6 13 5 14 4 15 3 16 2 17 1 18
REMARK H PARENT
REMARK Flexibility Score: inf
ROOT
ATOM      1  C   UNL     1     118.550 120.197 131.587  1.00  0.00     0.000 C 
ENDROOT
BRANCH   1   2
ATOM      2  C   UNL     1     118.483 121.035 130.304  1.00  0.00     0.000 C 
BRANCH   2   3
ATOM      3  C   UNL     1     117.507 120.417 129.292  1.00  0.00     0.000 C 
BRANCH   3   4
ATOM      4  C   UNL     1     117.345 121.265 128.018  1.00  0.00     0.000 C 
BRANCH   4   5
ATOM      5  C   UNL     1     116.048 122.091 127.945  1.00  0.00     0.000 C 
BRANCH   5   6
ATOM      6  C   UNL     1     116.293 123.605 128.066  1.00  0.00     0.006 C 
BRANCH   6   7
ATOM      7  C   UNL     1     117.642 124.023 127.465  1.00  0.00     0.053 C 
BRANCH   7   8
ATOM      8  C   UNL     1     117.716 125.501 127.234  1.00  0.00     0.041 C 
ATOM      9  O   UNL     1     118.772 126.019 126.784  1.00  0.00    -0.550 OA
ATOM     10  O   UNL     1     116.612 126.302 127.490  1.00  0.00    -0.550 OA
ENDBRANCH   7   8
ENDBRANCH   6   7
ENDBRANCH   5   6
ENDBRANCH   4   5
ENDBRANCH   3   4
ENDBRANCH   2   3
ENDBRANCH   1   2
BRANCH   1  11
ATOM     11  C   UNL     1     118.802 121.088 132.813  1.00  0.00     0.000 C 
BRANCH  11  12
ATOM     12  C   UNL     1     118.369 120.423 134.130  1.00  0.00    -0.000 C 
BRANCH  12  13
ATOM     13  C   UNL     1     117.061 121.011 134.688  1.00  0.00    -0.000 C 
BRANCH  13  14
ATOM     14  C   UNL     1     115.894 120.012 134.634  1.00  0.00    -0.000 C 
BRANCH  14  15
ATOM     15  C   UNL     1     114.740 120.499 133.741  1.00  0.00    -0.000 C 
BRANCH  15  16
ATOM     16  C   UNL     1     115.049 120.346 132.242  1.00  0.00    -0.000 C 
BRANCH  16  17
ATOM     17  C   UNL     1     114.673 121.594 131.429  1.00  0.00    -0.003 C 
ATOM     18  C   UNL     1     115.646 122.738 131.700  1.00  0.00     0.004 C 
ENDBRANCH  16  17
ENDBRANCH  15  16
ENDBRANCH  14  15
ENDBRANCH  13  14
ENDBRANCH  12  13
ENDBRANCH  11  12
ENDBRANCH   1  11
TORSDOF 14
ENDMDL
MODEL 8
REMARK VINA RESULT:    -3.847      3.076      6.383
REMARK INTER + INTRA:          -9.302
REMARK INTER:                  -6.994
REMARK INTRA:                  -2.308
REMARK UNBOUND:                -2.308
REMARK SMILES CCCCCCCCCCCCCCCC(=O)[O-]
REMARK SMILES IDX 9 1 10 2 11 3 12 4 13 5 14 6 15 7 16 8 17 9 18 10 8 11 7 12
REMARK SMILES IDX 6 13 5 14 4 15 3 16 2 17 1 18
REMARK H PARENT
REMARK Flexibility Score: inf
ROOT
ATOM      1  C   UNL     1     118.004 123.481 126.778  1.00  0.00     0.000 C 
ENDROOT
BRANCH   1   2
ATOM      2  C   UNL     1     118.502 122.308 127.632  1.00  0.00     0.000 C 
BRANCH   2   3
ATOM      3  C   UNL     1     117.333 121.597 128.329  1.00  0.00     0.000 C 
BRANCH   3   4
ATOM      4  C   UNL     1     116.056 122.454 128.386  1.00  0.00     0.000 C 
BRANCH   4   5
ATOM      5  C   UNL     1     115.258 122.347 129.698  1.00  0.00     0.000 C 
BRANCH   5   6
ATOM      6  C   UNL     1     115.899 121.386 130.715  1.00  0.00     0.006 C 
BRANCH   6   7
ATOM      7  C   UNL     1     115.933 121.978 132.130  1.00  0.00     0.053 C 
BRANCH   7   8
ATOM      8  C   UNL     1     115.684 120.936 133.177  1.00  0.00     0.041 C 
ATOM      9  O   UNL     1     114.983 119.926 132.909  1.00  0.00    -0.550 OA
ATOM     10  O   UNL     1     116.247 121.069 134.439  1.00  0.00    -0.550 OA
ENDBRANCH   7   8
ENDBRANCH   6   7
ENDBRANCH   5   6
ENDBRANCH   4   5
ENDBRANCH   3   4
ENDBRANCH   2   3
ENDBRANCH   1   2
BRANCH   1  11
ATOM     11  C   UNL     1     119.090 124.557 126.634  1.00  0.00     0.000 C 
BRANCH  11  12
ATOM     12  C   UNL     1     118.685 125.899 127.263  1.00  0.00    -0.000 C 
BRANCH  12  13
ATOM     13  C   UNL     1     117.169 126.153 127.192  1.00  0.00    -0.000 C 
BRANCH  13  14
ATOM     14  C   UNL     1     116.555 126.451 128.570  1.00  0.00    -0.000 C 
BRANCH  14  15
ATOM     15  C   UNL     1     117.543 127.152 129.517  1.00  0.00    -0.000 C 
BRANCH  15  16
ATOM     16  C   UNL     1     117.513 126.567 130.939  1.00  0.00    -0.000 C 
BRANCH  16  17
ATOM     17  C   UNL     1     117.415 125.034 130.947  1.00  0.00    -0.003 C 
ATOM     18  C   UNL     1     118.782 124.396 130.713  1.00  0.00     0.004 C 
ENDBRANCH  16  17
ENDBRANCH  15  16
ENDBRANCH  14  15
ENDBRANCH  13  14
ENDBRANCH  12  13
ENDBRANCH  11  12
ENDBRANCH   1  11
TORSDOF 14
ENDMDL
MODEL 9
REMARK VINA RESULT:    -3.820      2.726      3.041
REMARK INTER + INTRA:          -9.254
REMARK INTER:                  -7.176
REMARK INTRA:                  -2.078
REMARK UNBOUND:                -2.308
REMARK SMILES CCCCCCCCCCCCCCCC(=O)[O-]
REMARK SMILES IDX 9 1 10 2 11 3 12 4 13 5 14 6 15 7 16 8 17 9 18 10 8 11 7 12
REMARK SMILES IDX 6 13 5 14 4 15 3 16 2 17 1 18
REMARK H PARENT
REMARK Flexibility Score: inf
ROOT
ATOM      1  C   UNL     1     114.715 121.419 131.699  1.00  0.00     0.000 C 
ENDROOT
BRANCH   1   2
ATOM      2  C   UNL     1     115.823 122.478 131.743  1.00  0.00     0.000 C 
BRANCH   2   3
ATOM      3  C   UNL     1     116.204 122.937 130.328  1.00  0.00     0.000 C 
BRANCH   3   4
ATOM      4  C   UNL     1     115.905 121.879 129.251  1.00  0.00     0.000 C 
BRANCH   4   5
ATOM      5  C   UNL     1     116.873 121.873 128.055  1.00  0.00     0.000 C 
BRANCH   5   6
ATOM      6  C   UNL     1     117.861 123.053 128.076  1.00  0.00     0.006 C 
BRANCH   6   7
ATOM      7  C   UNL     1     117.982 123.732 126.706  1.00  0.00     0.053 C 
BRANCH   7   8
ATOM      8  C   UNL     1     119.040 124.792 126.699  1.00  0.00     0.041 C 
ATOM      9  O   UNL     1     118.723 126.003 126.830  1.00  0.00    -0.550 OA
ATOM     10  O   UNL     1     120.378 124.440 126.576  1.00  0.00    -0.550 OA
ENDBRANCH   7   8
ENDBRANCH   6   7
ENDBRANCH   5   6
ENDBRANCH   4   5
ENDBRANCH   3   4
ENDBRANCH   2   3
ENDBRANCH   1   2
BRANCH   1  11
ATOM     11  C   UNL     1     115.074 120.210 132.575  1.00  0.00     0.000 C 
BRANCH  11  12
ATOM     12  C   UNL     1     115.042 120.535 134.078  1.00  0.00    -0.000 C 
BRANCH  12  13
ATOM     13  C   UNL     1     116.252 119.957 134.833  1.00  0.00    -0.000 C 
BRANCH  13  14
ATOM     14  C   UNL     1     117.492 120.861 134.741  1.00  0.00    -0.000 C 
BRANCH  14  15
ATOM     15  C   UNL     1     118.562 120.300 133.789  1.00  0.00    -0.000 C 
BRANCH  15  16
ATOM     16  C   UNL     1     119.246 121.397 132.957  1.00  0.00    -0.000 C 
BRANCH  16  17
ATOM     17  C   UNL     1     119.191 121.116 131.447  1.00  0.00    -0.003 C 
ATOM     18  C   UNL     1     118.488 119.791 131.161  1.00  0.00     0.004 C 
ENDBRANCH  16  17
ENDBRANCH  15  16
ENDBRANCH  14  15
ENDBRANCH  13  14
ENDBRANCH  12  13
ENDBRANCH  11  12
ENDBRANCH   1  11
TORSDOF 14
ENDMDL
