MODEL 1
REMARK VINA RESULT:     1.386      0.000      0.000
REMARK INTER + INTRA:           2.430
REMARK INTER:                   2.521
REMARK INTRA:                  -0.092
REMARK UNBOUND:                -0.092
REMARK SMILES CCCCCCCCCCCCCCCC(=O)[O-]
REMARK SMILES IDX 9 1 10 2 11 3 12 4 13 5 14 6 15 7 16 8 17 9 18 10 8 11 7 12
REMARK SMILES IDX 6 13 5 14 4 15 3 16 2 17 1 18
REMARK H PARENT
REMARK Flexibility Score: inf
ROOT
ATOM      1  C   UNL     1      -3.513 -30.106  -5.353  1.00  0.00     0.000 C 
ENDROOT
BRANCH   1   2
ATOM      2  C   UNL     1      -4.103 -29.755  -6.732  1.00  0.00     0.000 C 
BRANCH   2   3
ATOM      3  C   UNL     1      -4.367 -30.960  -7.655  1.00  0.00     0.000 C 
BRANCH   3   4
ATOM      4  C   UNL     1      -3.306 -32.064  -7.516  1.00  0.00     0.000 C 
BRANCH   4   5
ATOM      5  C   UNL     1      -1.897 -31.596  -7.923  1.00  0.00     0.000 C 
BRANCH   5   6
ATOM      6  C   UNL     1      -0.750 -32.122  -7.041  1.00  0.00     0.006 C 
BRANCH   6   7
ATOM      7  C   UNL     1       0.609 -32.110  -7.753  1.00  0.00     0.053 C 
BRANCH   7   8
ATOM      8  C   UNL     1       1.683 -31.646  -6.820  1.00  0.00     0.041 C 
ATOM      9  O   UNL     1       1.538 -31.769  -5.576  1.00  0.00    -0.550 OA
ATOM     10  O   UNL     1       2.866 -31.123  -7.326  1.00  0.00    -0.550 OA
ENDBRANCH   7   8
ENDBRANCH   6   7
ENDBRANCH   5   6
ENDBRANCH   4   5
ENDBRANCH   3   4
ENDBRANCH   2   3
ENDBRANCH   1   2
BRANCH   1  11
ATOM     11  C   UNL     1      -3.769 -31.549  -4.877  1.00  0.00     0.000 C 
BRANCH  11  12
ATOM     12  C   UNL     1      -2.868 -31.987  -3.703  1.00  0.00    -0.000 C 
BRANCH  12  13
ATOM     13  C   UNL     1      -1.462 -31.365  -3.779  1.00  0.00    -0.000 C 
BRANCH  13  14
ATOM     14  C   UNL     1      -0.776 -31.285  -2.406  1.00  0.00    -0.000 C 
BRANCH  14  15
ATOM     15  C   UNL     1       0.578 -30.561  -2.465  1.00  0.00    -0.000 C 
BRANCH  15  16
ATOM     16  C   UNL     1       1.296 -30.633  -1.109  1.00  0.00    -0.000 C 
BRANCH  16  17
ATOM     17  C   UNL     1       1.553 -29.244  -0.502  1.00  0.00    -0.003 C 
ATOM     18  C   UNL     1       1.910 -29.306   0.983  1.00  0.00     0.004 C 
ENDBRANCH  16  17
ENDBRANCH  15  16
ENDBRANCH  14  15
ENDBRANCH  13  14
ENDBRANCH  12  13
ENDBRANCH  11  12
ENDBRANCH   1  11
TORSDOF 14
ENDMDL
MODEL 2
REMARK VINA RESULT:     2.690      3.871      6.067
REMARK INTER + INTRA:           4.800
REMARK INTER:                   5.109
REMARK INTRA:                  -0.309
REMARK UNBOUND:                -0.092
REMARK SMILES CCCCCCCCCCCCCCCC(=O)[O-]
REMARK SMILES IDX 9 1 10 2 11 3 12 4 13 5 14 6 15 7 16 8 17 9 18 10 8 11 7 12
REMARK SMILES IDX 6 13 5 14 4 15 3 16 2 17 1 18
REMARK H PARENT
REMARK Flexibility Score: inf
ROOT
ATOM      1  C   UNL     1       2.259 -30.843  -5.090  1.00  0.00     0.000 C 
ENDROOT
BRANCH   1   2
ATOM      2  C   UNL     1       1.161 -31.736  -4.480  1.00  0.00     0.000 C 
BRANCH   2   3
ATOM      3  C   UNL     1      -0.093 -31.919  -5.355  1.00  0.00     0.000 C 
BRANCH   3   4
ATOM      4  C   UNL     1      -1.381 -32.076  -4.529  1.00  0.00     0.000 C 
BRANCH   4   5
ATOM      5  C   UNL     1      -2.222 -30.788  -4.478  1.00  0.00     0.000 C 
BRANCH   5   6
ATOM      6  C   UNL     1      -3.725 -30.973  -4.758  1.00  0.00     0.006 C 
BRANCH   6   7
ATOM      7  C   UNL     1      -4.013 -32.089  -5.770  1.00  0.00     0.053 C 
BRANCH   7   8
ATOM      8  C   UNL     1      -4.355 -31.507  -7.105  1.00  0.00     0.041 C 
ATOM      9  O   UNL     1      -5.125 -32.125  -7.887  1.00  0.00    -0.550 OA
ATOM     10  O   UNL     1      -3.863 -30.260  -7.467  1.00  0.00    -0.550 OA
ENDBRANCH   7   8
ENDBRANCH   6   7
ENDBRANCH   5   6
ENDBRANCH   4   5
ENDBRANCH   3   4
ENDBRANCH   2   3
ENDBRANCH   1   2
BRANCH   1  11
ATOM     11  C   UNL     1       3.107 -31.507  -6.192  1.00  0.00     0.000 C 
BRANCH  11  12
ATOM     12  C   UNL     1       2.719 -31.072  -7.621  1.00  0.00    -0.000 C 
BRANCH  12  13
ATOM     13  C   UNL     1       3.096 -29.608  -7.912  1.00  0.00    -0.000 C 
BRANCH  13  14
ATOM     14  C   UNL     1       2.303 -28.612  -7.052  1.00  0.00    -0.000 C 
BRANCH  14  15
ATOM     15  C   UNL     1       2.786 -27.164  -7.229  1.00  0.00    -0.000 C 
BRANCH  15  16
ATOM     16  C   UNL     1       3.327 -26.602  -5.905  1.00  0.00    -0.000 C 
BRANCH  16  17
ATOM     17  C   UNL     1       3.174 -25.076  -5.806  1.00  0.00    -0.003 C 
ATOM     18  C   UNL     1       4.187 -24.442  -4.852  1.00  0.00     0.004 C 
ENDBRANCH  16  17
ENDBRANCH  15  16
ENDBRANCH  14  15
ENDBRANCH  13  14
ENDBRANCH  12  13
ENDBRANCH  11  12
ENDBRANCH   1  11
TORSDOF 14
ENDMDL
MODEL 3
REMARK VINA RESULT:     3.197      2.426      5.752
REMARK INTER + INTRA:           5.722
REMARK INTER:                   3.805
REMARK INTRA:                   1.917
REMARK UNBOUND:                -0.092
REMARK SMILES CCCCCCCCCCCCCCCC(=O)[O-]
REMARK SMILES IDX 9 1 10 2 11 3 12 4 13 5 14 6 15 7 16 8 17 9 18 10 8 11 7 12
REMARK SMILES IDX 6 13 5 14 4 15 3 16 2 17 1 18
REMARK H PARENT
REMARK Flexibility Score: inf
ROOT
ATOM      1  C   UNL     1      -2.552 -31.252  -4.688  1.00  0.00     0.000 C 
ENDROOT
BRANCH   1   2
ATOM      2  C   UNL     1      -2.795 -31.773  -3.259  1.00  0.00     0.000 C 
BRANCH   2   3
ATOM      3  C   UNL     1      -1.600 -31.626  -2.298  1.00  0.00     0.000 C 
BRANCH   3   4
ATOM      4  C   UNL     1      -1.912 -32.124  -0.876  1.00  0.00     0.000 C 
BRANCH   4   5
ATOM      5  C   UNL     1      -0.759 -31.874   0.113  1.00  0.00     0.000 C 
BRANCH   5   6
ATOM      6  C   UNL     1       0.656 -32.010  -0.480  1.00  0.00     0.006 C 
BRANCH   6   7
ATOM      7  C   UNL     1       1.090 -30.779  -1.285  1.00  0.00     0.053 C 
BRANCH   7   8
ATOM      8  C   UNL     1       1.613 -29.716  -0.371  1.00  0.00     0.041 C 
ATOM      9  O   UNL     1       1.519 -28.502  -0.692  1.00  0.00    -0.550 OA
ATOM     10  O   UNL     1       2.160 -30.062   0.858  1.00  0.00    -0.550 OA
ENDBRANCH   7   8
ENDBRANCH   6   7
ENDBRANCH   5   6
ENDBRANCH   4   5
ENDBRANCH   3   4
ENDBRANCH   2   3
ENDBRANCH   1   2
BRANCH   1  11
ATOM     11  C   UNL     1      -3.809 -31.152  -5.572  1.00  0.00     0.000 C 
BRANCH  11  12
ATOM     12  C   UNL     1      -3.522 -31.299  -7.082  1.00  0.00    -0.000 C 
BRANCH  12  13
ATOM     13  C   UNL     1      -2.231 -32.091  -7.359  1.00  0.00    -0.000 C 
BRANCH  13  14
ATOM     14  C   UNL     1      -1.243 -32.039  -6.183  1.00  0.00    -0.000 C 
BRANCH  14  15
ATOM     15  C   UNL     1       0.222 -32.125  -6.641  1.00  0.00    -0.000 C 
BRANCH  15  16
ATOM     16  C   UNL     1       1.176 -31.753  -5.495  1.00  0.00    -0.000 C 
BRANCH  16  17
ATOM     17  C   UNL     1       2.347 -30.875  -5.964  1.00  0.00    -0.003 C 
ATOM     18  C   UNL     1       2.986 -31.384  -7.256  1.00  0.00     0.004 C 
ENDBRANCH  16  17
ENDBRANCH  15  16
ENDBRANCH  14  15
ENDBRANCH  13  14
ENDBRANCH  12  13
ENDBRANCH  11  12
ENDBRANCH   1  11
TORSDOF 14
ENDMDL
MODEL 4
REMARK VINA RESULT:     3.711      5.507      7.554
REMARK INTER + INTRA:           6.657
REMARK INTER:                   7.160
REMARK INTRA:                  -0.503
REMARK UNBOUND:                -0.092
REMARK SMILES CCCCCCCCCCCCCCCC(=O)[O-]
REMARK SMILES IDX 9 1 10 2 11 3 12 4 13 5 14 6 15 7 16 8 17 9 18 10 8 11 7 12
REMARK SMILES IDX 6 13 5 14 4 15 3 16 2 17 1 18
REMARK H PARENT
REMARK Flexibility Score: inf
ROOT
ATOM      1  C   UNL     1       2.751 -29.304  -7.775  1.00  0.00     0.000 C 
ENDROOT
BRANCH   1   2
ATOM      2  C   UNL     1       2.623 -28.138  -6.776  1.00  0.00     0.000 C 
BRANCH   2   3
ATOM      3  C   UNL     1       2.723 -26.732  -7.397  1.00  0.00     0.000 C 
BRANCH   3   4
ATOM      4  C   UNL     1       2.255 -25.622  -6.441  1.00  0.00     0.000 C 
BRANCH   4   5
ATOM      5  C   UNL     1       1.131 -24.753  -7.035  1.00  0.00     0.000 C 
BRANCH   5   6
ATOM      6  C   UNL     1       0.697 -23.558  -6.167  1.00  0.00     0.006 C 
BRANCH   6   7
ATOM      7  C   UNL     1      -0.390 -22.701  -6.828  1.00  0.00     0.053 C 
BRANCH   7   8
ATOM      8  C   UNL     1      -1.430 -22.311  -5.824  1.00  0.00     0.041 C 
ATOM      9  O   UNL     1      -1.172 -22.363  -4.593  1.00  0.00    -0.550 OA
ATOM     10  O   UNL     1      -2.667 -21.846  -6.250  1.00  0.00    -0.550 OA
ENDBRANCH   7   8
ENDBRANCH   6   7
ENDBRANCH   5   6
ENDBRANCH   4   5
ENDBRANCH   3   4
ENDBRANCH   2   3
ENDBRANCH   1   2
BRANCH   1  11
ATOM     11  C   UNL     1       2.933 -30.695  -7.139  1.00  0.00     0.000 C 
BRANCH  11  12
ATOM     12  C   UNL     1       2.427 -30.784  -5.683  1.00  0.00    -0.000 C 
BRANCH  12  13
ATOM     13  C   UNL     1       1.313 -31.832  -5.512  1.00  0.00    -0.000 C 
BRANCH  13  14
ATOM     14  C   UNL     1       0.233 -31.389  -4.512  1.00  0.00    -0.000 C 
BRANCH  14  15
ATOM     15  C   UNL     1      -1.166 -31.899  -4.890  1.00  0.00    -0.000 C 
BRANCH  15  16
ATOM     16  C   UNL     1      -2.198 -31.513  -3.819  1.00  0.00    -0.000 C 
BRANCH  16  17
ATOM     17  C   UNL     1      -3.641 -31.570  -4.342  1.00  0.00    -0.003 C 
ATOM     18  C   UNL     1      -3.895 -30.588  -5.487  1.00  0.00     0.004 C 
ENDBRANCH  16  17
ENDBRANCH  15  16
ENDBRANCH  14  15
ENDBRANCH  13  14
ENDBRANCH  12  13
ENDBRANCH  11  12
ENDBRANCH   1  11
TORSDOF 14
ENDMDL
MODEL 5
REMARK VINA RESULT:     3.815      6.992      8.834
REMARK INTER + INTRA:           6.845
REMARK INTER:                   7.266
REMARK INTRA:                  -0.420
REMARK UNBOUND:                -0.092
REMARK SMILES CCCCCCCCCCCCCCCC(=O)[O-]
REMARK SMILES IDX 9 1 10 2 11 3 12 4 13 5 14 6 15 7 16 8 17 9 18 10 8 11 7 12
REMARK SMILES IDX 6 13 5 14 4 15 3 16 2 17 1 18
REMARK H PARENT
REMARK Flexibility Score: inf
ROOT
ATOM      1  C   UNL     1       2.326 -26.044  -6.570  1.00  0.00     0.000 C 
ENDROOT
BRANCH   1   2
ATOM      2  C   UNL     1       1.291 -25.080  -7.180  1.00  0.00     0.000 C 
BRANCH   2   3
ATOM      3  C   UNL     1       0.929 -23.869  -6.301  1.00  0.00     0.000 C 
BRANCH   3   4
ATOM      4  C   UNL     1      -0.093 -22.931  -6.965  1.00  0.00     0.000 C 
BRANCH   4   5
ATOM      5  C   UNL     1      -0.816 -22.020  -5.957  1.00  0.00     0.000 C 
BRANCH   5   6
ATOM      6  C   UNL     1      -2.354 -22.079  -6.004  1.00  0.00     0.006 C 
BRANCH   6   7
ATOM      7  C   UNL     1      -3.015 -20.727  -5.709  1.00  0.00     0.053 C 
BRANCH   7   8
ATOM      8  C   UNL     1      -4.354 -20.645  -6.373  1.00  0.00     0.041 C 
ATOM      9  O   UNL     1      -4.859 -19.525  -6.645  1.00  0.00    -0.550 OA
ATOM     10  O   UNL     1      -5.023 -21.807  -6.735  1.00  0.00    -0.550 OA
ENDBRANCH   7   8
ENDBRANCH   6   7
ENDBRANCH   5   6
ENDBRANCH   4   5
ENDBRANCH   3   4
ENDBRANCH   2   3
ENDBRANCH   1   2
BRANCH   1  11
ATOM     11  C   UNL     1       2.471 -27.396  -7.296  1.00  0.00     0.000 C 
BRANCH  11  12
ATOM     12  C   UNL     1       2.618 -28.601  -6.342  1.00  0.00    -0.000 C 
BRANCH  12  13
ATOM     13  C   UNL     1       2.468 -29.948  -7.072  1.00  0.00    -0.000 C 
BRANCH  13  14
ATOM     14  C   UNL     1       3.451 -31.011  -6.557  1.00  0.00    -0.000 C 
BRANCH  14  15
ATOM     15  C   UNL     1       2.764 -32.082  -5.696  1.00  0.00    -0.000 C 
BRANCH  15  16
ATOM     16  C   UNL     1       1.235 -31.968  -5.796  1.00  0.00    -0.000 C 
BRANCH  16  17
ATOM     17  C   UNL     1       0.601 -31.393  -4.520  1.00  0.00    -0.003 C 
ATOM     18  C   UNL     1      -0.925 -31.479  -4.528  1.00  0.00     0.004 C 
ENDBRANCH  16  17
ENDBRANCH  15  16
ENDBRANCH  14  15
ENDBRANCH  13  14
ENDBRANCH  12  13
ENDBRANCH  11  12
ENDBRANCH   1  11
TORSDOF 14
ENDMDL
MODEL 6
REMARK VINA RESULT:     3.842      6.550      8.410
REMARK INTER + INTRA:           6.895
REMARK INTER:                   7.285
REMARK INTRA:                  -0.391
REMARK UNBOUND:                -0.092
REMARK SMILES CCCCCCCCCCCCCCCC(=O)[O-]
REMARK SMILES IDX 9 1 10 2 11 3 12 4 13 5 14 6 15 7 16 8 17 9 18 10 8 11 7 12
REMARK SMILES IDX 6 13 5 14 4 15 3 16 2 17 1 18
REMARK H PARENT
REMARK Flexibility Score: inf
ROOT
ATOM      1  C   UNL     1       2.417 -27.188  -7.246  1.00  0.00     0.000 C 
ENDROOT
BRANCH   1   2
ATOM      2  C   UNL     1       2.298 -25.820  -6.547  1.00  0.00     0.000 C 
BRANCH   2   3
ATOM      3  C   UNL     1       1.159 -24.920  -7.062  1.00  0.00     0.000 C 
BRANCH   3   4
ATOM      4  C   UNL     1       0.846 -23.750  -6.114  1.00  0.00     0.000 C 
BRANCH   4   5
ATOM      5  C   UNL     1      -0.225 -22.795  -6.673  1.00  0.00     0.000 C 
BRANCH   5   6
ATOM      6  C   UNL     1      -1.435 -22.554  -5.751  1.00  0.00     0.006 C 
BRANCH   6   7
ATOM      7  C   UNL     1      -1.862 -21.082  -5.696  1.00  0.00     0.053 C 
BRANCH   7   8
ATOM      8  C   UNL     1      -3.318 -20.949  -6.018  1.00  0.00     0.041 C 
ATOM      9  O   UNL     1      -3.988 -21.961  -6.352  1.00  0.00    -0.550 OA
ATOM     10  O   UNL     1      -3.946 -19.716  -5.903  1.00  0.00    -0.550 OA
ENDBRANCH   7   8
ENDBRANCH   6   7
ENDBRANCH   5   6
ENDBRANCH   4   5
ENDBRANCH   3   4
ENDBRANCH   2   3
ENDBRANCH   1   2
BRANCH   1  11
ATOM     11  C   UNL     1       2.694 -28.380  -6.310  1.00  0.00     0.000 C 
BRANCH  11  12
ATOM     12  C   UNL     1       2.553 -29.756  -6.998  1.00  0.00    -0.000 C 
BRANCH  12  13
ATOM     13  C   UNL     1       2.438 -30.909  -5.984  1.00  0.00    -0.000 C 
BRANCH  13  14
ATOM     14  C   UNL     1       1.050 -31.569  -5.996  1.00  0.00    -0.000 C 
BRANCH  14  15
ATOM     15  C   UNL     1       0.326 -31.444  -4.647  1.00  0.00    -0.000 C 
BRANCH  15  16
ATOM     16  C   UNL     1      -1.098 -32.011  -4.735  1.00  0.00    -0.000 C 
BRANCH  16  17
ATOM     17  C   UNL     1      -2.162 -31.017  -4.243  1.00  0.00    -0.003 C 
ATOM     18  C   UNL     1      -3.552 -31.313  -4.805  1.00  0.00     0.004 C 
ENDBRANCH  16  17
ENDBRANCH  15  16
ENDBRANCH  14  15
ENDBRANCH  13  14
ENDBRANCH  12  13
ENDBRANCH  11  12
ENDBRANCH   1  11
TORSDOF 14
ENDMDL
MODEL 7
REMARK VINA RESULT:     3.874      5.897      8.010
REMARK INTER + INTRA:           6.953
REMARK INTER:                   7.466
REMARK INTRA:                  -0.513
REMARK UNBOUND:                -0.092
REMARK SMILES CCCCCCCCCCCCCCCC(=O)[O-]
REMARK SMILES IDX 9 1 10 2 11 3 12 4 13 5 14 6 15 7 16 8 17 9 18 10 8 11 7 12
REMARK SMILES IDX 6 13 5 14 4 15 3 16 2 17 1 18
REMARK H PARENT
REMARK Flexibility Score: inf
ROOT
ATOM      1  C   UNL     1       2.408 -26.042  -6.624  1.00  0.00     0.000 C 
ENDROOT
BRANCH   1   2
ATOM      2  C   UNL     1       2.639 -27.362  -7.384  1.00  0.00     0.000 C 
BRANCH   2   3
ATOM      3  C   UNL     1       2.421 -28.640  -6.553  1.00  0.00     0.000 C 
BRANCH   3   4
ATOM      4  C   UNL     1       2.665 -29.927  -7.359  1.00  0.00     0.000 C 
BRANCH   4   5
ATOM      5  C   UNL     1       3.510 -30.963  -6.595  1.00  0.00     0.000 C 
BRANCH   5   6
ATOM      6  C   UNL     1       2.713 -32.099  -5.930  1.00  0.00     0.006 C 
BRANCH   6   7
ATOM      7  C   UNL     1       1.202 -31.993  -6.171  1.00  0.00     0.053 C 
BRANCH   7   8
ATOM      8  C   UNL     1       0.496 -31.627  -4.903  1.00  0.00     0.041 C 
ATOM      9  O   UNL     1       1.114 -31.029  -3.983  1.00  0.00    -0.550 OA
ATOM     10  O   UNL     1      -0.857 -31.903  -4.756  1.00  0.00    -0.550 OA
ENDBRANCH   7   8
ENDBRANCH   6   7
ENDBRANCH   5   6
ENDBRANCH   4   5
ENDBRANCH   3   4
ENDBRANCH   2   3
ENDBRANCH   1   2
BRANCH   1  11
ATOM     11  C   UNL     1       1.194 -25.219  -7.095  1.00  0.00     0.000 C 
BRANCH  11  12
ATOM     12  C   UNL     1       0.996 -23.901  -6.315  1.00  0.00    -0.000 C 
BRANCH  12  13
ATOM     13  C   UNL     1      -0.107 -23.018  -6.925  1.00  0.00    -0.000 C 
BRANCH  13  14
ATOM     14  C   UNL     1      -0.820 -22.152  -5.874  1.00  0.00    -0.000 C 
BRANCH  14  15
ATOM     15  C   UNL     1      -2.332 -22.047  -6.124  1.00  0.00    -0.000 C 
BRANCH  15  16
ATOM     16  C   UNL     1      -2.898 -20.752  -5.523  1.00  0.00    -0.000 C 
BRANCH  16  17
ATOM     17  C   UNL     1      -4.172 -20.276  -6.238  1.00  0.00    -0.003 C 
ATOM     18  C   UNL     1      -4.934 -21.418  -6.910  1.00  0.00     0.004 C 
ENDBRANCH  16  17
ENDBRANCH  15  16
ENDBRANCH  14  15
ENDBRANCH  13  14
ENDBRANCH  12  13
ENDBRANCH  11  12
ENDBRANCH   1  11
TORSDOF 14
ENDMDL
MODEL 8
REMARK VINA RESULT:     3.977      5.930      8.014
REMARK INTER + INTRA:           7.141
REMARK INTER:                   7.542
REMARK INTRA:                  -0.401
REMARK UNBOUND:                -0.092
REMARK SMILES CCCCCCCCCCCCCCCC(=O)[O-]
REMARK SMILES IDX 9 1 10 2 11 3 12 4 13 5 14 6 15 7 16 8 17 9 18 10 8 11 7 12
REMARK SMILES IDX 6 13 5 14 4 15 3 16 2 17 1 18
REMARK H PARENT
REMARK Flexibility Score: inf
ROOT
ATOM      1  C   UNL     1       2.491 -26.288  -6.659  1.00  0.00     0.000 C 
ENDROOT
BRANCH   1   2
ATOM      2  C   UNL     1       2.468 -27.735  -7.186  1.00  0.00     0.000 C 
BRANCH   2   3
ATOM      3  C   UNL     1       2.474 -28.827  -6.100  1.00  0.00     0.000 C 
BRANCH   3   4
ATOM      4  C   UNL     1       2.368 -30.247  -6.679  1.00  0.00     0.000 C 
BRANCH   4   5
ATOM      5  C   UNL     1       2.423 -31.342  -5.597  1.00  0.00     0.000 C 
BRANCH   5   6
ATOM      6  C   UNL     1       1.273 -31.312  -4.574  1.00  0.00     0.006 C 
BRANCH   6   7
ATOM      7  C   UNL     1      -0.072 -31.745  -5.170  1.00  0.00     0.053 C 
BRANCH   7   8
ATOM      8  C   UNL     1      -1.192 -31.392  -4.243  1.00  0.00     0.041 C 
ATOM      9  O   UNL     1      -0.997 -31.355  -2.999  1.00  0.00    -0.550 OA
ATOM     10  O   UNL     1      -2.439 -31.056  -4.754  1.00  0.00    -0.550 OA
ENDBRANCH   7   8
ENDBRANCH   6   7
ENDBRANCH   5   6
ENDBRANCH   4   5
ENDBRANCH   3   4
ENDBRANCH   2   3
ENDBRANCH   1   2
BRANCH   1  11
ATOM     11  C   UNL     1       1.252 -25.442  -7.010  1.00  0.00     0.000 C 
BRANCH  11  12
ATOM     12  C   UNL     1       1.166 -24.112  -6.230  1.00  0.00    -0.000 C 
BRANCH  12  13
ATOM     13  C   UNL     1       0.125 -23.148  -6.828  1.00  0.00    -0.000 C 
BRANCH  13  14
ATOM     14  C   UNL     1      -0.920 -22.693  -5.797  1.00  0.00    -0.000 C 
BRANCH  14  15
ATOM     15  C   UNL     1      -1.931 -21.696  -6.383  1.00  0.00    -0.000 C 
BRANCH  15  16
ATOM     16  C   UNL     1      -3.201 -21.633  -5.521  1.00  0.00    -0.000 C 
BRANCH  16  17
ATOM     17  C   UNL     1      -4.419 -21.116  -6.301  1.00  0.00    -0.003 C 
ATOM     18  C   UNL     1      -4.551 -19.593  -6.249  1.00  0.00     0.004 C 
ENDBRANCH  16  17
ENDBRANCH  15  16
ENDBRANCH  14  15
ENDBRANCH  13  14
ENDBRANCH  12  13
ENDBRANCH  11  12
ENDBRANCH   1  11
TORSDOF 14
ENDMDL
MODEL 9
REMARK VINA RESULT:     4.110      2.368      6.445
REMARK INTER + INTRA:           7.383
REMARK INTER:                   7.389
REMARK INTRA:                  -0.006
REMARK UNBOUND:                -0.092
REMARK SMILES CCCCCCCCCCCCCCCC(=O)[O-]
REMARK SMILES IDX 9 1 10 2 11 3 12 4 13 5 14 6 15 7 16 8 17 9 18 10 8 11 7 12
REMARK SMILES IDX 6 13 5 14 4 15 3 16 2 17 1 18
REMARK H PARENT
REMARK Flexibility Score: inf
ROOT
ATOM      1  C   UNL     1       2.602 -30.441  -5.695  1.00  0.00     0.000 C 
ENDROOT
BRANCH   1   2
ATOM      2  C   UNL     1       2.689 -31.879  -5.147  1.00  0.00     0.000 C 
BRANCH   2   3
ATOM      3  C   UNL     1       2.118 -32.073  -3.729  1.00  0.00     0.000 C 
BRANCH   3   4
ATOM      4  C   UNL     1       1.181 -30.931  -3.301  1.00  0.00     0.000 C 
BRANCH   4   5
ATOM      5  C   UNL     1      -0.108 -31.435  -2.626  1.00  0.00     0.000 C 
BRANCH   5   6
ATOM      6  C   UNL     1      -0.075 -31.466  -1.087  1.00  0.00     0.006 C 
BRANCH   6   7
ATOM      7  C   UNL     1       1.336 -31.286  -0.514  1.00  0.00     0.053 C 
BRANCH   7   8
ATOM      8  C   UNL     1       1.631 -29.834  -0.303  1.00  0.00     0.041 C 
ATOM      9  O   UNL     1       1.598 -29.033  -1.274  1.00  0.00    -0.550 OA
ATOM     10  O   UNL     1       1.896 -29.356   0.974  1.00  0.00    -0.550 OA
ENDBRANCH   7   8
ENDBRANCH   6   7
ENDBRANCH   5   6
ENDBRANCH   4   5
ENDBRANCH   3   4
ENDBRANCH   2   3
ENDBRANCH   1   2
BRANCH   1  11
ATOM     11  C   UNL     1       1.554 -30.225  -6.803  1.00  0.00     0.000 C 
BRANCH  11  12
ATOM     12  C   UNL     1       1.588 -31.300  -7.910  1.00  0.00    -0.000 C 
BRANCH  12  13
ATOM     13  C   UNL     1       0.289 -32.124  -7.968  1.00  0.00    -0.000 C 
BRANCH  13  14
ATOM     14  C   UNL     1      -0.599 -31.914  -6.732  1.00  0.00    -0.000 C 
BRANCH  14  15
ATOM     15  C   UNL     1      -2.094 -32.090  -7.043  1.00  0.00    -0.000 C 
BRANCH  15  16
ATOM     16  C   UNL     1      -2.955 -31.263  -6.077  1.00  0.00    -0.000 C 
BRANCH  16  17
ATOM     17  C   UNL     1      -3.623 -32.125  -4.995  1.00  0.00    -0.003 C 
ATOM     18  C   UNL     1      -2.964 -31.966  -3.624  1.00  0.00     0.004 C 
ENDBRANCH  16  17
ENDBRANCH  15  16
ENDBRANCH  14  15
ENDBRANCH  13  14
ENDBRANCH  12  13
ENDBRANCH  11  12
ENDBRANCH   1  11
TORSDOF 14
ENDMDL
