MODEL 1
REMARK VINA RESULT:    -3.850      0.000      0.000
REMARK INTER + INTRA:          -9.279
REMARK INTER:                  -7.001
REMARK INTRA:                  -2.279
REMARK UNBOUND:                -2.279
REMARK SMILES CCCCCCCCCCCCCCCC(=O)[O-]
REMARK SMILES IDX 9 1 10 2 11 3 12 4 13 5 14 6 15 7 16 8 17 9 18 10 8 11 7 12
REMARK SMILES IDX 6 13 5 14 4 15 3 16 2 17 1 18
REMARK H PARENT
REMARK Flexibility Score: inf
ROOT
ATOM      1  C   UNL     1       1.697   1.444  55.680  1.00  0.00     0.000 C 
ENDROOT
BRANCH   1   2
ATOM      2  C   UNL     1       2.134   1.404  54.200  1.00  0.00     0.000 C 
BRANCH   2   3
ATOM      3  C   UNL     1       3.066   0.216  53.904  1.00  0.00     0.000 C 
BRANCH   3   4
ATOM      4  C   UNL     1       2.356  -0.928  53.156  1.00  0.00     0.000 C 
BRANCH   4   5
ATOM      5  C   UNL     1       2.396  -2.295  53.868  1.00  0.00     0.000 C 
BRANCH   5   6
ATOM      6  C   UNL     1       3.725  -2.625  54.578  1.00  0.00     0.006 C 
BRANCH   6   7
ATOM      7  C   UNL     1       3.594  -3.628  55.735  1.00  0.00     0.053 C 
BRANCH   7   8
ATOM      8  C   UNL     1       4.915  -3.920  56.377  1.00  0.00     0.041 C 
ATOM      9  O   UNL     1       5.389  -5.087  56.349  1.00  0.00    -0.550 OA
ATOM     10  O   UNL     1       5.640  -2.897  56.975  1.00  0.00    -0.550 OA
ENDBRANCH   7   8
ENDBRANCH   6   7
ENDBRANCH   5   6
ENDBRANCH   4   5
ENDBRANCH   3   4
ENDBRANCH   2   3
ENDBRANCH   1   2
BRANCH   1  11
ATOM     11  C   UNL     1       0.627   0.397  56.035  1.00  0.00     0.000 C 
BRANCH  11  12
ATOM     12  C   UNL     1       1.140  -0.671  57.016  1.00  0.00    -0.000 C 
BRANCH  12  13
ATOM     13  C   UNL     1       2.579  -0.399  57.485  1.00  0.00    -0.000 C 
BRANCH  13  14
ATOM     14  C   UNL     1       2.763  -0.625  58.993  1.00  0.00    -0.000 C 
BRANCH  14  15
ATOM     15  C   UNL     1       1.639   0.057  59.789  1.00  0.00    -0.000 C 
BRANCH  15  16
ATOM     16  C   UNL     1       1.929   1.539  60.073  1.00  0.00    -0.000 C 
BRANCH  16  17
ATOM     17  C   UNL     1       0.884   2.476  59.449  1.00  0.00    -0.003 C 
ATOM     18  C   UNL     1      -0.476   1.792  59.351  1.00  0.00     0.004 C 
ENDBRANCH  16  17
ENDBRANCH  15  16
ENDBRANCH  14  15
ENDBRANCH  13  14
ENDBRANCH  12  13
ENDBRANCH  11  12
ENDBRANCH   1  11
TORSDOF 14
ENDMDL
MODEL 2
REMARK VINA RESULT:    -3.812      2.898      3.808
REMARK INTER + INTRA:          -9.210
REMARK INTER:                  -7.436
REMARK INTRA:                  -1.773
REMARK UNBOUND:                -2.279
REMARK SMILES CCCCCCCCCCCCCCCC(=O)[O-]
REMARK SMILES IDX 9 1 10 2 11 3 12 4 13 5 14 6 15 7 16 8 17 9 18 10 8 11 7 12
REMARK SMILES IDX 6 13 5 14 4 15 3 16 2 17 1 18
REMARK H PARENT
REMARK Flexibility Score: inf
ROOT
ATOM      1  C   UNL     1       0.946   1.503  56.215  1.00  0.00     0.000 C 
ENDROOT
BRANCH   1   2
ATOM      2  C   UNL     1       2.069   1.560  55.158  1.00  0.00     0.000 C 
BRANCH   2   3
ATOM      3  C   UNL     1       2.901   0.266  55.126  1.00  0.00     0.000 C 
BRANCH   3   4
ATOM      4  C   UNL     1       2.855  -0.439  53.758  1.00  0.00     0.000 C 
BRANCH   4   5
ATOM      5  C   UNL     1       3.056  -1.968  53.807  1.00  0.00     0.000 C 
BRANCH   5   6
ATOM      6  C   UNL     1       1.759  -2.795  53.916  1.00  0.00     0.006 C 
BRANCH   6   7
ATOM      7  C   UNL     1       0.512  -2.098  53.350  1.00  0.00     0.053 C 
BRANCH   7   8
ATOM      8  C   UNL     1      -0.299  -3.013  52.485  1.00  0.00     0.041 C 
ATOM      9  O   UNL     1      -0.026  -4.241  52.431  1.00  0.00    -0.550 OA
ATOM     10  O   UNL     1      -1.378  -2.515  51.767  1.00  0.00    -0.550 OA
ENDBRANCH   7   8
ENDBRANCH   6   7
ENDBRANCH   5   6
ENDBRANCH   4   5
ENDBRANCH   3   4
ENDBRANCH   2   3
ENDBRANCH   1   2
BRANCH   1  11
ATOM     11  C   UNL     1       0.301   0.113  56.355  1.00  0.00     0.000 C 
BRANCH  11  12
ATOM     12  C   UNL     1      -1.190   0.182  56.722  1.00  0.00    -0.000 C 
BRANCH  12  13
ATOM     13  C   UNL     1      -1.526   1.397  57.602  1.00  0.00    -0.000 C 
BRANCH  13  14
ATOM     14  C   UNL     1      -1.877   1.005  59.046  1.00  0.00    -0.000 C 
BRANCH  14  15
ATOM     15  C   UNL     1      -0.614   0.943  59.918  1.00  0.00    -0.000 C 
BRANCH  15  16
ATOM     16  C   UNL     1       0.096   2.302  60.031  1.00  0.00    -0.000 C 
BRANCH  16  17
ATOM     17  C   UNL     1       1.625   2.168  60.077  1.00  0.00    -0.003 C 
ATOM     18  C   UNL     1       2.063   0.749  59.727  1.00  0.00     0.004 C 
ENDBRANCH  16  17
ENDBRANCH  15  16
ENDBRANCH  14  15
ENDBRANCH  13  14
ENDBRANCH  12  13
ENDBRANCH  11  12
ENDBRANCH   1  11
TORSDOF 14
ENDMDL
MODEL 3
REMARK VINA RESULT:    -3.810      2.812      6.114
REMARK INTER + INTRA:          -9.206
REMARK INTER:                  -6.941
REMARK INTRA:                  -2.266
REMARK UNBOUND:                -2.279
REMARK SMILES CCCCCCCCCCCCCCCC(=O)[O-]
REMARK SMILES IDX 9 1 10 2 11 3 12 4 13 5 14 6 15 7 16 8 17 9 18 10 8 11 7 12
REMARK SMILES IDX 6 13 5 14 4 15 3 16 2 17 1 18
REMARK H PARENT
REMARK Flexibility Score: inf
ROOT
ATOM      1  C   UNL     1       2.798   0.442  55.876  1.00  0.00     0.000 C 
ENDROOT
BRANCH   1   2
ATOM      2  C   UNL     1       1.903   0.252  57.119  1.00  0.00     0.000 C 
BRANCH   2   3
ATOM      3  C   UNL     1       0.682  -0.636  56.823  1.00  0.00     0.000 C 
BRANCH   3   4
ATOM      4  C   UNL     1      -0.642   0.150  56.822  1.00  0.00     0.000 C 
BRANCH   4   5
ATOM      5  C   UNL     1      -0.598   1.500  57.568  1.00  0.00     0.000 C 
BRANCH   5   6
ATOM      6  C   UNL     1      -1.383   1.541  58.894  1.00  0.00     0.006 C 
BRANCH   6   7
ATOM      7  C   UNL     1      -0.613   2.164  60.069  1.00  0.00     0.053 C 
BRANCH   7   8
ATOM      8  C   UNL     1       0.592   1.356  60.442  1.00  0.00     0.041 C 
ATOM      9  O   UNL     1       0.471   0.139  60.742  1.00  0.00    -0.550 OA
ATOM     10  O   UNL     1       1.853   1.938  60.424  1.00  0.00    -0.550 OA
ENDBRANCH   7   8
ENDBRANCH   6   7
ENDBRANCH   5   6
ENDBRANCH   4   5
ENDBRANCH   3   4
ENDBRANCH   2   3
ENDBRANCH   1   2
BRANCH   1  11
ATOM     11  C   UNL     1       2.226   1.434  54.850  1.00  0.00     0.000 C 
BRANCH  11  12
ATOM     12  C   UNL     1       2.043   0.812  53.456  1.00  0.00    -0.000 C 
BRANCH  12  13
ATOM     13  C   UNL     1       2.701  -0.573  53.337  1.00  0.00    -0.000 C 
BRANCH  13  14
ATOM     14  C   UNL     1       1.677  -1.718  53.358  1.00  0.00    -0.000 C 
BRANCH  14  15
ATOM     15  C   UNL     1       2.190  -2.894  54.204  1.00  0.00    -0.000 C 
BRANCH  15  16
ATOM     16  C   UNL     1       3.717  -2.872  54.385  1.00  0.00    -0.000 C 
BRANCH  16  17
ATOM     17  C   UNL     1       4.139  -3.013  55.855  1.00  0.00    -0.003 C 
ATOM     18  C   UNL     1       3.015  -3.614  56.694  1.00  0.00     0.004 C 
ENDBRANCH  16  17
ENDBRANCH  15  16
ENDBRANCH  14  15
ENDBRANCH  13  14
ENDBRANCH  12  13
ENDBRANCH  11  12
ENDBRANCH   1  11
TORSDOF 14
ENDMDL
MODEL 4
REMARK VINA RESULT:    -3.800      9.912     12.597
REMARK INTER + INTRA:          -9.188
REMARK INTER:                  -6.988
REMARK INTRA:                  -2.199
REMARK UNBOUND:                -2.279
REMARK SMILES CCCCCCCCCCCCCCCC(=O)[O-]
REMARK SMILES IDX 9 1 10 2 11 3 12 4 13 5 14 6 15 7 16 8 17 9 18 10 8 11 7 12
REMARK SMILES IDX 6 13 5 14 4 15 3 16 2 17 1 18
REMARK H PARENT
REMARK Flexibility Score: inf
ROOT
ATOM      1  C   UNL     1      -6.167   3.411  54.784  1.00  0.00     0.000 C 
ENDROOT
BRANCH   1   2
ATOM      2  C   UNL     1      -6.096   4.722  55.596  1.00  0.00     0.000 C 
BRANCH   2   3
ATOM      3  C   UNL     1      -7.160   5.739  55.147  1.00  0.00     0.000 C 
BRANCH   3   4
ATOM      4  C   UNL     1      -7.912   6.377  56.329  1.00  0.00     0.000 C 
BRANCH   4   5
ATOM      5  C   UNL     1      -8.044   5.480  57.577  1.00  0.00     0.000 C 
BRANCH   5   6
ATOM      6  C   UNL     1      -7.521   6.102  58.888  1.00  0.00     0.006 C 
BRANCH   6   7
ATOM      7  C   UNL     1      -6.596   5.184  59.702  1.00  0.00     0.053 C 
BRANCH   7   8
ATOM      8  C   UNL     1      -5.196   5.182  59.169  1.00  0.00     0.041 C 
ATOM      9  O   UNL     1      -4.758   6.179  58.537  1.00  0.00    -0.550 OA
ATOM     10  O   UNL     1      -4.364   4.095  59.402  1.00  0.00    -0.550 OA
ENDBRANCH   7   8
ENDBRANCH   6   7
ENDBRANCH   5   6
ENDBRANCH   4   5
ENDBRANCH   3   4
ENDBRANCH   2   3
ENDBRANCH   1   2
BRANCH   1  11
ATOM     11  C   UNL     1      -5.960   3.610  53.273  1.00  0.00     0.000 C 
BRANCH  11  12
ATOM     12  C   UNL     1      -6.907   2.747  52.423  1.00  0.00    -0.000 C 
BRANCH  12  13
ATOM     13  C   UNL     1      -7.599   3.551  51.310  1.00  0.00    -0.000 C 
BRANCH  13  14
ATOM     14  C   UNL     1      -7.393   5.067  51.456  1.00  0.00    -0.000 C 
BRANCH  14  15
ATOM     15  C   UNL     1      -8.738   5.787  51.633  1.00  0.00    -0.000 C 
BRANCH  15  16
ATOM     16  C   UNL     1      -9.882   4.826  51.996  1.00  0.00    -0.000 C 
BRANCH  16  17
ATOM     17  C   UNL     1     -10.324   4.959  53.461  1.00  0.00    -0.003 C 
ATOM     18  C   UNL     1     -10.032   3.681  54.240  1.00  0.00     0.004 C 
ENDBRANCH  16  17
ENDBRANCH  15  16
ENDBRANCH  14  15
ENDBRANCH  13  14
ENDBRANCH  12  13
ENDBRANCH  11  12
ENDBRANCH   1  11
TORSDOF 14
ENDMDL
MODEL 5
REMARK VINA RESULT:    -3.764     10.906     13.086
REMARK INTER + INTRA:          -9.122
REMARK INTER:                  -6.833
REMARK INTRA:                  -2.289
REMARK UNBOUND:                -2.279
REMARK SMILES CCCCCCCCCCCCCCCC(=O)[O-]
REMARK SMILES IDX 9 1 10 2 11 3 12 4 13 5 14 6 15 7 16 8 17 9 18 10 8 11 7 12
REMARK SMILES IDX 6 13 5 14 4 15 3 16 2 17 1 18
REMARK H PARENT
REMARK Flexibility Score: inf
ROOT
ATOM      1  C   UNL     1      -8.841   3.332  54.478  1.00  0.00     0.000 C 
ENDROOT
BRANCH   1   2
ATOM      2  C   UNL     1      -7.341   3.083  54.744  1.00  0.00     0.000 C 
BRANCH   2   3
ATOM      3  C   UNL     1      -6.526   4.389  54.731  1.00  0.00     0.000 C 
BRANCH   3   4
ATOM      4  C   UNL     1      -7.374   5.624  55.088  1.00  0.00     0.000 C 
BRANCH   4   5
ATOM      5  C   UNL     1      -7.037   6.275  56.445  1.00  0.00     0.000 C 
BRANCH   5   6
ATOM      6  C   UNL     1      -6.109   5.446  57.357  1.00  0.00     0.006 C 
BRANCH   6   7
ATOM      7  C   UNL     1      -6.732   5.053  58.705  1.00  0.00     0.053 C 
BRANCH   7   8
ATOM      8  C   UNL     1      -6.154   5.840  59.841  1.00  0.00     0.041 C 
ATOM      9  O   UNL     1      -6.897   6.243  60.775  1.00  0.00    -0.550 OA
ATOM     10  O   UNL     1      -4.790   6.097  59.886  1.00  0.00    -0.550 OA
ENDBRANCH   7   8
ENDBRANCH   6   7
ENDBRANCH   5   6
ENDBRANCH   4   5
ENDBRANCH   3   4
ENDBRANCH   2   3
ENDBRANCH   1   2
BRANCH   1  11
ATOM     11  C   UNL     1      -9.415   2.474  53.338  1.00  0.00     0.000 C 
BRANCH  11  12
ATOM     12  C   UNL     1      -8.377   2.155  52.250  1.00  0.00    -0.000 C 
BRANCH  12  13
ATOM     13  C   UNL     1      -8.429   3.146  51.075  1.00  0.00    -0.000 C 
BRANCH  13  14
ATOM     14  C   UNL     1      -7.247   4.127  51.074  1.00  0.00    -0.000 C 
BRANCH  14  15
ATOM     15  C   UNL     1      -7.724   5.558  51.369  1.00  0.00    -0.000 C 
BRANCH  15  16
ATOM     16  C   UNL     1      -9.234   5.737  51.148  1.00  0.00    -0.000 C 
BRANCH  16  17
ATOM     17  C   UNL     1      -9.965   6.213  52.412  1.00  0.00    -0.003 C 
ATOM     18  C   UNL     1     -11.355   5.592  52.509  1.00  0.00     0.004 C 
ENDBRANCH  16  17
ENDBRANCH  15  16
ENDBRANCH  14  15
ENDBRANCH  13  14
ENDBRANCH  12  13
ENDBRANCH  11  12
ENDBRANCH   1  11
TORSDOF 14
ENDMDL
MODEL 6
REMARK VINA RESULT:    -3.759     10.418     12.444
REMARK INTER + INTRA:          -9.114
REMARK INTER:                  -7.604
REMARK INTRA:                  -1.510
REMARK UNBOUND:                -2.279
REMARK SMILES CCCCCCCCCCCCCCCC(=O)[O-]
REMARK SMILES IDX 9 1 10 2 11 3 12 4 13 5 14 6 15 7 16 8 17 9 18 10 8 11 7 12
REMARK SMILES IDX 6 13 5 14 4 15 3 16 2 17 1 18
REMARK H PARENT
REMARK Flexibility Score: inf
ROOT
ATOM      1  C   UNL     1      -5.956   3.770  54.774  1.00  0.00     0.000 C 
ENDROOT
BRANCH   1   2
ATOM      2  C   UNL     1      -5.835   3.573  53.248  1.00  0.00     0.000 C 
BRANCH   2   3
ATOM      3  C   UNL     1      -7.067   2.865  52.656  1.00  0.00     0.000 C 
BRANCH   3   4
ATOM      4  C   UNL     1      -7.531   3.489  51.327  1.00  0.00     0.000 C 
BRANCH   4   5
ATOM      5  C   UNL     1      -7.276   5.004  51.194  1.00  0.00     0.000 C 
BRANCH   5   6
ATOM      6  C   UNL     1      -8.388   5.907  51.766  1.00  0.00     0.006 C 
BRANCH   6   7
ATOM      7  C   UNL     1      -9.752   5.749  51.075  1.00  0.00     0.053 C 
BRANCH   7   8
ATOM      8  C   UNL     1     -10.819   5.316  52.032  1.00  0.00     0.041 C 
ATOM      9  O   UNL     1     -11.735   6.114  52.364  1.00  0.00    -0.550 OA
ATOM     10  O   UNL     1     -10.822   4.019  52.530  1.00  0.00    -0.550 OA
ENDBRANCH   7   8
ENDBRANCH   6   7
ENDBRANCH   5   6
ENDBRANCH   4   5
ENDBRANCH   3   4
ENDBRANCH   2   3
ENDBRANCH   1   2
BRANCH   1  11
ATOM     11  C   UNL     1      -6.852   4.956  55.173  1.00  0.00     0.000 C 
BRANCH  11  12
ATOM     12  C   UNL     1      -6.296   5.747  56.368  1.00  0.00    -0.000 C 
BRANCH  12  13
ATOM     13  C   UNL     1      -7.331   5.927  57.491  1.00  0.00    -0.000 C 
BRANCH  13  14
ATOM     14  C   UNL     1      -6.736   5.695  58.888  1.00  0.00    -0.000 C 
BRANCH  14  15
ATOM     15  C   UNL     1      -5.209   5.860  58.867  1.00  0.00    -0.000 C 
BRANCH  15  16
ATOM     16  C   UNL     1      -4.478   4.716  59.588  1.00  0.00    -0.000 C 
BRANCH  16  17
ATOM     17  C   UNL     1      -4.938   3.329  59.114  1.00  0.00    -0.003 C 
ATOM     18  C   UNL     1      -4.191   2.905  57.853  1.00  0.00     0.004 C 
ENDBRANCH  16  17
ENDBRANCH  15  16
ENDBRANCH  14  15
ENDBRANCH  13  14
ENDBRANCH  12  13
ENDBRANCH  11  12
ENDBRANCH   1  11
TORSDOF 14
ENDMDL
MODEL 7
REMARK VINA RESULT:    -3.731      3.064      6.382
REMARK INTER + INTRA:          -9.064
REMARK INTER:                  -7.053
REMARK INTRA:                  -2.011
REMARK UNBOUND:                -2.279
REMARK SMILES CCCCCCCCCCCCCCCC(=O)[O-]
REMARK SMILES IDX 9 1 10 2 11 3 12 4 13 5 14 6 15 7 16 8 17 9 18 10 8 11 7 12
REMARK SMILES IDX 6 13 5 14 4 15 3 16 2 17 1 18
REMARK H PARENT
REMARK Flexibility Score: inf
ROOT
ATOM      1  C   UNL     1       1.450   1.232  55.739  1.00  0.00     0.000 C 
ENDROOT
BRANCH   1   2
ATOM      2  C   UNL     1       2.051   0.107  56.608  1.00  0.00     0.000 C 
BRANCH   2   3
ATOM      3  C   UNL     1       0.970  -0.836  57.163  1.00  0.00     0.000 C 
BRANCH   3   4
ATOM      4  C   UNL     1      -0.412  -0.599  56.526  1.00  0.00     0.000 C 
BRANCH   4   5
ATOM      5  C   UNL     1      -1.477  -0.019  57.478  1.00  0.00     0.000 C 
BRANCH   5   6
ATOM      6  C   UNL     1      -1.012   0.185  58.935  1.00  0.00     0.006 C 
BRANCH   6   7
ATOM      7  C   UNL     1      -0.794   1.654  59.330  1.00  0.00     0.053 C 
BRANCH   7   8
ATOM      8  C   UNL     1       0.389   1.823  60.233  1.00  0.00     0.041 C 
ATOM      9  O   UNL     1       1.510   1.356  59.901  1.00  0.00    -0.550 OA
ATOM     10  O   UNL     1       0.261   2.527  61.423  1.00  0.00    -0.550 OA
ENDBRANCH   7   8
ENDBRANCH   6   7
ENDBRANCH   5   6
ENDBRANCH   4   5
ENDBRANCH   3   4
ENDBRANCH   2   3
ENDBRANCH   1   2
BRANCH   1  11
ATOM     11  C   UNL     1       2.197   1.450  54.411  1.00  0.00     0.000 C 
BRANCH  11  12
ATOM     12  C   UNL     1       3.285   0.393  54.158  1.00  0.00    -0.000 C 
BRANCH  12  13
ATOM     13  C   UNL     1       2.813  -0.726  53.215  1.00  0.00    -0.000 C 
BRANCH  13  14
ATOM     14  C   UNL     1       3.015  -2.128  53.811  1.00  0.00    -0.000 C 
BRANCH  14  15
ATOM     15  C   UNL     1       1.670  -2.854  53.967  1.00  0.00    -0.000 C 
BRANCH  15  16
ATOM     16  C   UNL     1       0.505  -2.092  53.314  1.00  0.00    -0.000 C 
BRANCH  16  17
ATOM     17  C   UNL     1      -0.725  -2.981  53.079  1.00  0.00    -0.003 C 
ATOM     18  C   UNL     1      -0.636  -3.695  51.734  1.00  0.00     0.004 C 
ENDBRANCH  16  17
ENDBRANCH  15  16
ENDBRANCH  14  15
ENDBRANCH  13  14
ENDBRANCH  12  13
ENDBRANCH  11  12
ENDBRANCH   1  11
TORSDOF 14
ENDMDL
MODEL 8
REMARK VINA RESULT:    -3.726      9.888     12.343
REMARK INTER + INTRA:          -9.053
REMARK INTER:                  -6.862
REMARK INTRA:                  -2.191
REMARK UNBOUND:                -2.279
REMARK SMILES CCCCCCCCCCCCCCCC(=O)[O-]
REMARK SMILES IDX 9 1 10 2 11 3 12 4 13 5 14 6 15 7 16 8 17 9 18 10 8 11 7 12
REMARK SMILES IDX 6 13 5 14 4 15 3 16 2 17 1 18
REMARK H PARENT
REMARK Flexibility Score: inf
ROOT
ATOM      1  C   UNL     1      -6.615   2.359  52.870  1.00  0.00     0.000 C 
ENDROOT
BRANCH   1   2
ATOM      2  C   UNL     1      -6.664   1.820  54.315  1.00  0.00     0.000 C 
BRANCH   2   3
ATOM      3  C   UNL     1      -6.023   2.793  55.318  1.00  0.00     0.000 C 
BRANCH   3   4
ATOM      4  C   UNL     1      -5.942   4.235  54.782  1.00  0.00     0.000 C 
BRANCH   4   5
ATOM      5  C   UNL     1      -6.294   5.331  55.808  1.00  0.00     0.000 C 
BRANCH   5   6
ATOM      6  C   UNL     1      -6.695   4.816  57.205  1.00  0.00     0.006 C 
BRANCH   6   7
ATOM      7  C   UNL     1      -6.160   5.663  58.371  1.00  0.00     0.053 C 
BRANCH   7   8
ATOM      8  C   UNL     1      -5.603   4.815  59.472  1.00  0.00     0.041 C 
ATOM      9  O   UNL     1      -4.358   4.732  59.640  1.00  0.00    -0.550 OA
ATOM     10  O   UNL     1      -6.460   4.145  60.336  1.00  0.00    -0.550 OA
ENDBRANCH   7   8
ENDBRANCH   6   7
ENDBRANCH   5   6
ENDBRANCH   4   5
ENDBRANCH   3   4
ENDBRANCH   2   3
ENDBRANCH   1   2
BRANCH   1  11
ATOM     11  C   UNL     1      -7.975   2.328  52.153  1.00  0.00     0.000 C 
BRANCH  11  12
ATOM     12  C   UNL     1      -8.063   3.335  50.995  1.00  0.00    -0.000 C 
BRANCH  12  13
ATOM     13  C   UNL     1      -7.099   4.521  51.169  1.00  0.00    -0.000 C 
BRANCH  13  14
ATOM     14  C   UNL     1      -7.781   5.754  51.781  1.00  0.00    -0.000 C 
BRANCH  14  15
ATOM     15  C   UNL     1      -9.288   5.750  51.483  1.00  0.00    -0.000 C 
BRANCH  15  16
ATOM     16  C   UNL     1     -10.145   5.876  52.754  1.00  0.00    -0.000 C 
BRANCH  16  17
ATOM     17  C   UNL     1      -9.406   5.403  54.014  1.00  0.00    -0.003 C 
ATOM     18  C   UNL     1     -10.073   4.168  54.610  1.00  0.00     0.004 C 
ENDBRANCH  16  17
ENDBRANCH  15  16
ENDBRANCH  14  15
ENDBRANCH  13  14
ENDBRANCH  12  13
ENDBRANCH  11  12
ENDBRANCH   1  11
TORSDOF 14
ENDMDL
MODEL 9
REMARK VINA RESULT:    -3.687     11.362     13.398
REMARK INTER + INTRA:          -8.983
REMARK INTER:                  -6.498
REMARK INTRA:                  -2.485
REMARK UNBOUND:                -2.279
REMARK SMILES CCCCCCCCCCCCCCCC(=O)[O-]
REMARK SMILES IDX 9 1 10 2 11 3 12 4 13 5 14 6 15 7 16 8 17 9 18 10 8 11 7 12
REMARK SMILES IDX 6 13 5 14 4 15 3 16 2 17 1 18
REMARK H PARENT
REMARK Flexibility Score: inf
ROOT
ATOM      1  C   UNL     1      -8.017   5.751  51.595  1.00  0.00     0.000 C 
ENDROOT
BRANCH   1   2
ATOM      2  C   UNL     1      -7.081   4.615  51.131  1.00  0.00     0.000 C 
BRANCH   2   3
ATOM      3  C   UNL     1      -7.581   3.232  51.584  1.00  0.00     0.000 C 
BRANCH   3   4
ATOM      4  C   UNL     1      -7.071   2.843  52.984  1.00  0.00     0.000 C 
BRANCH   4   5
ATOM      5  C   UNL     1      -5.829   3.620  53.464  1.00  0.00     0.000 C 
BRANCH   5   6
ATOM      6  C   UNL     1      -5.912   4.163  54.905  1.00  0.00     0.006 C 
BRANCH   6   7
ATOM      7  C   UNL     1      -6.913   5.314  55.092  1.00  0.00     0.053 C 
BRANCH   7   8
ATOM      8  C   UNL     1      -6.869   5.877  56.478  1.00  0.00     0.041 C 
ATOM      9  O   UNL     1      -7.880   6.452  56.961  1.00  0.00    -0.550 OA
ATOM     10  O   UNL     1      -5.724   5.736  57.251  1.00  0.00    -0.550 OA
ENDBRANCH   7   8
ENDBRANCH   6   7
ENDBRANCH   5   6
ENDBRANCH   4   5
ENDBRANCH   3   4
ENDBRANCH   2   3
ENDBRANCH   1   2
BRANCH   1  11
ATOM     11  C   UNL     1      -9.437   5.657  51.011  1.00  0.00     0.000 C 
BRANCH  11  12
ATOM     12  C   UNL     1     -10.526   6.030  52.029  1.00  0.00    -0.000 C 
BRANCH  12  13
ATOM     13  C   UNL     1      -9.984   6.130  53.465  1.00  0.00    -0.000 C 
BRANCH  13  14
ATOM     14  C   UNL     1     -10.800   5.300  54.467  1.00  0.00    -0.000 C 
BRANCH  14  15
ATOM     15  C   UNL     1     -10.308   3.845  54.501  1.00  0.00    -0.000 C 
BRANCH  15  16
ATOM     16  C   UNL     1     -11.328   2.859  53.910  1.00  0.00    -0.000 C 
BRANCH  16  17
ATOM     17  C   UNL     1     -10.791   2.124  52.673  1.00  0.00    -0.003 C 
ATOM     18  C   UNL     1     -11.531   2.560  51.412  1.00  0.00     0.004 C 
ENDBRANCH  16  17
ENDBRANCH  15  16
ENDBRANCH  14  15
ENDBRANCH  13  14
ENDBRANCH  12  13
ENDBRANCH  11  12
ENDBRANCH   1  11
TORSDOF 14
ENDMDL
