MODEL 1
REMARK VINA RESULT:    -5.451      0.000      0.000
REMARK INTER + INTRA:          -6.812
REMARK INTER:                  -6.566
REMARK INTRA:                  -0.246
REMARK UNBOUND:                -0.246
REMARK SMILES Oc1cc(O)c2cc(O)c(-c3ccc(O)c(O)c3)[o+]c2c1
REMARK SMILES IDX 10 1 19 2 20 3 21 4 2 5 3 6 4 7 6 8 7 9 8 10 11 11 12 12
REMARK SMILES IDX 13 13 14 14 18 15 16 16 15 17 17 19 9 21 1 23 5 25
REMARK H PARENT 15 18 17 20 9 22 1 24 5 26
REMARK Flexibility Score: inf
ROOT
ATOM      1  C   UNL     1      -4.598  91.152 -14.981  1.00  0.00     0.402 A 
ATOM      2  O   UNL     1      -4.283  92.224 -14.261  1.00  0.00    -0.202 OA
ATOM      3  C   UNL     1      -4.381  92.269 -12.936  1.00  0.00     0.368 A 
ATOM      4  C   UNL     1      -4.023  93.442 -12.267  1.00  0.00     0.162 A 
ATOM      5  C   UNL     1      -4.113  93.515 -10.874  1.00  0.00     0.128 A 
ATOM      6  C   UNL     1      -4.561  92.409 -10.148  1.00  0.00     0.093 A 
ATOM      7  C   UNL     1      -4.926  91.222 -10.795  1.00  0.00     0.136 A 
ATOM      8  C   UNL     1      -4.839  91.144 -12.210  1.00  0.00     0.125 A 
ATOM      9  C   UNL     1      -5.194  90.000 -12.942  1.00  0.00     0.078 A 
ATOM     10  C   UNL     1      -5.087  90.000 -14.337  1.00  0.00     0.223 A 
ENDROOT
BRANCH   1  11
ATOM     11  C   UNL     1      -4.437  91.224 -16.452  1.00  0.00     0.087 A 
ATOM     12  C   UNL     1      -3.166  91.271 -17.047  1.00  0.00     0.022 A 
ATOM     13  C   UNL     1      -3.040  91.361 -18.434  1.00  0.00     0.051 A 
ATOM     14  C   UNL     1      -4.173  91.419 -19.253  1.00  0.00     0.157 A 
ATOM     15  C   UNL     1      -5.574  91.304 -17.269  1.00  0.00     0.068 A 
ATOM     16  C   UNL     1      -5.458  91.394 -18.662  1.00  0.00     0.158 A 
BRANCH  14  17
ATOM     17  O   UNL     1      -3.977  91.504 -20.633  1.00  0.00    -0.504 OA
ATOM     18  H   UNL     1      -4.263  92.292 -21.196  1.00  0.00     0.293 HD
ENDBRANCH  14  17
BRANCH  16  19
ATOM     19  O   UNL     1      -6.633  91.457 -19.413  1.00  0.00    -0.504 OA
ATOM     20  H   UNL     1      -6.954  92.286 -19.893  1.00  0.00     0.293 HD
ENDBRANCH  16  19
ENDBRANCH   1  11
BRANCH  10  21
ATOM     21  O   UNL     1      -5.487  88.882 -15.070  1.00  0.00    -0.500 OA
ATOM     22  H   UNL     1      -6.306  88.344 -14.815  1.00  0.00     0.294 HD
ENDBRANCH  10  21
BRANCH   5  23
ATOM     23  O   UNL     1      -3.758  94.681 -10.200  1.00  0.00    -0.507 OA
ATOM     24  H   UNL     1      -3.936  94.795  -9.208  1.00  0.00     0.293 HD
ENDBRANCH   5  23
BRANCH   7  25
ATOM     25  O   UNL     1      -5.360  90.160  -9.996  1.00  0.00    -0.507 OA
ATOM     26  H   UNL     1      -6.209  89.638 -10.154  1.00  0.00     0.293 HD
ENDBRANCH   7  25
TORSDOF 6
ENDMDL
MODEL 2
REMARK VINA RESULT:    -5.217     10.433     11.848
REMARK INTER + INTRA:          -6.531
REMARK INTER:                  -6.178
REMARK INTRA:                  -0.353
REMARK UNBOUND:                -0.246
REMARK SMILES Oc1cc(O)c2cc(O)c(-c3ccc(O)c(O)c3)[o+]c2c1
REMARK SMILES IDX 10 1 19 2 20 3 21 4 2 5 3 6 4 7 6 8 7 9 8 10 11 11 12 12
REMARK SMILES IDX 13 13 14 14 18 15 16 16 15 17 17 19 9 21 1 23 5 25
REMARK H PARENT 15 18 17 20 9 22 1 24 5 26
REMARK Flexibility Score: inf
ROOT
ATOM      1  C   UNL     1      -9.487  83.565  -8.850  1.00  0.00     0.402 A 
ATOM      2  O   UNL     1      -9.941  84.803  -9.024  1.00  0.00    -0.202 OA
ATOM      3  C   UNL     1     -11.215  85.085  -9.280  1.00  0.00     0.368 A 
ATOM      4  C   UNL     1     -11.596  86.418  -9.445  1.00  0.00     0.162 A 
ATOM      5  C   UNL     1     -12.930  86.743  -9.711  1.00  0.00     0.128 A 
ATOM      6  C   UNL     1     -13.885  85.729  -9.811  1.00  0.00     0.093 A 
ATOM      7  C   UNL     1     -13.528  84.384  -9.651  1.00  0.00     0.136 A 
ATOM      8  C   UNL     1     -12.174  84.050  -9.382  1.00  0.00     0.125 A 
ATOM      9  C   UNL     1     -11.725  82.730  -9.219  1.00  0.00     0.078 A 
ATOM     10  C   UNL     1     -10.373  82.477  -8.962  1.00  0.00     0.223 A 
ENDROOT
BRANCH   1  11
ATOM     11  C   UNL     1      -8.046  83.381  -8.560  1.00  0.00     0.087 A 
ATOM     12  C   UNL     1      -7.560  83.373  -7.243  1.00  0.00     0.022 A 
ATOM     13  C   UNL     1      -6.195  83.220  -6.996  1.00  0.00     0.051 A 
ATOM     14  C   UNL     1      -5.288  83.088  -8.053  1.00  0.00     0.157 A 
ATOM     15  C   UNL     1      -7.137  83.270  -9.622  1.00  0.00     0.068 A 
ATOM     16  C   UNL     1      -5.764  83.117  -9.385  1.00  0.00     0.158 A 
BRANCH  14  17
ATOM     17  O   UNL     1      -3.936  82.934  -7.738  1.00  0.00    -0.504 OA
ATOM     18  H   UNL     1      -3.566  82.987  -6.799  1.00  0.00     0.293 HD
ENDBRANCH  14  17
BRANCH  16  19
ATOM     19  O   UNL     1      -4.920  82.999 -10.490  1.00  0.00    -0.504 OA
ATOM     20  H   UNL     1      -5.232  82.732 -11.413  1.00  0.00     0.293 HD
ENDBRANCH  16  19
ENDBRANCH   1  11
BRANCH  10  21
ATOM     21  O   UNL     1      -9.916  81.164  -8.849  1.00  0.00    -0.500 OA
ATOM     22  H   UNL     1      -9.776  80.725  -7.947  1.00  0.00     0.294 HD
ENDBRANCH  10  21
BRANCH   5  23
ATOM     23  O   UNL     1     -13.317  88.071  -9.877  1.00  0.00    -0.507 OA
ATOM     24  H   UNL     1     -12.806  88.700 -10.485  1.00  0.00     0.293 HD
ENDBRANCH   5  23
BRANCH   7  25
ATOM     25  O   UNL     1     -14.543  83.431  -9.763  1.00  0.00    -0.507 OA
ATOM     26  H   UNL     1     -15.056  83.240 -10.610  1.00  0.00     0.293 HD
ENDBRANCH   7  25
TORSDOF 6
ENDMDL
MODEL 3
REMARK VINA RESULT:    -5.194     10.617     11.960
REMARK INTER + INTRA:          -6.503
REMARK INTER:                  -6.317
REMARK INTRA:                  -0.186
REMARK UNBOUND:                -0.246
REMARK SMILES Oc1cc(O)c2cc(O)c(-c3ccc(O)c(O)c3)[o+]c2c1
REMARK SMILES IDX 10 1 19 2 20 3 21 4 2 5 3 6 4 7 6 8 7 9 8 10 11 11 12 12
REMARK SMILES IDX 13 13 14 14 18 15 16 16 15 17 17 19 9 21 1 23 5 25
REMARK H PARENT 15 18 17 20 9 22 1 24 5 26
REMARK Flexibility Score: inf
ROOT
ATOM      1  C   UNL     1      -8.964  83.516  -8.432  1.00  0.00     0.402 A 
ATOM      2  O   UNL     1      -7.979  83.185  -9.262  1.00  0.00    -0.202 OA
ATOM      3  C   UNL     1      -6.697  83.188  -8.911  1.00  0.00     0.368 A 
ATOM      4  C   UNL     1      -5.733  82.822  -9.854  1.00  0.00     0.162 A 
ATOM      5  C   UNL     1      -4.378  82.813  -9.510  1.00  0.00     0.128 A 
ATOM      6  C   UNL     1      -3.986  83.173  -8.218  1.00  0.00     0.093 A 
ATOM      7  C   UNL     1      -4.933  83.545  -7.256  1.00  0.00     0.136 A 
ATOM      8  C   UNL     1      -6.310  83.557  -7.601  1.00  0.00     0.125 A 
ATOM      9  C   UNL     1      -7.326  83.927  -6.705  1.00  0.00     0.078 A 
ATOM     10  C   UNL     1      -8.662  83.920  -7.119  1.00  0.00     0.223 A 
ENDROOT
BRANCH   1  11
ATOM     11  C   UNL     1     -10.355  83.462  -8.940  1.00  0.00     0.087 A 
ATOM     12  C   UNL     1     -11.141  84.620  -9.045  1.00  0.00     0.022 A 
ATOM     13  C   UNL     1     -12.456  84.541  -9.505  1.00  0.00     0.051 A 
ATOM     14  C   UNL     1     -13.017  83.308  -9.857  1.00  0.00     0.157 A 
ATOM     15  C   UNL     1     -10.921  82.223  -9.271  1.00  0.00     0.068 A 
ATOM     16  C   UNL     1     -12.241  82.132  -9.735  1.00  0.00     0.158 A 
BRANCH  14  17
ATOM     17  O   UNL     1     -14.337  83.298 -10.315  1.00  0.00    -0.504 OA
ATOM     18  H   UNL     1     -15.100  82.851  -9.826  1.00  0.00     0.293 HD
ENDBRANCH  14  17
BRANCH  16  19
ATOM     19  O   UNL     1     -12.734  80.867 -10.058  1.00  0.00    -0.504 OA
ATOM     20  H   UNL     1     -13.507  80.423  -9.583  1.00  0.00     0.293 HD
ENDBRANCH  16  19
ENDBRANCH   1  11
BRANCH  10  21
ATOM     21  O   UNL     1      -9.667  84.335  -6.245  1.00  0.00    -0.500 OA
ATOM     22  H   UNL     1     -10.166  83.678  -5.657  1.00  0.00     0.294 HD
ENDBRANCH  10  21
BRANCH   5  23
ATOM     23  O   UNL     1      -3.411  82.449 -10.445  1.00  0.00    -0.507 OA
ATOM     24  H   UNL     1      -2.773  83.131 -10.840  1.00  0.00     0.293 HD
ENDBRANCH   5  23
BRANCH   7  25
ATOM     25  O   UNL     1      -4.459  83.887  -5.986  1.00  0.00    -0.507 OA
ATOM     26  H   UNL     1      -5.046  84.172  -5.216  1.00  0.00     0.293 HD
ENDBRANCH   7  25
TORSDOF 6
ENDMDL
MODEL 4
REMARK VINA RESULT:    -5.175      4.256      6.595
REMARK INTER + INTRA:          -6.480
REMARK INTER:                  -6.133
REMARK INTRA:                  -0.346
REMARK UNBOUND:                -0.246
REMARK SMILES Oc1cc(O)c2cc(O)c(-c3ccc(O)c(O)c3)[o+]c2c1
REMARK SMILES IDX 10 1 19 2 20 3 21 4 2 5 3 6 4 7 6 8 7 9 8 10 11 11 12 12
REMARK SMILES IDX 13 13 14 14 18 15 16 16 15 17 17 19 9 21 1 23 5 25
REMARK H PARENT 15 18 17 20 9 22 1 24 5 26
REMARK Flexibility Score: inf
ROOT
ATOM      1  C   UNL     1      -7.978  90.172 -13.177  1.00  0.00     0.402 A 
ATOM      2  O   UNL     1      -7.580  91.218 -13.896  1.00  0.00    -0.202 OA
ATOM      3  C   UNL     1      -6.336  91.368 -14.340  1.00  0.00     0.368 A 
ATOM      4  C   UNL     1      -6.015  92.501 -15.091  1.00  0.00     0.162 A 
ATOM      5  C   UNL     1      -4.715  92.682 -15.574  1.00  0.00     0.128 A 
ATOM      6  C   UNL     1      -3.734  91.725 -15.303  1.00  0.00     0.093 A 
ATOM      7  C   UNL     1      -4.030  90.582 -14.552  1.00  0.00     0.136 A 
ATOM      8  C   UNL     1      -5.349  90.394 -14.059  1.00  0.00     0.125 A 
ATOM      9  C   UNL     1      -5.733  89.285 -13.288  1.00  0.00     0.078 A 
ATOM     10  C   UNL     1      -7.050  89.172 -12.832  1.00  0.00     0.223 A 
ENDROOT
BRANCH   1  11
ATOM     11  C   UNL     1      -9.395  90.115 -12.750  1.00  0.00     0.087 A 
ATOM     12  C   UNL     1      -9.805  90.620 -11.506  1.00  0.00     0.022 A 
ATOM     13  C   UNL     1     -11.143  90.534 -11.116  1.00  0.00     0.051 A 
ATOM     14  C   UNL     1     -12.093  89.933 -11.949  1.00  0.00     0.157 A 
ATOM     15  C   UNL     1     -10.341  89.493 -13.578  1.00  0.00     0.068 A 
ATOM     16  C   UNL     1     -11.686  89.401 -13.196  1.00  0.00     0.158 A 
BRANCH  14  17
ATOM     17  O   UNL     1     -13.415  89.883 -11.502  1.00  0.00    -0.504 OA
ATOM     18  H   UNL     1     -13.727  89.318 -10.726  1.00  0.00     0.293 HD
ENDBRANCH  14  17
BRANCH  16  19
ATOM     19  O   UNL     1     -12.574  88.781 -14.076  1.00  0.00    -0.504 OA
ATOM     20  H   UNL     1     -13.167  88.002 -13.826  1.00  0.00     0.293 HD
ENDBRANCH  16  19
ENDBRANCH   1  11
BRANCH  10  21
ATOM     21  O   UNL     1      -7.421  88.097 -12.024  1.00  0.00    -0.500 OA
ATOM     22  H   UNL     1      -6.781  87.690 -11.352  1.00  0.00     0.294 HD
ENDBRANCH  10  21
BRANCH   5  23
ATOM     23  O   UNL     1      -4.387  93.810 -16.323  1.00  0.00    -0.507 OA
ATOM     24  H   UNL     1      -4.973  94.127 -17.087  1.00  0.00     0.293 HD
ENDBRANCH   5  23
BRANCH   7  25
ATOM     25  O   UNL     1      -2.994  89.671 -14.329  1.00  0.00    -0.507 OA
ATOM     26  H   UNL     1      -2.344  89.724 -13.559  1.00  0.00     0.293 HD
ENDBRANCH   7  25
TORSDOF 6
ENDMDL
MODEL 5
REMARK VINA RESULT:    -5.046     10.350     13.098
REMARK INTER + INTRA:          -6.324
REMARK INTER:                  -6.015
REMARK INTRA:                  -0.309
REMARK UNBOUND:                -0.246
REMARK SMILES Oc1cc(O)c2cc(O)c(-c3ccc(O)c(O)c3)[o+]c2c1
REMARK SMILES IDX 10 1 19 2 20 3 21 4 2 5 3 6 4 7 6 8 7 9 8 10 11 11 12 12
REMARK SMILES IDX 13 13 14 14 18 15 16 16 15 17 17 19 9 21 1 23 5 25
REMARK H PARENT 15 18 17 20 9 22 1 24 5 26
REMARK Flexibility Score: inf
ROOT
ATOM      1  C   UNL     1      -9.469  83.141  -8.459  1.00  0.00     0.402 A 
ATOM      2  O   UNL     1     -10.029  82.029  -7.990  1.00  0.00    -0.202 OA
ATOM      3  C   UNL     1     -11.332  81.777  -8.072  1.00  0.00     0.368 A 
ATOM      4  C   UNL     1     -11.827  80.579  -7.551  1.00  0.00     0.162 A 
ATOM      5  C   UNL     1     -13.192  80.288  -7.627  1.00  0.00     0.128 A 
ATOM      6  C   UNL     1     -14.065  81.198  -8.227  1.00  0.00     0.093 A 
ATOM      7  C   UNL     1     -13.594  82.406  -8.756  1.00  0.00     0.136 A 
ATOM      8  C   UNL     1     -12.208  82.708  -8.679  1.00  0.00     0.125 A 
ATOM      9  C   UNL     1     -11.650  83.899  -9.171  1.00  0.00     0.078 A 
ATOM     10  C   UNL     1     -10.275  84.128  -9.055  1.00  0.00     0.223 A 
ENDROOT
BRANCH   1  11
ATOM     11  C   UNL     1      -8.003  83.300  -8.316  1.00  0.00     0.087 A 
ATOM     12  C   UNL     1      -7.425  83.696  -7.101  1.00  0.00     0.022 A 
ATOM     13  C   UNL     1      -6.043  83.861  -6.997  1.00  0.00     0.051 A 
ATOM     14  C   UNL     1      -5.213  83.647  -8.103  1.00  0.00     0.157 A 
ATOM     15  C   UNL     1      -7.176  83.106  -9.432  1.00  0.00     0.068 A 
ATOM     16  C   UNL     1      -5.787  83.269  -9.339  1.00  0.00     0.158 A 
BRANCH  14  17
ATOM     17  O   UNL     1      -3.838  83.825  -7.931  1.00  0.00    -0.504 OA
ATOM     18  H   UNL     1      -3.409  84.091  -7.057  1.00  0.00     0.293 HD
ENDBRANCH  14  17
BRANCH  16  19
ATOM     19  O   UNL     1      -5.025  83.046 -10.487  1.00  0.00    -0.504 OA
ATOM     20  H   UNL     1      -5.417  82.909 -11.408  1.00  0.00     0.293 HD
ENDBRANCH  16  19
ENDBRANCH   1  11
BRANCH  10  21
ATOM     21  O   UNL     1      -9.727  85.332  -9.498  1.00  0.00    -0.500 OA
ATOM     22  H   UNL     1      -9.556  86.104  -8.864  1.00  0.00     0.294 HD
ENDBRANCH  10  21
BRANCH   5  23
ATOM     23  O   UNL     1     -13.693  79.095  -7.110  1.00  0.00    -0.507 OA
ATOM     24  H   UNL     1     -13.559  78.212  -7.589  1.00  0.00     0.293 HD
ENDBRANCH   5  23
BRANCH   7  25
ATOM     25  O   UNL     1     -14.531  83.261  -9.343  1.00  0.00    -0.507 OA
ATOM     26  H   UNL     1     -14.819  84.146  -8.952  1.00  0.00     0.293 HD
ENDBRANCH   7  25
TORSDOF 6
ENDMDL
MODEL 6
REMARK VINA RESULT:    -5.027      8.836     11.855
REMARK INTER + INTRA:          -6.301
REMARK INTER:                  -6.010
REMARK INTRA:                  -0.292
REMARK UNBOUND:                -0.246
REMARK SMILES Oc1cc(O)c2cc(O)c(-c3ccc(O)c(O)c3)[o+]c2c1
REMARK SMILES IDX 10 1 19 2 20 3 21 4 2 5 3 6 4 7 6 8 7 9 8 10 11 11 12 12
REMARK SMILES IDX 13 13 14 14 18 15 16 16 15 17 17 19 9 21 1 23 5 25
REMARK H PARENT 15 18 17 20 9 22 1 24 5 26
REMARK Flexibility Score: inf
ROOT
ATOM      1  C   UNL     1     -10.048  84.384  -8.942  1.00  0.00     0.402 A 
ATOM      2  O   UNL     1      -9.006  83.612  -9.239  1.00  0.00    -0.202 OA
ATOM      3  C   UNL     1      -7.780  84.085  -9.436  1.00  0.00     0.368 A 
ATOM      4  C   UNL     1      -6.748  83.194  -9.741  1.00  0.00     0.162 A 
ATOM      5  C   UNL     1      -5.448  83.664  -9.950  1.00  0.00     0.128 A 
ATOM      6  C   UNL     1      -5.180  85.032  -9.852  1.00  0.00     0.093 A 
ATOM      7  C   UNL     1      -6.196  85.946  -9.548  1.00  0.00     0.136 A 
ATOM      8  C   UNL     1      -7.519  85.472  -9.338  1.00  0.00     0.125 A 
ATOM      9  C   UNL     1      -8.601  86.316  -9.041  1.00  0.00     0.078 A 
ATOM     10  C   UNL     1      -9.878  85.777  -8.851  1.00  0.00     0.223 A 
ENDROOT
BRANCH   1  11
ATOM     11  C   UNL     1     -11.363  83.735  -8.735  1.00  0.00     0.087 A 
ATOM     12  C   UNL     1     -11.649  83.017  -7.564  1.00  0.00     0.022 A 
ATOM     13  C   UNL     1     -12.888  82.395  -7.401  1.00  0.00     0.051 A 
ATOM     14  C   UNL     1     -13.860  82.465  -8.406  1.00  0.00     0.157 A 
ATOM     15  C   UNL     1     -12.327  83.788  -9.753  1.00  0.00     0.068 A 
ATOM     16  C   UNL     1     -13.574  83.167  -9.600  1.00  0.00     0.158 A 
BRANCH  14  17
ATOM     17  O   UNL     1     -15.080  81.825  -8.179  1.00  0.00    -0.504 OA
ATOM     18  H   UNL     1     -15.965  82.307  -8.108  1.00  0.00     0.293 HD
ENDBRANCH  14  17
BRANCH  16  19
ATOM     19  O   UNL     1     -14.489  83.273 -10.649  1.00  0.00    -0.504 OA
ATOM     20  H   UNL     1     -14.760  84.147 -11.077  1.00  0.00     0.293 HD
ENDBRANCH  16  19
ENDBRANCH   1  11
BRANCH  10  21
ATOM     21  O   UNL     1     -10.963  86.619  -8.606  1.00  0.00    -0.500 OA
ATOM     22  H   UNL     1     -10.879  87.626  -8.665  1.00  0.00     0.294 HD
ENDBRANCH  10  21
BRANCH   5  23
ATOM     23  O   UNL     1      -4.414  82.782 -10.255  1.00  0.00    -0.507 OA
ATOM     24  H   UNL     1      -3.461  83.104 -10.377  1.00  0.00     0.293 HD
ENDBRANCH   5  23
BRANCH   7  25
ATOM     25  O   UNL     1      -5.845  87.296  -9.465  1.00  0.00    -0.507 OA
ATOM     26  H   UNL     1      -6.505  88.059  -9.485  1.00  0.00     0.293 HD
ENDBRANCH   7  25
TORSDOF 6
ENDMDL
MODEL 7
REMARK VINA RESULT:    -4.975      9.609     12.438
REMARK INTER + INTRA:          -6.239
REMARK INTER:                  -5.891
REMARK INTRA:                  -0.348
REMARK UNBOUND:                -0.246
REMARK SMILES Oc1cc(O)c2cc(O)c(-c3ccc(O)c(O)c3)[o+]c2c1
REMARK SMILES IDX 10 1 19 2 20 3 21 4 2 5 3 6 4 7 6 8 7 9 8 10 11 11 12 12
REMARK SMILES IDX 13 13 14 14 18 15 16 16 15 17 17 19 9 21 1 23 5 25
REMARK H PARENT 15 18 17 20 9 22 1 24 5 26
REMARK Flexibility Score: inf
ROOT
ATOM      1  C   UNL     1      -8.965  83.220  -8.115  1.00  0.00     0.402 A 
ATOM      2  O   UNL     1      -9.950  83.469  -8.973  1.00  0.00    -0.202 OA
ATOM      3  C   UNL     1     -11.199  83.050  -8.791  1.00  0.00     0.368 A 
ATOM      4  C   UNL     1     -12.167  83.364  -9.749  1.00  0.00     0.162 A 
ATOM      5  C   UNL     1     -13.489  82.939  -9.581  1.00  0.00     0.128 A 
ATOM      6  C   UNL     1     -13.842  82.198  -8.450  1.00  0.00     0.093 A 
ATOM      7  C   UNL     1     -12.890  81.871  -7.477  1.00  0.00     0.136 A 
ATOM      8  C   UNL     1     -11.547  82.298  -7.644  1.00  0.00     0.125 A 
ATOM      9  C   UNL     1     -10.525  82.006  -6.726  1.00  0.00     0.078 A 
ATOM     10  C   UNL     1      -9.222  82.457  -6.962  1.00  0.00     0.223 A 
ENDROOT
BRANCH   1  11
ATOM     11  C   UNL     1      -7.617  83.751  -8.425  1.00  0.00     0.087 A 
ATOM     12  C   UNL     1      -7.155  84.951  -7.862  1.00  0.00     0.022 A 
ATOM     13  C   UNL     1      -5.889  85.442  -8.188  1.00  0.00     0.051 A 
ATOM     14  C   UNL     1      -5.066  84.756  -9.087  1.00  0.00     0.157 A 
ATOM     15  C   UNL     1      -6.802  83.072  -9.344  1.00  0.00     0.068 A 
ATOM     16  C   UNL     1      -5.530  83.557  -9.677  1.00  0.00     0.158 A 
BRANCH  14  17
ATOM     17  O   UNL     1      -3.810  85.299  -9.366  1.00  0.00    -0.504 OA
ATOM     18  H   UNL     1      -3.080  84.806  -9.861  1.00  0.00     0.293 HD
ENDBRANCH  14  17
BRANCH  16  19
ATOM     19  O   UNL     1      -4.770  82.822 -10.588  1.00  0.00    -0.504 OA
ATOM     20  H   UNL     1      -4.902  82.853 -11.589  1.00  0.00     0.293 HD
ENDBRANCH  16  19
ENDBRANCH   1  11
BRANCH  10  21
ATOM     21  O   UNL     1      -8.196  82.125  -6.077  1.00  0.00    -0.500 OA
ATOM     22  H   UNL     1      -7.713  81.235  -6.131  1.00  0.00     0.294 HD
ENDBRANCH  10  21
BRANCH   5  23
ATOM     23  O   UNL     1     -14.459  83.247 -10.531  1.00  0.00    -0.507 OA
ATOM     24  H   UNL     1     -14.767  84.201 -10.684  1.00  0.00     0.293 HD
ENDBRANCH   5  23
BRANCH   7  25
ATOM     25  O   UNL     1     -13.325  81.131  -6.374  1.00  0.00    -0.507 OA
ATOM     26  H   UNL     1     -12.730  80.542  -5.811  1.00  0.00     0.293 HD
ENDBRANCH   7  25
TORSDOF 6
ENDMDL
MODEL 8
REMARK VINA RESULT:    -4.966     10.018     12.044
REMARK INTER + INTRA:          -6.228
REMARK INTER:                  -5.894
REMARK INTRA:                  -0.334
REMARK UNBOUND:                -0.246
REMARK SMILES Oc1cc(O)c2cc(O)c(-c3ccc(O)c(O)c3)[o+]c2c1
REMARK SMILES IDX 10 1 19 2 20 3 21 4 2 5 3 6 4 7 6 8 7 9 8 10 11 11 12 12
REMARK SMILES IDX 13 13 14 14 18 15 16 16 15 17 17 19 9 21 1 23 5 25
REMARK H PARENT 15 18 17 20 9 22 1 24 5 26
REMARK Flexibility Score: inf
ROOT
ATOM      1  C   UNL     1      -8.238  83.883  -8.595  1.00  0.00     0.402 A 
ATOM      2  O   UNL     1      -9.194  82.979  -8.790  1.00  0.00    -0.202 OA
ATOM      3  C   UNL     1     -10.470  83.296  -8.983  1.00  0.00     0.368 A 
ATOM      4  C   UNL     1     -11.402  82.274  -9.181  1.00  0.00     0.162 A 
ATOM      5  C   UNL     1     -12.751  82.580  -9.390  1.00  0.00     0.128 A 
ATOM      6  C   UNL     1     -13.167  83.913  -9.400  1.00  0.00     0.093 A 
ATOM      7  C   UNL     1     -12.253  84.955  -9.203  1.00  0.00     0.136 A 
ATOM      8  C   UNL     1     -10.883  84.650  -8.989  1.00  0.00     0.125 A 
ATOM      9  C   UNL     1      -9.900  85.628  -8.770  1.00  0.00     0.078 A 
ATOM     10  C   UNL     1      -8.570  85.250  -8.561  1.00  0.00     0.223 A 
ENDROOT
BRANCH   1  11
ATOM     11  C   UNL     1      -6.850  83.403  -8.402  1.00  0.00     0.087 A 
ATOM     12  C   UNL     1      -6.302  83.244  -7.120  1.00  0.00     0.022 A 
ATOM     13  C   UNL     1      -4.984  82.812  -6.964  1.00  0.00     0.051 A 
ATOM     14  C   UNL     1      -4.184  82.543  -8.080  1.00  0.00     0.157 A 
ATOM     15  C   UNL     1      -6.043  83.155  -9.522  1.00  0.00     0.068 A 
ATOM     16  C   UNL     1      -4.719  82.721  -9.377  1.00  0.00     0.158 A 
BRANCH  14  17
ATOM     17  O   UNL     1      -2.875  82.110  -7.855  1.00  0.00    -0.504 OA
ATOM     18  H   UNL     1      -2.506  81.879  -6.943  1.00  0.00     0.293 HD
ENDBRANCH  14  17
BRANCH  16  19
ATOM     19  O   UNL     1      -3.979  82.482 -10.537  1.00  0.00    -0.504 OA
ATOM     20  H   UNL     1      -3.045  82.832 -10.694  1.00  0.00     0.293 HD
ENDBRANCH  16  19
ENDBRANCH   1  11
BRANCH  10  21
ATOM     21  O   UNL     1      -7.601  86.217  -8.294  1.00  0.00    -0.500 OA
ATOM     22  H   UNL     1      -7.847  87.186  -8.126  1.00  0.00     0.294 HD
ENDBRANCH  10  21
BRANCH   5  23
ATOM     23  O   UNL     1     -13.685  81.566  -9.588  1.00  0.00    -0.507 OA
ATOM     24  H   UNL     1     -14.188  81.473 -10.464  1.00  0.00     0.293 HD
ENDBRANCH   5  23
BRANCH   7  25
ATOM     25  O   UNL     1     -12.749  86.261  -9.231  1.00  0.00    -0.507 OA
ATOM     26  H   UNL     1     -13.538  86.584  -8.692  1.00  0.00     0.293 HD
ENDBRANCH   7  25
TORSDOF 6
ENDMDL
MODEL 9
REMARK VINA RESULT:    -4.864      1.458      3.071
REMARK INTER + INTRA:          -6.105
REMARK INTER:                  -5.831
REMARK INTRA:                  -0.274
REMARK UNBOUND:                -0.246
REMARK SMILES Oc1cc(O)c2cc(O)c(-c3ccc(O)c(O)c3)[o+]c2c1
REMARK SMILES IDX 10 1 19 2 20 3 21 4 2 5 3 6 4 7 6 8 7 9 8 10 11 11 12 12
REMARK SMILES IDX 13 13 14 14 18 15 16 16 15 17 17 19 9 21 1 23 5 25
REMARK H PARENT 15 18 17 20 9 22 1 24 5 26
REMARK Flexibility Score: inf
ROOT
ATOM      1  C   UNL     1      -5.012  91.047 -14.767  1.00  0.00     0.402 A 
ATOM      2  O   UNL     1      -5.489  89.920 -14.246  1.00  0.00    -0.202 OA
ATOM      3  C   UNL     1      -5.872  89.807 -12.978  1.00  0.00     0.368 A 
ATOM      4  C   UNL     1      -6.363  88.581 -12.523  1.00  0.00     0.162 A 
ATOM      5  C   UNL     1      -6.776  88.435 -11.195  1.00  0.00     0.128 A 
ATOM      6  C   UNL     1      -6.698  89.521 -10.320  1.00  0.00     0.093 A 
ATOM      7  C   UNL     1      -6.209  90.760 -10.751  1.00  0.00     0.136 A 
ATOM      8  C   UNL     1      -5.786  90.912 -12.098  1.00  0.00     0.125 A 
ATOM      9  C   UNL     1      -5.272  92.113 -12.614  1.00  0.00     0.078 A 
ATOM     10  C   UNL     1      -4.870  92.185 -13.952  1.00  0.00     0.223 A 
ENDROOT
BRANCH   1  11
ATOM     11  C   UNL     1      -4.628  91.048 -16.198  1.00  0.00     0.087 A 
ATOM     12  C   UNL     1      -3.282  91.057 -16.594  1.00  0.00     0.022 A 
ATOM     13  C   UNL     1      -2.946  91.081 -17.949  1.00  0.00     0.051 A 
ATOM     14  C   UNL     1      -3.941  91.111 -18.932  1.00  0.00     0.157 A 
ATOM     15  C   UNL     1      -5.628  91.099 -17.180  1.00  0.00     0.068 A 
ATOM     16  C   UNL     1      -5.301  91.124 -18.543  1.00  0.00     0.158 A 
BRANCH  14  17
ATOM     17  O   UNL     1      -3.538  91.129 -20.269  1.00  0.00    -0.504 OA
ATOM     18  H   UNL     1      -2.869  90.484 -20.665  1.00  0.00     0.293 HD
ENDBRANCH  14  17
BRANCH  16  19
ATOM     19  O   UNL     1      -6.349  91.161 -19.465  1.00  0.00    -0.504 OA
ATOM     20  H   UNL     1      -6.232  91.023 -20.458  1.00  0.00     0.293 HD
ENDBRANCH  16  19
ENDBRANCH   1  11
BRANCH  10  21
ATOM     21  O   UNL     1      -4.312  93.361 -14.453  1.00  0.00    -0.500 OA
ATOM     22  H   UNL     1      -3.621  93.349 -15.193  1.00  0.00     0.294 HD
ENDBRANCH  10  21
BRANCH   5  23
ATOM     23  O   UNL     1      -7.267  87.216 -10.734  1.00  0.00    -0.507 OA
ATOM     24  H   UNL     1      -8.261  87.052 -10.623  1.00  0.00     0.293 HD
ENDBRANCH   5  23
BRANCH   7  25
ATOM     25  O   UNL     1      -6.166  91.797  -9.815  1.00  0.00    -0.507 OA
ATOM     26  H   UNL     1      -6.906  92.008  -9.162  1.00  0.00     0.293 HD
ENDBRANCH   7  25
TORSDOF 6
ENDMDL
