MODEL 1
REMARK VINA RESULT:    -4.700      0.000      0.000
REMARK INTER + INTRA:         -15.051
REMARK INTER:                 -11.844
REMARK INTRA:                  -3.207
REMARK UNBOUND:                -3.207
REMARK SMILES CCCCCCCCCCCCCCCCCCCCCCCCCCCC(=O)[O-]
REMARK SMILES IDX 15 1 16 2 17 3 18 4 19 5 20 6 21 7 22 8 23 9 24 10 25 11
REMARK SMILES IDX 26 12 27 13 28 14 29 15 30 16 14 17 13 18 12 19 11 20 10 21
REMARK SMILES IDX 9 22 8 23 7 24 6 25 5 26 4 27 3 28 2 29 1 30
REMARK H PARENT
REMARK Flexibility Score: inf
ROOT
ATOM      1  C   UNL     1      38.411  -6.466   8.974  1.00  0.00     0.000 C 
ENDROOT
BRANCH   1   2
ATOM      2  C   UNL     1      38.028  -7.356  10.168  1.00  0.00     0.000 C 
BRANCH   2   3
ATOM      3  C   UNL     1      39.251  -7.902  10.920  1.00  0.00     0.000 C 
BRANCH   3   4
ATOM      4  C   UNL     1      39.338  -9.429  10.792  1.00  0.00     0.000 C 
BRANCH   4   5
ATOM      5  C   UNL     1      38.280 -10.008   9.834  1.00  0.00     0.000 C 
BRANCH   5   6
ATOM      6  C   UNL     1      37.307 -11.019  10.474  1.00  0.00     0.000 C 
BRANCH   6   7
ATOM      7  C   UNL     1      36.147 -10.391  11.267  1.00  0.00     0.000 C 
BRANCH   7   8
ATOM      8  C   UNL     1      36.158 -10.791  12.751  1.00  0.00     0.000 C 
BRANCH   8   9
ATOM      9  C   UNL     1      36.933  -9.773  13.595  1.00  0.00     0.000 C 
BRANCH   9  10
ATOM     10  C   UNL     1      36.490  -8.339  13.264  1.00  0.00     0.000 C 
BRANCH  10  11
ATOM     11  C   UNL     1      35.698  -7.682  14.405  1.00  0.00     0.000 C 
BRANCH  11  12
ATOM     12  C   UNL     1      34.179  -7.844  14.240  1.00  0.00     0.006 C 
BRANCH  12  13
ATOM     13  C   UNL     1      33.648  -8.970  15.133  1.00  0.00     0.053 C 
BRANCH  13  14
ATOM     14  C   UNL     1      32.667  -8.439  16.130  1.00  0.00     0.041 C 
ATOM     15  O   UNL     1      31.943  -7.450  15.840  1.00  0.00    -0.550 OA
ATOM     16  O   UNL     1      32.543  -9.041  17.376  1.00  0.00    -0.550 OA
ENDBRANCH  13  14
ENDBRANCH  12  13
ENDBRANCH  11  12
ENDBRANCH  10  11
ENDBRANCH   9  10
ENDBRANCH   8   9
ENDBRANCH   7   8
ENDBRANCH   6   7
ENDBRANCH   5   6
ENDBRANCH   4   5
ENDBRANCH   3   4
ENDBRANCH   2   3
ENDBRANCH   1   2
BRANCH   1  17
ATOM     17  C   UNL     1      39.928  -6.432   8.727  1.00  0.00     0.000 C 
BRANCH  17  18
ATOM     18  C   UNL     1      40.293  -7.165   7.428  1.00  0.00     0.000 C 
BRANCH  18  19
ATOM     19  C   UNL     1      41.179  -8.397   7.673  1.00  0.00     0.000 C 
BRANCH  19  20
ATOM     20  C   UNL     1      42.641  -8.026   7.984  1.00  0.00     0.000 C 
BRANCH  20  21
ATOM     21  C   UNL     1      43.558  -8.158   6.751  1.00  0.00     0.000 C 
BRANCH  21  22
ATOM     22  C   UNL     1      43.132  -9.267   5.770  1.00  0.00    -0.000 C 
BRANCH  22  23
ATOM     23  C   UNL     1      43.044  -8.832   4.298  1.00  0.00    -0.000 C 
BRANCH  23  24
ATOM     24  C   UNL     1      41.596  -8.622   3.828  1.00  0.00    -0.000 C 
BRANCH  24  25
ATOM     25  C   UNL     1      41.190  -7.147   3.932  1.00  0.00    -0.000 C 
BRANCH  25  26
ATOM     26  C   UNL     1      41.094  -6.504   2.539  1.00  0.00    -0.000 C 
BRANCH  26  27
ATOM     27  C   UNL     1      41.207  -4.965   2.596  1.00  0.00    -0.000 C 
BRANCH  27  28
ATOM     28  C   UNL     1      39.886  -4.243   2.271  1.00  0.00    -0.000 C 
BRANCH  28  29
ATOM     29  C   UNL     1      39.698  -2.900   2.998  1.00  0.00    -0.003 C 
ATOM     30  C   UNL     1      38.744  -1.955   2.265  1.00  0.00     0.004 C 
ENDBRANCH  28  29
ENDBRANCH  27  28
ENDBRANCH  26  27
ENDBRANCH  25  26
ENDBRANCH  24  25
ENDBRANCH  23  24
ENDBRANCH  22  23
ENDBRANCH  21  22
ENDBRANCH  20  21
ENDBRANCH  19  20
ENDBRANCH  18  19
ENDBRANCH  17  18
ENDBRANCH   1  17
TORSDOF 26
ENDMDL
MODEL 2
REMARK VINA RESULT:    -4.608      4.350     10.973
REMARK INTER + INTRA:         -14.819
REMARK INTER:                 -11.589
REMARK INTRA:                  -3.230
REMARK UNBOUND:                -3.207
REMARK SMILES CCCCCCCCCCCCCCCCCCCCCCCCCCCC(=O)[O-]
REMARK SMILES IDX 15 1 16 2 17 3 18 4 19 5 20 6 21 7 22 8 23 9 24 10 25 11
REMARK SMILES IDX 26 12 27 13 28 14 29 15 30 16 14 17 13 18 12 19 11 20 10 21
REMARK SMILES IDX 9 22 8 23 7 24 6 25 5 26 4 27 3 28 2 29 1 30
REMARK H PARENT
REMARK Flexibility Score: inf
ROOT
ATOM      1  C   UNL     1      40.231  -6.994   7.375  1.00  0.00     0.000 C 
ENDROOT
BRANCH   1   2
ATOM      2  C   UNL     1      41.109  -8.254   7.302  1.00  0.00     0.000 C 
BRANCH   2   3
ATOM      3  C   UNL     1      42.446  -8.091   8.038  1.00  0.00     0.000 C 
BRANCH   3   4
ATOM      4  C   UNL     1      43.581  -7.776   7.054  1.00  0.00     0.000 C 
BRANCH   4   5
ATOM      5  C   UNL     1      44.233  -9.042   6.470  1.00  0.00     0.000 C 
BRANCH   5   6
ATOM      6  C   UNL     1      44.015  -9.249   4.958  1.00  0.00     0.000 C 
BRANCH   6   7
ATOM      7  C   UNL     1      42.791 -10.106   4.588  1.00  0.00     0.000 C 
BRANCH   7   8
ATOM      8  C   UNL     1      41.722  -9.313   3.822  1.00  0.00     0.000 C 
BRANCH   8   9
ATOM      9  C   UNL     1      42.149  -7.855   3.618  1.00  0.00     0.000 C 
BRANCH   9  10
ATOM     10  C   UNL     1      40.970  -7.006   3.118  1.00  0.00     0.000 C 
BRANCH  10  11
ATOM     11  C   UNL     1      41.100  -6.619   1.637  1.00  0.00     0.000 C 
BRANCH  11  12
ATOM     12  C   UNL     1      40.582  -5.201   1.348  1.00  0.00     0.006 C 
BRANCH  12  13
ATOM     13  C   UNL     1      39.628  -4.732   2.452  1.00  0.00     0.053 C 
BRANCH  13  14
ATOM     14  C   UNL     1      40.003  -3.365   2.931  1.00  0.00     0.041 C 
ATOM     15  O   UNL     1      41.152  -3.153   3.402  1.00  0.00    -0.550 OA
ATOM     16  O   UNL     1      39.090  -2.321   2.848  1.00  0.00    -0.550 OA
ENDBRANCH  13  14
ENDBRANCH  12  13
ENDBRANCH  11  12
ENDBRANCH  10  11
ENDBRANCH   9  10
ENDBRANCH   8   9
ENDBRANCH   7   8
ENDBRANCH   6   7
ENDBRANCH   5   6
ENDBRANCH   4   5
ENDBRANCH   3   4
ENDBRANCH   2   3
ENDBRANCH   1   2
BRANCH   1  17
ATOM     17  C   UNL     1      39.898  -6.590   8.820  1.00  0.00     0.000 C 
BRANCH  17  18
ATOM     18  C   UNL     1      38.380  -6.574   9.053  1.00  0.00     0.000 C 
BRANCH  18  19
ATOM     19  C   UNL     1      37.966  -7.359  10.309  1.00  0.00     0.000 C 
BRANCH  19  20
ATOM     20  C   UNL     1      39.168  -7.759  11.184  1.00  0.00     0.000 C 
BRANCH  20  21
ATOM     21  C   UNL     1      39.243  -9.282  11.423  1.00  0.00     0.000 C 
BRANCH  21  22
ATOM     22  C   UNL     1      38.035 -10.062  10.870  1.00  0.00    -0.000 C 
BRANCH  22  23
ATOM     23  C   UNL     1      37.199 -10.800  11.930  1.00  0.00    -0.000 C 
BRANCH  23  24
ATOM     24  C   UNL     1      37.067 -10.005  13.238  1.00  0.00    -0.000 C 
BRANCH  24  25
ATOM     25  C   UNL     1      36.002  -8.909  13.114  1.00  0.00    -0.000 C 
BRANCH  25  26
ATOM     26  C   UNL     1      36.457  -7.618  13.811  1.00  0.00    -0.000 C 
BRANCH  26  27
ATOM     27  C   UNL     1      35.423  -7.113  14.842  1.00  0.00    -0.000 C 
BRANCH  27  28
ATOM     28  C   UNL     1      34.071  -7.844  14.759  1.00  0.00    -0.000 C 
BRANCH  28  29
ATOM     29  C   UNL     1      33.688  -8.624  16.028  1.00  0.00    -0.003 C 
ATOM     30  C   UNL     1      33.894 -10.133  15.886  1.00  0.00     0.004 C 
ENDBRANCH  28  29
ENDBRANCH  27  28
ENDBRANCH  26  27
ENDBRANCH  25  26
ENDBRANCH  24  25
ENDBRANCH  23  24
ENDBRANCH  22  23
ENDBRANCH  21  22
ENDBRANCH  20  21
ENDBRANCH  19  20
ENDBRANCH  18  19
ENDBRANCH  17  18
ENDBRANCH   1  17
TORSDOF 26
ENDMDL
MODEL 3
REMARK VINA RESULT:    -4.561      1.547      2.537
REMARK INTER + INTRA:         -14.701
REMARK INTER:                 -11.594
REMARK INTRA:                  -3.106
REMARK UNBOUND:                -3.207
REMARK SMILES CCCCCCCCCCCCCCCCCCCCCCCCCCCC(=O)[O-]
REMARK SMILES IDX 15 1 16 2 17 3 18 4 19 5 20 6 21 7 22 8 23 9 24 10 25 11
REMARK SMILES IDX 26 12 27 13 28 14 29 15 30 16 14 17 13 18 12 19 11 20 10 21
REMARK SMILES IDX 9 22 8 23 7 24 6 25 5 26 4 27 3 28 2 29 1 30
REMARK H PARENT
REMARK Flexibility Score: inf
ROOT
ATOM      1  C   UNL     1      39.753  -6.451   9.388  1.00  0.00     0.000 C 
ENDROOT
BRANCH   1   2
ATOM      2  C   UNL     1      39.887  -7.342  10.634  1.00  0.00     0.000 C 
BRANCH   2   3
ATOM      3  C   UNL     1      38.613  -7.363  11.491  1.00  0.00     0.000 C 
BRANCH   3   4
ATOM      4  C   UNL     1      37.398  -7.796  10.659  1.00  0.00     0.000 C 
BRANCH   4   5
ATOM      5  C   UNL     1      37.437  -9.288  10.281  1.00  0.00     0.000 C 
BRANCH   5   6
ATOM      6  C   UNL     1      36.564 -10.205  11.162  1.00  0.00     0.000 C 
BRANCH   6   7
ATOM      7  C   UNL     1      37.280 -10.801  12.388  1.00  0.00     0.000 C 
BRANCH   7   8
ATOM      8  C   UNL     1      36.917 -10.081  13.695  1.00  0.00     0.000 C 
BRANCH   8   9
ATOM      9  C   UNL     1      35.585  -9.333  13.567  1.00  0.00     0.000 C 
BRANCH   9  10
ATOM     10  C   UNL     1      35.723  -7.885  14.061  1.00  0.00     0.000 C 
BRANCH  10  11
ATOM     11  C   UNL     1      34.691  -7.523  15.140  1.00  0.00     0.000 C 
BRANCH  11  12
ATOM     12  C   UNL     1      33.335  -8.210  14.917  1.00  0.00     0.006 C 
BRANCH  12  13
ATOM     13  C   UNL     1      32.306  -7.740  15.951  1.00  0.00     0.053 C 
BRANCH  13  14
ATOM     14  C   UNL     1      31.664  -8.908  16.631  1.00  0.00     0.041 C 
ATOM     15  O   UNL     1      31.742  -9.033  17.882  1.00  0.00    -0.550 OA
ATOM     16  O   UNL     1      30.970  -9.854  15.886  1.00  0.00    -0.550 OA
ENDBRANCH  13  14
ENDBRANCH  12  13
ENDBRANCH  11  12
ENDBRANCH  10  11
ENDBRANCH   9  10
ENDBRANCH   8   9
ENDBRANCH   7   8
ENDBRANCH   6   7
ENDBRANCH   5   6
ENDBRANCH   4   5
ENDBRANCH   3   4
ENDBRANCH   2   3
ENDBRANCH   1   2
BRANCH   1  17
ATOM     17  C   UNL     1      40.251  -7.144   8.111  1.00  0.00     0.000 C 
BRANCH  17  18
ATOM     18  C   UNL     1      40.611  -8.612   8.383  1.00  0.00     0.000 C 
BRANCH  18  19
ATOM     19  C   UNL     1      42.088  -8.923   8.093  1.00  0.00     0.000 C 
BRANCH  19  20
ATOM     20  C   UNL     1      42.399 -10.430   8.134  1.00  0.00     0.000 C 
BRANCH  20  21
ATOM     21  C   UNL     1      43.891 -10.718   8.401  1.00  0.00     0.000 C 
BRANCH  21  22
ATOM     22  C   UNL     1      44.851  -9.735   7.706  1.00  0.00    -0.000 C 
BRANCH  22  23
ATOM     23  C   UNL     1      45.679 -10.337   6.559  1.00  0.00    -0.000 C 
BRANCH  23  24
ATOM     24  C   UNL     1      44.896 -10.412   5.239  1.00  0.00    -0.000 C 
BRANCH  24  25
ATOM     25  C   UNL     1      44.138  -9.106   4.972  1.00  0.00    -0.000 C 
BRANCH  25  26
ATOM     26  C   UNL     1      42.702  -9.390   4.505  1.00  0.00    -0.000 C 
BRANCH  26  27
ATOM     27  C   UNL     1      42.080  -8.188   3.760  1.00  0.00    -0.000 C 
BRANCH  27  28
ATOM     28  C   UNL     1      41.374  -7.188   4.694  1.00  0.00    -0.000 C 
BRANCH  28  29
ATOM     29  C   UNL     1      40.563  -6.101   3.969  1.00  0.00    -0.003 C 
ATOM     30  C   UNL     1      40.983  -5.919   2.509  1.00  0.00     0.004 C 
ENDBRANCH  28  29
ENDBRANCH  27  28
ENDBRANCH  26  27
ENDBRANCH  25  26
ENDBRANCH  24  25
ENDBRANCH  23  24
ENDBRANCH  22  23
ENDBRANCH  21  22
ENDBRANCH  20  21
ENDBRANCH  19  20
ENDBRANCH  18  19
ENDBRANCH  17  18
ENDBRANCH   1  17
TORSDOF 26
ENDMDL
MODEL 4
REMARK VINA RESULT:    -4.528      3.480      6.794
REMARK INTER + INTRA:         -14.619
REMARK INTER:                 -11.737
REMARK INTRA:                  -2.882
REMARK UNBOUND:                -3.207
REMARK SMILES CCCCCCCCCCCCCCCCCCCCCCCCCCCC(=O)[O-]
REMARK SMILES IDX 15 1 16 2 17 3 18 4 19 5 20 6 21 7 22 8 23 9 24 10 25 11
REMARK SMILES IDX 26 12 27 13 28 14 29 15 30 16 14 17 13 18 12 19 11 20 10 21
REMARK SMILES IDX 9 22 8 23 7 24 6 25 5 26 4 27 3 28 2 29 1 30
REMARK H PARENT
REMARK Flexibility Score: inf
ROOT
ATOM      1  C   UNL     1      35.858  -6.581  13.327  1.00  0.00     0.000 C 
ENDROOT
BRANCH   1   2
ATOM      2  C   UNL     1      35.940  -6.732  14.855  1.00  0.00     0.000 C 
BRANCH   2   3
ATOM      3  C   UNL     1      34.681  -7.371  15.458  1.00  0.00     0.000 C 
BRANCH   3   4
ATOM      4  C   UNL     1      33.842  -8.062  14.374  1.00  0.00     0.000 C 
BRANCH   4   5
ATOM      5  C   UNL     1      32.476  -8.543  14.894  1.00  0.00     0.000 C 
BRANCH   5   6
ATOM      6  C   UNL     1      32.052  -7.953  16.254  1.00  0.00     0.000 C 
BRANCH   6   7
ATOM      7  C   UNL     1      31.497  -8.975  17.262  1.00  0.00     0.000 C 
BRANCH   7   8
ATOM      8  C   UNL     1      32.210  -8.915  18.621  1.00  0.00     0.000 C 
BRANCH   8   9
ATOM      9  C   UNL     1      33.718  -9.148  18.470  1.00  0.00     0.000 C 
BRANCH   9  10
ATOM     10  C   UNL     1      34.514  -8.123  19.292  1.00  0.00     0.000 C 
BRANCH  10  11
ATOM     11  C   UNL     1      33.622  -7.274  20.211  1.00  0.00     0.000 C 
BRANCH  11  12
ATOM     12  C   UNL     1      34.285  -5.950  20.621  1.00  0.00     0.006 C 
BRANCH  12  13
ATOM     13  C   UNL     1      34.861  -5.225  19.400  1.00  0.00     0.053 C 
BRANCH  13  14
ATOM     14  C   UNL     1      34.925  -3.749  19.641  1.00  0.00     0.041 C 
ATOM     15  O   UNL     1      36.039  -3.162  19.679  1.00  0.00    -0.550 OA
ATOM     16  O   UNL     1      33.756  -3.019  19.812  1.00  0.00    -0.550 OA
ENDBRANCH  13  14
ENDBRANCH  12  13
ENDBRANCH  11  12
ENDBRANCH  10  11
ENDBRANCH   9  10
ENDBRANCH   8   9
ENDBRANCH   7   8
ENDBRANCH   6   7
ENDBRANCH   5   6
ENDBRANCH   4   5
ENDBRANCH   3   4
ENDBRANCH   2   3
ENDBRANCH   1   2
BRANCH   1  17
ATOM     17  C   UNL     1      37.016  -7.285  12.602  1.00  0.00     0.000 C 
BRANCH  17  18
ATOM     18  C   UNL     1      36.576  -8.653  12.058  1.00  0.00     0.000 C 
BRANCH  18  19
ATOM     19  C   UNL     1      36.936  -9.810  13.004  1.00  0.00     0.000 C 
BRANCH  19  20
ATOM     20  C   UNL     1      37.874 -10.842  12.352  1.00  0.00     0.000 C 
BRANCH  20  21
ATOM     21  C   UNL     1      39.300 -10.291  12.138  1.00  0.00     0.000 C 
BRANCH  21  22
ATOM     22  C   UNL     1      39.828 -10.464  10.701  1.00  0.00    -0.000 C 
BRANCH  22  23
ATOM     23  C   UNL     1      38.813 -10.134   9.593  1.00  0.00    -0.000 C 
BRANCH  23  24
ATOM     24  C   UNL     1      38.910  -8.677   9.116  1.00  0.00    -0.000 C 
BRANCH  24  25
ATOM     25  C   UNL     1      40.017  -7.924   9.863  1.00  0.00    -0.000 C 
BRANCH  25  26
ATOM     26  C   UNL     1      41.014  -7.294   8.878  1.00  0.00    -0.000 C 
BRANCH  26  27
ATOM     27  C   UNL     1      41.813  -8.358   8.093  1.00  0.00    -0.000 C 
BRANCH  27  28
ATOM     28  C   UNL     1      42.688  -7.763   6.974  1.00  0.00    -0.000 C 
BRANCH  28  29
ATOM     29  C   UNL     1      43.999  -8.525   6.717  1.00  0.00    -0.003 C 
ATOM     30  C   UNL     1      44.449  -9.358   7.919  1.00  0.00     0.004 C 
ENDBRANCH  28  29
ENDBRANCH  27  28
ENDBRANCH  26  27
ENDBRANCH  25  26
ENDBRANCH  24  25
ENDBRANCH  23  24
ENDBRANCH  22  23
ENDBRANCH  21  22
ENDBRANCH  20  21
ENDBRANCH  19  20
ENDBRANCH  18  19
ENDBRANCH  17  18
ENDBRANCH   1  17
TORSDOF 26
ENDMDL
MODEL 5
REMARK VINA RESULT:    -4.516      4.464     12.165
REMARK INTER + INTRA:         -14.587
REMARK INTER:                 -10.935
REMARK INTRA:                  -3.651
REMARK UNBOUND:                -3.207
REMARK SMILES CCCCCCCCCCCCCCCCCCCCCCCCCCCC(=O)[O-]
REMARK SMILES IDX 15 1 16 2 17 3 18 4 19 5 20 6 21 7 22 8 23 9 24 10 25 11
REMARK SMILES IDX 26 12 27 13 28 14 29 15 30 16 14 17 13 18 12 19 11 20 10 21
REMARK SMILES IDX 9 22 8 23 7 24 6 25 5 26 4 27 3 28 2 29 1 30
REMARK H PARENT
REMARK Flexibility Score: inf
ROOT
ATOM      1  C   UNL     1      36.912  -6.394  13.623  1.00  0.00     0.000 C 
ENDROOT
BRANCH   1   2
ATOM      2  C   UNL     1      37.550  -7.398  12.649  1.00  0.00     0.000 C 
BRANCH   2   3
ATOM      3  C   UNL     1      36.623  -7.766  11.482  1.00  0.00     0.000 C 
BRANCH   3   4
ATOM      4  C   UNL     1      36.512  -9.289  11.329  1.00  0.00     0.000 C 
BRANCH   4   5
ATOM      5  C   UNL     1      37.173 -10.055  12.489  1.00  0.00     0.000 C 
BRANCH   5   6
ATOM      6  C   UNL     1      38.300 -11.021  12.072  1.00  0.00     0.000 C 
BRANCH   6   7
ATOM      7  C   UNL     1      39.534 -10.349  11.444  1.00  0.00     0.000 C 
BRANCH   7   8
ATOM      8  C   UNL     1      39.723 -10.719   9.965  1.00  0.00     0.000 C 
BRANCH   8   9
ATOM      9  C   UNL     1      39.384  -9.537   9.049  1.00  0.00     0.000 C 
BRANCH   9  10
ATOM     10  C   UNL     1      39.834  -8.211   9.679  1.00  0.00     0.000 C 
BRANCH  10  11
ATOM     11  C   UNL     1      41.008  -7.563   8.929  1.00  0.00     0.000 C 
BRANCH  11  12
ATOM     12  C   UNL     1      41.579  -8.470   7.828  1.00  0.00     0.006 C 
BRANCH  12  13
ATOM     13  C   UNL     1      42.422  -7.661   6.835  1.00  0.00     0.053 C 
BRANCH  13  14
ATOM     14  C   UNL     1      41.698  -7.497   5.536  1.00  0.00     0.041 C 
ATOM     15  O   UNL     1      40.936  -6.511   5.356  1.00  0.00    -0.550 OA
ATOM     16  O   UNL     1      41.873  -8.426   4.517  1.00  0.00    -0.550 OA
ENDBRANCH  13  14
ENDBRANCH  12  13
ENDBRANCH  11  12
ENDBRANCH  10  11
ENDBRANCH   9  10
ENDBRANCH   8   9
ENDBRANCH   7   8
ENDBRANCH   6   7
ENDBRANCH   5   6
ENDBRANCH   4   5
ENDBRANCH   3   4
ENDBRANCH   2   3
ENDBRANCH   1   2
BRANCH   1  17
ATOM     17  C   UNL     1      35.381  -6.511  13.672  1.00  0.00     0.000 C 
BRANCH  17  18
ATOM     18  C   UNL     1      34.932  -7.396  14.843  1.00  0.00     0.000 C 
BRANCH  18  19
ATOM     19  C   UNL     1      34.332  -8.733  14.379  1.00  0.00     0.000 C 
BRANCH  19  20
ATOM     20  C   UNL     1      32.840  -8.872  14.736  1.00  0.00     0.000 C 
BRANCH  20  21
ATOM     21  C   UNL     1      32.393  -7.856  15.808  1.00  0.00     0.000 C 
BRANCH  21  22
ATOM     22  C   UNL     1      31.636  -8.488  16.991  1.00  0.00    -0.000 C 
BRANCH  22  23
ATOM     23  C   UNL     1      31.535 -10.022  16.951  1.00  0.00    -0.000 C 
BRANCH  23  24
ATOM     24  C   UNL     1      32.156 -10.689  18.188  1.00  0.00    -0.000 C 
BRANCH  24  25
ATOM     25  C   UNL     1      33.686 -10.711  18.093  1.00  0.00    -0.000 C 
BRANCH  25  26
ATOM     26  C   UNL     1      34.325 -10.548  19.481  1.00  0.00    -0.000 C 
BRANCH  26  27
ATOM     27  C   UNL     1      34.937  -9.144  19.682  1.00  0.00    -0.000 C 
BRANCH  27  28
ATOM     28  C   UNL     1      33.882  -8.034  19.842  1.00  0.00    -0.000 C 
BRANCH  28  29
ATOM     29  C   UNL     1      34.424  -6.607  19.655  1.00  0.00    -0.003 C 
ATOM     30  C   UNL     1      35.080  -6.393  18.289  1.00  0.00     0.004 C 
ENDBRANCH  28  29
ENDBRANCH  27  28
ENDBRANCH  26  27
ENDBRANCH  25  26
ENDBRANCH  24  25
ENDBRANCH  23  24
ENDBRANCH  22  23
ENDBRANCH  21  22
ENDBRANCH  20  21
ENDBRANCH  19  20
ENDBRANCH  18  19
ENDBRANCH  17  18
ENDBRANCH   1  17
TORSDOF 26
ENDMDL
MODEL 6
REMARK VINA RESULT:    -4.489      2.881      5.982
REMARK INTER + INTRA:         -14.519
REMARK INTER:                 -11.869
REMARK INTRA:                  -2.650
REMARK UNBOUND:                -3.207
REMARK SMILES CCCCCCCCCCCCCCCCCCCCCCCCCCCC(=O)[O-]
REMARK SMILES IDX 15 1 16 2 17 3 18 4 19 5 20 6 21 7 22 8 23 9 24 10 25 11
REMARK SMILES IDX 26 12 27 13 28 14 29 15 30 16 14 17 13 18 12 19 11 20 10 21
REMARK SMILES IDX 9 22 8 23 7 24 6 25 5 26 4 27 3 28 2 29 1 30
REMARK H PARENT
REMARK Flexibility Score: inf
ROOT
ATOM      1  C   UNL     1      35.938  -6.446  13.636  1.00  0.00     0.000 C 
ENDROOT
BRANCH   1   2
ATOM      2  C   UNL     1      35.868  -6.636  15.160  1.00  0.00     0.000 C 
BRANCH   2   3
ATOM      3  C   UNL     1      34.606  -7.387  15.609  1.00  0.00     0.000 C 
BRANCH   3   4
ATOM      4  C   UNL     1      33.954  -8.119  14.428  1.00  0.00     0.000 C 
BRANCH   4   5
ATOM      5  C   UNL     1      32.565  -8.685  14.772  1.00  0.00     0.000 C 
BRANCH   5   6
ATOM      6  C   UNL     1      31.947  -8.146  16.078  1.00  0.00     0.000 C 
BRANCH   6   7
ATOM      7  C   UNL     1      31.651  -9.213  17.147  1.00  0.00     0.000 C 
BRANCH   7   8
ATOM      8  C   UNL     1      32.291  -8.887  18.504  1.00  0.00     0.000 C 
BRANCH   8   9
ATOM      9  C   UNL     1      33.755  -9.338  18.552  1.00  0.00     0.000 C 
BRANCH   9  10
ATOM     10  C   UNL     1      34.490  -8.681  19.730  1.00  0.00     0.000 C 
BRANCH  10  11
ATOM     11  C   UNL     1      33.861  -7.346  20.156  1.00  0.00     0.000 C 
BRANCH  11  12
ATOM     12  C   UNL     1      34.865  -6.183  20.129  1.00  0.00     0.006 C 
BRANCH  12  13
ATOM     13  C   UNL     1      34.621  -5.276  18.918  1.00  0.00     0.053 C 
BRANCH  13  14
ATOM     14  C   UNL     1      34.606  -3.837  19.328  1.00  0.00     0.041 C 
ATOM     15  O   UNL     1      33.649  -3.384  20.011  1.00  0.00    -0.550 OA
ATOM     16  O   UNL     1      35.652  -2.997  18.968  1.00  0.00    -0.550 OA
ENDBRANCH  13  14
ENDBRANCH  12  13
ENDBRANCH  11  12
ENDBRANCH  10  11
ENDBRANCH   9  10
ENDBRANCH   8   9
ENDBRANCH   7   8
ENDBRANCH   6   7
ENDBRANCH   5   6
ENDBRANCH   4   5
ENDBRANCH   3   4
ENDBRANCH   2   3
ENDBRANCH   1   2
BRANCH   1  17
ATOM     17  C   UNL     1      37.314  -6.812  13.058  1.00  0.00     0.000 C 
BRANCH  17  18
ATOM     18  C   UNL     1      37.181  -7.399  11.645  1.00  0.00     0.000 C 
BRANCH  18  19
ATOM     19  C   UNL     1      36.509  -8.782  11.639  1.00  0.00     0.000 C 
BRANCH  19  20
ATOM     20  C   UNL     1      37.052  -9.703  10.531  1.00  0.00     0.000 C 
BRANCH  20  21
ATOM     21  C   UNL     1      38.593  -9.681  10.448  1.00  0.00     0.000 C 
BRANCH  21  22
ATOM     22  C   UNL     1      39.139  -9.277   9.066  1.00  0.00    -0.000 C 
BRANCH  22  23
ATOM     23  C   UNL     1      39.630  -7.823   8.961  1.00  0.00    -0.000 C 
BRANCH  23  24
ATOM     24  C   UNL     1      41.100  -7.725   8.526  1.00  0.00    -0.000 C 
BRANCH  24  25
ATOM     25  C   UNL     1      41.676  -9.110   8.209  1.00  0.00    -0.000 C 
BRANCH  25  26
ATOM     26  C   UNL     1      42.499  -9.079   6.911  1.00  0.00    -0.000 C 
BRANCH  26  27
ATOM     27  C   UNL     1      42.524  -7.675   6.268  1.00  0.00    -0.000 C 
BRANCH  27  28
ATOM     28  C   UNL     1      41.714  -7.587   4.961  1.00  0.00    -0.000 C 
BRANCH  28  29
ATOM     29  C   UNL     1      40.572  -6.557   4.986  1.00  0.00    -0.003 C 
ATOM     30  C   UNL     1      40.653  -5.549   3.838  1.00  0.00     0.004 C 
ENDBRANCH  28  29
ENDBRANCH  27  28
ENDBRANCH  26  27
ENDBRANCH  25  26
ENDBRANCH  24  25
ENDBRANCH  23  24
ENDBRANCH  22  23
ENDBRANCH  21  22
ENDBRANCH  20  21
ENDBRANCH  19  20
ENDBRANCH  18  19
ENDBRANCH  17  18
ENDBRANCH   1  17
TORSDOF 26
ENDMDL
MODEL 7
REMARK VINA RESULT:    -4.482      4.942     12.813
REMARK INTER + INTRA:         -14.501
REMARK INTER:                 -12.302
REMARK INTRA:                  -2.199
REMARK UNBOUND:                -3.207
REMARK SMILES CCCCCCCCCCCCCCCCCCCCCCCCCCCC(=O)[O-]
REMARK SMILES IDX 15 1 16 2 17 3 18 4 19 5 20 6 21 7 22 8 23 9 24 10 25 11
REMARK SMILES IDX 26 12 27 13 28 14 29 15 30 16 14 17 13 18 12 19 11 20 10 21
REMARK SMILES IDX 9 22 8 23 7 24 6 25 5 26 4 27 3 28 2 29 1 30
REMARK H PARENT
REMARK Flexibility Score: inf
ROOT
ATOM      1  C   UNL     1      37.061  -6.612  13.631  1.00  0.00     0.000 C 
ENDROOT
BRANCH   1   2
ATOM      2  C   UNL     1      37.796  -7.337  12.491  1.00  0.00     0.000 C 
BRANCH   2   3
ATOM      3  C   UNL     1      36.866  -7.713  11.329  1.00  0.00     0.000 C 
BRANCH   3   4
ATOM      4  C   UNL     1      37.078  -9.174  10.907  1.00  0.00     0.000 C 
BRANCH   4   5
ATOM      5  C   UNL     1      38.335  -9.369  10.041  1.00  0.00     0.000 C 
BRANCH   5   6
ATOM      6  C   UNL     1      38.740  -8.144   9.197  1.00  0.00     0.000 C 
BRANCH   6   7
ATOM      7  C   UNL     1      40.253  -7.988   8.959  1.00  0.00     0.000 C 
BRANCH   7   8
ATOM      8  C   UNL     1      40.576  -7.285   7.633  1.00  0.00     0.000 C 
BRANCH   8   9
ATOM      9  C   UNL     1      41.505  -8.140   6.762  1.00  0.00     0.000 C 
BRANCH   9  10
ATOM     10  C   UNL     1      41.817  -7.429   5.436  1.00  0.00     0.000 C 
BRANCH  10  11
ATOM     11  C   UNL     1      40.705  -6.462   5.002  1.00  0.00     0.000 C 
BRANCH  11  12
ATOM     12  C   UNL     1      40.886  -5.962   3.561  1.00  0.00     0.006 C 
BRANCH  12  13
ATOM     13  C   UNL     1      40.422  -4.507   3.425  1.00  0.00     0.053 C 
BRANCH  13  14
ATOM     14  C   UNL     1      39.592  -4.328   2.192  1.00  0.00     0.041 C 
ATOM     15  O   UNL     1      38.704  -3.436   2.151  1.00  0.00    -0.550 OA
ATOM     16  O   UNL     1      39.805  -5.139   1.084  1.00  0.00    -0.550 OA
ENDBRANCH  13  14
ENDBRANCH  12  13
ENDBRANCH  11  12
ENDBRANCH  10  11
ENDBRANCH   9  10
ENDBRANCH   8   9
ENDBRANCH   7   8
ENDBRANCH   6   7
ENDBRANCH   5   6
ENDBRANCH   4   5
ENDBRANCH   3   4
ENDBRANCH   2   3
ENDBRANCH   1   2
BRANCH   1  17
ATOM     17  C   UNL     1      35.533  -6.673  13.480  1.00  0.00     0.000 C 
BRANCH  17  18
ATOM     18  C   UNL     1      34.880  -7.307  14.717  1.00  0.00     0.000 C 
BRANCH  18  19
ATOM     19  C   UNL     1      34.153  -8.622  14.394  1.00  0.00     0.000 C 
BRANCH  19  20
ATOM     20  C   UNL     1      32.659  -8.583  14.766  1.00  0.00     0.000 C 
BRANCH  20  21
ATOM     21  C   UNL     1      32.396  -7.798  16.068  1.00  0.00     0.000 C 
BRANCH  21  22
ATOM     22  C   UNL     1      31.647  -8.607  17.144  1.00  0.00    -0.000 C 
BRANCH  22  23
ATOM     23  C   UNL     1      32.496  -9.668  17.866  1.00  0.00    -0.000 C 
BRANCH  23  24
ATOM     24  C   UNL     1      33.946  -9.212  18.093  1.00  0.00    -0.000 C 
BRANCH  24  25
ATOM     25  C   UNL     1      34.212  -8.936  19.577  1.00  0.00    -0.000 C 
BRANCH  25  26
ATOM     26  C   UNL     1      34.323  -7.427  19.845  1.00  0.00    -0.000 C 
BRANCH  26  27
ATOM     27  C   UNL     1      34.843  -6.651  18.615  1.00  0.00    -0.000 C 
BRANCH  27  28
ATOM     28  C   UNL     1      34.726  -5.123  18.761  1.00  0.00    -0.000 C 
BRANCH  28  29
ATOM     29  C   UNL     1      34.895  -4.606  20.200  1.00  0.00    -0.003 C 
ATOM     30  C   UNL     1      36.322  -4.148  20.505  1.00  0.00     0.004 C 
ENDBRANCH  28  29
ENDBRANCH  27  28
ENDBRANCH  26  27
ENDBRANCH  25  26
ENDBRANCH  24  25
ENDBRANCH  23  24
ENDBRANCH  22  23
ENDBRANCH  21  22
ENDBRANCH  20  21
ENDBRANCH  19  20
ENDBRANCH  18  19
ENDBRANCH  17  18
ENDBRANCH   1  17
TORSDOF 26
ENDMDL
MODEL 8
REMARK VINA RESULT:    -4.457      4.545     11.874
REMARK INTER + INTRA:         -14.439
REMARK INTER:                 -11.914
REMARK INTRA:                  -2.525
REMARK UNBOUND:                -3.207
REMARK SMILES CCCCCCCCCCCCCCCCCCCCCCCCCCCC(=O)[O-]
REMARK SMILES IDX 15 1 16 2 17 3 18 4 19 5 20 6 21 7 22 8 23 9 24 10 25 11
REMARK SMILES IDX 26 12 27 13 28 14 29 15 30 16 14 17 13 18 12 19 11 20 10 21
REMARK SMILES IDX 9 22 8 23 7 24 6 25 5 26 4 27 3 28 2 29 1 30
REMARK H PARENT
REMARK Flexibility Score: inf
ROOT
ATOM      1  C   UNL     1      39.439  -7.315   8.867  1.00  0.00     0.000 C 
ENDROOT
BRANCH   1   2
ATOM      2  C   UNL     1      40.432  -7.312   7.693  1.00  0.00     0.000 C 
BRANCH   2   3
ATOM      3  C   UNL     1      41.573  -8.323   7.875  1.00  0.00     0.000 C 
BRANCH   3   4
ATOM      4  C   UNL     1      42.907  -7.737   7.394  1.00  0.00     0.000 C 
BRANCH   4   5
ATOM      5  C   UNL     1      44.014  -8.799   7.268  1.00  0.00     0.000 C 
BRANCH   5   6
ATOM      6  C   UNL     1      44.169  -9.413   5.862  1.00  0.00     0.000 C 
BRANCH   6   7
ATOM      7  C   UNL     1      43.177 -10.543   5.532  1.00  0.00     0.000 C 
BRANCH   7   8
ATOM      8  C   UNL     1      42.216 -10.174   4.392  1.00  0.00     0.000 C 
BRANCH   8   9
ATOM      9  C   UNL     1      42.472  -8.750   3.886  1.00  0.00     0.000 C 
BRANCH   9  10
ATOM     10  C   UNL     1      41.148  -8.012   3.638  1.00  0.00     0.000 C 
BRANCH  10  11
ATOM     11  C   UNL     1      41.153  -6.577   4.186  1.00  0.00     0.000 C 
BRANCH  11  12
ATOM     12  C   UNL     1      40.287  -5.621   3.351  1.00  0.00     0.006 C 
BRANCH  12  13
ATOM     13  C   UNL     1      40.807  -4.183   3.450  1.00  0.00     0.053 C 
BRANCH  13  14
ATOM     14  C   UNL     1      40.062  -3.284   2.514  1.00  0.00     0.041 C 
ATOM     15  O   UNL     1      38.817  -3.413   2.369  1.00  0.00    -0.550 OA
ATOM     16  O   UNL     1      40.738  -2.296   1.809  1.00  0.00    -0.550 OA
ENDBRANCH  13  14
ENDBRANCH  12  13
ENDBRANCH  11  12
ENDBRANCH  10  11
ENDBRANCH   9  10
ENDBRANCH   8   9
ENDBRANCH   7   8
ENDBRANCH   6   7
ENDBRANCH   5   6
ENDBRANCH   4   5
ENDBRANCH   3   4
ENDBRANCH   2   3
ENDBRANCH   1   2
BRANCH   1  17
ATOM     17  C   UNL     1      40.126  -7.563  10.219  1.00  0.00     0.000 C 
BRANCH  17  18
ATOM     18  C   UNL     1      39.092  -7.737  11.341  1.00  0.00     0.000 C 
BRANCH  18  19
ATOM     19  C   UNL     1      37.904  -8.618  10.919  1.00  0.00     0.000 C 
BRANCH  19  20
ATOM     20  C   UNL     1      36.547  -8.034  11.353  1.00  0.00     0.000 C 
BRANCH  20  21
ATOM     21  C   UNL     1      36.695  -6.918  12.409  1.00  0.00     0.000 C 
BRANCH  21  22
ATOM     22  C   UNL     1      35.407  -6.638  13.206  1.00  0.00    -0.000 C 
BRANCH  22  23
ATOM     23  C   UNL     1      35.398  -7.194  14.640  1.00  0.00    -0.000 C 
BRANCH  23  24
ATOM     24  C   UNL     1      34.607  -8.506  14.761  1.00  0.00    -0.000 C 
BRANCH  24  25
ATOM     25  C   UNL     1      33.106  -8.234  14.911  1.00  0.00    -0.000 C 
BRANCH  25  26
ATOM     26  C   UNL     1      32.789  -7.640  16.292  1.00  0.00    -0.000 C 
BRANCH  26  27
ATOM     27  C   UNL     1      33.293  -8.537  17.444  1.00  0.00    -0.000 C 
BRANCH  27  28
ATOM     28  C   UNL     1      33.962  -7.749  18.586  1.00  0.00    -0.000 C 
BRANCH  28  29
ATOM     29  C   UNL     1      34.857  -6.588  18.120  1.00  0.00    -0.003 C 
ATOM     30  C   UNL     1      34.734  -5.348  19.008  1.00  0.00     0.004 C 
ENDBRANCH  28  29
ENDBRANCH  27  28
ENDBRANCH  26  27
ENDBRANCH  25  26
ENDBRANCH  24  25
ENDBRANCH  23  24
ENDBRANCH  22  23
ENDBRANCH  21  22
ENDBRANCH  20  21
ENDBRANCH  19  20
ENDBRANCH  18  19
ENDBRANCH  17  18
ENDBRANCH   1  17
TORSDOF 26
ENDMDL
MODEL 9
REMARK VINA RESULT:    -4.422      4.829     12.239
REMARK INTER + INTRA:         -14.351
REMARK INTER:                 -12.287
REMARK INTRA:                  -2.064
REMARK UNBOUND:                -3.207
REMARK SMILES CCCCCCCCCCCCCCCCCCCCCCCCCCCC(=O)[O-]
REMARK SMILES IDX 15 1 16 2 17 3 18 4 19 5 20 6 21 7 22 8 23 9 24 10 25 11
REMARK SMILES IDX 26 12 27 13 28 14 29 15 30 16 14 17 13 18 12 19 11 20 10 21
REMARK SMILES IDX 9 22 8 23 7 24 6 25 5 26 4 27 3 28 2 29 1 30
REMARK H PARENT
REMARK Flexibility Score: inf
ROOT
ATOM      1  C   UNL     1      38.063  -6.910   9.714  1.00  0.00     0.000 C 
ENDROOT
BRANCH   1   2
ATOM      2  C   UNL     1      39.201  -6.614   8.723  1.00  0.00     0.000 C 
BRANCH   2   3
ATOM      3  C   UNL     1      40.580  -7.018   9.263  1.00  0.00     0.000 C 
BRANCH   3   4
ATOM      4  C   UNL     1      41.403  -7.736   8.184  1.00  0.00     0.000 C 
BRANCH   4   5
ATOM      5  C   UNL     1      41.335  -9.270   8.305  1.00  0.00     0.000 C 
BRANCH   5   6
ATOM      6  C   UNL     1      42.694  -9.991   8.210  1.00  0.00     0.000 C 
BRANCH   6   7
ATOM      7  C   UNL     1      43.903  -9.071   7.965  1.00  0.00     0.000 C 
BRANCH   7   8
ATOM      8  C   UNL     1      45.078  -9.799   7.296  1.00  0.00     0.000 C 
BRANCH   8   9
ATOM      9  C   UNL     1      44.778 -10.105   5.825  1.00  0.00     0.000 C 
BRANCH   9  10
ATOM     10  C   UNL     1      44.233  -8.859   5.109  1.00  0.00     0.000 C 
BRANCH  10  11
ATOM     11  C   UNL     1      43.010  -9.165   4.230  1.00  0.00     0.000 C 
BRANCH  11  12
ATOM     12  C   UNL     1      41.849  -8.189   4.473  1.00  0.00     0.006 C 
BRANCH  12  13
ATOM     13  C   UNL     1      41.325  -7.621   3.149  1.00  0.00     0.053 C 
BRANCH  13  14
ATOM     14  C   UNL     1      40.934  -6.185   3.306  1.00  0.00     0.041 C 
ATOM     15  O   UNL     1      41.275  -5.546   4.337  1.00  0.00    -0.550 OA
ATOM     16  O   UNL     1      40.203  -5.548   2.311  1.00  0.00    -0.550 OA
ENDBRANCH  13  14
ENDBRANCH  12  13
ENDBRANCH  11  12
ENDBRANCH  10  11
ENDBRANCH   9  10
ENDBRANCH   8   9
ENDBRANCH   7   8
ENDBRANCH   6   7
ENDBRANCH   5   6
ENDBRANCH   4   5
ENDBRANCH   3   4
ENDBRANCH   2   3
ENDBRANCH   1   2
BRANCH   1  17
ATOM     17  C   UNL     1      38.331  -8.164  10.562  1.00  0.00     0.000 C 
BRANCH  17  18
ATOM     18  C   UNL     1      38.520  -7.800  12.042  1.00  0.00     0.000 C 
BRANCH  18  19
ATOM     19  C   UNL     1      37.340  -6.993  12.608  1.00  0.00     0.000 C 
BRANCH  19  20
ATOM     20  C   UNL     1      36.002  -7.748  12.512  1.00  0.00     0.000 C 
BRANCH  20  21
ATOM     21  C   UNL     1      35.624  -8.451  13.833  1.00  0.00     0.000 C 
BRANCH  21  22
ATOM     22  C   UNL     1      34.870  -7.548  14.828  1.00  0.00    -0.000 C 
BRANCH  22  23
ATOM     23  C   UNL     1      33.903  -8.285  15.769  1.00  0.00    -0.000 C 
BRANCH  23  24
ATOM     24  C   UNL     1      33.468  -7.423  16.964  1.00  0.00    -0.000 C 
BRANCH  24  25
ATOM     25  C   UNL     1      34.679  -6.786  17.656  1.00  0.00    -0.000 C 
BRANCH  25  26
ATOM     26  C   UNL     1      34.629  -7.017  19.174  1.00  0.00    -0.000 C 
BRANCH  26  27
ATOM     27  C   UNL     1      34.603  -5.692  19.967  1.00  0.00    -0.000 C 
BRANCH  27  28
ATOM     28  C   UNL     1      34.961  -4.462  19.113  1.00  0.00    -0.000 C 
BRANCH  28  29
ATOM     29  C   UNL     1      35.508  -3.267  19.913  1.00  0.00    -0.003 C 
ATOM     30  C   UNL     1      36.798  -3.596  20.667  1.00  0.00     0.004 C 
ENDBRANCH  28  29
ENDBRANCH  27  28
ENDBRANCH  26  27
ENDBRANCH  25  26
ENDBRANCH  24  25
ENDBRANCH  23  24
ENDBRANCH  22  23
ENDBRANCH  21  22
ENDBRANCH  20  21
ENDBRANCH  19  20
ENDBRANCH  18  19
ENDBRANCH  17  18
ENDBRANCH   1  17
TORSDOF 26
ENDMDL
