MODEL 1
REMARK VINA RESULT:    -5.297      0.000      0.000
REMARK INTER + INTRA:         -10.277
REMARK INTER:                  -9.013
REMARK INTRA:                  -1.264
REMARK UNBOUND:                -1.264
REMARK SMILES CCCCCCCCCCCCCC(=O)[O-]
REMARK SMILES IDX 8 1 9 2 10 3 11 4 12 5 13 6 14 7 15 8 16 9 7 10 6 11 5 12
REMARK SMILES IDX 4 13 3 14 2 15 1 16
REMARK H PARENT
REMARK Flexibility Score: inf
ROOT
ATOM      1  C   UNL     1      33.763  42.958  48.852  1.00  0.00     0.000 C 
ENDROOT
BRANCH   1   2
ATOM      2  C   UNL     1      33.974  42.694  47.351  1.00  0.00     0.000 C 
BRANCH   2   3
ATOM      3  C   UNL     1      35.464  42.611  46.973  1.00  0.00     0.000 C 
BRANCH   3   4
ATOM      4  C   UNL     1      35.896  43.737  46.020  1.00  0.00     0.000 C 
BRANCH   4   5
ATOM      5  C   UNL     1      34.753  44.715  45.701  1.00  0.00     0.006 C 
BRANCH   5   6
ATOM      6  C   UNL     1      34.523  44.863  44.190  1.00  0.00     0.053 C 
BRANCH   6   7
ATOM      7  C   UNL     1      33.071  44.765  43.835  1.00  0.00     0.041 C 
ATOM      8  O   UNL     1      32.311  43.997  44.481  1.00  0.00    -0.550 OA
ATOM      9  O   UNL     1      32.564  45.501  42.771  1.00  0.00    -0.550 OA
ENDBRANCH   6   7
ENDBRANCH   5   6
ENDBRANCH   4   5
ENDBRANCH   3   4
ENDBRANCH   2   3
ENDBRANCH   1   2
BRANCH   1  10
ATOM     10  C   UNL     1      34.079  44.412  49.243  1.00  0.00     0.000 C 
BRANCH  10  11
ATOM     11  C   UNL     1      35.317  44.533  50.152  1.00  0.00    -0.000 C 
BRANCH  11  12
ATOM     12  C   UNL     1      35.875  43.200  50.681  1.00  0.00    -0.000 C 
BRANCH  12  13
ATOM     13  C   UNL     1      37.412  43.183  50.764  1.00  0.00    -0.000 C 
BRANCH  13  14
ATOM     14  C   UNL     1      38.059  42.469  49.567  1.00  0.00    -0.000 C 
BRANCH  14  15
ATOM     15  C   UNL     1      38.930  41.276  49.990  1.00  0.00    -0.003 C 
ATOM     16  C   UNL     1      39.620  41.546  51.324  1.00  0.00     0.004 C 
ENDBRANCH  14  15
ENDBRANCH  13  14
ENDBRANCH  12  13
ENDBRANCH  11  12
ENDBRANCH  10  11
ENDBRANCH   1  10
TORSDOF 12
ENDMDL
MODEL 2
REMARK VINA RESULT:    -5.171      1.967      3.164
REMARK INTER + INTRA:         -10.063
REMARK INTER:                  -8.724
REMARK INTRA:                  -1.338
REMARK UNBOUND:                -1.264
REMARK SMILES CCCCCCCCCCCCCC(=O)[O-]
REMARK SMILES IDX 8 1 9 2 10 3 11 4 12 5 13 6 14 7 15 8 16 9 7 10 6 11 5 12
REMARK SMILES IDX 4 13 3 14 2 15 1 16
REMARK H PARENT
REMARK Flexibility Score: inf
ROOT
ATOM      1  C   UNL     1      36.063  43.660  46.105  1.00  0.00     0.000 C 
ENDROOT
BRANCH   1   2
ATOM      2  C   UNL     1      35.051  44.778  45.803  1.00  0.00     0.000 C 
BRANCH   2   3
ATOM      3  C   UNL     1      34.582  44.765  44.336  1.00  0.00     0.000 C 
BRANCH   3   4
ATOM      4  C   UNL     1      33.086  44.437  44.196  1.00  0.00     0.000 C 
BRANCH   4   5
ATOM      5  C   UNL     1      32.389  44.256  45.556  1.00  0.00     0.006 C 
BRANCH   5   6
ATOM      6  C   UNL     1      31.517  42.994  45.595  1.00  0.00     0.053 C 
BRANCH   6   7
ATOM      7  C   UNL     1      31.782  42.171  46.819  1.00  0.00     0.041 C 
ATOM      8  O   UNL     1      32.588  41.205  46.772  1.00  0.00    -0.550 OA
ATOM      9  O   UNL     1      31.117  42.456  48.005  1.00  0.00    -0.550 OA
ENDBRANCH   6   7
ENDBRANCH   5   6
ENDBRANCH   4   5
ENDBRANCH   3   4
ENDBRANCH   2   3
ENDBRANCH   1   2
BRANCH   1  10
ATOM     10  C   UNL     1      35.669  42.827  47.338  1.00  0.00     0.000 C 
BRANCH  10  11
ATOM     11  C   UNL     1      34.817  43.618  48.348  1.00  0.00    -0.000 C 
BRANCH  11  12
ATOM     12  C   UNL     1      34.830  43.071  49.787  1.00  0.00    -0.000 C 
BRANCH  12  13
ATOM     13  C   UNL     1      36.075  43.503  50.582  1.00  0.00    -0.000 C 
BRANCH  13  14
ATOM     14  C   UNL     1      37.044  42.338  50.838  1.00  0.00    -0.000 C 
BRANCH  14  15
ATOM     15  C   UNL     1      38.398  42.529  50.137  1.00  0.00    -0.003 C 
ATOM     16  C   UNL     1      38.878  41.226  49.504  1.00  0.00     0.004 C 
ENDBRANCH  14  15
ENDBRANCH  13  14
ENDBRANCH  12  13
ENDBRANCH  11  12
ENDBRANCH  10  11
ENDBRANCH   1  10
TORSDOF 12
ENDMDL
MODEL 3
REMARK VINA RESULT:    -5.116      3.696      6.939
REMARK INTER + INTRA:          -9.968
REMARK INTER:                  -8.841
REMARK INTRA:                  -1.127
REMARK UNBOUND:                -1.264
REMARK SMILES CCCCCCCCCCCCCC(=O)[O-]
REMARK SMILES IDX 8 1 9 2 10 3 11 4 12 5 13 6 14 7 15 8 16 9 7 10 6 11 5 12
REMARK SMILES IDX 4 13 3 14 2 15 1 16
REMARK H PARENT
REMARK Flexibility Score: inf
ROOT
ATOM      1  C   UNL     1      33.542  42.538  48.512  1.00  0.00     0.000 C 
ENDROOT
BRANCH   1   2
ATOM      2  C   UNL     1      33.907  43.980  48.118  1.00  0.00     0.000 C 
BRANCH   2   3
ATOM      3  C   UNL     1      35.348  44.098  47.591  1.00  0.00     0.000 C 
BRANCH   3   4
ATOM      4  C   UNL     1      35.892  42.766  47.050  1.00  0.00     0.000 C 
BRANCH   4   5
ATOM      5  C   UNL     1      37.219  42.354  47.711  1.00  0.00     0.006 C 
BRANCH   5   6
ATOM      6  C   UNL     1      37.140  42.404  49.243  1.00  0.00     0.053 C 
BRANCH   6   7
ATOM      7  C   UNL     1      38.448  42.048  49.880  1.00  0.00     0.041 C 
ATOM      8  O   UNL     1      39.061  41.005  49.531  1.00  0.00    -0.550 OA
ATOM      9  O   UNL     1      38.978  42.855  50.880  1.00  0.00    -0.550 OA
ENDBRANCH   6   7
ENDBRANCH   5   6
ENDBRANCH   4   5
ENDBRANCH   3   4
ENDBRANCH   2   3
ENDBRANCH   1   2
BRANCH   1  10
ATOM     10  C   UNL     1      32.652  41.850  47.463  1.00  0.00     0.000 C 
BRANCH  10  11
ATOM     11  C   UNL     1      31.490  42.741  46.984  1.00  0.00    -0.000 C 
BRANCH  11  12
ATOM     12  C   UNL     1      31.408  42.951  45.461  1.00  0.00    -0.000 C 
BRANCH  12  13
ATOM     13  C   UNL     1      31.833  44.364  45.026  1.00  0.00    -0.000 C 
BRANCH  13  14
ATOM     14  C   UNL     1      33.292  44.420  44.546  1.00  0.00    -0.000 C 
BRANCH  14  15
ATOM     15  C   UNL     1      33.485  45.360  43.346  1.00  0.00    -0.003 C 
ATOM     16  C   UNL     1      32.195  45.497  42.543  1.00  0.00     0.004 C 
ENDBRANCH  14  15
ENDBRANCH  13  14
ENDBRANCH  12  13
ENDBRANCH  11  12
ENDBRANCH  10  11
ENDBRANCH   1  10
TORSDOF 12
ENDMDL
MODEL 4
REMARK VINA RESULT:    -5.113      1.472      2.563
REMARK INTER + INTRA:          -9.964
REMARK INTER:                  -9.332
REMARK INTRA:                  -0.632
REMARK UNBOUND:                -1.264
REMARK SMILES CCCCCCCCCCCCCC(=O)[O-]
REMARK SMILES IDX 8 1 9 2 10 3 11 4 12 5 13 6 14 7 15 8 16 9 7 10 6 11 5 12
REMARK SMILES IDX 4 13 3 14 2 15 1 16
REMARK H PARENT
REMARK Flexibility Score: inf
ROOT
ATOM      1  C   UNL     1      34.747  44.412  46.346  1.00  0.00     0.000 C 
ENDROOT
BRANCH   1   2
ATOM      2  C   UNL     1      33.995  44.138  47.659  1.00  0.00     0.000 C 
BRANCH   2   3
ATOM      3  C   UNL     1      32.483  43.949  47.443  1.00  0.00     0.000 C 
BRANCH   3   4
ATOM      4  C   UNL     1      32.153  43.352  46.065  1.00  0.00     0.000 C 
BRANCH   4   5
ATOM      5  C   UNL     1      31.782  44.425  45.027  1.00  0.00     0.006 C 
BRANCH   5   6
ATOM      6  C   UNL     1      32.151  44.001  43.599  1.00  0.00     0.053 C 
BRANCH   6   7
ATOM      7  C   UNL     1      32.456  45.181  42.728  1.00  0.00     0.041 C 
ATOM      8  O   UNL     1      33.464  45.899  42.962  1.00  0.00    -0.550 OA
ATOM      9  O   UNL     1      31.611  45.505  41.674  1.00  0.00    -0.550 OA
ENDBRANCH   6   7
ENDBRANCH   5   6
ENDBRANCH   4   5
ENDBRANCH   3   4
ENDBRANCH   2   3
ENDBRANCH   1   2
BRANCH   1  10
ATOM     10  C   UNL     1      36.138  43.755  46.316  1.00  0.00     0.000 C 
BRANCH  10  11
ATOM     11  C   UNL     1      36.180  42.406  47.059  1.00  0.00    -0.000 C 
BRANCH  11  12
ATOM     12  C   UNL     1      37.311  42.262  48.093  1.00  0.00    -0.000 C 
BRANCH  12  13
ATOM     13  C   UNL     1      36.872  42.642  49.519  1.00  0.00    -0.000 C 
BRANCH  13  14
ATOM     14  C   UNL     1      38.054  42.720  50.498  1.00  0.00    -0.000 C 
BRANCH  14  15
ATOM     15  C   UNL     1      38.903  41.439  50.505  1.00  0.00    -0.003 C 
ATOM     16  C   UNL     1      39.925  41.464  51.638  1.00  0.00     0.004 C 
ENDBRANCH  14  15
ENDBRANCH  13  14
ENDBRANCH  12  13
ENDBRANCH  11  12
ENDBRANCH  10  11
ENDBRANCH   1  10
TORSDOF 12
ENDMDL
MODEL 5
REMARK VINA RESULT:    -5.072      1.843      5.411
REMARK INTER + INTRA:          -9.894
REMARK INTER:                  -8.630
REMARK INTRA:                  -1.264
REMARK UNBOUND:                -1.264
REMARK SMILES CCCCCCCCCCCCCC(=O)[O-]
REMARK SMILES IDX 8 1 9 2 10 3 11 4 12 5 13 6 14 7 15 8 16 9 7 10 6 11 5 12
REMARK SMILES IDX 4 13 3 14 2 15 1 16
REMARK H PARENT
REMARK Flexibility Score: inf
ROOT
ATOM      1  C   UNL     1      37.580  42.624  49.819  1.00  0.00     0.000 C 
ENDROOT
BRANCH   1   2
ATOM      2  C   UNL     1      36.271  43.387  50.082  1.00  0.00     0.000 C 
BRANCH   2   3
ATOM      3  C   UNL     1      35.356  42.657  51.082  1.00  0.00     0.000 C 
BRANCH   3   4
ATOM      4  C   UNL     1      33.945  42.412  50.522  1.00  0.00     0.000 C 
BRANCH   4   5
ATOM      5  C   UNL     1      33.605  43.341  49.343  1.00  0.00     0.006 C 
BRANCH   5   6
ATOM      6  C   UNL     1      32.162  43.150  48.855  1.00  0.00     0.053 C 
BRANCH   6   7
ATOM      7  C   UNL     1      32.109  42.413  47.552  1.00  0.00     0.041 C 
ATOM      8  O   UNL     1      32.911  41.471  47.322  1.00  0.00    -0.550 OA
ATOM      9  O   UNL     1      31.190  42.786  46.579  1.00  0.00    -0.550 OA
ENDBRANCH   6   7
ENDBRANCH   5   6
ENDBRANCH   4   5
ENDBRANCH   3   4
ENDBRANCH   2   3
ENDBRANCH   1   2
BRANCH   1  10
ATOM     10  C   UNL     1      37.741  42.223  48.342  1.00  0.00     0.000 C 
BRANCH  10  11
ATOM     11  C   UNL     1      36.419  42.294  47.554  1.00  0.00    -0.000 C 
BRANCH  11  12
ATOM     12  C   UNL     1      36.469  43.130  46.263  1.00  0.00    -0.000 C 
BRANCH  12  13
ATOM     13  C   UNL     1      35.668  44.440  46.365  1.00  0.00    -0.000 C 
BRANCH  13  14
ATOM     14  C   UNL     1      34.299  44.349  45.672  1.00  0.00    -0.000 C 
BRANCH  14  15
ATOM     15  C   UNL     1      34.324  44.898  44.237  1.00  0.00    -0.003 C 
ATOM     16  C   UNL     1      32.941  44.826  43.597  1.00  0.00     0.004 C 
ENDBRANCH  14  15
ENDBRANCH  13  14
ENDBRANCH  12  13
ENDBRANCH  11  12
ENDBRANCH  10  11
ENDBRANCH   1  10
TORSDOF 12
ENDMDL
MODEL 6
REMARK VINA RESULT:    -5.051      2.808      5.943
REMARK INTER + INTRA:          -9.859
REMARK INTER:                  -8.483
REMARK INTRA:                  -1.376
REMARK UNBOUND:                -1.264
REMARK SMILES CCCCCCCCCCCCCC(=O)[O-]
REMARK SMILES IDX 8 1 9 2 10 3 11 4 12 5 13 6 14 7 15 8 16 9 7 10 6 11 5 12
REMARK SMILES IDX 4 13 3 14 2 15 1 16
REMARK H PARENT
REMARK Flexibility Score: inf
ROOT
ATOM      1  C   UNL     1      36.637  42.353  47.519  1.00  0.00     0.000 C 
ENDROOT
BRANCH   1   2
ATOM      2  C   UNL     1      38.057  42.257  48.102  1.00  0.00     0.000 C 
BRANCH   2   3
ATOM      3  C   UNL     1      38.055  41.867  49.591  1.00  0.00     0.000 C 
BRANCH   3   4
ATOM      4  C   UNL     1      37.975  43.088  50.522  1.00  0.00     0.000 C 
BRANCH   4   5
ATOM      5  C   UNL     1      36.610  43.212  51.222  1.00  0.00     0.006 C 
BRANCH   5   6
ATOM      6  C   UNL     1      35.540  43.811  50.299  1.00  0.00     0.053 C 
BRANCH   6   7
ATOM      7  C   UNL     1      35.257  45.243  50.631  1.00  0.00     0.041 C 
ATOM      8  O   UNL     1      35.121  46.093  49.713  1.00  0.00    -0.550 OA
ATOM      9  O   UNL     1      35.170  45.645  51.959  1.00  0.00    -0.550 OA
ENDBRANCH   6   7
ENDBRANCH   5   6
ENDBRANCH   4   5
ENDBRANCH   3   4
ENDBRANCH   2   3
ENDBRANCH   1   2
BRANCH   1  10
ATOM     10  C   UNL     1      36.551  43.337  46.338  1.00  0.00     0.000 C 
BRANCH  10  11
ATOM     11  C   UNL     1      35.480  44.425  46.541  1.00  0.00    -0.000 C 
BRANCH  11  12
ATOM     12  C   UNL     1      34.342  44.428  45.504  1.00  0.00    -0.000 C 
BRANCH  12  13
ATOM     13  C   UNL     1      32.975  44.067  46.112  1.00  0.00    -0.000 C 
BRANCH  13  14
ATOM     14  C   UNL     1      32.992  44.078  47.649  1.00  0.00    -0.000 C 
BRANCH  14  15
ATOM     15  C   UNL     1      32.606  42.720  48.255  1.00  0.00    -0.003 C 
ATOM     16  C   UNL     1      32.884  41.583  47.277  1.00  0.00     0.004 C 
ENDBRANCH  14  15
ENDBRANCH  13  14
ENDBRANCH  12  13
ENDBRANCH  11  12
ENDBRANCH  10  11
ENDBRANCH   1  10
TORSDOF 12
ENDMDL
MODEL 7
REMARK VINA RESULT:    -5.022      1.666      2.373
REMARK INTER + INTRA:          -9.810
REMARK INTER:                  -8.225
REMARK INTRA:                  -1.584
REMARK UNBOUND:                -1.264
REMARK SMILES CCCCCCCCCCCCCC(=O)[O-]
REMARK SMILES IDX 8 1 9 2 10 3 11 4 12 5 13 6 14 7 15 8 16 9 7 10 6 11 5 12
REMARK SMILES IDX 4 13 3 14 2 15 1 16
REMARK H PARENT
REMARK Flexibility Score: inf
ROOT
ATOM      1  C   UNL     1      34.816  45.377  49.689  1.00  0.00     0.000 C 
ENDROOT
BRANCH   1   2
ATOM      2  C   UNL     1      34.142  44.941  48.377  1.00  0.00     0.000 C 
BRANCH   2   3
ATOM      3  C   UNL     1      35.113  44.209  47.433  1.00  0.00     0.000 C 
BRANCH   3   4
ATOM      4  C   UNL     1      34.805  42.707  47.317  1.00  0.00     0.000 C 
BRANCH   4   5
ATOM      5  C   UNL     1      33.458  42.327  47.956  1.00  0.00     0.006 C 
BRANCH   5   6
ATOM      6  C   UNL     1      32.437  41.851  46.913  1.00  0.00     0.053 C 
BRANCH   6   7
ATOM      7  C   UNL     1      31.669  42.994  46.323  1.00  0.00     0.041 C 
ATOM      8  O   UNL     1      30.585  43.366  46.844  1.00  0.00    -0.550 OA
ATOM      9  O   UNL     1      32.138  43.630  45.180  1.00  0.00    -0.550 OA
ENDBRANCH   6   7
ENDBRANCH   5   6
ENDBRANCH   4   5
ENDBRANCH   3   4
ENDBRANCH   2   3
ENDBRANCH   1   2
BRANCH   1  10
ATOM     10  C   UNL     1      34.220  44.669  50.919  1.00  0.00     0.000 C 
BRANCH  10  11
ATOM     11  C   UNL     1      35.249  43.802  51.668  1.00  0.00    -0.000 C 
BRANCH  11  12
ATOM     12  C   UNL     1      35.943  42.723  50.817  1.00  0.00    -0.000 C 
BRANCH  12  13
ATOM     13  C   UNL     1      37.412  43.058  50.504  1.00  0.00    -0.000 C 
BRANCH  13  14
ATOM     14  C   UNL     1      37.945  42.288  49.285  1.00  0.00    -0.000 C 
BRANCH  14  15
ATOM     15  C   UNL     1      38.915  41.161  49.675  1.00  0.00    -0.003 C 
ATOM     16  C   UNL     1      39.470  41.377  51.080  1.00  0.00     0.004 C 
ENDBRANCH  14  15
ENDBRANCH  13  14
ENDBRANCH  12  13
ENDBRANCH  11  12
ENDBRANCH  10  11
ENDBRANCH   1  10
TORSDOF 12
ENDMDL
MODEL 8
REMARK VINA RESULT:    -4.948      3.580      6.422
REMARK INTER + INTRA:          -9.684
REMARK INTER:                  -8.356
REMARK INTRA:                  -1.328
REMARK UNBOUND:                -1.264
REMARK SMILES CCCCCCCCCCCCCC(=O)[O-]
REMARK SMILES IDX 8 1 9 2 10 3 11 4 12 5 13 6 14 7 15 8 16 9 7 10 6 11 5 12
REMARK SMILES IDX 4 13 3 14 2 15 1 16
REMARK H PARENT
REMARK Flexibility Score: inf
ROOT
ATOM      1  C   UNL     1      34.381  44.559  44.125  1.00  0.00     0.000 C 
ENDROOT
BRANCH   1   2
ATOM      2  C   UNL     1      34.690  44.754  45.619  1.00  0.00     0.000 C 
BRANCH   2   3
ATOM      3  C   UNL     1      36.004  44.072  46.041  1.00  0.00     0.000 C 
BRANCH   3   4
ATOM      4  C   UNL     1      35.772  42.720  46.737  1.00  0.00     0.000 C 
BRANCH   4   5
ATOM      5  C   UNL     1      36.998  42.248  47.537  1.00  0.00     0.006 C 
BRANCH   5   6
ATOM      6  C   UNL     1      36.909  42.643  49.018  1.00  0.00     0.053 C 
BRANCH   6   7
ATOM      7  C   UNL     1      38.132  42.234  49.779  1.00  0.00     0.041 C 
ATOM      8  O   UNL     1      38.518  42.906  50.770  1.00  0.00    -0.550 OA
ATOM      9  O   UNL     1      38.863  41.123  49.374  1.00  0.00    -0.550 OA
ENDBRANCH   6   7
ENDBRANCH   5   6
ENDBRANCH   4   5
ENDBRANCH   3   4
ENDBRANCH   2   3
ENDBRANCH   1   2
BRANCH   1  10
ATOM     10  C   UNL     1      32.872  44.438  43.848  1.00  0.00     0.000 C 
BRANCH  10  11
ATOM     11  C   UNL     1      32.018  44.528  45.127  1.00  0.00    -0.000 C 
BRANCH  11  12
ATOM     12  C   UNL     1      31.274  43.236  45.510  1.00  0.00    -0.000 C 
BRANCH  12  13
ATOM     13  C   UNL     1      32.083  42.338  46.463  1.00  0.00    -0.000 C 
BRANCH  13  14
ATOM     14  C   UNL     1      31.515  42.330  47.891  1.00  0.00    -0.000 C 
BRANCH  14  15
ATOM     15  C   UNL     1      31.626  43.699  48.580  1.00  0.00    -0.003 C 
ATOM     16  C   UNL     1      33.086  44.081  48.810  1.00  0.00     0.004 C 
ENDBRANCH  14  15
ENDBRANCH  13  14
ENDBRANCH  12  13
ENDBRANCH  11  12
ENDBRANCH  10  11
ENDBRANCH   1  10
TORSDOF 12
ENDMDL
MODEL 9
REMARK VINA RESULT:    -4.931      3.760      7.176
REMARK INTER + INTRA:          -9.654
REMARK INTER:                  -8.647
REMARK INTRA:                  -1.008
REMARK UNBOUND:                -1.264
REMARK SMILES CCCCCCCCCCCCCC(=O)[O-]
REMARK SMILES IDX 8 1 9 2 10 3 11 4 12 5 13 6 14 7 15 8 16 9 7 10 6 11 5 12
REMARK SMILES IDX 4 13 3 14 2 15 1 16
REMARK H PARENT
REMARK Flexibility Score: inf
ROOT
ATOM      1  C   UNL     1      34.534  44.165  47.608  1.00  0.00     0.000 C 
ENDROOT
BRANCH   1   2
ATOM      2  C   UNL     1      35.646  43.223  47.117  1.00  0.00     0.000 C 
BRANCH   2   3
ATOM      3  C   UNL     1      36.460  42.619  48.276  1.00  0.00     0.000 C 
BRANCH   3   4
ATOM      4  C   UNL     1      36.024  43.158  49.648  1.00  0.00     0.000 C 
BRANCH   4   5
ATOM      5  C   UNL     1      36.934  42.674  50.792  1.00  0.00     0.006 C 
BRANCH   5   6
ATOM      6  C   UNL     1      38.422  42.818  50.446  1.00  0.00     0.053 C 
BRANCH   6   7
ATOM      7  C   UNL     1      39.134  41.501  50.490  1.00  0.00     0.041 C 
ATOM      8  O   UNL     1      39.657  41.098  51.561  1.00  0.00    -0.550 OA
ATOM      9  O   UNL     1      39.245  40.732  49.338  1.00  0.00    -0.550 OA
ENDBRANCH   6   7
ENDBRANCH   5   6
ENDBRANCH   4   5
ENDBRANCH   3   4
ENDBRANCH   2   3
ENDBRANCH   1   2
BRANCH   1  10
ATOM     10  C   UNL     1      33.142  43.512  47.552  1.00  0.00     0.000 C 
BRANCH  10  11
ATOM     11  C   UNL     1      32.022  44.514  47.216  1.00  0.00    -0.000 C 
BRANCH  11  12
ATOM     12  C   UNL     1      31.210  44.189  45.949  1.00  0.00    -0.000 C 
BRANCH  12  13
ATOM     13  C   UNL     1      32.035  43.453  44.879  1.00  0.00    -0.000 C 
BRANCH  13  14
ATOM     14  C   UNL     1      32.018  44.174  43.522  1.00  0.00    -0.000 C 
BRANCH  14  15
ATOM     15  C   UNL     1      33.070  45.290  43.431  1.00  0.00    -0.003 C 
ATOM     16  C   UNL     1      34.372  44.874  44.109  1.00  0.00     0.004 C 
ENDBRANCH  14  15
ENDBRANCH  13  14
ENDBRANCH  12  13
ENDBRANCH  11  12
ENDBRANCH  10  11
ENDBRANCH   1  10
TORSDOF 12
ENDMDL
