MODEL 1
REMARK VINA RESULT:    -4.243      0.000      0.000
REMARK INTER + INTRA:          -7.054
REMARK INTER:                  -6.723
REMARK INTRA:                  -0.331
REMARK UNBOUND:                -0.331
REMARK SMILES CCCCCCCCCCCC(=O)[O-]
REMARK SMILES IDX 7 1 8 2 9 3 10 4 11 5 12 6 13 7 14 8 6 9 5 10 4 11 3 12 2 13
REMARK SMILES IDX 1 14
REMARK H PARENT
REMARK Flexibility Score: inf
ROOT
ATOM      1  C   UNL     1     -16.396   5.547  30.492  1.00  0.00     0.000 C 
ENDROOT
BRANCH   1   2
ATOM      2  C   UNL     1     -16.684   5.195  31.958  1.00  0.00     0.000 C 
BRANCH   2   3
ATOM      3  C   UNL     1     -16.777   3.680  32.196  1.00  0.00     0.000 C 
BRANCH   3   4
ATOM      4  C   UNL     1     -15.621   3.143  33.058  1.00  0.00     0.006 C 
BRANCH   4   5
ATOM      5  C   UNL     1     -16.087   2.728  34.459  1.00  0.00     0.053 C 
BRANCH   5   6
ATOM      6  C   UNL     1     -15.937   1.254  34.681  1.00  0.00     0.041 C 
ATOM      7  O   UNL     1     -15.708   0.807  35.836  1.00  0.00    -0.550 OA
ATOM      8  O   UNL     1     -16.086   0.371  33.619  1.00  0.00    -0.550 OA
ENDBRANCH   5   6
ENDBRANCH   4   5
ENDBRANCH   3   4
ENDBRANCH   2   3
ENDBRANCH   1   2
BRANCH   1   9
ATOM      9  C   UNL     1     -16.048   7.036  30.344  1.00  0.00     0.000 C 
BRANCH   9  10
ATOM     10  C   UNL     1     -14.807   7.276  29.465  1.00  0.00    -0.000 C 
BRANCH  10  11
ATOM     11  C   UNL     1     -14.625   8.729  28.981  1.00  0.00    -0.000 C 
BRANCH  11  12
ATOM     12  C   UNL     1     -13.176   9.125  28.629  1.00  0.00    -0.000 C 
BRANCH  12  13
ATOM     13  C   UNL     1     -12.232   7.941  28.354  1.00  0.00    -0.003 C 
ATOM     14  C   UNL     1     -10.974   7.969  29.223  1.00  0.00     0.004 C 
ENDBRANCH  12  13
ENDBRANCH  11  12
ENDBRANCH  10  11
ENDBRANCH   9  10
ENDBRANCH   1   9
TORSDOF 10
ENDMDL
MODEL 2
REMARK VINA RESULT:    -4.182      1.471      2.479
REMARK INTER + INTRA:          -6.959
REMARK INTER:                  -6.093
REMARK INTRA:                  -0.865
REMARK UNBOUND:                -0.331
REMARK SMILES CCCCCCCCCCCC(=O)[O-]
REMARK SMILES IDX 7 1 8 2 9 3 10 4 11 5 12 6 13 7 14 8 6 9 5 10 4 11 3 12 2 13
REMARK SMILES IDX 1 14
REMARK H PARENT
REMARK Flexibility Score: inf
ROOT
ATOM      1  C   UNL     1     -15.017   6.999  29.734  1.00  0.00     0.000 C 
ENDROOT
BRANCH   1   2
ATOM      2  C   UNL     1     -16.306   6.866  30.558  1.00  0.00     0.000 C 
BRANCH   2   3
ATOM      3  C   UNL     1     -16.339   5.582  31.402  1.00  0.00     0.000 C 
BRANCH   3   4
ATOM      4  C   UNL     1     -15.353   4.514  30.895  1.00  0.00     0.006 C 
BRANCH   4   5
ATOM      5  C   UNL     1     -14.490   3.939  32.025  1.00  0.00     0.053 C 
BRANCH   5   6
ATOM      6  C   UNL     1     -15.205   2.856  32.774  1.00  0.00     0.041 C 
ATOM      7  O   UNL     1     -15.783   3.114  33.863  1.00  0.00    -0.550 OA
ATOM      8  O   UNL     1     -15.263   1.570  32.252  1.00  0.00    -0.550 OA
ENDBRANCH   5   6
ENDBRANCH   4   5
ENDBRANCH   3   4
ENDBRANCH   2   3
ENDBRANCH   1   2
BRANCH   1   9
ATOM      9  C   UNL     1     -14.842   8.435  29.218  1.00  0.00     0.000 C 
BRANCH   9  10
ATOM     10  C   UNL     1     -13.545   8.628  28.413  1.00  0.00    -0.000 C 
BRANCH  10  11
ATOM     11  C   UNL     1     -12.576   7.429  28.442  1.00  0.00    -0.000 C 
BRANCH  11  12
ATOM     12  C   UNL     1     -11.170   7.737  28.998  1.00  0.00    -0.000 C 
BRANCH  12  13
ATOM     13  C   UNL     1     -10.662   6.741  30.056  1.00  0.00    -0.003 C 
ATOM     14  C   UNL     1     -11.606   5.556  30.260  1.00  0.00     0.004 C 
ENDBRANCH  12  13
ENDBRANCH  11  12
ENDBRANCH  10  11
ENDBRANCH   9  10
ENDBRANCH   1   9
TORSDOF 10
ENDMDL
MODEL 3
REMARK VINA RESULT:    -4.175      1.880      3.025
REMARK INTER + INTRA:          -6.947
REMARK INTER:                  -6.318
REMARK INTRA:                  -0.628
REMARK UNBOUND:                -0.331
REMARK SMILES CCCCCCCCCCCC(=O)[O-]
REMARK SMILES IDX 7 1 8 2 9 3 10 4 11 5 12 6 13 7 14 8 6 9 5 10 4 11 3 12 2 13
REMARK SMILES IDX 1 14
REMARK H PARENT
REMARK Flexibility Score: inf
ROOT
ATOM      1  C   UNL     1     -15.496   3.895  32.550  1.00  0.00     0.000 C 
ENDROOT
BRANCH   1   2
ATOM      2  C   UNL     1     -16.634   3.254  33.358  1.00  0.00     0.000 C 
BRANCH   2   3
ATOM      3  C   UNL     1     -16.119   2.362  34.499  1.00  0.00     0.000 C 
BRANCH   3   4
ATOM      4  C   UNL     1     -16.070   0.873  34.111  1.00  0.00     0.006 C 
BRANCH   4   5
ATOM      5  C   UNL     1     -17.125   0.514  33.057  1.00  0.00     0.053 C 
BRANCH   5   6
ATOM      6  C   UNL     1     -16.504  -0.064  31.822  1.00  0.00     0.041 C 
ATOM      7  O   UNL     1     -16.077   0.696  30.913  1.00  0.00    -0.550 OA
ATOM      8  O   UNL     1     -16.363  -1.439  31.692  1.00  0.00    -0.550 OA
ENDBRANCH   5   6
ENDBRANCH   4   5
ENDBRANCH   3   4
ENDBRANCH   2   3
ENDBRANCH   1   2
BRANCH   1   9
ATOM      9  C   UNL     1     -16.008   4.408  31.196  1.00  0.00     0.000 C 
BRANCH   9  10
ATOM     10  C   UNL     1     -16.588   5.831  31.275  1.00  0.00    -0.000 C 
BRANCH  10  11
ATOM     11  C   UNL     1     -15.968   6.842  30.289  1.00  0.00    -0.000 C 
BRANCH  11  12
ATOM     12  C   UNL     1     -14.832   6.284  29.407  1.00  0.00    -0.000 C 
BRANCH  12  13
ATOM     13  C   UNL     1     -13.865   7.345  28.851  1.00  0.00    -0.003 C 
ATOM     14  C   UNL     1     -14.486   8.741  28.786  1.00  0.00     0.004 C 
ENDBRANCH  12  13
ENDBRANCH  11  12
ENDBRANCH  10  11
ENDBRANCH   9  10
ENDBRANCH   1   9
TORSDOF 10
ENDMDL
MODEL 4
REMARK VINA RESULT:    -4.169      4.041      7.606
REMARK INTER + INTRA:          -6.938
REMARK INTER:                  -6.472
REMARK INTRA:                  -0.466
REMARK UNBOUND:                -0.331
REMARK SMILES CCCCCCCCCCCC(=O)[O-]
REMARK SMILES IDX 7 1 8 2 9 3 10 4 11 5 12 6 13 7 14 8 6 9 5 10 4 11 3 12 2 13
REMARK SMILES IDX 1 14
REMARK H PARENT
REMARK Flexibility Score: inf
ROOT
ATOM      1  C   UNL     1     -16.255   7.085  30.489  1.00  0.00     0.000 C 
ENDROOT
BRANCH   1   2
ATOM      2  C   UNL     1     -14.917   7.159  29.738  1.00  0.00     0.000 C 
BRANCH   2   3
ATOM      3  C   UNL     1     -14.755   8.466  28.947  1.00  0.00     0.000 C 
BRANCH   3   4
ATOM      4  C   UNL     1     -13.489   8.474  28.071  1.00  0.00     0.006 C 
BRANCH   4   5
ATOM      5  C   UNL     1     -12.296   9.123  28.783  1.00  0.00     0.053 C 
BRANCH   5   6
ATOM      6  C   UNL     1     -11.171   8.153  28.979  1.00  0.00     0.041 C 
ATOM      7  O   UNL     1     -11.057   7.153  28.222  1.00  0.00    -0.550 OA
ATOM      8  O   UNL     1     -10.227   8.373  29.974  1.00  0.00    -0.550 OA
ENDBRANCH   5   6
ENDBRANCH   4   5
ENDBRANCH   3   4
ENDBRANCH   2   3
ENDBRANCH   1   2
BRANCH   1   9
ATOM      9  C   UNL     1     -16.382   5.758  31.253  1.00  0.00     0.000 C 
BRANCH   9  10
ATOM     10  C   UNL     1     -15.184   4.820  31.025  1.00  0.00    -0.000 C 
BRANCH  10  11
ATOM     11  C   UNL     1     -15.395   3.368  31.501  1.00  0.00    -0.000 C 
BRANCH  11  12
ATOM     12  C   UNL     1     -15.180   3.135  33.010  1.00  0.00    -0.000 C 
BRANCH  12  13
ATOM     13  C   UNL     1     -16.472   2.999  33.834  1.00  0.00    -0.003 C 
ATOM     14  C   UNL     1     -16.681   1.589  34.386  1.00  0.00     0.004 C 
ENDBRANCH  12  13
ENDBRANCH  11  12
ENDBRANCH  10  11
ENDBRANCH   9  10
ENDBRANCH   1   9
TORSDOF 10
ENDMDL
MODEL 5
REMARK VINA RESULT:    -4.131      1.716      2.982
REMARK INTER + INTRA:          -6.877
REMARK INTER:                  -5.863
REMARK INTRA:                  -1.014
REMARK UNBOUND:                -0.331
REMARK SMILES CCCCCCCCCCCC(=O)[O-]
REMARK SMILES IDX 7 1 8 2 9 3 10 4 11 5 12 6 13 7 14 8 6 9 5 10 4 11 3 12 2 13
REMARK SMILES IDX 1 14
REMARK H PARENT
REMARK Flexibility Score: inf
ROOT
ATOM      1  C   UNL     1     -14.533   5.721  29.380  1.00  0.00     0.000 C 
ENDROOT
BRANCH   1   2
ATOM      2  C   UNL     1     -15.315   6.881  30.014  1.00  0.00     0.000 C 
BRANCH   2   3
ATOM      3  C   UNL     1     -16.440   6.398  30.942  1.00  0.00     0.000 C 
BRANCH   3   4
ATOM      4  C   UNL     1     -16.561   4.864  30.978  1.00  0.00     0.006 C 
BRANCH   4   5
ATOM      5  C   UNL     1     -16.873   4.341  32.386  1.00  0.00     0.053 C 
BRANCH   5   6
ATOM      6  C   UNL     1     -15.724   3.571  32.961  1.00  0.00     0.041 C 
ATOM      7  O   UNL     1     -14.564   3.721  32.494  1.00  0.00    -0.550 OA
ATOM      8  O   UNL     1     -15.927   2.715  34.036  1.00  0.00    -0.550 OA
ENDBRANCH   5   6
ENDBRANCH   4   5
ENDBRANCH   3   4
ENDBRANCH   2   3
ENDBRANCH   1   2
BRANCH   1   9
ATOM      9  C   UNL     1     -13.101   5.659  29.933  1.00  0.00     0.000 C 
BRANCH   9  10
ATOM     10  C   UNL     1     -12.041   6.072  28.897  1.00  0.00    -0.000 C 
BRANCH  10  11
ATOM     11  C   UNL     1     -11.405   7.457  29.133  1.00  0.00    -0.000 C 
BRANCH  11  12
ATOM     12  C   UNL     1     -12.281   8.659  28.722  1.00  0.00    -0.000 C 
BRANCH  12  13
ATOM     13  C   UNL     1     -12.972   8.517  27.355  1.00  0.00    -0.003 C 
ATOM     14  C   UNL     1     -14.435   8.961  27.378  1.00  0.00     0.004 C 
ENDBRANCH  12  13
ENDBRANCH  11  12
ENDBRANCH  10  11
ENDBRANCH   9  10
ENDBRANCH   1   9
TORSDOF 10
ENDMDL
MODEL 6
REMARK VINA RESULT:    -4.066      4.579      6.399
REMARK INTER + INTRA:          -6.774
REMARK INTER:                  -5.891
REMARK INTRA:                  -0.884
REMARK UNBOUND:                -0.331
REMARK SMILES CCCCCCCCCCCC(=O)[O-]
REMARK SMILES IDX 7 1 8 2 9 3 10 4 11 5 12 6 13 7 14 8 6 9 5 10 4 11 3 12 2 13
REMARK SMILES IDX 1 14
REMARK H PARENT
REMARK Flexibility Score: inf
ROOT
ATOM      1  C   UNL     1     -15.338   4.564  30.737  1.00  0.00     0.000 C 
ENDROOT
BRANCH   1   2
ATOM      2  C   UNL     1     -16.341   5.572  31.318  1.00  0.00     0.000 C 
BRANCH   2   3
ATOM      3  C   UNL     1     -16.280   6.938  30.618  1.00  0.00     0.000 C 
BRANCH   3   4
ATOM      4  C   UNL     1     -15.057   7.077  29.695  1.00  0.00     0.006 C 
BRANCH   4   5
ATOM      5  C   UNL     1     -14.846   8.522  29.226  1.00  0.00     0.053 C 
BRANCH   5   6
ATOM      6  C   UNL     1     -13.988   8.589  27.999  1.00  0.00     0.041 C 
ATOM      7  O   UNL     1     -14.468   9.006  26.912  1.00  0.00    -0.550 OA
ATOM      8  O   UNL     1     -12.649   8.227  28.065  1.00  0.00    -0.550 OA
ENDBRANCH   5   6
ENDBRANCH   4   5
ENDBRANCH   3   4
ENDBRANCH   2   3
ENDBRANCH   1   2
BRANCH   1   9
ATOM      9  C   UNL     1     -14.554   3.864  31.856  1.00  0.00     0.000 C 
BRANCH   9  10
ATOM     10  C   UNL     1     -13.071   3.651  31.506  1.00  0.00    -0.000 C 
BRANCH  10  11
ATOM     11  C   UNL     1     -12.651   4.165  30.114  1.00  0.00    -0.000 C 
BRANCH  11  12
ATOM     12  C   UNL     1     -11.786   5.443  30.121  1.00  0.00    -0.000 C 
BRANCH  12  13
ATOM     13  C   UNL     1     -10.722   5.497  31.232  1.00  0.00    -0.003 C 
ATOM     14  C   UNL     1      -9.603   4.475  31.034  1.00  0.00     0.004 C 
ENDBRANCH  12  13
ENDBRANCH  11  12
ENDBRANCH  10  11
ENDBRANCH   9  10
ENDBRANCH   1   9
TORSDOF 10
ENDMDL
MODEL 7
REMARK VINA RESULT:    -4.020     22.639     24.475
REMARK INTER + INTRA:          -6.702
REMARK INTER:                  -5.213
REMARK INTRA:                  -1.489
REMARK UNBOUND:                -0.331
REMARK SMILES CCCCCCCCCCCC(=O)[O-]
REMARK SMILES IDX 7 1 8 2 9 3 10 4 11 5 12 6 13 7 14 8 6 9 5 10 4 11 3 12 2 13
REMARK SMILES IDX 1 14
REMARK H PARENT
REMARK Flexibility Score: inf
ROOT
ATOM      1  C   UNL     1       1.734  -7.575  22.454  1.00  0.00     0.000 C 
ENDROOT
BRANCH   1   2
ATOM      2  C   UNL     1       1.823  -8.875  21.642  1.00  0.00     0.000 C 
BRANCH   2   3
ATOM      3  C   UNL     1       3.125  -8.979  20.832  1.00  0.00     0.000 C 
BRANCH   3   4
ATOM      4  C   UNL     1       2.914  -9.629  19.453  1.00  0.00     0.006 C 
BRANCH   4   5
ATOM      5  C   UNL     1       1.428  -9.802  19.115  1.00  0.00     0.053 C 
BRANCH   5   6
ATOM      6  C   UNL     1       1.204  -9.921  17.639  1.00  0.00     0.041 C 
ATOM      7  O   UNL     1       1.702 -10.883  16.997  1.00  0.00    -0.550 OA
ATOM      8  O   UNL     1       0.414  -8.989  16.977  1.00  0.00    -0.550 OA
ENDBRANCH   5   6
ENDBRANCH   4   5
ENDBRANCH   3   4
ENDBRANCH   2   3
ENDBRANCH   1   2
BRANCH   1   9
ATOM      9  C   UNL     1       2.411  -6.416  21.709  1.00  0.00     0.000 C 
BRANCH   9  10
ATOM     10  C   UNL     1       1.417  -5.329  21.262  1.00  0.00    -0.000 C 
BRANCH  10  11
ATOM     11  C   UNL     1       1.323  -5.120  19.737  1.00  0.00    -0.000 C 
BRANCH  11  12
ATOM     12  C   UNL     1       0.451  -6.148  18.987  1.00  0.00    -0.000 C 
BRANCH  12  13
ATOM     13  C   UNL     1      -1.001  -6.249  19.486  1.00  0.00    -0.003 C 
ATOM     14  C   UNL     1      -1.368  -7.652  19.970  1.00  0.00     0.004 C 
ENDBRANCH  12  13
ENDBRANCH  11  12
ENDBRANCH  10  11
ENDBRANCH   9  10
ENDBRANCH   1   9
TORSDOF 10
ENDMDL
