MODEL 1
REMARK VINA RESULT:    -4.909      0.000      0.000
REMARK INTER + INTRA:          -9.526
REMARK INTER:                  -8.926
REMARK INTRA:                  -0.600
REMARK UNBOUND:                -0.600
REMARK SMILES CCCCCCCCCCCCCCCC(=O)[O-]
REMARK SMILES IDX 9 1 10 2 11 3 12 4 13 5 14 6 15 7 16 8 17 9 18 10 8 11 7 12
REMARK SMILES IDX 6 13 5 14 4 15 3 16 2 17 1 18
REMARK H PARENT
REMARK Flexibility Score: inf
ROOT
ATOM      1  C   UNL     1      37.512  30.938  28.330  1.00  0.00     0.000 C 
ENDROOT
BRANCH   1   2
ATOM      2  C   UNL     1      36.284  30.008  28.352  1.00  0.00     0.000 C 
BRANCH   2   3
ATOM      3  C   UNL     1      36.088  29.224  29.666  1.00  0.00     0.000 C 
BRANCH   3   4
ATOM      4  C   UNL     1      34.653  28.719  29.917  1.00  0.00     0.000 C 
BRANCH   4   5
ATOM      5  C   UNL     1      33.887  28.285  28.655  1.00  0.00     0.000 C 
BRANCH   5   6
ATOM      6  C   UNL     1      32.641  27.439  28.973  1.00  0.00     0.006 C 
BRANCH   6   7
ATOM      7  C   UNL     1      31.640  27.424  27.812  1.00  0.00     0.053 C 
BRANCH   7   8
ATOM      8  C   UNL     1      32.172  26.672  26.631  1.00  0.00     0.041 C 
ATOM      9  O   UNL     1      32.177  25.413  26.632  1.00  0.00    -0.550 OA
ATOM     10  O   UNL     1      32.693  27.361  25.543  1.00  0.00    -0.550 OA
ENDBRANCH   7   8
ENDBRANCH   6   7
ENDBRANCH   5   6
ENDBRANCH   4   5
ENDBRANCH   3   4
ENDBRANCH   2   3
ENDBRANCH   1   2
BRANCH   1  11
ATOM     11  C   UNL     1      37.831  31.632  29.670  1.00  0.00     0.000 C 
BRANCH  11  12
ATOM     12  C   UNL     1      39.313  31.610  30.082  1.00  0.00    -0.000 C 
BRANCH  12  13
ATOM     13  C   UNL     1      40.192  32.517  29.202  1.00  0.00    -0.000 C 
BRANCH  13  14
ATOM     14  C   UNL     1      41.686  32.399  29.542  1.00  0.00    -0.000 C 
BRANCH  14  15
ATOM     15  C   UNL     1      42.113  30.954  29.851  1.00  0.00    -0.000 C 
BRANCH  15  16
ATOM     16  C   UNL     1      43.559  30.655  29.421  1.00  0.00    -0.000 C 
BRANCH  16  17
ATOM     17  C   UNL     1      43.792  29.184  29.019  1.00  0.00    -0.003 C 
ATOM     18  C   UNL     1      45.217  28.716  29.314  1.00  0.00     0.004 C 
ENDBRANCH  16  17
ENDBRANCH  15  16
ENDBRANCH  14  15
ENDBRANCH  13  14
ENDBRANCH  12  13
ENDBRANCH  11  12
ENDBRANCH   1  11
TORSDOF 14
ENDMDL
MODEL 2
REMARK VINA RESULT:    -4.470      5.073      9.809
REMARK INTER + INTRA:          -8.728
REMARK INTER:                  -7.810
REMARK INTRA:                  -0.918
REMARK UNBOUND:                -0.600
REMARK SMILES CCCCCCCCCCCCCCCC(=O)[O-]
REMARK SMILES IDX 9 1 10 2 11 3 12 4 13 5 14 6 15 7 16 8 17 9 18 10 8 11 7 12
REMARK SMILES IDX 6 13 5 14 4 15 3 16 2 17 1 18
REMARK H PARENT
REMARK Flexibility Score: inf
ROOT
ATOM      1  C   UNL     1      40.182  32.655  28.687  1.00  0.00     0.000 C 
ENDROOT
BRANCH   1   2
ATOM      2  C   UNL     1      41.001  32.400  29.967  1.00  0.00     0.000 C 
BRANCH   2   3
ATOM      3  C   UNL     1      42.346  31.680  29.744  1.00  0.00     0.000 C 
BRANCH   3   4
ATOM      4  C   UNL     1      43.596  32.572  29.880  1.00  0.00     0.000 C 
BRANCH   4   5
ATOM      5  C   UNL     1      43.305  34.064  30.123  1.00  0.00     0.000 C 
BRANCH   5   6
ATOM      6  C   UNL     1      43.857  34.970  29.008  1.00  0.00     0.006 C 
BRANCH   6   7
ATOM      7  C   UNL     1      43.736  34.322  27.624  1.00  0.00     0.053 C 
BRANCH   7   8
ATOM      8  C   UNL     1      43.879  35.330  26.525  1.00  0.00     0.041 C 
ATOM      9  O   UNL     1      43.757  34.978  25.322  1.00  0.00    -0.550 OA
ATOM     10  O   UNL     1      44.181  36.652  26.828  1.00  0.00    -0.550 OA
ENDBRANCH   7   8
ENDBRANCH   6   7
ENDBRANCH   5   6
ENDBRANCH   4   5
ENDBRANCH   3   4
ENDBRANCH   2   3
ENDBRANCH   1   2
BRANCH   1  11
ATOM     11  C   UNL     1      38.770  33.230  28.918  1.00  0.00     0.000 C 
BRANCH  11  12
ATOM     12  C   UNL     1      37.685  32.189  29.249  1.00  0.00    -0.000 C 
BRANCH  12  13
ATOM     13  C   UNL     1      37.585  31.073  28.194  1.00  0.00    -0.000 C 
BRANCH  13  14
ATOM     14  C   UNL     1      36.380  30.149  28.427  1.00  0.00    -0.000 C 
BRANCH  14  15
ATOM     15  C   UNL     1      36.726  28.926  29.292  1.00  0.00    -0.000 C 
BRANCH  15  16
ATOM     16  C   UNL     1      35.482  28.139  29.738  1.00  0.00    -0.000 C 
BRANCH  16  17
ATOM     17  C   UNL     1      34.161  28.704  29.177  1.00  0.00    -0.003 C 
ATOM     18  C   UNL     1      33.439  27.707  28.270  1.00  0.00     0.004 C 
ENDBRANCH  16  17
ENDBRANCH  15  16
ENDBRANCH  14  15
ENDBRANCH  13  14
ENDBRANCH  12  13
ENDBRANCH  11  12
ENDBRANCH   1  11
TORSDOF 14
ENDMDL
MODEL 3
REMARK VINA RESULT:    -4.356      4.178      9.662
REMARK INTER + INTRA:          -8.520
REMARK INTER:                  -8.016
REMARK INTRA:                  -0.504
REMARK UNBOUND:                -0.600
REMARK SMILES CCCCCCCCCCCCCCCC(=O)[O-]
REMARK SMILES IDX 9 1 10 2 11 3 12 4 13 5 14 6 15 7 16 8 17 9 18 10 8 11 7 12
REMARK SMILES IDX 6 13 5 14 4 15 3 16 2 17 1 18
REMARK H PARENT
REMARK Flexibility Score: inf
ROOT
ATOM      1  C   UNL     1      38.057  30.729  28.746  1.00  0.00     0.000 C 
ENDROOT
BRANCH   1   2
ATOM      2  C   UNL     1      39.334  31.198  29.470  1.00  0.00     0.000 C 
BRANCH   2   3
ATOM      3  C   UNL     1      39.844  32.590  29.049  1.00  0.00     0.000 C 
BRANCH   3   4
ATOM      4  C   UNL     1      41.260  32.945  29.545  1.00  0.00     0.000 C 
BRANCH   4   5
ATOM      5  C   UNL     1      42.089  31.750  30.051  1.00  0.00     0.000 C 
BRANCH   5   6
ATOM      6  C   UNL     1      43.189  31.326  29.062  1.00  0.00     0.006 C 
BRANCH   6   7
ATOM      7  C   UNL     1      44.328  30.568  29.755  1.00  0.00     0.053 C 
BRANCH   7   8
ATOM      8  C   UNL     1      44.284  29.102  29.451  1.00  0.00     0.041 C 
ATOM      9  O   UNL     1      43.180  28.526  29.270  1.00  0.00    -0.550 OA
ATOM     10  O   UNL     1      45.461  28.365  29.402  1.00  0.00    -0.550 OA
ENDBRANCH   7   8
ENDBRANCH   6   7
ENDBRANCH   5   6
ENDBRANCH   4   5
ENDBRANCH   3   4
ENDBRANCH   2   3
ENDBRANCH   1   2
BRANCH   1  11
ATOM     11  C   UNL     1      36.900  30.301  29.671  1.00  0.00     0.000 C 
BRANCH  11  12
ATOM     12  C   UNL     1      36.056  29.119  29.161  1.00  0.00    -0.000 C 
BRANCH  12  13
ATOM     13  C   UNL     1      34.878  28.782  30.092  1.00  0.00    -0.000 C 
BRANCH  13  14
ATOM     14  C   UNL     1      33.548  28.648  29.334  1.00  0.00    -0.000 C 
BRANCH  14  15
ATOM     15  C   UNL     1      33.423  27.312  28.582  1.00  0.00    -0.000 C 
BRANCH  15  16
ATOM     16  C   UNL     1      31.969  26.822  28.474  1.00  0.00    -0.000 C 
BRANCH  16  17
ATOM     17  C   UNL     1      31.593  26.309  27.068  1.00  0.00    -0.003 C 
ATOM     18  C   UNL     1      32.506  26.872  25.978  1.00  0.00     0.004 C 
ENDBRANCH  16  17
ENDBRANCH  15  16
ENDBRANCH  14  15
ENDBRANCH  13  14
ENDBRANCH  12  13
ENDBRANCH  11  12
ENDBRANCH   1  11
TORSDOF 14
ENDMDL
MODEL 4
REMARK VINA RESULT:    -4.147      1.638      2.235
REMARK INTER + INTRA:          -8.140
REMARK INTER:                  -7.265
REMARK INTRA:                  -0.876
REMARK UNBOUND:                -0.600
REMARK SMILES CCCCCCCCCCCCCCCC(=O)[O-]
REMARK SMILES IDX 9 1 10 2 11 3 12 4 13 5 14 6 15 7 16 8 17 9 18 10 8 11 7 12
REMARK SMILES IDX 6 13 5 14 4 15 3 16 2 17 1 18
REMARK H PARENT
REMARK Flexibility Score: inf
ROOT
ATOM      1  C   UNL     1      36.596  30.058  28.417  1.00  0.00     0.000 C 
ENDROOT
BRANCH   1   2
ATOM      2  C   UNL     1      35.184  29.440  28.417  1.00  0.00     0.000 C 
BRANCH   2   3
ATOM      3  C   UNL     1      35.100  28.014  28.998  1.00  0.00     0.000 C 
BRANCH   3   4
ATOM      4  C   UNL     1      34.059  27.826  30.120  1.00  0.00     0.000 C 
BRANCH   4   5
ATOM      5  C   UNL     1      32.657  28.378  29.803  1.00  0.00     0.000 C 
BRANCH   5   6
ATOM      6  C   UNL     1      31.681  27.289  29.324  1.00  0.00     0.006 C 
BRANCH   6   7
ATOM      7  C   UNL     1      31.182  27.546  27.897  1.00  0.00     0.053 C 
BRANCH   7   8
ATOM      8  C   UNL     1      32.047  26.872  26.877  1.00  0.00     0.041 C 
ATOM      9  O   UNL     1      32.788  27.556  26.123  1.00  0.00    -0.550 OA
ATOM     10  O   UNL     1      32.010  25.490  26.736  1.00  0.00    -0.550 OA
ENDBRANCH   7   8
ENDBRANCH   6   7
ENDBRANCH   5   6
ENDBRANCH   4   5
ENDBRANCH   3   4
ENDBRANCH   2   3
ENDBRANCH   1   2
BRANCH   1  11
ATOM     11  C   UNL     1      37.062  30.626  29.773  1.00  0.00     0.000 C 
BRANCH  11  12
ATOM     12  C   UNL     1      38.550  31.010  29.846  1.00  0.00    -0.000 C 
BRANCH  12  13
ATOM     13  C   UNL     1      38.938  32.097  28.829  1.00  0.00    -0.000 C 
BRANCH  13  14
ATOM     14  C   UNL     1      40.325  32.696  29.107  1.00  0.00    -0.000 C 
BRANCH  14  15
ATOM     15  C   UNL     1      41.225  31.757  29.928  1.00  0.00    -0.000 C 
BRANCH  15  16
ATOM     16  C   UNL     1      42.672  32.268  30.043  1.00  0.00    -0.000 C 
BRANCH  16  17
ATOM     17  C   UNL     1      42.782  33.806  30.085  1.00  0.00    -0.003 C 
ATOM     18  C   UNL     1      44.206  34.296  29.817  1.00  0.00     0.004 C 
ENDBRANCH  16  17
ENDBRANCH  15  16
ENDBRANCH  14  15
ENDBRANCH  13  14
ENDBRANCH  12  13
ENDBRANCH  11  12
ENDBRANCH   1  11
TORSDOF 14
ENDMDL
MODEL 5
REMARK VINA RESULT:    -4.140     12.842     15.868
REMARK INTER + INTRA:          -8.128
REMARK INTER:                  -7.518
REMARK INTRA:                  -0.610
REMARK UNBOUND:                -0.600
REMARK SMILES CCCCCCCCCCCCCCCC(=O)[O-]
REMARK SMILES IDX 9 1 10 2 11 3 12 4 13 5 14 6 15 7 16 8 17 9 18 10 8 11 7 12
REMARK SMILES IDX 6 13 5 14 4 15 3 16 2 17 1 18
REMARK H PARENT
REMARK Flexibility Score: inf
ROOT
ATOM      1  C   UNL     1      39.511  26.675  18.113  1.00  0.00     0.000 C 
ENDROOT
BRANCH   1   2
ATOM      2  C   UNL     1      41.047  26.796  18.111  1.00  0.00     0.000 C 
BRANCH   2   3
ATOM      3  C   UNL     1      41.636  27.558  16.906  1.00  0.00     0.000 C 
BRANCH   3   4
ATOM      4  C   UNL     1      41.749  29.085  17.092  1.00  0.00     0.000 C 
BRANCH   4   5
ATOM      5  C   UNL     1      42.502  29.821  15.970  1.00  0.00     0.000 C 
BRANCH   5   6
ATOM      6  C   UNL     1      42.703  31.318  16.268  1.00  0.00     0.006 C 
BRANCH   6   7
ATOM      7  C   UNL     1      43.889  31.907  15.495  1.00  0.00     0.053 C 
BRANCH   7   8
ATOM      8  C   UNL     1      45.198  31.534  16.122  1.00  0.00     0.041 C 
ATOM      9  O   UNL     1      45.477  31.924  17.286  1.00  0.00    -0.550 OA
ATOM     10  O   UNL     1      46.125  30.785  15.406  1.00  0.00    -0.550 OA
ENDBRANCH   7   8
ENDBRANCH   6   7
ENDBRANCH   5   6
ENDBRANCH   4   5
ENDBRANCH   3   4
ENDBRANCH   2   3
ENDBRANCH   1   2
BRANCH   1  11
ATOM     11  C   UNL     1      38.922  25.792  16.995  1.00  0.00     0.000 C 
BRANCH  11  12
ATOM     12  C   UNL     1      37.724  26.397  16.242  1.00  0.00    -0.000 C 
BRANCH  12  13
ATOM     13  C   UNL     1      36.421  25.609  16.461  1.00  0.00    -0.000 C 
BRANCH  13  14
ATOM     14  C   UNL     1      35.251  26.164  15.634  1.00  0.00    -0.000 C 
BRANCH  14  15
ATOM     15  C   UNL     1      34.990  27.656  15.899  1.00  0.00    -0.000 C 
BRANCH  15  16
ATOM     16  C   UNL     1      34.981  28.498  14.611  1.00  0.00    -0.000 C 
BRANCH  16  17
ATOM     17  C   UNL     1      34.965  30.019  14.867  1.00  0.00    -0.003 C 
ATOM     18  C   UNL     1      34.363  30.801  13.700  1.00  0.00     0.004 C 
ENDBRANCH  16  17
ENDBRANCH  15  16
ENDBRANCH  14  15
ENDBRANCH  13  14
ENDBRANCH  12  13
ENDBRANCH  11  12
ENDBRANCH   1  11
TORSDOF 14
ENDMDL
MODEL 6
REMARK VINA RESULT:    -4.001     12.913     14.420
REMARK INTER + INTRA:          -7.875
REMARK INTER:                  -7.278
REMARK INTRA:                  -0.597
REMARK UNBOUND:                -0.600
REMARK SMILES CCCCCCCCCCCCCCCC(=O)[O-]
REMARK SMILES IDX 9 1 10 2 11 3 12 4 13 5 14 6 15 7 16 8 17 9 18 10 8 11 7 12
REMARK SMILES IDX 6 13 5 14 4 15 3 16 2 17 1 18
REMARK H PARENT
REMARK Flexibility Score: inf
ROOT
ATOM      1  C   UNL     1      42.283  25.134  16.911  1.00  0.00     0.000 C 
ENDROOT
BRANCH   1   2
ATOM      2  C   UNL     1      41.355  25.979  17.806  1.00  0.00     0.000 C 
BRANCH   2   3
ATOM      3  C   UNL     1      40.247  26.742  17.053  1.00  0.00     0.000 C 
BRANCH   3   4
ATOM      4  C   UNL     1      38.808  26.288  17.373  1.00  0.00     0.000 C 
BRANCH   4   5
ATOM      5  C   UNL     1      37.867  26.208  16.158  1.00  0.00     0.000 C 
BRANCH   5   6
ATOM      6  C   UNL     1      36.467  25.682  16.520  1.00  0.00     0.006 C 
BRANCH   6   7
ATOM      7  C   UNL     1      35.406  26.111  15.500  1.00  0.00     0.053 C 
BRANCH   7   8
ATOM      8  C   UNL     1      34.945  27.517  15.737  1.00  0.00     0.041 C 
ATOM      9  O   UNL     1      34.423  27.835  16.837  1.00  0.00    -0.550 OA
ATOM     10  O   UNL     1      35.061  28.467  14.729  1.00  0.00    -0.550 OA
ENDBRANCH   7   8
ENDBRANCH   6   7
ENDBRANCH   5   6
ENDBRANCH   4   5
ENDBRANCH   3   4
ENDBRANCH   2   3
ENDBRANCH   1   2
BRANCH   1  11
ATOM     11  C   UNL     1      43.296  24.251  17.668  1.00  0.00     0.000 C 
BRANCH  11  12
ATOM     12  C   UNL     1      44.261  23.449  16.777  1.00  0.00    -0.000 C 
BRANCH  12  13
ATOM     13  C   UNL     1      44.623  22.077  17.373  1.00  0.00    -0.000 C 
BRANCH  13  14
ATOM     14  C   UNL     1      43.673  20.963  16.908  1.00  0.00    -0.000 C 
BRANCH  14  15
ATOM     15  C   UNL     1      42.941  20.280  18.075  1.00  0.00    -0.000 C 
BRANCH  15  16
ATOM     16  C   UNL     1      41.679  19.524  17.627  1.00  0.00    -0.000 C 
BRANCH  16  17
ATOM     17  C   UNL     1      41.550  19.391  16.096  1.00  0.00    -0.003 C 
ATOM     18  C   UNL     1      40.958  18.045  15.674  1.00  0.00     0.004 C 
ENDBRANCH  16  17
ENDBRANCH  15  16
ENDBRANCH  14  15
ENDBRANCH  13  14
ENDBRANCH  12  13
ENDBRANCH  11  12
ENDBRANCH   1  11
TORSDOF 14
ENDMDL
MODEL 7
REMARK VINA RESULT:    -3.943     13.955     16.003
REMARK INTER + INTRA:          -7.769
REMARK INTER:                  -7.193
REMARK INTRA:                  -0.576
REMARK UNBOUND:                -0.600
REMARK SMILES CCCCCCCCCCCCCCCC(=O)[O-]
REMARK SMILES IDX 9 1 10 2 11 3 12 4 13 5 14 6 15 7 16 8 17 9 18 10 8 11 7 12
REMARK SMILES IDX 6 13 5 14 4 15 3 16 2 17 1 18
REMARK H PARENT
REMARK Flexibility Score: inf
ROOT
ATOM      1  C   UNL     1      42.068  25.250  17.109  1.00  0.00     0.000 C 
ENDROOT
BRANCH   1   2
ATOM      2  C   UNL     1      41.671  26.545  17.844  1.00  0.00     0.000 C 
BRANCH   2   3
ATOM      3  C   UNL     1      41.276  27.717  16.923  1.00  0.00     0.000 C 
BRANCH   3   4
ATOM      4  C   UNL     1      41.984  29.053  17.226  1.00  0.00     0.000 C 
BRANCH   4   5
ATOM      5  C   UNL     1      42.311  29.909  15.989  1.00  0.00     0.000 C 
BRANCH   5   6
ATOM      6  C   UNL     1      42.737  31.343  16.352  1.00  0.00     0.006 C 
BRANCH   6   7
ATOM      7  C   UNL     1      43.924  31.824  15.509  1.00  0.00     0.053 C 
BRANCH   7   8
ATOM      8  C   UNL     1      45.234  31.515  16.168  1.00  0.00     0.041 C 
ATOM      9  O   UNL     1      45.478  31.948  17.325  1.00  0.00    -0.550 OA
ATOM     10  O   UNL     1      46.198  30.777  15.492  1.00  0.00    -0.550 OA
ENDBRANCH   7   8
ENDBRANCH   6   7
ENDBRANCH   5   6
ENDBRANCH   4   5
ENDBRANCH   3   4
ENDBRANCH   2   3
ENDBRANCH   1   2
BRANCH   1  11
ATOM     11  C   UNL     1      43.280  24.505  17.705  1.00  0.00     0.000 C 
BRANCH  11  12
ATOM     12  C   UNL     1      43.984  23.526  16.748  1.00  0.00    -0.000 C 
BRANCH  12  13
ATOM     13  C   UNL     1      44.582  22.308  17.473  1.00  0.00    -0.000 C 
BRANCH  13  14
ATOM     14  C   UNL     1      43.971  20.981  16.998  1.00  0.00    -0.000 C 
BRANCH  14  15
ATOM     15  C   UNL     1      43.137  20.286  18.087  1.00  0.00    -0.000 C 
BRANCH  15  16
ATOM     16  C   UNL     1      41.769  19.803  17.574  1.00  0.00    -0.000 C 
BRANCH  16  17
ATOM     17  C   UNL     1      41.770  19.422  16.079  1.00  0.00    -0.003 C 
ATOM     18  C   UNL     1      40.753  18.326  15.756  1.00  0.00     0.004 C 
ENDBRANCH  16  17
ENDBRANCH  15  16
ENDBRANCH  14  15
ENDBRANCH  13  14
ENDBRANCH  12  13
ENDBRANCH  11  12
ENDBRANCH   1  11
TORSDOF 14
ENDMDL
MODEL 8
REMARK VINA RESULT:    -3.899     12.324     13.133
REMARK INTER + INTRA:          -7.690
REMARK INTER:                  -7.065
REMARK INTRA:                  -0.625
REMARK UNBOUND:                -0.600
REMARK SMILES CCCCCCCCCCCCCCCC(=O)[O-]
REMARK SMILES IDX 9 1 10 2 11 3 12 4 13 5 14 6 15 7 16 8 17 9 18 10 8 11 7 12
REMARK SMILES IDX 6 13 5 14 4 15 3 16 2 17 1 18
REMARK H PARENT
REMARK Flexibility Score: inf
ROOT
ATOM      1  C   UNL     1      41.710  28.103  18.081  1.00  0.00     0.000 C 
ENDROOT
BRANCH   1   2
ATOM      2  C   UNL     1      41.257  26.630  18.060  1.00  0.00     0.000 C 
BRANCH   2   3
ATOM      3  C   UNL     1      40.273  26.271  16.929  1.00  0.00     0.000 C 
BRANCH   3   4
ATOM      4  C   UNL     1      38.786  26.517  17.253  1.00  0.00     0.000 C 
BRANCH   4   5
ATOM      5  C   UNL     1      37.819  26.286  16.079  1.00  0.00     0.000 C 
BRANCH   5   6
ATOM      6  C   UNL     1      36.531  25.557  16.501  1.00  0.00     0.006 C 
BRANCH   6   7
ATOM      7  C   UNL     1      35.331  25.953  15.631  1.00  0.00     0.053 C 
BRANCH   7   8
ATOM      8  C   UNL     1      34.926  27.377  15.861  1.00  0.00     0.041 C 
ATOM      9  O   UNL     1      34.393  27.716  16.949  1.00  0.00    -0.550 OA
ATOM     10  O   UNL     1      35.106  28.322  14.858  1.00  0.00    -0.550 OA
ENDBRANCH   7   8
ENDBRANCH   6   7
ENDBRANCH   5   6
ENDBRANCH   4   5
ENDBRANCH   3   4
ENDBRANCH   2   3
ENDBRANCH   1   2
BRANCH   1  11
ATOM     11  C   UNL     1      41.781  28.785  16.700  1.00  0.00     0.000 C 
BRANCH  11  12
ATOM     12  C   UNL     1      42.149  30.279  16.724  1.00  0.00    -0.000 C 
BRANCH  12  13
ATOM     13  C   UNL     1      43.120  30.674  15.598  1.00  0.00    -0.000 C 
BRANCH  13  14
ATOM     14  C   UNL     1      44.022  31.856  15.985  1.00  0.00    -0.000 C 
BRANCH  14  15
ATOM     15  C   UNL     1      45.457  31.422  16.329  1.00  0.00    -0.000 C 
BRANCH  15  16
ATOM     16  C   UNL     1      46.189  30.783  15.137  1.00  0.00    -0.000 C 
BRANCH  16  17
ATOM     17  C   UNL     1      47.451  29.993  15.538  1.00  0.00    -0.003 C 
ATOM     18  C   UNL     1      48.669  30.367  14.692  1.00  0.00     0.004 C 
ENDBRANCH  16  17
ENDBRANCH  15  16
ENDBRANCH  14  15
ENDBRANCH  13  14
ENDBRANCH  12  13
ENDBRANCH  11  12
ENDBRANCH   1  11
TORSDOF 14
ENDMDL
MODEL 9
REMARK VINA RESULT:    -3.655      5.443     10.400
REMARK INTER + INTRA:          -7.246
REMARK INTER:                  -6.775
REMARK INTRA:                  -0.471
REMARK UNBOUND:                -0.600
REMARK SMILES CCCCCCCCCCCCCCCC(=O)[O-]
REMARK SMILES IDX 9 1 10 2 11 3 12 4 13 5 14 6 15 7 16 8 17 9 18 10 8 11 7 12
REMARK SMILES IDX 6 13 5 14 4 15 3 16 2 17 1 18
REMARK H PARENT
REMARK Flexibility Score: inf
ROOT
ATOM      1  C   UNL     1      39.908  29.368  30.125  1.00  0.00     0.000 C 
ENDROOT
BRANCH   1   2
ATOM      2  C   UNL     1      40.945  30.501  29.997  1.00  0.00     0.000 C 
BRANCH   2   3
ATOM      3  C   UNL     1      40.347  31.916  29.860  1.00  0.00     0.000 C 
BRANCH   3   4
ATOM      4  C   UNL     1      41.337  33.001  29.394  1.00  0.00     0.000 C 
BRANCH   4   5
ATOM      5  C   UNL     1      42.762  32.868  29.960  1.00  0.00     0.000 C 
BRANCH   5   6
ATOM      6  C   UNL     1      43.618  34.125  29.726  1.00  0.00     0.006 C 
BRANCH   6   7
ATOM      7  C   UNL     1      43.734  34.477  28.238  1.00  0.00     0.053 C 
BRANCH   7   8
ATOM      8  C   UNL     1      44.230  35.876  28.036  1.00  0.00     0.041 C 
ATOM      9  O   UNL     1      44.892  36.449  28.940  1.00  0.00    -0.550 OA
ATOM     10  O   UNL     1      43.931  36.558  26.863  1.00  0.00    -0.550 OA
ENDBRANCH   7   8
ENDBRANCH   6   7
ENDBRANCH   5   6
ENDBRANCH   4   5
ENDBRANCH   3   4
ENDBRANCH   2   3
ENDBRANCH   1   2
BRANCH   1  11
ATOM     11  C   UNL     1      38.438  29.806  29.964  1.00  0.00     0.000 C 
BRANCH  11  12
ATOM     12  C   UNL     1      37.417  28.658  29.889  1.00  0.00    -0.000 C 
BRANCH  12  13
ATOM     13  C   UNL     1      35.967  29.134  30.088  1.00  0.00    -0.000 C 
BRANCH  13  14
ATOM     14  C   UNL     1      35.180  29.190  28.769  1.00  0.00    -0.000 C 
BRANCH  14  15
ATOM     15  C   UNL     1      33.708  28.776  28.938  1.00  0.00    -0.000 C 
BRANCH  15  16
ATOM     16  C   UNL     1      33.452  27.311  28.548  1.00  0.00    -0.000 C 
BRANCH  16  17
ATOM     17  C   UNL     1      32.641  27.151  27.245  1.00  0.00    -0.003 C 
ATOM     18  C   UNL     1      31.198  26.715  27.506  1.00  0.00     0.004 C 
ENDBRANCH  16  17
ENDBRANCH  15  16
ENDBRANCH  14  15
ENDBRANCH  13  14
ENDBRANCH  12  13
ENDBRANCH  11  12
ENDBRANCH   1  11
TORSDOF 14
ENDMDL
