MODEL 1
REMARK VINA RESULT:    -5.216      0.000      0.000
REMARK INTER + INTRA:         -19.328
REMARK INTER:                 -13.753
REMARK INTRA:                  -5.574
REMARK UNBOUND:                -5.574
REMARK SMILES CCCCCCCCCCCCCCCCCCCCCCCCCCCCCC(=O)[O-]
REMARK SMILES IDX 16 1 17 2 18 3 19 4 20 5 21 6 22 7 23 8 24 9 25 10 26 11
REMARK SMILES IDX 27 12 28 13 29 14 30 15 31 16 32 17 15 18 14 19 13 20 12 21
REMARK SMILES IDX 11 22 10 23 9 24 8 25 7 26 6 27 5 28 4 29 3 30 2 31 1 32
REMARK H PARENT
REMARK Flexibility Score: inf
ROOT
ATOM      1  C   UNL     1       9.008  17.234  34.445  1.00  0.00     0.000 C 
ENDROOT
BRANCH   1   2
ATOM      2  C   UNL     1      10.053  17.072  33.326  1.00  0.00     0.000 C 
BRANCH   2   3
ATOM      3  C   UNL     1      10.063  18.261  32.351  1.00  0.00     0.000 C 
BRANCH   3   4
ATOM      4  C   UNL     1       9.784  17.840  30.898  1.00  0.00     0.000 C 
BRANCH   4   5
ATOM      5  C   UNL     1       9.061  18.936  30.098  1.00  0.00     0.000 C 
BRANCH   5   6
ATOM      6  C   UNL     1       8.337  19.949  31.004  1.00  0.00     0.000 C 
BRANCH   6   7
ATOM      7  C   UNL     1       8.238  21.347  30.370  1.00  0.00     0.000 C 
BRANCH   7   8
ATOM      8  C   UNL     1       9.005  22.410  31.174  1.00  0.00     0.000 C 
BRANCH   8   9
ATOM      9  C   UNL     1       9.044  22.104  32.679  1.00  0.00     0.000 C 
BRANCH   9  10
ATOM     10  C   UNL     1      10.475  21.879  33.201  1.00  0.00     0.000 C 
BRANCH  10  11
ATOM     11  C   UNL     1      10.856  22.863  34.320  1.00  0.00     0.000 C 
BRANCH  11  12
ATOM     12  C   UNL     1       9.711  23.082  35.324  1.00  0.00     0.000 C 
BRANCH  12  13
ATOM     13  C   UNL     1      10.211  23.246  36.772  1.00  0.00     0.006 C 
BRANCH  13  14
ATOM     14  C   UNL     1       9.338  22.547  37.828  1.00  0.00     0.053 C 
BRANCH  14  15
ATOM     15  C   UNL     1      10.026  22.458  39.156  1.00  0.00     0.041 C 
ATOM     16  O   UNL     1       9.767  21.507  39.942  1.00  0.00    -0.550 OA
ATOM     17  O   UNL     1      10.916  23.450  39.546  1.00  0.00    -0.550 OA
ENDBRANCH  14  15
ENDBRANCH  13  14
ENDBRANCH  12  13
ENDBRANCH  11  12
ENDBRANCH  10  11
ENDBRANCH   9  10
ENDBRANCH   8   9
ENDBRANCH   7   8
ENDBRANCH   6   7
ENDBRANCH   5   6
ENDBRANCH   4   5
ENDBRANCH   3   4
ENDBRANCH   2   3
ENDBRANCH   1   2
BRANCH   1  18
ATOM     18  C   UNL     1       8.219  18.550  34.327  1.00  0.00     0.000 C 
BRANCH  18  19
ATOM     19  C   UNL     1       8.616  19.573  35.407  1.00  0.00     0.000 C 
BRANCH  19  20
ATOM     20  C   UNL     1       8.725  18.943  36.806  1.00  0.00     0.000 C 
BRANCH  20  21
ATOM     21  C   UNL     1      10.142  19.047  37.395  1.00  0.00     0.000 C 
BRANCH  21  22
ATOM     22  C   UNL     1      11.161  19.619  36.394  1.00  0.00     0.000 C 
BRANCH  22  23
ATOM     23  C   UNL     1      12.192  18.604  35.858  1.00  0.00     0.000 C 
BRANCH  23  24
ATOM     24  C   UNL     1      12.132  17.209  36.510  1.00  0.00    -0.000 C 
BRANCH  24  25
ATOM     25  C   UNL     1      13.112  16.996  37.683  1.00  0.00    -0.000 C 
BRANCH  25  26
ATOM     26  C   UNL     1      14.446  16.324  37.303  1.00  0.00    -0.000 C 
BRANCH  26  27
ATOM     27  C   UNL     1      15.673  17.257  37.314  1.00  0.00    -0.000 C 
BRANCH  27  28
ATOM     28  C   UNL     1      15.748  18.204  36.098  1.00  0.00    -0.000 C 
BRANCH  28  29
ATOM     29  C   UNL     1      16.039  19.661  36.496  1.00  0.00    -0.000 C 
BRANCH  29  30
ATOM     30  C   UNL     1      15.440  20.039  37.861  1.00  0.00    -0.000 C 
BRANCH  30  31
ATOM     31  C   UNL     1      14.253  21.023  37.764  1.00  0.00    -0.003 C 
ATOM     32  C   UNL     1      13.992  21.749  39.084  1.00  0.00     0.004 C 
ENDBRANCH  30  31
ENDBRANCH  29  30
ENDBRANCH  28  29
ENDBRANCH  27  28
ENDBRANCH  26  27
ENDBRANCH  25  26
ENDBRANCH  24  25
ENDBRANCH  23  24
ENDBRANCH  22  23
ENDBRANCH  21  22
ENDBRANCH  20  21
ENDBRANCH  19  20
ENDBRANCH  18  19
ENDBRANCH   1  18
TORSDOF 28
ENDMDL
MODEL 2
REMARK VINA RESULT:    -5.173      1.682      2.010
REMARK INTER + INTRA:         -19.215
REMARK INTER:                 -13.905
REMARK INTRA:                  -5.310
REMARK UNBOUND:                -5.574
REMARK SMILES CCCCCCCCCCCCCCCCCCCCCCCCCCCCCC(=O)[O-]
REMARK SMILES IDX 16 1 17 2 18 3 19 4 20 5 21 6 22 7 23 8 24 9 25 10 26 11
REMARK SMILES IDX 27 12 28 13 29 14 30 15 31 16 32 17 15 18 14 19 13 20 12 21
REMARK SMILES IDX 11 22 10 23 9 24 8 25 7 26 6 27 5 28 4 29 3 30 2 31 1 32
REMARK H PARENT
REMARK Flexibility Score: inf
ROOT
ATOM      1  C   UNL     1       8.891  17.440  34.627  1.00  0.00     0.000 C 
ENDROOT
BRANCH   1   2
ATOM      2  C   UNL     1       9.921  17.045  33.553  1.00  0.00     0.000 C 
BRANCH   2   3
ATOM      3  C   UNL     1      10.105  18.134  32.483  1.00  0.00     0.000 C 
BRANCH   3   4
ATOM      4  C   UNL     1      10.068  17.571  31.051  1.00  0.00     0.000 C 
BRANCH   4   5
ATOM      5  C   UNL     1       9.336  18.505  30.073  1.00  0.00     0.000 C 
BRANCH   5   6
ATOM      6  C   UNL     1       8.356  19.455  30.784  1.00  0.00     0.000 C 
BRANCH   6   7
ATOM      7  C   UNL     1       8.115  20.756  29.998  1.00  0.00     0.000 C 
BRANCH   7   8
ATOM      8  C   UNL     1       7.910  21.969  30.921  1.00  0.00     0.000 C 
BRANCH   8   9
ATOM      9  C   UNL     1       9.235  22.615  31.356  1.00  0.00     0.000 C 
BRANCH   9  10
ATOM     10  C   UNL     1       9.709  22.120  32.735  1.00  0.00     0.000 C 
BRANCH  10  11
ATOM     11  C   UNL     1      11.191  21.705  32.734  1.00  0.00     0.000 C 
BRANCH  11  12
ATOM     12  C   UNL     1      11.628  21.083  34.072  1.00  0.00     0.000 C 
BRANCH  12  13
ATOM     13  C   UNL     1      12.362  22.085  34.983  1.00  0.00     0.006 C 
BRANCH  13  14
ATOM     14  C   UNL     1      11.442  22.867  35.936  1.00  0.00     0.053 C 
BRANCH  14  15
ATOM     15  C   UNL     1      11.412  24.329  35.613  1.00  0.00     0.041 C 
ATOM     16  O   UNL     1      10.470  25.053  36.035  1.00  0.00    -0.550 OA
ATOM     17  O   UNL     1      12.398  24.884  34.807  1.00  0.00    -0.550 OA
ENDBRANCH  14  15
ENDBRANCH  13  14
ENDBRANCH  12  13
ENDBRANCH  11  12
ENDBRANCH  10  11
ENDBRANCH   9  10
ENDBRANCH   8   9
ENDBRANCH   7   8
ENDBRANCH   6   7
ENDBRANCH   5   6
ENDBRANCH   4   5
ENDBRANCH   3   4
ENDBRANCH   2   3
ENDBRANCH   1   2
BRANCH   1  18
ATOM     18  C   UNL     1       8.434  18.904  34.494  1.00  0.00     0.000 C 
BRANCH  18  19
ATOM     19  C   UNL     1       8.670  19.714  35.781  1.00  0.00     0.000 C 
BRANCH  19  20
ATOM     20  C   UNL     1       8.440  18.882  37.053  1.00  0.00     0.000 C 
BRANCH  20  21
ATOM     21  C   UNL     1       9.688  18.812  37.950  1.00  0.00     0.000 C 
BRANCH  21  22
ATOM     22  C   UNL     1      10.906  19.522  37.331  1.00  0.00     0.000 C 
BRANCH  22  23
ATOM     23  C   UNL     1      12.151  18.634  37.137  1.00  0.00     0.000 C 
BRANCH  23  24
ATOM     24  C   UNL     1      11.855  17.150  36.845  1.00  0.00    -0.000 C 
BRANCH  24  25
ATOM     25  C   UNL     1      12.974  16.397  36.095  1.00  0.00    -0.000 C 
BRANCH  25  26
ATOM     26  C   UNL     1      14.002  15.691  36.999  1.00  0.00    -0.000 C 
BRANCH  26  27
ATOM     27  C   UNL     1      15.374  16.388  37.096  1.00  0.00    -0.000 C 
BRANCH  27  28
ATOM     28  C   UNL     1      15.742  17.217  35.848  1.00  0.00    -0.000 C 
BRANCH  28  29
ATOM     29  C   UNL     1      15.787  18.729  36.129  1.00  0.00    -0.000 C 
BRANCH  29  30
ATOM     30  C   UNL     1      15.786  19.057  37.632  1.00  0.00    -0.000 C 
BRANCH  30  31
ATOM     31  C   UNL     1      15.179  20.438  37.962  1.00  0.00    -0.003 C 
ATOM     32  C   UNL     1      15.618  21.517  36.972  1.00  0.00     0.004 C 
ENDBRANCH  30  31
ENDBRANCH  29  30
ENDBRANCH  28  29
ENDBRANCH  27  28
ENDBRANCH  26  27
ENDBRANCH  25  26
ENDBRANCH  24  25
ENDBRANCH  23  24
ENDBRANCH  22  23
ENDBRANCH  21  22
ENDBRANCH  20  21
ENDBRANCH  19  20
ENDBRANCH  18  19
ENDBRANCH   1  18
TORSDOF 28
ENDMDL
MODEL 3
REMARK VINA RESULT:    -5.170      1.262      2.099
REMARK INTER + INTRA:         -19.206
REMARK INTER:                 -13.645
REMARK INTRA:                  -5.561
REMARK UNBOUND:                -5.574
REMARK SMILES CCCCCCCCCCCCCCCCCCCCCCCCCCCCCC(=O)[O-]
REMARK SMILES IDX 16 1 17 2 18 3 19 4 20 5 21 6 22 7 23 8 24 9 25 10 26 11
REMARK SMILES IDX 27 12 28 13 29 14 30 15 31 16 32 17 15 18 14 19 13 20 12 21
REMARK SMILES IDX 11 22 10 23 9 24 8 25 7 26 6 27 5 28 4 29 3 30 2 31 1 32
REMARK H PARENT
REMARK Flexibility Score: inf
ROOT
ATOM      1  C   UNL     1       9.617  17.751  32.678  1.00  0.00     0.000 C 
ENDROOT
BRANCH   1   2
ATOM      2  C   UNL     1       9.964  18.779  31.585  1.00  0.00     0.000 C 
BRANCH   2   3
ATOM      3  C   UNL     1       9.010  18.704  30.381  1.00  0.00     0.000 C 
BRANCH   3   4
ATOM      4  C   UNL     1       8.418  20.075  30.007  1.00  0.00     0.000 C 
BRANCH   4   5
ATOM      5  C   UNL     1       8.373  21.039  31.204  1.00  0.00     0.000 C 
BRANCH   5   6
ATOM      6  C   UNL     1       8.710  22.488  30.809  1.00  0.00     0.000 C 
BRANCH   6   7
ATOM      7  C   UNL     1       9.783  23.116  31.715  1.00  0.00     0.000 C 
BRANCH   7   8
ATOM      8  C   UNL     1      10.444  22.083  32.643  1.00  0.00     0.000 C 
BRANCH   8   9
ATOM      9  C   UNL     1      11.077  22.722  33.889  1.00  0.00     0.000 C 
BRANCH   9  10
ATOM     10  C   UNL     1      10.099  23.643  34.643  1.00  0.00     0.000 C 
BRANCH  10  11
ATOM     11  C   UNL     1       9.069  22.856  35.470  1.00  0.00     0.000 C 
BRANCH  11  12
ATOM     12  C   UNL     1       9.241  23.074  36.984  1.00  0.00     0.000 C 
BRANCH  12  13
ATOM     13  C   UNL     1      10.260  22.107  37.614  1.00  0.00     0.006 C 
BRANCH  13  14
ATOM     14  C   UNL     1      11.628  22.738  37.921  1.00  0.00     0.053 C 
BRANCH  14  15
ATOM     15  C   UNL     1      11.685  23.312  39.303  1.00  0.00     0.041 C 
ATOM     16  O   UNL     1      12.790  23.662  39.800  1.00  0.00    -0.550 OA
ATOM     17  O   UNL     1      10.526  23.418  40.061  1.00  0.00    -0.550 OA
ENDBRANCH  14  15
ENDBRANCH  13  14
ENDBRANCH  12  13
ENDBRANCH  11  12
ENDBRANCH  10  11
ENDBRANCH   9  10
ENDBRANCH   8   9
ENDBRANCH   7   8
ENDBRANCH   6   7
ENDBRANCH   5   6
ENDBRANCH   4   5
ENDBRANCH   3   4
ENDBRANCH   2   3
ENDBRANCH   1   2
BRANCH   1  18
ATOM     18  C   UNL     1       8.348  18.132  33.462  1.00  0.00     0.000 C 
BRANCH  18  19
ATOM     19  C   UNL     1       8.553  19.375  34.346  1.00  0.00     0.000 C 
BRANCH  19  20
ATOM     20  C   UNL     1       8.601  19.032  35.844  1.00  0.00     0.000 C 
BRANCH  20  21
ATOM     21  C   UNL     1      10.022  18.706  36.333  1.00  0.00     0.000 C 
BRANCH  21  22
ATOM     22  C   UNL     1      11.112  19.418  35.511  1.00  0.00     0.000 C 
BRANCH  22  23
ATOM     23  C   UNL     1      12.315  18.537  35.119  1.00  0.00     0.000 C 
BRANCH  23  24
ATOM     24  C   UNL     1      12.200  17.055  35.529  1.00  0.00    -0.000 C 
BRANCH  24  25
ATOM     25  C   UNL     1      13.513  16.411  36.020  1.00  0.00    -0.000 C 
BRANCH  25  26
ATOM     26  C   UNL     1      14.773  17.276  35.829  1.00  0.00    -0.000 C 
BRANCH  26  27
ATOM     27  C   UNL     1      15.606  17.508  37.105  1.00  0.00    -0.000 C 
BRANCH  27  28
ATOM     28  C   UNL     1      15.591  18.969  37.603  1.00  0.00    -0.000 C 
BRANCH  28  29
ATOM     29  C   UNL     1      15.140  19.093  39.069  1.00  0.00    -0.000 C 
BRANCH  29  30
ATOM     30  C   UNL     1      13.801  19.833  39.222  1.00  0.00    -0.000 C 
BRANCH  30  31
ATOM     31  C   UNL     1      12.571  18.957  38.898  1.00  0.00    -0.003 C 
ATOM     32  C   UNL     1      11.373  19.286  39.789  1.00  0.00     0.004 C 
ENDBRANCH  30  31
ENDBRANCH  29  30
ENDBRANCH  28  29
ENDBRANCH  27  28
ENDBRANCH  26  27
ENDBRANCH  25  26
ENDBRANCH  24  25
ENDBRANCH  23  24
ENDBRANCH  22  23
ENDBRANCH  21  22
ENDBRANCH  20  21
ENDBRANCH  19  20
ENDBRANCH  18  19
ENDBRANCH   1  18
TORSDOF 28
ENDMDL
MODEL 4
REMARK VINA RESULT:    -5.133      2.447      6.043
REMARK INTER + INTRA:         -19.108
REMARK INTER:                 -12.784
REMARK INTRA:                  -6.325
REMARK UNBOUND:                -5.574
REMARK SMILES CCCCCCCCCCCCCCCCCCCCCCCCCCCCCC(=O)[O-]
REMARK SMILES IDX 16 1 17 2 18 3 19 4 20 5 21 6 22 7 23 8 24 9 25 10 26 11
REMARK SMILES IDX 27 12 28 13 29 14 30 15 31 16 32 17 15 18 14 19 13 20 12 21
REMARK SMILES IDX 11 22 10 23 9 24 8 25 7 26 6 27 5 28 4 29 3 30 2 31 1 32
REMARK H PARENT
REMARK Flexibility Score: inf
ROOT
ATOM      1  C   UNL     1      10.159  24.381  35.516  1.00  0.00     0.000 C 
ENDROOT
BRANCH   1   2
ATOM      2  C   UNL     1       9.356  23.073  35.635  1.00  0.00     0.000 C 
BRANCH   2   3
ATOM      3  C   UNL     1       9.017  22.462  34.264  1.00  0.00     0.000 C 
BRANCH   3   4
ATOM      4  C   UNL     1       9.041  23.501  33.129  1.00  0.00     0.000 C 
BRANCH   4   5
ATOM      5  C   UNL     1      10.030  23.127  32.013  1.00  0.00     0.000 C 
BRANCH   5   6
ATOM      6  C   UNL     1      10.949  24.297  31.619  1.00  0.00     0.000 C 
BRANCH   6   7
ATOM      7  C   UNL     1      12.361  24.169  32.216  1.00  0.00     0.000 C 
BRANCH   7   8
ATOM      8  C   UNL     1      12.570  22.832  32.946  1.00  0.00     0.000 C 
BRANCH   8   9
ATOM      9  C   UNL     1      13.276  22.999  34.301  1.00  0.00     0.000 C 
BRANCH   9  10
ATOM     10  C   UNL     1      12.951  21.858  35.283  1.00  0.00     0.000 C 
BRANCH  10  11
ATOM     11  C   UNL     1      12.087  20.758  34.642  1.00  0.00     0.000 C 
BRANCH  11  12
ATOM     12  C   UNL     1      11.868  19.559  35.582  1.00  0.00     0.000 C 
BRANCH  12  13
ATOM     13  C   UNL     1      13.122  19.214  36.407  1.00  0.00     0.006 C 
BRANCH  13  14
ATOM     14  C   UNL     1      12.867  18.237  37.568  1.00  0.00     0.053 C 
BRANCH  14  15
ATOM     15  C   UNL     1      13.937  17.193  37.667  1.00  0.00     0.041 C 
ATOM     16  O   UNL     1      13.814  16.234  38.477  1.00  0.00    -0.550 OA
ATOM     17  O   UNL     1      15.091  17.303  36.901  1.00  0.00    -0.550 OA
ENDBRANCH  14  15
ENDBRANCH  13  14
ENDBRANCH  12  13
ENDBRANCH  11  12
ENDBRANCH  10  11
ENDBRANCH   9  10
ENDBRANCH   8   9
ENDBRANCH   7   8
ENDBRANCH   6   7
ENDBRANCH   5   6
ENDBRANCH   4   5
ENDBRANCH   3   4
ENDBRANCH   2   3
ENDBRANCH   1   2
BRANCH   1  18
ATOM     18  C   UNL     1      10.757  24.829  36.861  1.00  0.00     0.000 C 
BRANCH  18  19
ATOM     19  C   UNL     1       9.800  24.584  38.042  1.00  0.00     0.000 C 
BRANCH  19  20
ATOM     20  C   UNL     1      10.488  23.878  39.222  1.00  0.00     0.000 C 
BRANCH  20  21
ATOM     21  C   UNL     1      11.651  22.976  38.777  1.00  0.00     0.000 C 
BRANCH  21  22
ATOM     22  C   UNL     1      11.224  21.511  38.577  1.00  0.00     0.000 C 
BRANCH  22  23
ATOM     23  C   UNL     1       9.796  21.176  39.052  1.00  0.00     0.000 C 
BRANCH  23  24
ATOM     24  C   UNL     1       8.910  20.467  38.008  1.00  0.00    -0.000 C 
BRANCH  24  25
ATOM     25  C   UNL     1       9.052  18.931  37.970  1.00  0.00    -0.000 C 
BRANCH  25  26
ATOM     26  C   UNL     1       8.691  18.279  36.622  1.00  0.00    -0.000 C 
BRANCH  26  27
ATOM     27  C   UNL     1       8.153  19.248  35.550  1.00  0.00    -0.000 C 
BRANCH  27  28
ATOM     28  C   UNL     1       8.208  18.684  34.115  1.00  0.00    -0.000 C 
BRANCH  28  29
ATOM     29  C   UNL     1       9.245  17.559  33.956  1.00  0.00    -0.000 C 
BRANCH  29  30
ATOM     30  C   UNL     1      10.210  17.797  32.783  1.00  0.00    -0.000 C 
BRANCH  30  31
ATOM     31  C   UNL     1       9.783  18.958  31.858  1.00  0.00    -0.003 C 
ATOM     32  C   UNL     1       9.376  18.472  30.467  1.00  0.00     0.004 C 
ENDBRANCH  30  31
ENDBRANCH  29  30
ENDBRANCH  28  29
ENDBRANCH  27  28
ENDBRANCH  26  27
ENDBRANCH  25  26
ENDBRANCH  24  25
ENDBRANCH  23  24
ENDBRANCH  22  23
ENDBRANCH  21  22
ENDBRANCH  20  21
ENDBRANCH  19  20
ENDBRANCH  18  19
ENDBRANCH   1  18
TORSDOF 28
ENDMDL
MODEL 5
REMARK VINA RESULT:    -5.119      2.197      3.258
REMARK INTER + INTRA:         -19.073
REMARK INTER:                 -13.825
REMARK INTRA:                  -5.248
REMARK UNBOUND:                -5.574
REMARK SMILES CCCCCCCCCCCCCCCCCCCCCCCCCCCCCC(=O)[O-]
REMARK SMILES IDX 16 1 17 2 18 3 19 4 20 5 21 6 22 7 23 8 24 9 25 10 26 11
REMARK SMILES IDX 27 12 28 13 29 14 30 15 31 16 32 17 15 18 14 19 13 20 12 21
REMARK SMILES IDX 11 22 10 23 9 24 8 25 7 26 6 27 5 28 4 29 3 30 2 31 1 32
REMARK H PARENT
REMARK Flexibility Score: inf
ROOT
ATOM      1  C   UNL     1       8.224  19.221  34.692  1.00  0.00     0.000 C 
ENDROOT
BRANCH   1   2
ATOM      2  C   UNL     1       8.210  18.119  33.617  1.00  0.00     0.000 C 
BRANCH   2   3
ATOM      3  C   UNL     1       9.624  17.714  33.168  1.00  0.00     0.000 C 
BRANCH   3   4
ATOM      4  C   UNL     1      10.143  18.570  31.999  1.00  0.00     0.000 C 
BRANCH   4   5
ATOM      5  C   UNL     1       9.714  18.015  30.631  1.00  0.00     0.000 C 
BRANCH   5   6
ATOM      6  C   UNL     1       8.937  19.044  29.792  1.00  0.00     0.000 C 
BRANCH   6   7
ATOM      7  C   UNL     1       8.156  20.048  30.658  1.00  0.00     0.000 C 
BRANCH   7   8
ATOM      8  C   UNL     1       7.985  21.411  29.966  1.00  0.00     0.000 C 
BRANCH   8   9
ATOM      9  C   UNL     1       8.083  22.591  30.945  1.00  0.00     0.000 C 
BRANCH   9  10
ATOM     10  C   UNL     1       8.588  22.165  32.336  1.00  0.00     0.000 C 
BRANCH  10  11
ATOM     11  C   UNL     1       8.595  23.329  33.342  1.00  0.00     0.000 C 
BRANCH  11  12
ATOM     12  C   UNL     1       9.864  23.346  34.212  1.00  0.00     0.000 C 
BRANCH  12  13
ATOM     13  C   UNL     1      10.887  24.403  33.755  1.00  0.00     0.006 C 
BRANCH  13  14
ATOM     14  C   UNL     1      11.658  24.029  32.479  1.00  0.00     0.053 C 
BRANCH  14  15
ATOM     15  C   UNL     1      13.102  23.743  32.758  1.00  0.00     0.041 C 
ATOM     16  O   UNL     1      13.425  22.960  33.691  1.00  0.00    -0.550 OA
ATOM     17  O   UNL     1      14.093  24.378  32.019  1.00  0.00    -0.550 OA
ENDBRANCH  14  15
ENDBRANCH  13  14
ENDBRANCH  12  13
ENDBRANCH  11  12
ENDBRANCH  10  11
ENDBRANCH   9  10
ENDBRANCH   8   9
ENDBRANCH   7   8
ENDBRANCH   6   7
ENDBRANCH   5   6
ENDBRANCH   4   5
ENDBRANCH   3   4
ENDBRANCH   2   3
ENDBRANCH   1   2
BRANCH   1  18
ATOM     18  C   UNL     1       7.915  18.677  36.098  1.00  0.00     0.000 C 
BRANCH  18  19
ATOM     19  C   UNL     1       8.508  19.556  37.214  1.00  0.00     0.000 C 
BRANCH  19  20
ATOM     20  C   UNL     1       9.164  20.836  36.670  1.00  0.00     0.000 C 
BRANCH  20  21
ATOM     21  C   UNL     1      10.421  21.240  37.460  1.00  0.00     0.000 C 
BRANCH  21  22
ATOM     22  C   UNL     1      11.710  21.121  36.628  1.00  0.00     0.000 C 
BRANCH  22  23
ATOM     23  C   UNL     1      11.549  20.399  35.274  1.00  0.00     0.000 C 
BRANCH  23  24
ATOM     24  C   UNL     1      12.348  19.088  35.136  1.00  0.00    -0.000 C 
BRANCH  24  25
ATOM     25  C   UNL     1      11.895  17.948  36.072  1.00  0.00    -0.000 C 
BRANCH  25  26
ATOM     26  C   UNL     1      12.730  16.656  35.974  1.00  0.00    -0.000 C 
BRANCH  26  27
ATOM     27  C   UNL     1      13.676  16.399  37.164  1.00  0.00    -0.000 C 
BRANCH  27  28
ATOM     28  C   UNL     1      13.506  17.401  38.325  1.00  0.00    -0.000 C 
BRANCH  28  29
ATOM     29  C   UNL     1      14.538  18.540  38.283  1.00  0.00    -0.000 C 
BRANCH  29  30
ATOM     30  C   UNL     1      15.751  18.215  37.396  1.00  0.00    -0.000 C 
BRANCH  30  31
ATOM     31  C   UNL     1      15.991  19.251  36.275  1.00  0.00    -0.003 C 
ATOM     32  C   UNL     1      15.431  20.628  36.628  1.00  0.00     0.004 C 
ENDBRANCH  30  31
ENDBRANCH  29  30
ENDBRANCH  28  29
ENDBRANCH  27  28
ENDBRANCH  26  27
ENDBRANCH  25  26
ENDBRANCH  24  25
ENDBRANCH  23  24
ENDBRANCH  22  23
ENDBRANCH  21  22
ENDBRANCH  20  21
ENDBRANCH  19  20
ENDBRANCH  18  19
ENDBRANCH   1  18
TORSDOF 28
ENDMDL
MODEL 6
REMARK VINA RESULT:    -5.093      2.378      5.538
REMARK INTER + INTRA:         -19.004
REMARK INTER:                 -13.360
REMARK INTRA:                  -5.644
REMARK UNBOUND:                -5.574
REMARK SMILES CCCCCCCCCCCCCCCCCCCCCCCCCCCCCC(=O)[O-]
REMARK SMILES IDX 16 1 17 2 18 3 19 4 20 5 21 6 22 7 23 8 24 9 25 10 26 11
REMARK SMILES IDX 27 12 28 13 29 14 30 15 31 16 32 17 15 18 14 19 13 20 12 21
REMARK SMILES IDX 11 22 10 23 9 24 8 25 7 26 6 27 5 28 4 29 3 30 2 31 1 32
REMARK H PARENT
REMARK Flexibility Score: inf
ROOT
ATOM      1  C   UNL     1      10.122  18.354  32.344  1.00  0.00     0.000 C 
ENDROOT
BRANCH   1   2
ATOM      2  C   UNL     1      10.114  16.995  33.067  1.00  0.00     0.000 C 
BRANCH   2   3
ATOM      3  C   UNL     1       9.358  17.043  34.406  1.00  0.00     0.000 C 
BRANCH   3   4
ATOM      4  C   UNL     1       8.250  18.111  34.423  1.00  0.00     0.000 C 
BRANCH   4   5
ATOM      5  C   UNL     1       8.347  19.036  35.647  1.00  0.00     0.000 C 
BRANCH   5   6
ATOM      6  C   UNL     1       9.125  20.331  35.350  1.00  0.00     0.000 C 
BRANCH   6   7
ATOM      7  C   UNL     1       9.183  21.279  36.560  1.00  0.00     0.000 C 
BRANCH   7   8
ATOM      8  C   UNL     1       8.954  20.545  37.892  1.00  0.00     0.000 C 
BRANCH   8   9
ATOM      9  C   UNL     1      10.031  20.865  38.940  1.00  0.00     0.000 C 
BRANCH   9  10
ATOM     10  C   UNL     1      11.424  20.347  38.535  1.00  0.00     0.000 C 
BRANCH  10  11
ATOM     11  C   UNL     1      11.441  18.826  38.304  1.00  0.00     0.000 C 
BRANCH  11  12
ATOM     12  C   UNL     1      11.990  18.448  36.917  1.00  0.00     0.000 C 
BRANCH  12  13
ATOM     13  C   UNL     1      11.968  16.930  36.661  1.00  0.00     0.006 C 
BRANCH  13  14
ATOM     14  C   UNL     1      13.217  16.389  35.944  1.00  0.00     0.053 C 
BRANCH  14  15
ATOM     15  C   UNL     1      14.348  16.143  36.895  1.00  0.00     0.041 C 
ATOM     16  O   UNL     1      14.117  15.937  38.117  1.00  0.00    -0.550 OA
ATOM     17  O   UNL     1      15.661  16.188  36.442  1.00  0.00    -0.550 OA
ENDBRANCH  14  15
ENDBRANCH  13  14
ENDBRANCH  12  13
ENDBRANCH  11  12
ENDBRANCH  10  11
ENDBRANCH   9  10
ENDBRANCH   8   9
ENDBRANCH   7   8
ENDBRANCH   6   7
ENDBRANCH   5   6
ENDBRANCH   4   5
ENDBRANCH   3   4
ENDBRANCH   2   3
ENDBRANCH   1   2
BRANCH   1  18
ATOM     18  C   UNL     1       9.608  18.254  30.897  1.00  0.00     0.000 C 
BRANCH  18  19
ATOM     19  C   UNL     1       8.860  19.523  30.449  1.00  0.00     0.000 C 
BRANCH  19  20
ATOM     20  C   UNL     1       8.477  20.430  31.630  1.00  0.00     0.000 C 
BRANCH  20  21
ATOM     21  C   UNL     1       8.752  21.917  31.350  1.00  0.00     0.000 C 
BRANCH  21  22
ATOM     22  C   UNL     1       8.737  22.776  32.627  1.00  0.00     0.000 C 
BRANCH  22  23
ATOM     23  C   UNL     1      10.111  23.329  33.058  1.00  0.00     0.000 C 
BRANCH  23  24
ATOM     24  C   UNL     1      11.327  22.574  32.486  1.00  0.00    -0.000 C 
BRANCH  24  25
ATOM     25  C   UNL     1      12.552  22.508  33.422  1.00  0.00    -0.000 C 
BRANCH  25  26
ATOM     26  C   UNL     1      12.219  22.384  34.921  1.00  0.00    -0.000 C 
BRANCH  26  27
ATOM     27  C   UNL     1      13.318  21.729  35.782  1.00  0.00    -0.000 C 
BRANCH  27  28
ATOM     28  C   UNL     1      14.744  22.213  35.447  1.00  0.00    -0.000 C 
BRANCH  28  29
ATOM     29  C   UNL     1      15.834  21.385  36.149  1.00  0.00    -0.000 C 
BRANCH  29  30
ATOM     30  C   UNL     1      15.393  19.939  36.436  1.00  0.00    -0.000 C 
BRANCH  30  31
ATOM     31  C   UNL     1      15.619  19.505  37.901  1.00  0.00    -0.003 C 
ATOM     32  C   UNL     1      15.165  20.570  38.899  1.00  0.00     0.004 C 
ENDBRANCH  30  31
ENDBRANCH  29  30
ENDBRANCH  28  29
ENDBRANCH  27  28
ENDBRANCH  26  27
ENDBRANCH  25  26
ENDBRANCH  24  25
ENDBRANCH  23  24
ENDBRANCH  22  23
ENDBRANCH  21  22
ENDBRANCH  20  21
ENDBRANCH  19  20
ENDBRANCH  18  19
ENDBRANCH   1  18
TORSDOF 28
ENDMDL
MODEL 7
REMARK VINA RESULT:    -5.084      2.614      7.210
REMARK INTER + INTRA:         -18.981
REMARK INTER:                 -13.753
REMARK INTRA:                  -5.227
REMARK UNBOUND:                -5.574
REMARK SMILES CCCCCCCCCCCCCCCCCCCCCCCCCCCCCC(=O)[O-]
REMARK SMILES IDX 16 1 17 2 18 3 19 4 20 5 21 6 22 7 23 8 24 9 25 10 26 11
REMARK SMILES IDX 27 12 28 13 29 14 30 15 31 16 32 17 15 18 14 19 13 20 12 21
REMARK SMILES IDX 11 22 10 23 9 24 8 25 7 26 6 27 5 28 4 29 3 30 2 31 1 32
REMARK H PARENT
REMARK Flexibility Score: inf
ROOT
ATOM      1  C   UNL     1       8.266  18.498  36.655  1.00  0.00     0.000 C 
ENDROOT
BRANCH   1   2
ATOM      2  C   UNL     1       8.147  19.217  35.299  1.00  0.00     0.000 C 
BRANCH   2   3
ATOM      3  C   UNL     1       9.517  19.572  34.697  1.00  0.00     0.000 C 
BRANCH   3   4
ATOM      4  C   UNL     1      10.556  18.452  34.886  1.00  0.00     0.000 C 
BRANCH   4   5
ATOM      5  C   UNL     1      11.987  18.998  35.023  1.00  0.00     0.000 C 
BRANCH   5   6
ATOM      6  C   UNL     1      12.075  20.193  35.989  1.00  0.00     0.000 C 
BRANCH   6   7
ATOM      7  C   UNL     1      13.359  21.019  35.795  1.00  0.00     0.000 C 
BRANCH   7   8
ATOM      8  C   UNL     1      13.537  22.089  36.886  1.00  0.00     0.000 C 
BRANCH   8   9
ATOM      9  C   UNL     1      14.578  21.691  37.944  1.00  0.00     0.000 C 
BRANCH   9  10
ATOM     10  C   UNL     1      13.953  21.474  39.335  1.00  0.00     0.000 C 
BRANCH  10  11
ATOM     11  C   UNL     1      13.819  19.984  39.694  1.00  0.00     0.000 C 
BRANCH  11  12
ATOM     12  C   UNL     1      14.976  19.138  39.133  1.00  0.00     0.000 C 
BRANCH  12  13
ATOM     13  C   UNL     1      14.518  17.748  38.651  1.00  0.00     0.006 C 
BRANCH  13  14
ATOM     14  C   UNL     1      14.623  17.538  37.131  1.00  0.00     0.053 C 
BRANCH  14  15
ATOM     15  C   UNL     1      15.290  16.242  36.788  1.00  0.00     0.041 C 
ATOM     16  O   UNL     1      16.478  16.232  36.368  1.00  0.00    -0.550 OA
ATOM     17  O   UNL     1      14.585  15.049  36.886  1.00  0.00    -0.550 OA
ENDBRANCH  14  15
ENDBRANCH  13  14
ENDBRANCH  12  13
ENDBRANCH  11  12
ENDBRANCH  10  11
ENDBRANCH   9  10
ENDBRANCH   8   9
ENDBRANCH   7   8
ENDBRANCH   6   7
ENDBRANCH   5   6
ENDBRANCH   4   5
ENDBRANCH   3   4
ENDBRANCH   2   3
ENDBRANCH   1   2
BRANCH   1  18
ATOM     18  C   UNL     1       8.050  19.448  37.846  1.00  0.00     0.000 C 
BRANCH  18  19
ATOM     19  C   UNL     1       9.134  19.290  38.928  1.00  0.00     0.000 C 
BRANCH  19  20
ATOM     20  C   UNL     1      10.248  20.343  38.805  1.00  0.00     0.000 C 
BRANCH  20  21
ATOM     21  C   UNL     1       9.749  21.771  39.080  1.00  0.00     0.000 C 
BRANCH  21  22
ATOM     22  C   UNL     1      10.151  22.765  37.976  1.00  0.00     0.000 C 
BRANCH  22  23
ATOM     23  C   UNL     1       9.230  22.776  36.739  1.00  0.00     0.000 C 
BRANCH  23  24
ATOM     24  C   UNL     1       9.860  23.367  35.462  1.00  0.00    -0.000 C 
BRANCH  24  25
ATOM     25  C   UNL     1       9.271  22.833  34.140  1.00  0.00    -0.000 C 
BRANCH  25  26
ATOM     26  C   UNL     1      10.249  22.823  32.950  1.00  0.00    -0.000 C 
BRANCH  26  27
ATOM     27  C   UNL     1       9.607  23.093  31.574  1.00  0.00    -0.000 C 
BRANCH  27  28
ATOM     28  C   UNL     1       8.295  22.318  31.335  1.00  0.00    -0.000 C 
BRANCH  28  29
ATOM     29  C   UNL     1       8.157  21.812  29.889  1.00  0.00    -0.000 C 
BRANCH  29  30
ATOM     30  C   UNL     1       8.140  20.277  29.792  1.00  0.00    -0.000 C 
BRANCH  30  31
ATOM     31  C   UNL     1       8.589  19.571  31.091  1.00  0.00    -0.003 C 
ATOM     32  C   UNL     1       9.700  18.551  30.842  1.00  0.00     0.004 C 
ENDBRANCH  30  31
ENDBRANCH  29  30
ENDBRANCH  28  29
ENDBRANCH  27  28
ENDBRANCH  26  27
ENDBRANCH  25  26
ENDBRANCH  24  25
ENDBRANCH  23  24
ENDBRANCH  22  23
ENDBRANCH  21  22
ENDBRANCH  20  21
ENDBRANCH  19  20
ENDBRANCH  18  19
ENDBRANCH   1  18
TORSDOF 28
ENDMDL
MODEL 8
REMARK VINA RESULT:    -5.067      1.983      4.706
REMARK INTER + INTRA:         -18.935
REMARK INTER:                 -12.731
REMARK INTRA:                  -6.204
REMARK UNBOUND:                -5.574
REMARK SMILES CCCCCCCCCCCCCCCCCCCCCCCCCCCCCC(=O)[O-]
REMARK SMILES IDX 16 1 17 2 18 3 19 4 20 5 21 6 22 7 23 8 24 9 25 10 26 11
REMARK SMILES IDX 27 12 28 13 29 14 30 15 31 16 32 17 15 18 14 19 13 20 12 21
REMARK SMILES IDX 11 22 10 23 9 24 8 25 7 26 6 27 5 28 4 29 3 30 2 31 1 32
REMARK H PARENT
REMARK Flexibility Score: inf
ROOT
ATOM      1  C   UNL     1      11.635  22.593  38.583  1.00  0.00     0.000 C 
ENDROOT
BRANCH   1   2
ATOM      2  C   UNL     1      10.133  22.255  38.615  1.00  0.00     0.000 C 
BRANCH   2   3
ATOM      3  C   UNL     1       9.425  22.588  37.291  1.00  0.00     0.000 C 
BRANCH   3   4
ATOM      4  C   UNL     1       8.834  21.343  36.606  1.00  0.00     0.000 C 
BRANCH   4   5
ATOM      5  C   UNL     1       8.242  20.344  37.614  1.00  0.00     0.000 C 
BRANCH   5   6
ATOM      6  C   UNL     1       8.265  18.896  37.095  1.00  0.00     0.000 C 
BRANCH   6   7
ATOM      7  C   UNL     1       7.875  18.790  35.611  1.00  0.00     0.000 C 
BRANCH   7   8
ATOM      8  C   UNL     1       8.541  17.592  34.913  1.00  0.00     0.000 C 
BRANCH   8   9
ATOM      9  C   UNL     1       9.330  17.999  33.659  1.00  0.00     0.000 C 
BRANCH   9  10
ATOM     10  C   UNL     1       8.549  18.976  32.760  1.00  0.00     0.000 C 
BRANCH  10  11
ATOM     11  C   UNL     1       9.252  20.337  32.621  1.00  0.00     0.000 C 
BRANCH  11  12
ATOM     12  C   UNL     1      10.600  20.382  33.363  1.00  0.00     0.000 C 
BRANCH  12  13
ATOM     13  C   UNL     1      11.549  21.461  32.811  1.00  0.00     0.006 C 
BRANCH  13  14
ATOM     14  C   UNL     1      10.882  22.823  32.558  1.00  0.00     0.053 C 
BRANCH  14  15
ATOM     15  C   UNL     1      10.653  23.581  33.830  1.00  0.00     0.041 C 
ATOM     16  O   UNL     1      11.554  23.633  34.709  1.00  0.00    -0.550 OA
ATOM     17  O   UNL     1       9.427  24.191  34.065  1.00  0.00    -0.550 OA
ENDBRANCH  14  15
ENDBRANCH  13  14
ENDBRANCH  12  13
ENDBRANCH  11  12
ENDBRANCH  10  11
ENDBRANCH   9  10
ENDBRANCH   8   9
ENDBRANCH   7   8
ENDBRANCH   6   7
ENDBRANCH   5   6
ENDBRANCH   4   5
ENDBRANCH   3   4
ENDBRANCH   2   3
ENDBRANCH   1   2
BRANCH   1  18
ATOM     18  C   UNL     1      12.521  21.359  38.825  1.00  0.00     0.000 C 
BRANCH  18  19
ATOM     19  C   UNL     1      11.877  20.060  38.305  1.00  0.00     0.000 C 
BRANCH  19  20
ATOM     20  C   UNL     1      12.100  19.854  36.798  1.00  0.00     0.000 C 
BRANCH  20  21
ATOM     21  C   UNL     1      11.925  18.387  36.368  1.00  0.00     0.000 C 
BRANCH  21  22
ATOM     22  C   UNL     1      12.803  18.013  35.161  1.00  0.00     0.000 C 
BRANCH  22  23
ATOM     23  C   UNL     1      13.842  16.905  35.428  1.00  0.00     0.000 C 
BRANCH  23  24
ATOM     24  C   UNL     1      13.431  15.868  36.492  1.00  0.00    -0.000 C 
BRANCH  24  25
ATOM     25  C   UNL     1      14.229  15.937  37.811  1.00  0.00    -0.000 C 
BRANCH  25  26
ATOM     26  C   UNL     1      15.328  17.015  37.850  1.00  0.00    -0.000 C 
BRANCH  26  27
ATOM     27  C   UNL     1      14.989  18.264  38.688  1.00  0.00    -0.000 C 
BRANCH  27  28
ATOM     28  C   UNL     1      15.674  19.554  38.191  1.00  0.00    -0.000 C 
BRANCH  28  29
ATOM     29  C   UNL     1      15.863  19.577  36.665  1.00  0.00    -0.000 C 
BRANCH  29  30
ATOM     30  C   UNL     1      16.189  20.980  36.124  1.00  0.00    -0.000 C 
BRANCH  30  31
ATOM     31  C   UNL     1      14.980  21.942  36.135  1.00  0.00    -0.003 C 
ATOM     32  C   UNL     1      15.059  22.986  35.022  1.00  0.00     0.004 C 
ENDBRANCH  30  31
ENDBRANCH  29  30
ENDBRANCH  28  29
ENDBRANCH  27  28
ENDBRANCH  26  27
ENDBRANCH  25  26
ENDBRANCH  24  25
ENDBRANCH  23  24
ENDBRANCH  22  23
ENDBRANCH  21  22
ENDBRANCH  20  21
ENDBRANCH  19  20
ENDBRANCH  18  19
ENDBRANCH   1  18
TORSDOF 28
ENDMDL
MODEL 9
REMARK VINA RESULT:    -5.003      1.227      6.409
REMARK INTER + INTRA:         -18.767
REMARK INTER:                 -13.163
REMARK INTRA:                  -5.604
REMARK UNBOUND:                -5.574
REMARK SMILES CCCCCCCCCCCCCCCCCCCCCCCCCCCCCC(=O)[O-]
REMARK SMILES IDX 16 1 17 2 18 3 19 4 20 5 21 6 22 7 23 8 24 9 25 10 26 11
REMARK SMILES IDX 27 12 28 13 29 14 30 15 31 16 32 17 15 18 14 19 13 20 12 21
REMARK SMILES IDX 11 22 10 23 9 24 8 25 7 26 6 27 5 28 4 29 3 30 2 31 1 32
REMARK H PARENT
REMARK Flexibility Score: inf
ROOT
ATOM      1  C   UNL     1      11.392  20.069  36.527  1.00  0.00     0.000 C 
ENDROOT
BRANCH   1   2
ATOM      2  C   UNL     1      12.285  19.326  35.516  1.00  0.00     0.000 C 
BRANCH   2   3
ATOM      3  C   UNL     1      12.461  17.839  35.865  1.00  0.00     0.000 C 
BRANCH   3   4
ATOM      4  C   UNL     1      13.799  17.266  35.366  1.00  0.00     0.000 C 
BRANCH   4   5
ATOM      5  C   UNL     1      14.718  16.833  36.520  1.00  0.00     0.000 C 
BRANCH   5   6
ATOM      6  C   UNL     1      14.070  17.037  37.901  1.00  0.00     0.000 C 
BRANCH   6   7
ATOM      7  C   UNL     1      14.768  18.130  38.729  1.00  0.00     0.000 C 
BRANCH   7   8
ATOM      8  C   UNL     1      15.681  19.021  37.870  1.00  0.00     0.000 C 
BRANCH   8   9
ATOM      9  C   UNL     1      15.235  20.492  37.859  1.00  0.00     0.000 C 
BRANCH   9  10
ATOM     10  C   UNL     1      15.637  21.222  36.563  1.00  0.00     0.000 C 
BRANCH  10  11
ATOM     11  C   UNL     1      14.516  22.130  36.028  1.00  0.00     0.000 C 
BRANCH  11  12
ATOM     12  C   UNL     1      14.258  23.343  36.938  1.00  0.00     0.000 C 
BRANCH  12  13
ATOM     13  C   UNL     1      12.854  23.326  37.570  1.00  0.00     0.006 C 
BRANCH  13  14
ATOM     14  C   UNL     1      12.845  23.478  39.100  1.00  0.00     0.053 C 
BRANCH  14  15
ATOM     15  C   UNL     1      11.490  23.849  39.620  1.00  0.00     0.041 C 
ATOM     16  O   UNL     1      11.379  24.526  40.678  1.00  0.00    -0.550 OA
ATOM     17  O   UNL     1      10.348  23.408  38.964  1.00  0.00    -0.550 OA
ENDBRANCH  14  15
ENDBRANCH  13  14
ENDBRANCH  12  13
ENDBRANCH  11  12
ENDBRANCH  10  11
ENDBRANCH   9  10
ENDBRANCH   8   9
ENDBRANCH   7   8
ENDBRANCH   6   7
ENDBRANCH   5   6
ENDBRANCH   4   5
ENDBRANCH   3   4
ENDBRANCH   2   3
ENDBRANCH   1   2
BRANCH   1  18
ATOM     18  C   UNL     1      10.168  19.239  36.951  1.00  0.00     0.000 C 
BRANCH  18  19
ATOM     19  C   UNL     1       8.919  19.558  36.108  1.00  0.00     0.000 C 
BRANCH  19  20
ATOM     20  C   UNL     1       8.208  18.291  35.604  1.00  0.00     0.000 C 
BRANCH  20  21
ATOM     21  C   UNL     1       8.269  18.145  34.074  1.00  0.00     0.000 C 
BRANCH  21  22
ATOM     22  C   UNL     1       9.594  17.530  33.588  1.00  0.00     0.000 C 
BRANCH  22  23
ATOM     23  C   UNL     1      10.247  18.249  32.391  1.00  0.00     0.000 C 
BRANCH  23  24
ATOM     24  C   UNL     1       9.776  17.767  31.004  1.00  0.00    -0.000 C 
BRANCH  24  25
ATOM     25  C   UNL     1       9.144  18.859  30.115  1.00  0.00    -0.000 C 
BRANCH  25  26
ATOM     26  C   UNL     1       8.261  19.876  30.863  1.00  0.00    -0.000 C 
BRANCH  26  27
ATOM     27  C   UNL     1       8.541  21.354  30.529  1.00  0.00    -0.000 C 
BRANCH  27  28
ATOM     28  C   UNL     1       8.374  22.308  31.730  1.00  0.00    -0.000 C 
BRANCH  28  29
ATOM     29  C   UNL     1       8.793  21.666  33.063  1.00  0.00    -0.000 C 
BRANCH  29  30
ATOM     30  C   UNL     1      10.301  21.791  33.338  1.00  0.00    -0.000 C 
BRANCH  30  31
ATOM     31  C   UNL     1      10.672  23.022  34.194  1.00  0.00    -0.003 C 
ATOM     32  C   UNL     1       9.743  23.195  35.396  1.00  0.00     0.004 C 
ENDBRANCH  30  31
ENDBRANCH  29  30
ENDBRANCH  28  29
ENDBRANCH  27  28
ENDBRANCH  26  27
ENDBRANCH  25  26
ENDBRANCH  24  25
ENDBRANCH  23  24
ENDBRANCH  22  23
ENDBRANCH  21  22
ENDBRANCH  20  21
ENDBRANCH  19  20
ENDBRANCH  18  19
ENDBRANCH   1  18
TORSDOF 28
ENDMDL
