MODEL 1
REMARK VINA RESULT:    -4.265      0.000      0.000
REMARK INTER + INTRA:         -13.608
REMARK INTER:                 -10.746
REMARK INTRA:                  -2.862
REMARK UNBOUND:                -2.862
REMARK SMILES CCCCCCCCCCCCCCCCCCCCCCCCCCCC(=O)[O-]
REMARK SMILES IDX 15 1 16 2 17 3 18 4 19 5 20 6 21 7 22 8 23 9 24 10 25 11
REMARK SMILES IDX 26 12 27 13 28 14 29 15 30 16 14 17 13 18 12 19 11 20 10 21
REMARK SMILES IDX 9 22 8 23 7 24 6 25 5 26 4 27 3 28 2 29 1 30
REMARK H PARENT
REMARK Flexibility Score: inf
ROOT
ATOM      1  C   UNL     1      -3.719  -2.010   9.514  1.00  0.00     0.000 C 
ENDROOT
BRANCH   1   2
ATOM      2  C   UNL     1      -4.314  -3.428   9.424  1.00  0.00     0.000 C 
BRANCH   2   3
ATOM      3  C   UNL     1      -5.835  -3.486   9.179  1.00  0.00     0.000 C 
BRANCH   3   4
ATOM      4  C   UNL     1      -6.673  -3.998  10.368  1.00  0.00     0.000 C 
BRANCH   4   5
ATOM      5  C   UNL     1      -7.852  -3.093  10.773  1.00  0.00     0.000 C 
BRANCH   5   6
ATOM      6  C   UNL     1      -9.155  -3.878  10.995  1.00  0.00     0.000 C 
BRANCH   6   7
ATOM      7  C   UNL     1     -10.143  -3.724   9.826  1.00  0.00     0.000 C 
BRANCH   7   8
ATOM      8  C   UNL     1     -10.550  -5.071   9.210  1.00  0.00     0.000 C 
BRANCH   8   9
ATOM      9  C   UNL     1     -10.276  -5.087   7.698  1.00  0.00     0.000 C 
BRANCH   9  10
ATOM     10  C   UNL     1      -9.133  -6.040   7.307  1.00  0.00     0.000 C 
BRANCH  10  11
ATOM     11  C   UNL     1      -7.873  -5.352   6.740  1.00  0.00     0.000 C 
BRANCH  11  12
ATOM     12  C   UNL     1      -7.262  -6.030   5.501  1.00  0.00     0.006 C 
BRANCH  12  13
ATOM     13  C   UNL     1      -7.602  -5.302   4.194  1.00  0.00     0.053 C 
BRANCH  13  14
ATOM     14  C   UNL     1      -8.579  -6.100   3.388  1.00  0.00     0.041 C 
ATOM     15  O   UNL     1      -8.211  -6.660   2.321  1.00  0.00    -0.550 OA
ATOM     16  O   UNL     1      -9.887  -6.248   3.829  1.00  0.00    -0.550 OA
ENDBRANCH  13  14
ENDBRANCH  12  13
ENDBRANCH  11  12
ENDBRANCH  10  11
ENDBRANCH   9  10
ENDBRANCH   8   9
ENDBRANCH   7   8
ENDBRANCH   6   7
ENDBRANCH   5   6
ENDBRANCH   4   5
ENDBRANCH   3   4
ENDBRANCH   2   3
ENDBRANCH   1   2
BRANCH   1  17
ATOM     17  C   UNL     1      -4.395  -1.019   8.551  1.00  0.00     0.000 C 
BRANCH  17  18
ATOM     18  C   UNL     1      -3.677   0.340   8.507  1.00  0.00     0.000 C 
BRANCH  18  19
ATOM     19  C   UNL     1      -2.240   0.269   9.046  1.00  0.00     0.000 C 
BRANCH  19  20
ATOM     20  C   UNL     1      -1.234   0.739   7.988  1.00  0.00     0.000 C 
BRANCH  20  21
ATOM     21  C   UNL     1      -0.184  -0.345   7.704  1.00  0.00     0.000 C 
BRANCH  21  22
ATOM     22  C   UNL     1       0.403  -0.949   8.990  1.00  0.00    -0.000 C 
BRANCH  22  23
ATOM     23  C   UNL     1       1.409  -2.078   8.708  1.00  0.00    -0.000 C 
BRANCH  23  24
ATOM     24  C   UNL     1       2.722  -1.911   9.487  1.00  0.00    -0.000 C 
BRANCH  24  25
ATOM     25  C   UNL     1       2.798  -0.571  10.241  1.00  0.00    -0.000 C 
BRANCH  25  26
ATOM     26  C   UNL     1       3.817   0.399   9.605  1.00  0.00    -0.000 C 
BRANCH  26  27
ATOM     27  C   UNL     1       3.166   1.520   8.772  1.00  0.00    -0.000 C 
BRANCH  27  28
ATOM     28  C   UNL     1       2.077   2.320   9.507  1.00  0.00    -0.000 C 
BRANCH  28  29
ATOM     29  C   UNL     1       1.760   3.658   8.822  1.00  0.00    -0.003 C 
ATOM     30  C   UNL     1       1.330   3.442   7.374  1.00  0.00     0.004 C 
ENDBRANCH  28  29
ENDBRANCH  27  28
ENDBRANCH  26  27
ENDBRANCH  25  26
ENDBRANCH  24  25
ENDBRANCH  23  24
ENDBRANCH  22  23
ENDBRANCH  21  22
ENDBRANCH  20  21
ENDBRANCH  19  20
ENDBRANCH  18  19
ENDBRANCH  17  18
ENDBRANCH   1  17
TORSDOF 26
ENDMDL
MODEL 2
REMARK VINA RESULT:    -4.245      1.850      3.726
REMARK INTER + INTRA:         -13.559
REMARK INTER:                  -9.744
REMARK INTRA:                  -3.814
REMARK UNBOUND:                -2.862
REMARK SMILES CCCCCCCCCCCCCCCCCCCCCCCCCCCC(=O)[O-]
REMARK SMILES IDX 15 1 16 2 17 3 18 4 19 5 20 6 21 7 22 8 23 9 24 10 25 11
REMARK SMILES IDX 26 12 27 13 28 14 29 15 30 16 14 17 13 18 12 19 11 20 10 21
REMARK SMILES IDX 9 22 8 23 7 24 6 25 5 26 4 27 3 28 2 29 1 30
REMARK H PARENT
REMARK Flexibility Score: inf
ROOT
ATOM      1  C   UNL     1      -1.517   1.145  10.793  1.00  0.00     0.000 C 
ENDROOT
BRANCH   1   2
ATOM      2  C   UNL     1      -1.287   1.450   9.301  1.00  0.00     0.000 C 
BRANCH   2   3
ATOM      3  C   UNL     1      -2.213   0.695   8.328  1.00  0.00     0.000 C 
BRANCH   3   4
ATOM      4  C   UNL     1      -3.692   0.615   8.756  1.00  0.00     0.000 C 
BRANCH   4   5
ATOM      5  C   UNL     1      -4.358  -0.759   8.554  1.00  0.00     0.000 C 
BRANCH   5   6
ATOM      6  C   UNL     1      -4.808  -1.403   9.875  1.00  0.00     0.000 C 
BRANCH   6   7
ATOM      7  C   UNL     1      -4.958  -2.929   9.767  1.00  0.00     0.000 C 
BRANCH   7   8
ATOM      8  C   UNL     1      -6.418  -3.394   9.890  1.00  0.00     0.000 C 
BRANCH   8   9
ATOM      9  C   UNL     1      -6.653  -4.677   9.078  1.00  0.00     0.000 C 
BRANCH   9  10
ATOM     10  C   UNL     1      -5.497  -4.996   8.114  1.00  0.00     0.000 C 
BRANCH  10  11
ATOM     11  C   UNL     1      -5.919  -5.284   6.659  1.00  0.00     0.000 C 
BRANCH  11  12
ATOM     12  C   UNL     1      -7.063  -6.302   6.500  1.00  0.00     0.006 C 
BRANCH  12  13
ATOM     13  C   UNL     1      -8.258  -5.739   5.721  1.00  0.00     0.053 C 
BRANCH  13  14
ATOM     14  C   UNL     1      -7.850  -5.366   4.330  1.00  0.00     0.041 C 
ATOM     15  O   UNL     1      -7.551  -6.262   3.496  1.00  0.00    -0.550 OA
ATOM     16  O   UNL     1      -7.824  -4.032   3.947  1.00  0.00    -0.550 OA
ENDBRANCH  13  14
ENDBRANCH  12  13
ENDBRANCH  11  12
ENDBRANCH  10  11
ENDBRANCH   9  10
ENDBRANCH   8   9
ENDBRANCH   7   8
ENDBRANCH   6   7
ENDBRANCH   5   6
ENDBRANCH   4   5
ENDBRANCH   3   4
ENDBRANCH   2   3
ENDBRANCH   1   2
BRANCH   1  17
ATOM     17  C   UNL     1      -0.700  -0.061  11.287  1.00  0.00     0.000 C 
BRANCH  17  18
ATOM     18  C   UNL     1      -1.526  -1.357  11.322  1.00  0.00     0.000 C 
BRANCH  18  19
ATOM     19  C   UNL     1      -0.815  -2.533  10.636  1.00  0.00     0.000 C 
BRANCH  19  20
ATOM     20  C   UNL     1      -1.076  -2.524   9.124  1.00  0.00     0.000 C 
BRANCH  20  21
ATOM     21  C   UNL     1       0.200  -2.173   8.346  1.00  0.00     0.000 C 
BRANCH  21  22
ATOM     22  C   UNL     1       1.476  -2.649   9.058  1.00  0.00    -0.000 C 
BRANCH  22  23
ATOM     23  C   UNL     1       2.449  -1.497   9.362  1.00  0.00    -0.000 C 
BRANCH  23  24
ATOM     24  C   UNL     1       1.928  -0.137   8.874  1.00  0.00    -0.000 C 
BRANCH  24  25
ATOM     25  C   UNL     1       2.511   1.043   9.671  1.00  0.00    -0.000 C 
BRANCH  25  26
ATOM     26  C   UNL     1       2.382   2.381   8.911  1.00  0.00    -0.000 C 
BRANCH  26  27
ATOM     27  C   UNL     1       3.531   2.642   7.919  1.00  0.00    -0.000 C 
BRANCH  27  28
ATOM     28  C   UNL     1       4.939   2.594   8.537  1.00  0.00    -0.000 C 
BRANCH  28  29
ATOM     29  C   UNL     1       5.956   1.871   7.641  1.00  0.00    -0.003 C 
ATOM     30  C   UNL     1       7.292   2.607   7.627  1.00  0.00     0.004 C 
ENDBRANCH  28  29
ENDBRANCH  27  28
ENDBRANCH  26  27
ENDBRANCH  25  26
ENDBRANCH  24  25
ENDBRANCH  23  24
ENDBRANCH  22  23
ENDBRANCH  21  22
ENDBRANCH  20  21
ENDBRANCH  19  20
ENDBRANCH  18  19
ENDBRANCH  17  18
ENDBRANCH   1  17
TORSDOF 26
ENDMDL
MODEL 3
REMARK VINA RESULT:    -4.228     10.276     13.797
REMARK INTER + INTRA:         -13.516
REMARK INTER:                  -9.393
REMARK INTRA:                  -4.123
REMARK UNBOUND:                -2.862
REMARK SMILES CCCCCCCCCCCCCCCCCCCCCCCCCCCC(=O)[O-]
REMARK SMILES IDX 15 1 16 2 17 3 18 4 19 5 20 6 21 7 22 8 23 9 24 10 25 11
REMARK SMILES IDX 26 12 27 13 28 14 29 15 30 16 14 17 13 18 12 19 11 20 10 21
REMARK SMILES IDX 9 22 8 23 7 24 6 25 5 26 4 27 3 28 2 29 1 30
REMARK H PARENT
REMARK Flexibility Score: inf
ROOT
ATOM      1  C   UNL     1       5.692  -7.362   0.233  1.00  0.00     0.000 C 
ENDROOT
BRANCH   1   2
ATOM      2  C   UNL     1       7.088  -6.711   0.201  1.00  0.00     0.000 C 
BRANCH   2   3
ATOM      3  C   UNL     1       7.138  -5.301  -0.420  1.00  0.00     0.000 C 
BRANCH   3   4
ATOM      4  C   UNL     1       7.120  -4.137   0.591  1.00  0.00     0.000 C 
BRANCH   4   5
ATOM      5  C   UNL     1       7.525  -4.514   2.028  1.00  0.00     0.000 C 
BRANCH   5   6
ATOM      6  C   UNL     1       6.426  -4.202   3.057  1.00  0.00     0.000 C 
BRANCH   6   7
ATOM      7  C   UNL     1       6.374  -5.235   4.196  1.00  0.00     0.000 C 
BRANCH   7   8
ATOM      8  C   UNL     1       5.543  -6.476   3.836  1.00  0.00     0.000 C 
BRANCH   8   9
ATOM      9  C   UNL     1       4.264  -6.542   4.683  1.00  0.00     0.000 C 
BRANCH   9  10
ATOM     10  C   UNL     1       2.981  -6.523   3.834  1.00  0.00     0.000 C 
BRANCH  10  11
ATOM     11  C   UNL     1       2.959  -7.524   2.660  1.00  0.00     0.000 C 
BRANCH  11  12
ATOM     12  C   UNL     1       1.731  -7.421   1.738  1.00  0.00     0.006 C 
BRANCH  12  13
ATOM     13  C   UNL     1       0.877  -6.177   2.017  1.00  0.00     0.053 C 
BRANCH  13  14
ATOM     14  C   UNL     1       0.197  -5.716   0.766  1.00  0.00     0.041 C 
ATOM     15  O   UNL     1      -0.512  -4.675   0.778  1.00  0.00    -0.550 OA
ATOM     16  O   UNL     1       0.369  -6.420  -0.419  1.00  0.00    -0.550 OA
ENDBRANCH  13  14
ENDBRANCH  12  13
ENDBRANCH  11  12
ENDBRANCH  10  11
ENDBRANCH   9  10
ENDBRANCH   8   9
ENDBRANCH   7   8
ENDBRANCH   6   7
ENDBRANCH   5   6
ENDBRANCH   4   5
ENDBRANCH   3   4
ENDBRANCH   2   3
ENDBRANCH   1   2
BRANCH   1  17
ATOM     17  C   UNL     1       5.160  -7.701  -1.169  1.00  0.00     0.000 C 
BRANCH  17  18
ATOM     18  C   UNL     1       3.700  -7.262  -1.366  1.00  0.00     0.000 C 
BRANCH  18  19
ATOM     19  C   UNL     1       3.452  -6.630  -2.744  1.00  0.00     0.000 C 
BRANCH  19  20
ATOM     20  C   UNL     1       3.907  -5.165  -2.765  1.00  0.00     0.000 C 
BRANCH  20  21
ATOM     21  C   UNL     1       5.191  -4.998  -3.591  1.00  0.00     0.000 C 
BRANCH  21  22
ATOM     22  C   UNL     1       5.729  -3.559  -3.561  1.00  0.00    -0.000 C 
BRANCH  22  23
ATOM     23  C   UNL     1       4.992  -2.673  -2.542  1.00  0.00    -0.000 C 
BRANCH  23  24
ATOM     24  C   UNL     1       5.022  -1.184  -2.921  1.00  0.00    -0.000 C 
BRANCH  24  25
ATOM     25  C   UNL     1       3.629  -0.634  -3.275  1.00  0.00    -0.000 C 
BRANCH  25  26
ATOM     26  C   UNL     1       2.633  -1.758  -3.637  1.00  0.00    -0.000 C 
BRANCH  26  27
ATOM     27  C   UNL     1       1.334  -1.722  -2.809  1.00  0.00    -0.000 C 
BRANCH  27  28
ATOM     28  C   UNL     1       1.072  -2.981  -1.966  1.00  0.00    -0.000 C 
BRANCH  28  29
ATOM     29  C   UNL     1       0.141  -3.982  -2.668  1.00  0.00    -0.003 C 
ATOM     30  C   UNL     1      -0.657  -3.301  -3.775  1.00  0.00     0.004 C 
ENDBRANCH  28  29
ENDBRANCH  27  28
ENDBRANCH  26  27
ENDBRANCH  25  26
ENDBRANCH  24  25
ENDBRANCH  23  24
ENDBRANCH  22  23
ENDBRANCH  21  22
ENDBRANCH  20  21
ENDBRANCH  19  20
ENDBRANCH  18  19
ENDBRANCH  17  18
ENDBRANCH   1  17
TORSDOF 26
ENDMDL
MODEL 4
REMARK VINA RESULT:    -4.227      6.759     10.328
REMARK INTER + INTRA:         -13.513
REMARK INTER:                  -9.098
REMARK INTRA:                  -4.415
REMARK UNBOUND:                -2.862
REMARK SMILES CCCCCCCCCCCCCCCCCCCCCCCCCCCC(=O)[O-]
REMARK SMILES IDX 15 1 16 2 17 3 18 4 19 5 20 6 21 7 22 8 23 9 24 10 25 11
REMARK SMILES IDX 26 12 27 13 28 14 29 15 30 16 14 17 13 18 12 19 11 20 10 21
REMARK SMILES IDX 9 22 8 23 7 24 6 25 5 26 4 27 3 28 2 29 1 30
REMARK H PARENT
REMARK Flexibility Score: inf
ROOT
ATOM      1  C   UNL     1      -4.882   1.132   8.939  1.00  0.00     0.000 C 
ENDROOT
BRANCH   1   2
ATOM      2  C   UNL     1      -4.757   1.178  10.474  1.00  0.00     0.000 C 
BRANCH   2   3
ATOM      3  C   UNL     1      -4.083   2.443  11.039  1.00  0.00     0.000 C 
BRANCH   3   4
ATOM      4  C   UNL     1      -3.862   3.581  10.021  1.00  0.00     0.000 C 
BRANCH   4   5
ATOM      5  C   UNL     1      -2.424   4.127   9.953  1.00  0.00     0.000 C 
BRANCH   5   6
ATOM      6  C   UNL     1      -2.276   5.293   8.962  1.00  0.00     0.000 C 
BRANCH   6   7
ATOM      7  C   UNL     1      -0.865   5.379   8.358  1.00  0.00     0.000 C 
BRANCH   7   8
ATOM      8  C   UNL     1       0.238   5.435   9.427  1.00  0.00     0.000 C 
BRANCH   8   9
ATOM      9  C   UNL     1       1.627   5.287   8.788  1.00  0.00     0.000 C 
BRANCH   9  10
ATOM     10  C   UNL     1       1.564   4.831   7.319  1.00  0.00     0.000 C 
BRANCH  10  11
ATOM     11  C   UNL     1       2.611   3.771   6.918  1.00  0.00     0.000 C 
BRANCH  11  12
ATOM     12  C   UNL     1       3.599   3.376   8.030  1.00  0.00     0.006 C 
BRANCH  12  13
ATOM     13  C   UNL     1       4.806   2.589   7.504  1.00  0.00     0.053 C 
BRANCH  13  14
ATOM     14  C   UNL     1       6.072   3.353   7.735  1.00  0.00     0.041 C 
ATOM     15  O   UNL     1       7.187   2.815   7.503  1.00  0.00    -0.550 OA
ATOM     16  O   UNL     1       6.019   4.668   8.179  1.00  0.00    -0.550 OA
ENDBRANCH  13  14
ENDBRANCH  12  13
ENDBRANCH  11  12
ENDBRANCH  10  11
ENDBRANCH   9  10
ENDBRANCH   8   9
ENDBRANCH   7   8
ENDBRANCH   6   7
ENDBRANCH   5   6
ENDBRANCH   4   5
ENDBRANCH   3   4
ENDBRANCH   2   3
ENDBRANCH   1   2
BRANCH   1  17
ATOM     17  C   UNL     1      -4.087  -0.025   8.311  1.00  0.00     0.000 C 
BRANCH  17  18
ATOM     18  C   UNL     1      -3.148  -0.707   9.319  1.00  0.00     0.000 C 
BRANCH  18  19
ATOM     19  C   UNL     1      -1.737  -0.099   9.320  1.00  0.00     0.000 C 
BRANCH  19  20
ATOM     20  C   UNL     1      -1.435   0.586   7.981  1.00  0.00     0.000 C 
BRANCH  20  21
ATOM     21  C   UNL     1      -0.118   1.374   8.049  1.00  0.00     0.000 C 
BRANCH  21  22
ATOM     22  C   UNL     1       0.238   1.805   9.481  1.00  0.00    -0.000 C 
BRANCH  22  23
ATOM     23  C   UNL     1       1.583   1.227   9.955  1.00  0.00    -0.000 C 
BRANCH  23  24
ATOM     24  C   UNL     1       2.106   0.113   9.036  1.00  0.00    -0.000 C 
BRANCH  24  25
ATOM     25  C   UNL     1       2.548  -1.140   9.813  1.00  0.00    -0.000 C 
BRANCH  25  26
ATOM     26  C   UNL     1       2.113  -2.445   9.112  1.00  0.00    -0.000 C 
BRANCH  26  27
ATOM     27  C   UNL     1       0.776  -2.324   8.355  1.00  0.00    -0.000 C 
BRANCH  27  28
ATOM     28  C   UNL     1      -0.122  -3.571   8.431  1.00  0.00    -0.000 C 
BRANCH  28  29
ATOM     29  C   UNL     1       0.609  -4.855   8.015  1.00  0.00    -0.003 C 
ATOM     30  C   UNL     1       0.086  -5.374   6.679  1.00  0.00     0.004 C 
ENDBRANCH  28  29
ENDBRANCH  27  28
ENDBRANCH  26  27
ENDBRANCH  25  26
ENDBRANCH  24  25
ENDBRANCH  23  24
ENDBRANCH  22  23
ENDBRANCH  21  22
ENDBRANCH  20  21
ENDBRANCH  19  20
ENDBRANCH  18  19
ENDBRANCH  17  18
ENDBRANCH   1  17
TORSDOF 26
ENDMDL
MODEL 5
REMARK VINA RESULT:    -4.227      5.911     11.814
REMARK INTER + INTRA:         -13.513
REMARK INTER:                  -8.994
REMARK INTRA:                  -4.519
REMARK UNBOUND:                -2.862
REMARK SMILES CCCCCCCCCCCCCCCCCCCCCCCCCCCC(=O)[O-]
REMARK SMILES IDX 15 1 16 2 17 3 18 4 19 5 20 6 21 7 22 8 23 9 24 10 25 11
REMARK SMILES IDX 26 12 27 13 28 14 29 15 30 16 14 17 13 18 12 19 11 20 10 21
REMARK SMILES IDX 9 22 8 23 7 24 6 25 5 26 4 27 3 28 2 29 1 30
REMARK H PARENT
REMARK Flexibility Score: inf
ROOT
ATOM      1  C   UNL     1       4.047  -0.157  10.917  1.00  0.00     0.000 C 
ENDROOT
BRANCH   1   2
ATOM      2  C   UNL     1       4.879  -1.052   9.980  1.00  0.00     0.000 C 
BRANCH   2   3
ATOM      3  C   UNL     1       6.108  -0.372   9.345  1.00  0.00     0.000 C 
BRANCH   3   4
ATOM      4  C   UNL     1       6.533   0.960   9.998  1.00  0.00     0.000 C 
BRANCH   4   5
ATOM      5  C   UNL     1       6.360   2.206   9.110  1.00  0.00     0.000 C 
BRANCH   5   6
ATOM      6  C   UNL     1       5.655   1.896   7.780  1.00  0.00     0.000 C 
BRANCH   6   7
ATOM      7  C   UNL     1       4.383   2.736   7.576  1.00  0.00     0.000 C 
BRANCH   7   8
ATOM      8  C   UNL     1       3.865   3.358   8.883  1.00  0.00     0.000 C 
BRANCH   8   9
ATOM      9  C   UNL     1       2.333   3.266   8.962  1.00  0.00     0.000 C 
BRANCH   9  10
ATOM     10  C   UNL     1       1.671   3.104   7.582  1.00  0.00     0.000 C 
BRANCH  10  11
ATOM     11  C   UNL     1       0.838   4.314   7.110  1.00  0.00     0.000 C 
BRANCH  11  12
ATOM     12  C   UNL     1       1.290   5.675   7.669  1.00  0.00     0.006 C 
BRANCH  12  13
ATOM     13  C   UNL     1       1.996   6.545   6.621  1.00  0.00     0.053 C 
BRANCH  13  14
ATOM     14  C   UNL     1       3.482   6.446   6.771  1.00  0.00     0.041 C 
ATOM     15  O   UNL     1       4.205   6.205   5.768  1.00  0.00    -0.550 OA
ATOM     16  O   UNL     1       4.070   6.646   8.014  1.00  0.00    -0.550 OA
ENDBRANCH  13  14
ENDBRANCH  12  13
ENDBRANCH  11  12
ENDBRANCH  10  11
ENDBRANCH   9  10
ENDBRANCH   8   9
ENDBRANCH   7   8
ENDBRANCH   6   7
ENDBRANCH   5   6
ENDBRANCH   4   5
ENDBRANCH   3   4
ENDBRANCH   2   3
ENDBRANCH   1   2
BRANCH   1  17
ATOM     17  C   UNL     1       2.556  -0.127  10.543  1.00  0.00     0.000 C 
BRANCH  17  18
ATOM     18  C   UNL     1       2.314  -0.467   9.063  1.00  0.00     0.000 C 
BRANCH  18  19
ATOM     19  C   UNL     1       1.527  -1.772   8.875  1.00  0.00     0.000 C 
BRANCH  19  20
ATOM     20  C   UNL     1       0.154  -1.498   8.247  1.00  0.00     0.000 C 
BRANCH  20  21
ATOM     21  C   UNL     1       0.095  -0.086   7.646  1.00  0.00     0.000 C 
BRANCH  21  22
ATOM     22  C   UNL     1      -1.089   0.735   8.183  1.00  0.00    -0.000 C 
BRANCH  22  23
ATOM     23  C   UNL     1      -1.070   0.868   9.715  1.00  0.00    -0.000 C 
BRANCH  23  24
ATOM     24  C   UNL     1      -2.472   1.078  10.309  1.00  0.00    -0.000 C 
BRANCH  24  25
ATOM     25  C   UNL     1      -3.537   1.350   9.232  1.00  0.00    -0.000 C 
BRANCH  25  26
ATOM     26  C   UNL     1      -4.683   0.316   9.272  1.00  0.00    -0.000 C 
BRANCH  26  27
ATOM     27  C   UNL     1      -4.315  -1.040   8.639  1.00  0.00    -0.000 C 
BRANCH  27  28
ATOM     28  C   UNL     1      -5.044  -2.252   9.245  1.00  0.00    -0.000 C 
BRANCH  28  29
ATOM     29  C   UNL     1      -4.079  -3.293   9.830  1.00  0.00    -0.003 C 
ATOM     30  C   UNL     1      -2.652  -2.753   9.869  1.00  0.00     0.004 C 
ENDBRANCH  28  29
ENDBRANCH  27  28
ENDBRANCH  26  27
ENDBRANCH  25  26
ENDBRANCH  24  25
ENDBRANCH  23  24
ENDBRANCH  22  23
ENDBRANCH  21  22
ENDBRANCH  20  21
ENDBRANCH  19  20
ENDBRANCH  18  19
ENDBRANCH  17  18
ENDBRANCH   1  17
TORSDOF 26
ENDMDL
MODEL 6
REMARK VINA RESULT:    -4.191      1.999      5.051
REMARK INTER + INTRA:         -13.424
REMARK INTER:                 -10.158
REMARK INTRA:                  -3.266
REMARK UNBOUND:                -2.862
REMARK SMILES CCCCCCCCCCCCCCCCCCCCCCCCCCCC(=O)[O-]
REMARK SMILES IDX 15 1 16 2 17 3 18 4 19 5 20 6 21 7 22 8 23 9 24 10 25 11
REMARK SMILES IDX 26 12 27 13 28 14 29 15 30 16 14 17 13 18 12 19 11 20 10 21
REMARK SMILES IDX 9 22 8 23 7 24 6 25 5 26 4 27 3 28 2 29 1 30
REMARK H PARENT
REMARK Flexibility Score: inf
ROOT
ATOM      1  C   UNL     1       0.202   1.330   9.502  1.00  0.00     0.000 C 
ENDROOT
BRANCH   1   2
ATOM      2  C   UNL     1      -0.076   1.007   8.022  1.00  0.00     0.000 C 
BRANCH   2   3
ATOM      3  C   UNL     1      -1.460   0.393   7.735  1.00  0.00     0.000 C 
BRANCH   3   4
ATOM      4  C   UNL     1      -2.564   0.757   8.749  1.00  0.00     0.000 C 
BRANCH   4   5
ATOM      5  C   UNL     1      -3.832  -0.113   8.674  1.00  0.00     0.000 C 
BRANCH   5   6
ATOM      6  C   UNL     1      -4.407  -0.448  10.060  1.00  0.00     0.000 C 
BRANCH   6   7
ATOM      7  C   UNL     1      -4.660  -1.953  10.247  1.00  0.00     0.000 C 
BRANCH   7   8
ATOM      8  C   UNL     1      -4.740  -2.713   8.913  1.00  0.00     0.000 C 
BRANCH   8   9
ATOM      9  C   UNL     1      -5.856  -3.768   8.952  1.00  0.00     0.000 C 
BRANCH   9  10
ATOM     10  C   UNL     1      -5.506  -5.038   8.155  1.00  0.00     0.000 C 
BRANCH  10  11
ATOM     11  C   UNL     1      -6.574  -5.484   7.135  1.00  0.00     0.000 C 
BRANCH  11  12
ATOM     12  C   UNL     1      -6.242  -5.174   5.664  1.00  0.00     0.006 C 
BRANCH  12  13
ATOM     13  C   UNL     1      -7.494  -4.980   4.798  1.00  0.00     0.053 C 
BRANCH  13  14
ATOM     14  C   UNL     1      -7.925  -6.283   4.200  1.00  0.00     0.041 C 
ATOM     15  O   UNL     1      -8.341  -7.213   4.941  1.00  0.00    -0.550 OA
ATOM     16  O   UNL     1      -7.894  -6.460   2.823  1.00  0.00    -0.550 OA
ENDBRANCH  13  14
ENDBRANCH  12  13
ENDBRANCH  11  12
ENDBRANCH  10  11
ENDBRANCH   9  10
ENDBRANCH   8   9
ENDBRANCH   7   8
ENDBRANCH   6   7
ENDBRANCH   5   6
ENDBRANCH   4   5
ENDBRANCH   3   4
ENDBRANCH   2   3
ENDBRANCH   1   2
BRANCH   1  17
ATOM     17  C   UNL     1       1.579   1.979   9.721  1.00  0.00     0.000 C 
BRANCH  17  18
ATOM     18  C   UNL     1       2.564   1.668   8.582  1.00  0.00     0.000 C 
BRANCH  18  19
ATOM     19  C   UNL     1       3.287   2.921   8.065  1.00  0.00     0.000 C 
BRANCH  19  20
ATOM     20  C   UNL     1       4.759   2.614   7.756  1.00  0.00     0.000 C 
BRANCH  20  21
ATOM     21  C   UNL     1       5.425   1.871   8.923  1.00  0.00     0.000 C 
BRANCH  21  22
ATOM     22  C   UNL     1       6.237   0.651   8.459  1.00  0.00    -0.000 C 
BRANCH  22  23
ATOM     23  C   UNL     1       6.192  -0.507   9.470  1.00  0.00    -0.000 C 
BRANCH  23  24
ATOM     24  C   UNL     1       4.838  -0.616  10.188  1.00  0.00    -0.000 C 
BRANCH  24  25
ATOM     25  C   UNL     1       4.088  -1.916   9.846  1.00  0.00    -0.000 C 
BRANCH  25  26
ATOM     26  C   UNL     1       2.576  -1.679   9.638  1.00  0.00    -0.000 C 
BRANCH  26  27
ATOM     27  C   UNL     1       1.826  -2.913   9.099  1.00  0.00    -0.000 C 
BRANCH  27  28
ATOM     28  C   UNL     1       0.528  -2.595   8.338  1.00  0.00    -0.000 C 
BRANCH  28  29
ATOM     29  C   UNL     1      -0.729  -3.045   9.097  1.00  0.00    -0.003 C 
ATOM     30  C   UNL     1      -0.942  -2.204  10.351  1.00  0.00     0.004 C 
ENDBRANCH  28  29
ENDBRANCH  27  28
ENDBRANCH  26  27
ENDBRANCH  25  26
ENDBRANCH  24  25
ENDBRANCH  23  24
ENDBRANCH  22  23
ENDBRANCH  21  22
ENDBRANCH  20  21
ENDBRANCH  19  20
ENDBRANCH  18  19
ENDBRANCH  17  18
ENDBRANCH   1  17
TORSDOF 26
ENDMDL
MODEL 7
REMARK VINA RESULT:    -4.184      7.607     10.811
REMARK INTER + INTRA:         -13.404
REMARK INTER:                  -8.356
REMARK INTRA:                  -5.048
REMARK UNBOUND:                -2.862
REMARK SMILES CCCCCCCCCCCCCCCCCCCCCCCCCCCC(=O)[O-]
REMARK SMILES IDX 15 1 16 2 17 3 18 4 19 5 20 6 21 7 22 8 23 9 24 10 25 11
REMARK SMILES IDX 26 12 27 13 28 14 29 15 30 16 14 17 13 18 12 19 11 20 10 21
REMARK SMILES IDX 9 22 8 23 7 24 6 25 5 26 4 27 3 28 2 29 1 30
REMARK H PARENT
REMARK Flexibility Score: inf
ROOT
ATOM      1  C   UNL     1      -0.184  -0.390   7.630  1.00  0.00     0.000 C 
ENDROOT
BRANCH   1   2
ATOM      2  C   UNL     1      -0.425  -1.415   8.753  1.00  0.00     0.000 C 
BRANCH   2   3
ATOM      3  C   UNL     1      -0.022  -2.864   8.415  1.00  0.00     0.000 C 
BRANCH   3   4
ATOM      4  C   UNL     1       1.447  -3.224   8.715  1.00  0.00     0.000 C 
BRANCH   4   5
ATOM      5  C   UNL     1       2.050  -2.534   9.952  1.00  0.00     0.000 C 
BRANCH   5   6
ATOM      6  C   UNL     1       3.565  -2.305   9.828  1.00  0.00     0.000 C 
BRANCH   6   7
ATOM      7  C   UNL     1       3.968  -0.848  10.111  1.00  0.00     0.000 C 
BRANCH   7   8
ATOM      8  C   UNL     1       2.784   0.126  10.012  1.00  0.00     0.000 C 
BRANCH   8   9
ATOM      9  C   UNL     1       3.009   1.147   8.887  1.00  0.00     0.000 C 
BRANCH   9  10
ATOM     10  C   UNL     1       4.355   1.884   9.009  1.00  0.00     0.000 C 
BRANCH  10  11
ATOM     11  C   UNL     1       5.182   1.953   7.708  1.00  0.00     0.000 C 
BRANCH  11  12
ATOM     12  C   UNL     1       6.706   1.851   7.898  1.00  0.00     0.006 C 
BRANCH  12  13
ATOM     13  C   UNL     1       7.116   1.722   9.371  1.00  0.00     0.053 C 
BRANCH  13  14
ATOM     14  C   UNL     1       7.919   0.477   9.585  1.00  0.00     0.041 C 
ATOM     15  O   UNL     1       9.026   0.329   9.000  1.00  0.00    -0.550 OA
ATOM     16  O   UNL     1       7.460  -0.507  10.450  1.00  0.00    -0.550 OA
ENDBRANCH  13  14
ENDBRANCH  12  13
ENDBRANCH  11  12
ENDBRANCH  10  11
ENDBRANCH   9  10
ENDBRANCH   8   9
ENDBRANCH   7   8
ENDBRANCH   6   7
ENDBRANCH   5   6
ENDBRANCH   4   5
ENDBRANCH   3   4
ENDBRANCH   2   3
ENDBRANCH   1   2
BRANCH   1  17
ATOM     17  C   UNL     1      -0.645   1.028   8.008  1.00  0.00     0.000 C 
BRANCH  17  18
ATOM     18  C   UNL     1      -1.978   1.027   8.775  1.00  0.00     0.000 C 
BRANCH  18  19
ATOM     19  C   UNL     1      -1.962   1.962   9.993  1.00  0.00     0.000 C 
BRANCH  19  20
ATOM     20  C   UNL     1      -0.651   1.818  10.777  1.00  0.00     0.000 C 
BRANCH  20  21
ATOM     21  C   UNL     1      -0.163   3.180  11.292  1.00  0.00     0.000 C 
BRANCH  21  22
ATOM     22  C   UNL     1       1.355   3.362  11.134  1.00  0.00    -0.000 C 
BRANCH  22  23
ATOM     23  C   UNL     1       1.716   4.472  10.132  1.00  0.00    -0.000 C 
BRANCH  23  24
ATOM     24  C   UNL     1       0.483   5.062   9.432  1.00  0.00    -0.000 C 
BRANCH  24  25
ATOM     25  C   UNL     1       0.583   4.993   7.897  1.00  0.00    -0.000 C 
BRANCH  25  26
ATOM     26  C   UNL     1       1.480   3.829   7.423  1.00  0.00    -0.000 C 
BRANCH  26  27
ATOM     27  C   UNL     1       2.645   4.276   6.520  1.00  0.00    -0.000 C 
BRANCH  27  28
ATOM     28  C   UNL     1       3.417   5.507   7.025  1.00  0.00    -0.000 C 
BRANCH  28  29
ATOM     29  C   UNL     1       4.933   5.382   6.820  1.00  0.00    -0.003 C 
ATOM     30  C   UNL     1       5.687   5.705   8.107  1.00  0.00     0.004 C 
ENDBRANCH  28  29
ENDBRANCH  27  28
ENDBRANCH  26  27
ENDBRANCH  25  26
ENDBRANCH  24  25
ENDBRANCH  23  24
ENDBRANCH  22  23
ENDBRANCH  21  22
ENDBRANCH  20  21
ENDBRANCH  19  20
ENDBRANCH  18  19
ENDBRANCH  17  18
ENDBRANCH   1  17
TORSDOF 26
ENDMDL
MODEL 8
REMARK VINA RESULT:    -4.177      6.814     11.221
REMARK INTER + INTRA:         -13.389
REMARK INTER:                  -7.962
REMARK INTRA:                  -5.427
REMARK UNBOUND:                -2.862
REMARK SMILES CCCCCCCCCCCCCCCCCCCCCCCCCCCC(=O)[O-]
REMARK SMILES IDX 15 1 16 2 17 3 18 4 19 5 20 6 21 7 22 8 23 9 24 10 25 11
REMARK SMILES IDX 26 12 27 13 28 14 29 15 30 16 14 17 13 18 12 19 11 20 10 21
REMARK SMILES IDX 9 22 8 23 7 24 6 25 5 26 4 27 3 28 2 29 1 30
REMARK H PARENT
REMARK Flexibility Score: inf
ROOT
ATOM      1  C   UNL     1      -0.769   1.672  11.577  1.00  0.00     0.000 C 
ENDROOT
BRANCH   1   2
ATOM      2  C   UNL     1       0.387   2.173  10.692  1.00  0.00     0.000 C 
BRANCH   2   3
ATOM      3  C   UNL     1       1.689   2.511  11.446  1.00  0.00     0.000 C 
BRANCH   3   4
ATOM      4  C   UNL     1       2.025   4.013  11.536  1.00  0.00     0.000 C 
BRANCH   4   5
ATOM      5  C   UNL     1       1.234   4.919  10.574  1.00  0.00     0.000 C 
BRANCH   5   6
ATOM      6  C   UNL     1       2.130   5.920   9.827  1.00  0.00     0.000 C 
BRANCH   6   7
ATOM      7  C   UNL     1       2.205   5.634   8.318  1.00  0.00     0.000 C 
BRANCH   7   8
ATOM      8  C   UNL     1       1.133   4.639   7.848  1.00  0.00     0.000 C 
BRANCH   8   9
ATOM      9  C   UNL     1       1.780   3.370   7.272  1.00  0.00     0.000 C 
BRANCH   9  10
ATOM     10  C   UNL     1       3.274   3.249   7.621  1.00  0.00     0.000 C 
BRANCH  10  11
ATOM     11  C   UNL     1       3.652   2.010   8.458  1.00  0.00     0.000 C 
BRANCH  11  12
ATOM     12  C   UNL     1       5.144   1.894   8.816  1.00  0.00     0.006 C 
BRANCH  12  13
ATOM     13  C   UNL     1       6.059   1.957   7.585  1.00  0.00     0.053 C 
BRANCH  13  14
ATOM     14  C   UNL     1       7.076   3.044   7.742  1.00  0.00     0.041 C 
ATOM     15  O   UNL     1       6.912   4.152   7.166  1.00  0.00    -0.550 OA
ATOM     16  O   UNL     1       8.190   2.842   8.547  1.00  0.00    -0.550 OA
ENDBRANCH  13  14
ENDBRANCH  12  13
ENDBRANCH  11  12
ENDBRANCH  10  11
ENDBRANCH   9  10
ENDBRANCH   8   9
ENDBRANCH   7   8
ENDBRANCH   6   7
ENDBRANCH   5   6
ENDBRANCH   4   5
ENDBRANCH   3   4
ENDBRANCH   2   3
ENDBRANCH   1   2
BRANCH   1  17
ATOM     17  C   UNL     1      -2.057   2.493  11.395  1.00  0.00     0.000 C 
BRANCH  17  18
ATOM     18  C   UNL     1      -1.989   3.431  10.178  1.00  0.00     0.000 C 
BRANCH  18  19
ATOM     19  C   UNL     1      -3.336   3.558   9.452  1.00  0.00     0.000 C 
BRANCH  19  20
ATOM     20  C   UNL     1      -4.458   2.889  10.257  1.00  0.00     0.000 C 
BRANCH  20  21
ATOM     21  C   UNL     1      -5.198   1.844   9.409  1.00  0.00     0.000 C 
BRANCH  21  22
ATOM     22  C   UNL     1      -4.691   0.415   9.659  1.00  0.00    -0.000 C 
BRANCH  22  23
ATOM     23  C   UNL     1      -3.855  -0.131   8.489  1.00  0.00    -0.000 C 
BRANCH  23  24
ATOM     24  C   UNL     1      -2.355  -0.200   8.814  1.00  0.00    -0.000 C 
BRANCH  24  25
ATOM     25  C   UNL     1      -1.505   0.684   7.884  1.00  0.00    -0.000 C 
BRANCH  25  26
ATOM     26  C   UNL     1      -0.105   0.085   7.631  1.00  0.00    -0.000 C 
BRANCH  26  27
ATOM     27  C   UNL     1       0.325  -0.951   8.687  1.00  0.00    -0.000 C 
BRANCH  27  28
ATOM     28  C   UNL     1       1.827  -0.948   9.018  1.00  0.00    -0.000 C 
BRANCH  28  29
ATOM     29  C   UNL     1       2.166  -1.808  10.244  1.00  0.00    -0.003 C 
ATOM     30  C   UNL     1       3.228  -1.135  11.109  1.00  0.00     0.004 C 
ENDBRANCH  28  29
ENDBRANCH  27  28
ENDBRANCH  26  27
ENDBRANCH  25  26
ENDBRANCH  24  25
ENDBRANCH  23  24
ENDBRANCH  22  23
ENDBRANCH  21  22
ENDBRANCH  20  21
ENDBRANCH  19  20
ENDBRANCH  18  19
ENDBRANCH  17  18
ENDBRANCH   1  17
TORSDOF 26
ENDMDL
MODEL 9
REMARK VINA RESULT:    -4.097      5.180     11.224
REMARK INTER + INTRA:         -13.187
REMARK INTER:                  -8.673
REMARK INTRA:                  -4.514
REMARK UNBOUND:                -2.862
REMARK SMILES CCCCCCCCCCCCCCCCCCCCCCCCCCCC(=O)[O-]
REMARK SMILES IDX 15 1 16 2 17 3 18 4 19 5 20 6 21 7 22 8 23 9 24 10 25 11
REMARK SMILES IDX 26 12 27 13 28 14 29 15 30 16 14 17 13 18 12 19 11 20 10 21
REMARK SMILES IDX 9 22 8 23 7 24 6 25 5 26 4 27 3 28 2 29 1 30
REMARK H PARENT
REMARK Flexibility Score: inf
ROOT
ATOM      1  C   UNL     1       0.675  -2.628   9.512  1.00  0.00     0.000 C 
ENDROOT
BRANCH   1   2
ATOM      2  C   UNL     1       2.077  -2.058   9.227  1.00  0.00     0.000 C 
BRANCH   2   3
ATOM      3  C   UNL     1       2.726  -1.296  10.399  1.00  0.00     0.000 C 
BRANCH   3   4
ATOM      4  C   UNL     1       2.578   0.238  10.347  1.00  0.00     0.000 C 
BRANCH   4   5
ATOM      5  C   UNL     1       3.243   0.918   9.136  1.00  0.00     0.000 C 
BRANCH   5   6
ATOM      6  C   UNL     1       4.548   1.644   9.502  1.00  0.00     0.000 C 
BRANCH   6   7
ATOM      7  C   UNL     1       5.627   1.502   8.415  1.00  0.00     0.000 C 
BRANCH   7   8
ATOM      8  C   UNL     1       5.873   2.810   7.647  1.00  0.00     0.000 C 
BRANCH   8   9
ATOM      9  C   UNL     1       5.146   3.984   8.320  1.00  0.00     0.000 C 
BRANCH   9  10
ATOM     10  C   UNL     1       4.364   4.856   7.322  1.00  0.00     0.000 C 
BRANCH  10  11
ATOM     11  C   UNL     1       3.277   4.114   6.517  1.00  0.00     0.000 C 
BRANCH  11  12
ATOM     12  C   UNL     1       2.017   3.737   7.315  1.00  0.00     0.006 C 
BRANCH  12  13
ATOM     13  C   UNL     1       0.767   4.496   6.850  1.00  0.00     0.053 C 
BRANCH  13  14
ATOM     14  C   UNL     1       0.352   5.503   7.876  1.00  0.00     0.041 C 
ATOM     15  O   UNL     1       1.193   6.321   8.337  1.00  0.00    -0.550 OA
ATOM     16  O   UNL     1      -0.968   5.557   8.304  1.00  0.00    -0.550 OA
ENDBRANCH  13  14
ENDBRANCH  12  13
ENDBRANCH  11  12
ENDBRANCH  10  11
ENDBRANCH   9  10
ENDBRANCH   8   9
ENDBRANCH   7   8
ENDBRANCH   6   7
ENDBRANCH   5   6
ENDBRANCH   4   5
ENDBRANCH   3   4
ENDBRANCH   2   3
ENDBRANCH   1   2
BRANCH   1  17
ATOM     17  C   UNL     1      -0.429  -1.926   8.703  1.00  0.00     0.000 C 
BRANCH  17  18
ATOM     18  C   UNL     1       0.139  -0.987   7.626  1.00  0.00     0.000 C 
BRANCH  18  19
ATOM     19  C   UNL     1      -0.428   0.437   7.723  1.00  0.00     0.000 C 
BRANCH  19  20
ATOM     20  C   UNL     1      -0.900   0.742   9.151  1.00  0.00     0.000 C 
BRANCH  20  21
ATOM     21  C   UNL     1      -0.694   2.225   9.495  1.00  0.00     0.000 C 
BRANCH  21  22
ATOM     22  C   UNL     1      -1.511   2.666  10.720  1.00  0.00    -0.000 C 
BRANCH  22  23
ATOM     23  C   UNL     1      -2.871   3.273  10.335  1.00  0.00    -0.000 C 
BRANCH  23  24
ATOM     24  C   UNL     1      -4.048   2.588  11.047  1.00  0.00    -0.000 C 
BRANCH  24  25
ATOM     25  C   UNL     1      -4.314   1.166  10.521  1.00  0.00    -0.000 C 
BRANCH  25  26
ATOM     26  C   UNL     1      -4.638   1.155   9.011  1.00  0.00    -0.000 C 
BRANCH  26  27
ATOM     27  C   UNL     1      -4.352  -0.196   8.328  1.00  0.00    -0.000 C 
BRANCH  27  28
ATOM     28  C   UNL     1      -4.003  -1.344   9.291  1.00  0.00    -0.000 C 
BRANCH  28  29
ATOM     29  C   UNL     1      -5.116  -2.397   9.387  1.00  0.00    -0.003 C 
ATOM     30  C   UNL     1      -4.539  -3.809   9.342  1.00  0.00     0.004 C 
ENDBRANCH  28  29
ENDBRANCH  27  28
ENDBRANCH  26  27
ENDBRANCH  25  26
ENDBRANCH  24  25
ENDBRANCH  23  24
ENDBRANCH  22  23
ENDBRANCH  21  22
ENDBRANCH  20  21
ENDBRANCH  19  20
ENDBRANCH  18  19
ENDBRANCH  17  18
ENDBRANCH   1  17
TORSDOF 26
ENDMDL
