MODEL 1
REMARK VINA RESULT:    -5.601      0.000      0.000
REMARK INTER + INTRA:          -6.091
REMARK INTER:                  -5.929
REMARK INTRA:                  -0.163
REMARK UNBOUND:                -0.163
REMARK SMILES CC1=CC[C@@H](C(C)C)C=C1
REMARK SMILES IDX 1 1 2 2 3 3 4 4 5 5 9 6 10 7 6 8 7 9 8 10
REMARK H PARENT
REMARK Flexibility Score: inf
ROOT
ATOM      1  C   UNL     1      -1.931  14.265   6.099  1.00  0.00     0.044 C 
ATOM      2  C   UNL     1      -0.567  13.907   5.589  1.00  0.00    -0.055 C 
ATOM      3  C   UNL     1      -0.326  13.862   4.269  1.00  0.00    -0.023 C 
ATOM      4  C   UNL     1       1.072  13.641   3.749  1.00  0.00     0.035 C 
ATOM      5  C   UNL     1       1.883  12.712   4.688  1.00  0.00     0.018 C 
ATOM      6  C   UNL     1       1.709  13.184   6.123  1.00  0.00    -0.023 C 
ATOM      7  C   UNL     1       0.541  13.683   6.541  1.00  0.00    -0.001 C 
ENDROOT
BRANCH   5   8
ATOM      8  C   UNL     1       3.392  12.617   4.299  1.00  0.00    -0.010 C 
ATOM      9  C   UNL     1       4.003  13.991   3.964  1.00  0.00     0.008 C 
ATOM     10  C   UNL     1       3.600  11.683   3.091  1.00  0.00     0.008 C 
ENDBRANCH   5   8
TORSDOF 1
ENDMDL
MODEL 2
REMARK VINA RESULT:    -5.575      1.241      4.496
REMARK INTER + INTRA:          -6.064
REMARK INTER:                  -5.909
REMARK INTRA:                  -0.155
REMARK UNBOUND:                -0.163
REMARK SMILES CC1=CC[C@@H](C(C)C)C=C1
REMARK SMILES IDX 1 1 2 2 3 3 4 4 5 5 9 6 10 7 6 8 7 9 8 10
REMARK H PARENT
REMARK Flexibility Score: inf
ROOT
ATOM      1  C   UNL     1       4.339  13.789   3.475  1.00  0.00     0.044 C 
ATOM      2  C   UNL     1       3.095  13.616   4.293  1.00  0.00    -0.055 C 
ATOM      3  C   UNL     1       3.177  13.392   5.613  1.00  0.00    -0.023 C 
ATOM      4  C   UNL     1       1.935  13.356   6.467  1.00  0.00     0.035 C 
ATOM      5  C   UNL     1       0.729  12.774   5.684  1.00  0.00     0.018 C 
ATOM      6  C   UNL     1       0.654  13.443   4.321  1.00  0.00    -0.023 C 
ATOM      7  C   UNL     1       1.769  13.775   3.660  1.00  0.00    -0.001 C 
ENDROOT
BRANCH   5   8
ATOM      8  C   UNL     1      -0.622  12.904   6.457  1.00  0.00    -0.010 C 
ATOM      9  C   UNL     1      -1.417  11.585   6.481  1.00  0.00     0.008 C 
ATOM     10  C   UNL     1      -1.513  14.000   5.843  1.00  0.00     0.008 C 
ENDBRANCH   5   8
TORSDOF 1
ENDMDL
MODEL 3
REMARK VINA RESULT:    -5.491      1.140      4.238
REMARK INTER + INTRA:          -5.975
REMARK INTER:                  -5.812
REMARK INTRA:                  -0.163
REMARK UNBOUND:                -0.163
REMARK SMILES CC1=CC[C@@H](C(C)C)C=C1
REMARK SMILES IDX 1 1 2 2 3 3 4 4 5 5 9 6 10 7 6 8 7 9 8 10
REMARK H PARENT
REMARK Flexibility Score: inf
ROOT
ATOM      1  C   UNL     1       4.408  13.881   3.506  1.00  0.00     0.044 C 
ATOM      2  C   UNL     1       3.082  13.679   4.177  1.00  0.00    -0.055 C 
ATOM      3  C   UNL     1       1.949  13.688   3.457  1.00  0.00    -0.023 C 
ATOM      4  C   UNL     1       0.627  13.347   4.097  1.00  0.00     0.035 C 
ATOM      5  C   UNL     1       0.578  13.818   5.574  1.00  0.00     0.018 C 
ATOM      6  C   UNL     1       1.857  13.387   6.275  1.00  0.00    -0.023 C 
ATOM      7  C   UNL     1       3.025  13.385   5.624  1.00  0.00    -0.001 C 
ENDROOT
BRANCH   5   8
ATOM      8  C   UNL     1      -0.688  13.311   6.335  1.00  0.00    -0.010 C 
ATOM      9  C   UNL     1      -0.978  11.822   6.069  1.00  0.00     0.008 C 
ATOM     10  C   UNL     1      -1.935  14.128   5.949  1.00  0.00     0.008 C 
ENDBRANCH   5   8
TORSDOF 1
ENDMDL
MODEL 4
REMARK VINA RESULT:    -5.129      1.437      2.081
REMARK INTER + INTRA:          -5.592
REMARK INTER:                  -5.393
REMARK INTRA:                  -0.199
REMARK UNBOUND:                -0.163
REMARK SMILES CC1=CC[C@@H](C(C)C)C=C1
REMARK SMILES IDX 1 1 2 2 3 3 4 4 5 5 9 6 10 7 6 8 7 9 8 10
REMARK H PARENT
REMARK Flexibility Score: inf
ROOT
ATOM      1  C   UNL     1      -0.319  12.280   6.578  1.00  0.00     0.044 C 
ATOM      2  C   UNL     1       0.600  12.889   5.562  1.00  0.00    -0.055 C 
ATOM      3  C   UNL     1       0.111  13.372   4.409  1.00  0.00    -0.023 C 
ATOM      4  C   UNL     1       1.003  14.111   3.444  1.00  0.00     0.035 C 
ATOM      5  C   UNL     1       2.447  13.545   3.464  1.00  0.00     0.018 C 
ATOM      6  C   UNL     1       2.902  13.399   4.907  1.00  0.00    -0.023 C 
ATOM      7  C   UNL     1       2.039  13.035   5.862  1.00  0.00    -0.001 C 
ENDROOT
BRANCH   5   8
ATOM      8  C   UNL     1       3.452  14.404   2.634  1.00  0.00    -0.010 C 
ATOM      9  C   UNL     1       4.609  14.951   3.490  1.00  0.00     0.008 C 
ATOM     10  C   UNL     1       2.743  15.592   1.956  1.00  0.00     0.008 C 
ENDBRANCH   5   8
TORSDOF 1
ENDMDL
MODEL 5
REMARK VINA RESULT:    -5.035      1.464      2.448
REMARK INTER + INTRA:          -5.492
REMARK INTER:                  -5.295
REMARK INTRA:                  -0.197
REMARK UNBOUND:                -0.163
REMARK SMILES CC1=CC[C@@H](C(C)C)C=C1
REMARK SMILES IDX 1 1 2 2 3 3 4 4 5 5 9 6 10 7 6 8 7 9 8 10
REMARK H PARENT
REMARK Flexibility Score: inf
ROOT
ATOM      1  C   UNL     1      -2.099  14.898   2.025  1.00  0.00     0.044 C 
ATOM      2  C   UNL     1      -0.821  14.475   2.685  1.00  0.00    -0.055 C 
ATOM      3  C   UNL     1       0.343  14.550   2.021  1.00  0.00    -0.023 C 
ATOM      4  C   UNL     1       1.648  14.261   2.719  1.00  0.00     0.035 C 
ATOM      5  C   UNL     1       1.476  13.168   3.805  1.00  0.00     0.018 C 
ATOM      6  C   UNL     1       0.258  13.497   4.652  1.00  0.00    -0.023 C 
ATOM      7  C   UNL     1      -0.827  14.052   4.101  1.00  0.00    -0.001 C 
ENDROOT
BRANCH   5   8
ATOM      8  C   UNL     1       2.750  12.980   4.689  1.00  0.00    -0.010 C 
ATOM      9  C   UNL     1       2.555  13.502   6.124  1.00  0.00     0.008 C 
ATOM     10  C   UNL     1       3.968  13.692   4.071  1.00  0.00     0.008 C 
ENDBRANCH   5   8
TORSDOF 1
ENDMDL
MODEL 6
REMARK VINA RESULT:    -5.002      1.733      3.054
REMARK INTER + INTRA:          -5.457
REMARK INTER:                  -5.290
REMARK INTRA:                  -0.167
REMARK UNBOUND:                -0.163
REMARK SMILES CC1=CC[C@@H](C(C)C)C=C1
REMARK SMILES IDX 1 1 2 2 3 3 4 4 5 5 9 6 10 7 6 8 7 9 8 10
REMARK H PARENT
REMARK Flexibility Score: inf
ROOT
ATOM      1  C   UNL     1      -4.553  12.946   7.200  1.00  0.00     0.044 C 
ATOM      2  C   UNL     1      -3.122  12.969   6.755  1.00  0.00    -0.055 C 
ATOM      3  C   UNL     1      -2.608  14.066   6.177  1.00  0.00    -0.023 C 
ATOM      4  C   UNL     1      -1.138  14.151   5.855  1.00  0.00     0.035 C 
ATOM      5  C   UNL     1      -0.567  12.763   5.462  1.00  0.00     0.018 C 
ATOM      6  C   UNL     1      -1.029  11.732   6.479  1.00  0.00    -0.023 C 
ATOM      7  C   UNL     1      -2.246  11.810   7.027  1.00  0.00    -0.001 C 
ENDROOT
BRANCH   5   8
ATOM      8  C   UNL     1       0.988  12.762   5.316  1.00  0.00    -0.010 C 
ATOM      9  C   UNL     1       1.697  13.359   6.546  1.00  0.00     0.008 C 
ATOM     10  C   UNL     1       1.431  13.549   4.068  1.00  0.00     0.008 C 
ENDBRANCH   5   8
TORSDOF 1
ENDMDL
MODEL 7
REMARK VINA RESULT:    -4.990      0.914      4.837
REMARK INTER + INTRA:          -5.445
REMARK INTER:                  -5.308
REMARK INTRA:                  -0.136
REMARK UNBOUND:                -0.163
REMARK SMILES CC1=CC[C@@H](C(C)C)C=C1
REMARK SMILES IDX 1 1 2 2 3 3 4 4 5 5 9 6 10 7 6 8 7 9 8 10
REMARK H PARENT
REMARK Flexibility Score: inf
ROOT
ATOM      1  C   UNL     1       3.030  12.529   4.217  1.00  0.00     0.044 C 
ATOM      2  C   UNL     1       1.717  13.105   4.654  1.00  0.00    -0.055 C 
ATOM      3  C   UNL     1       1.386  13.133   5.954  1.00  0.00    -0.023 C 
ATOM      4  C   UNL     1       0.134  13.834   6.416  1.00  0.00     0.035 C 
ATOM      5  C   UNL     1      -0.997  13.721   5.361  1.00  0.00     0.018 C 
ATOM      6  C   UNL     1      -0.434  14.067   3.992  1.00  0.00    -0.023 C 
ATOM      7  C   UNL     1       0.814  13.720   3.658  1.00  0.00    -0.001 C 
ENDROOT
BRANCH   5   8
ATOM      8  C   UNL     1      -2.242  14.599   5.703  1.00  0.00    -0.010 C 
ATOM      9  C   UNL     1      -3.337  13.807   6.441  1.00  0.00     0.008 C 
ATOM     10  C   UNL     1      -2.857  15.215   4.432  1.00  0.00     0.008 C 
ENDBRANCH   5   8
TORSDOF 1
ENDMDL
MODEL 8
REMARK VINA RESULT:    -4.989      1.707      3.967
REMARK INTER + INTRA:          -5.443
REMARK INTER:                  -5.244
REMARK INTRA:                  -0.199
REMARK UNBOUND:                -0.163
REMARK SMILES CC1=CC[C@@H](C(C)C)C=C1
REMARK SMILES IDX 1 1 2 2 3 3 4 4 5 5 9 6 10 7 6 8 7 9 8 10
REMARK H PARENT
REMARK Flexibility Score: inf
ROOT
ATOM      1  C   UNL     1       1.754  14.840   0.421  1.00  0.00     0.044 C 
ATOM      2  C   UNL     1       1.599  14.398   1.846  1.00  0.00    -0.055 C 
ATOM      3  C   UNL     1       2.669  14.004   2.554  1.00  0.00    -0.023 C 
ATOM      4  C   UNL     1       2.547  13.693   4.024  1.00  0.00     0.035 C 
ATOM      5  C   UNL     1       1.162  13.078   4.357  1.00  0.00     0.018 C 
ATOM      6  C   UNL     1       0.077  13.916   3.700  1.00  0.00    -0.023 C 
ATOM      7  C   UNL     1       0.277  14.475   2.502  1.00  0.00    -0.001 C 
ENDROOT
BRANCH   5   8
ATOM      8  C   UNL     1       0.914  12.927   5.892  1.00  0.00    -0.010 C 
ATOM      9  C   UNL     1      -0.308  13.731   6.374  1.00  0.00     0.008 C 
ATOM     10  C   UNL     1       2.145  13.376   6.703  1.00  0.00     0.008 C 
ENDBRANCH   5   8
TORSDOF 1
ENDMDL
MODEL 9
REMARK VINA RESULT:    -4.987      2.086      3.311
REMARK INTER + INTRA:          -5.441
REMARK INTER:                  -5.270
REMARK INTRA:                  -0.171
REMARK UNBOUND:                -0.163
REMARK SMILES CC1=CC[C@@H](C(C)C)C=C1
REMARK SMILES IDX 1 1 2 2 3 3 4 4 5 5 9 6 10 7 6 8 7 9 8 10
REMARK H PARENT
REMARK Flexibility Score: inf
ROOT
ATOM      1  C   UNL     1       1.413  13.079   6.706  1.00  0.00     0.044 C 
ATOM      2  C   UNL     1       1.606  13.406   5.255  1.00  0.00    -0.055 C 
ATOM      3  C   UNL     1       2.837  13.412   4.719  1.00  0.00    -0.023 C 
ATOM      4  C   UNL     1       3.030  13.601   3.236  1.00  0.00     0.035 C 
ATOM      5  C   UNL     1       1.952  14.546   2.643  1.00  0.00     0.018 C 
ATOM      6  C   UNL     1       0.584  14.116   3.148  1.00  0.00    -0.023 C 
ATOM      7  C   UNL     1       0.432  13.643   4.390  1.00  0.00    -0.001 C 
ENDROOT
BRANCH   5   8
ATOM      8  C   UNL     1       1.989  14.611   1.084  1.00  0.00    -0.010 C 
ATOM      9  C   UNL     1       1.302  15.873   0.530  1.00  0.00     0.008 C 
ATOM     10  C   UNL     1       1.317  13.375   0.457  1.00  0.00     0.008 C 
ENDBRANCH   5   8
TORSDOF 1
ENDMDL
