MODEL 1
REMARK VINA RESULT:    16.098      0.000      0.000
REMARK INTER + INTRA:          39.661
REMARK INTER:                  40.567
REMARK INTRA:                  -0.906
REMARK UNBOUND:                -0.906
REMARK SMILES CCCCCCCCCCCCCCCCCCCCCCCCCCCC(=O)[O-]
REMARK SMILES IDX 15 1 16 2 17 3 18 4 19 5 20 6 21 7 22 8 23 9 24 10 25 11
REMARK SMILES IDX 26 12 27 13 28 14 29 15 30 16 14 17 13 18 12 19 11 20 10 21
REMARK SMILES IDX 9 22 8 23 7 24 6 25 5 26 4 27 3 28 2 29 1 30
REMARK H PARENT
REMARK Flexibility Score: inf
ROOT
ATOM      1  C   UNL     1     -33.168  12.597  19.238  1.00  0.00     0.000 C 
ENDROOT
BRANCH   1   2
ATOM      2  C   UNL     1     -33.241  11.194  19.865  1.00  0.00     0.000 C 
BRANCH   2   3
ATOM      3  C   UNL     1     -33.962  11.188  21.223  1.00  0.00     0.000 C 
BRANCH   3   4
ATOM      4  C   UNL     1     -34.202  12.603  21.779  1.00  0.00     0.000 C 
BRANCH   4   5
ATOM      5  C   UNL     1     -34.309  12.657  23.317  1.00  0.00     0.000 C 
BRANCH   5   6
ATOM      6  C   UNL     1     -33.691  11.420  23.990  1.00  0.00     0.000 C 
BRANCH   6   7
ATOM      7  C   UNL     1     -33.926  11.382  25.510  1.00  0.00     0.000 C 
BRANCH   7   8
ATOM      8  C   UNL     1     -32.681  10.964  26.319  1.00  0.00     0.000 C 
BRANCH   8   9
ATOM      9  C   UNL     1     -33.007   9.884  27.362  1.00  0.00     0.000 C 
BRANCH   9  10
ATOM     10  C   UNL     1     -33.043   8.488  26.726  1.00  0.00     0.000 C 
BRANCH  10  11
ATOM     11  C   UNL     1     -34.283   8.327  25.836  1.00  0.00     0.000 C 
BRANCH  11  12
ATOM     12  C   UNL     1     -34.265   7.027  25.017  1.00  0.00     0.006 C 
BRANCH  12  13
ATOM     13  C   UNL     1     -35.202   7.077  23.802  1.00  0.00     0.053 C 
BRANCH  13  14
ATOM     14  C   UNL     1     -34.430   7.061  22.518  1.00  0.00     0.041 C 
ATOM     15  O   UNL     1     -33.780   8.079  22.161  1.00  0.00    -0.550 OA
ATOM     16  O   UNL     1     -34.471   5.947  21.686  1.00  0.00    -0.550 OA
ENDBRANCH  13  14
ENDBRANCH  12  13
ENDBRANCH  11  12
ENDBRANCH  10  11
ENDBRANCH   9  10
ENDBRANCH   8   9
ENDBRANCH   7   8
ENDBRANCH   6   7
ENDBRANCH   5   6
ENDBRANCH   4   5
ENDBRANCH   3   4
ENDBRANCH   2   3
ENDBRANCH   1   2
BRANCH   1  17
ATOM     17  C   UNL     1     -31.897  12.801  18.397  1.00  0.00     0.000 C 
BRANCH  17  18
ATOM     18  C   UNL     1     -32.246  13.175  16.947  1.00  0.00     0.000 C 
BRANCH  18  19
ATOM     19  C   UNL     1     -33.757  13.117  16.669  1.00  0.00     0.000 C 
BRANCH  19  20
ATOM     20  C   UNL     1     -34.478  14.427  17.030  1.00  0.00     0.000 C 
BRANCH  20  21
ATOM     21  C   UNL     1     -34.730  15.324  15.806  1.00  0.00     0.000 C 
BRANCH  21  22
ATOM     22  C   UNL     1     -34.880  16.828  16.112  1.00  0.00    -0.000 C 
BRANCH  22  23
ATOM     23  C   UNL     1     -34.421  17.260  17.515  1.00  0.00    -0.000 C 
BRANCH  23  24
ATOM     24  C   UNL     1     -35.174  18.497  18.033  1.00  0.00    -0.000 C 
BRANCH  24  25
ATOM     25  C   UNL     1     -36.678  18.464  17.707  1.00  0.00    -0.000 C 
BRANCH  25  26
ATOM     26  C   UNL     1     -37.356  17.088  17.872  1.00  0.00    -0.000 C 
BRANCH  26  27
ATOM     27  C   UNL     1     -38.831  17.026  17.429  1.00  0.00    -0.000 C 
BRANCH  27  28
ATOM     28  C   UNL     1     -39.736  16.147  18.312  1.00  0.00    -0.000 C 
BRANCH  28  29
ATOM     29  C   UNL     1     -38.971  15.011  19.004  1.00  0.00    -0.003 C 
ATOM     30  C   UNL     1     -39.837  13.762  19.131  1.00  0.00     0.004 C 
ENDBRANCH  28  29
ENDBRANCH  27  28
ENDBRANCH  26  27
ENDBRANCH  25  26
ENDBRANCH  24  25
ENDBRANCH  23  24
ENDBRANCH  22  23
ENDBRANCH  21  22
ENDBRANCH  20  21
ENDBRANCH  19  20
ENDBRANCH  18  19
ENDBRANCH  17  18
ENDBRANCH   1  17
TORSDOF 26
ENDMDL
MODEL 2
REMARK VINA RESULT:    16.254      1.745      3.175
REMARK INTER + INTRA:          40.054
REMARK INTER:                  40.304
REMARK INTRA:                  -0.249
REMARK UNBOUND:                -0.906
REMARK SMILES CCCCCCCCCCCCCCCCCCCCCCCCCCCC(=O)[O-]
REMARK SMILES IDX 15 1 16 2 17 3 18 4 19 5 20 6 21 7 22 8 23 9 24 10 25 11
REMARK SMILES IDX 26 12 27 13 28 14 29 15 30 16 14 17 13 18 12 19 11 20 10 21
REMARK SMILES IDX 9 22 8 23 7 24 6 25 5 26 4 27 3 28 2 29 1 30
REMARK H PARENT
REMARK Flexibility Score: inf
ROOT
ATOM      1  C   UNL     1     -33.240  11.785  19.007  1.00  0.00     0.000 C 
ENDROOT
BRANCH   1   2
ATOM      2  C   UNL     1     -33.850  11.922  20.413  1.00  0.00     0.000 C 
BRANCH   2   3
ATOM      3  C   UNL     1     -34.127  10.562  21.074  1.00  0.00     0.000 C 
BRANCH   3   4
ATOM      4  C   UNL     1     -32.840   9.782  21.398  1.00  0.00     0.000 C 
BRANCH   4   5
ATOM      5  C   UNL     1     -33.087   8.312  21.797  1.00  0.00     0.000 C 
BRANCH   5   6
ATOM      6  C   UNL     1     -34.548   8.054  22.202  1.00  0.00     0.000 C 
BRANCH   6   7
ATOM      7  C   UNL     1     -34.760   6.669  22.838  1.00  0.00     0.000 C 
BRANCH   7   8
ATOM      8  C   UNL     1     -35.281   6.728  24.289  1.00  0.00     0.000 C 
BRANCH   8   9
ATOM      9  C   UNL     1     -34.518   7.759  25.135  1.00  0.00     0.000 C 
BRANCH   9  10
ATOM     10  C   UNL     1     -33.328   7.116  25.858  1.00  0.00     0.000 C 
BRANCH  10  11
ATOM     11  C   UNL     1     -32.572   8.158  26.695  1.00  0.00     0.000 C 
BRANCH  11  12
ATOM     12  C   UNL     1     -33.451   9.352  27.097  1.00  0.00     0.006 C 
BRANCH  12  13
ATOM     13  C   UNL     1     -33.060  10.649  26.374  1.00  0.00     0.053 C 
BRANCH  13  14
ATOM     14  C   UNL     1     -34.177  11.148  25.509  1.00  0.00     0.041 C 
ATOM     15  O   UNL     1     -33.922  11.844  24.491  1.00  0.00    -0.550 OA
ATOM     16  O   UNL     1     -35.501  10.898  25.854  1.00  0.00    -0.550 OA
ENDBRANCH  13  14
ENDBRANCH  12  13
ENDBRANCH  11  12
ENDBRANCH  10  11
ENDBRANCH   9  10
ENDBRANCH   8   9
ENDBRANCH   7   8
ENDBRANCH   6   7
ENDBRANCH   5   6
ENDBRANCH   4   5
ENDBRANCH   3   4
ENDBRANCH   2   3
ENDBRANCH   1   2
BRANCH   1  17
ATOM     17  C   UNL     1     -32.037  12.719  18.793  1.00  0.00     0.000 C 
BRANCH  17  18
ATOM     18  C   UNL     1     -31.905  13.124  17.316  1.00  0.00     0.000 C 
BRANCH  18  19
ATOM     19  C   UNL     1     -33.267  13.262  16.617  1.00  0.00     0.000 C 
BRANCH  19  20
ATOM     20  C   UNL     1     -33.997  14.564  16.990  1.00  0.00     0.000 C 
BRANCH  20  21
ATOM     21  C   UNL     1     -34.420  15.382  15.758  1.00  0.00     0.000 C 
BRANCH  21  22
ATOM     22  C   UNL     1     -34.979  16.787  16.062  1.00  0.00    -0.000 C 
BRANCH  22  23
ATOM     23  C   UNL     1     -35.109  17.132  17.555  1.00  0.00    -0.000 C 
BRANCH  23  24
ATOM     24  C   UNL     1     -36.533  17.563  17.945  1.00  0.00    -0.000 C 
BRANCH  24  25
ATOM     25  C   UNL     1     -37.608  16.554  17.502  1.00  0.00    -0.000 C 
BRANCH  25  26
ATOM     26  C   UNL     1     -38.006  15.509  18.564  1.00  0.00    -0.000 C 
BRANCH  26  27
ATOM     27  C   UNL     1     -39.487  15.536  18.989  1.00  0.00    -0.000 C 
BRANCH  27  28
ATOM     28  C   UNL     1     -40.281  16.758  18.491  1.00  0.00    -0.000 C 
BRANCH  28  29
ATOM     29  C   UNL     1     -39.902  17.174  17.063  1.00  0.00    -0.003 C 
ATOM     30  C   UNL     1     -41.114  17.704  16.304  1.00  0.00     0.004 C 
ENDBRANCH  28  29
ENDBRANCH  27  28
ENDBRANCH  26  27
ENDBRANCH  25  26
ENDBRANCH  24  25
ENDBRANCH  23  24
ENDBRANCH  22  23
ENDBRANCH  21  22
ENDBRANCH  20  21
ENDBRANCH  19  20
ENDBRANCH  18  19
ENDBRANCH  17  18
ENDBRANCH   1  17
TORSDOF 26
ENDMDL
MODEL 3
REMARK VINA RESULT:    16.451      1.777      3.134
REMARK INTER + INTRA:          40.550
REMARK INTER:                  42.556
REMARK INTRA:                  -2.006
REMARK UNBOUND:                -0.906
REMARK SMILES CCCCCCCCCCCCCCCCCCCCCCCCCCCC(=O)[O-]
REMARK SMILES IDX 15 1 16 2 17 3 18 4 19 5 20 6 21 7 22 8 23 9 24 10 25 11
REMARK SMILES IDX 26 12 27 13 28 14 29 15 30 16 14 17 13 18 12 19 11 20 10 21
REMARK SMILES IDX 9 22 8 23 7 24 6 25 5 26 4 27 3 28 2 29 1 30
REMARK H PARENT
REMARK Flexibility Score: inf
ROOT
ATOM      1  C   UNL     1     -32.878  12.129  18.716  1.00  0.00     0.000 C 
ENDROOT
BRANCH   1   2
ATOM      2  C   UNL     1     -33.286  13.081  19.854  1.00  0.00     0.000 C 
BRANCH   2   3
ATOM      3  C   UNL     1     -33.911  12.343  21.049  1.00  0.00     0.000 C 
BRANCH   3   4
ATOM      4  C   UNL     1     -34.234  10.870  20.740  1.00  0.00     0.000 C 
BRANCH   4   5
ATOM      5  C   UNL     1     -33.934   9.908  21.909  1.00  0.00     0.000 C 
BRANCH   5   6
ATOM      6  C   UNL     1     -32.917   8.821  21.525  1.00  0.00     0.000 C 
BRANCH   6   7
ATOM      7  C   UNL     1     -33.418   7.397  21.820  1.00  0.00     0.000 C 
BRANCH   7   8
ATOM      8  C   UNL     1     -34.805   7.357  22.494  1.00  0.00     0.000 C 
BRANCH   8   9
ATOM      9  C   UNL     1     -34.798   6.512  23.778  1.00  0.00     0.000 C 
BRANCH   9  10
ATOM     10  C   UNL     1     -34.635   7.393  25.023  1.00  0.00     0.000 C 
BRANCH  10  11
ATOM     11  C   UNL     1     -33.351   7.030  25.782  1.00  0.00     0.000 C 
BRANCH  11  12
ATOM     12  C   UNL     1     -32.881   8.146  26.727  1.00  0.00     0.006 C 
BRANCH  12  13
ATOM     13  C   UNL     1     -33.890   9.298  26.834  1.00  0.00     0.053 C 
BRANCH  13  14
ATOM     14  C   UNL     1     -33.275  10.602  26.423  1.00  0.00     0.041 C 
ATOM     15  O   UNL     1     -32.267  11.043  27.037  1.00  0.00    -0.550 OA
ATOM     16  O   UNL     1     -33.842  11.359  25.404  1.00  0.00    -0.550 OA
ENDBRANCH  13  14
ENDBRANCH  12  13
ENDBRANCH  11  12
ENDBRANCH  10  11
ENDBRANCH   9  10
ENDBRANCH   8   9
ENDBRANCH   7   8
ENDBRANCH   6   7
ENDBRANCH   5   6
ENDBRANCH   4   5
ENDBRANCH   3   4
ENDBRANCH   2   3
ENDBRANCH   1   2
BRANCH   1  17
ATOM     17  C   UNL     1     -31.871  12.769  17.746  1.00  0.00     0.000 C 
BRANCH  17  18
ATOM     18  C   UNL     1     -32.591  13.549  16.634  1.00  0.00     0.000 C 
BRANCH  18  19
ATOM     19  C   UNL     1     -34.112  13.321  16.643  1.00  0.00     0.000 C 
BRANCH  19  20
ATOM     20  C   UNL     1     -34.905  14.613  16.903  1.00  0.00     0.000 C 
BRANCH  20  21
ATOM     21  C   UNL     1     -34.590  15.720  15.882  1.00  0.00     0.000 C 
BRANCH  21  22
ATOM     22  C   UNL     1     -34.822  17.160  16.381  1.00  0.00    -0.000 C 
BRANCH  22  23
ATOM     23  C   UNL     1     -35.368  17.278  17.814  1.00  0.00    -0.000 C 
BRANCH  23  24
ATOM     24  C   UNL     1     -36.847  17.698  17.855  1.00  0.00    -0.000 C 
BRANCH  24  25
ATOM     25  C   UNL     1     -37.802  16.578  17.404  1.00  0.00    -0.000 C 
BRANCH  25  26
ATOM     26  C   UNL     1     -39.191  16.590  18.075  1.00  0.00    -0.000 C 
BRANCH  26  27
ATOM     27  C   UNL     1     -39.355  15.619  19.260  1.00  0.00    -0.000 C 
BRANCH  27  28
ATOM     28  C   UNL     1     -39.101  14.138  18.923  1.00  0.00    -0.000 C 
BRANCH  28  29
ATOM     29  C   UNL     1     -40.296  13.236  19.263  1.00  0.00    -0.003 C 
ATOM     30  C   UNL     1     -40.118  11.841  18.671  1.00  0.00     0.004 C 
ENDBRANCH  28  29
ENDBRANCH  27  28
ENDBRANCH  26  27
ENDBRANCH  25  26
ENDBRANCH  24  25
ENDBRANCH  23  24
ENDBRANCH  22  23
ENDBRANCH  21  22
ENDBRANCH  20  21
ENDBRANCH  19  20
ENDBRANCH  18  19
ENDBRANCH  17  18
ENDBRANCH   1  17
TORSDOF 26
ENDMDL
MODEL 4
REMARK VINA RESULT:    16.490      0.654      1.388
REMARK INTER + INTRA:          40.647
REMARK INTER:                  42.396
REMARK INTRA:                  -1.749
REMARK UNBOUND:                -0.906
REMARK SMILES CCCCCCCCCCCCCCCCCCCCCCCCCCCC(=O)[O-]
REMARK SMILES IDX 15 1 16 2 17 3 18 4 19 5 20 6 21 7 22 8 23 9 24 10 25 11
REMARK SMILES IDX 26 12 27 13 28 14 29 15 30 16 14 17 13 18 12 19 11 20 10 21
REMARK SMILES IDX 9 22 8 23 7 24 6 25 5 26 4 27 3 28 2 29 1 30
REMARK H PARENT
REMARK Flexibility Score: inf
ROOT
ATOM      1  C   UNL     1     -32.475  12.612  19.288  1.00  0.00     0.000 C 
ENDROOT
BRANCH   1   2
ATOM      2  C   UNL     1     -33.337  11.351  19.476  1.00  0.00     0.000 C 
BRANCH   2   3
ATOM      3  C   UNL     1     -34.031  11.306  20.846  1.00  0.00     0.000 C 
BRANCH   3   4
ATOM      4  C   UNL     1     -33.930  12.637  21.612  1.00  0.00     0.000 C 
BRANCH   4   5
ATOM      5  C   UNL     1     -34.493  12.574  23.048  1.00  0.00     0.000 C 
BRANCH   5   6
ATOM      6  C   UNL     1     -33.825  11.474  23.890  1.00  0.00     0.000 C 
BRANCH   6   7
ATOM      7  C   UNL     1     -34.051  11.652  25.401  1.00  0.00     0.000 C 
BRANCH   7   8
ATOM      8  C   UNL     1     -32.820  11.291  26.258  1.00  0.00     0.000 C 
BRANCH   8   9
ATOM      9  C   UNL     1     -33.072  10.059  27.140  1.00  0.00     0.000 C 
BRANCH   9  10
ATOM     10  C   UNL     1     -32.929   8.760  26.337  1.00  0.00     0.000 C 
BRANCH  10  11
ATOM     11  C   UNL     1     -34.305   8.233  25.904  1.00  0.00     0.000 C 
BRANCH  11  12
ATOM     12  C   UNL     1     -34.211   7.001  24.991  1.00  0.00     0.006 C 
BRANCH  12  13
ATOM     13  C   UNL     1     -35.181   7.065  23.803  1.00  0.00     0.053 C 
BRANCH  13  14
ATOM     14  C   UNL     1     -34.443   7.113  22.500  1.00  0.00     0.041 C 
ATOM     15  O   UNL     1     -34.507   6.139  21.704  1.00  0.00    -0.550 OA
ATOM     16  O   UNL     1     -33.640   8.204  22.184  1.00  0.00    -0.550 OA
ENDBRANCH  13  14
ENDBRANCH  12  13
ENDBRANCH  11  12
ENDBRANCH  10  11
ENDBRANCH   9  10
ENDBRANCH   8   9
ENDBRANCH   7   8
ENDBRANCH   6   7
ENDBRANCH   5   6
ENDBRANCH   4   5
ENDBRANCH   3   4
ENDBRANCH   2   3
ENDBRANCH   1   2
BRANCH   1  17
ATOM     17  C   UNL     1     -32.339  13.018  17.811  1.00  0.00     0.000 C 
BRANCH  17  18
ATOM     18  C   UNL     1     -33.718  13.198  17.156  1.00  0.00     0.000 C 
BRANCH  18  19
ATOM     19  C   UNL     1     -33.676  14.139  15.941  1.00  0.00     0.000 C 
BRANCH  19  20
ATOM     20  C   UNL     1     -34.700  15.283  16.039  1.00  0.00     0.000 C 
BRANCH  20  21
ATOM     21  C   UNL     1     -34.546  16.110  17.326  1.00  0.00     0.000 C 
BRANCH  21  22
ATOM     22  C   UNL     1     -34.752  17.629  17.160  1.00  0.00    -0.000 C 
BRANCH  22  23
ATOM     23  C   UNL     1     -36.040  18.189  17.788  1.00  0.00    -0.000 C 
BRANCH  23  24
ATOM     24  C   UNL     1     -36.943  17.090  18.373  1.00  0.00    -0.000 C 
BRANCH  24  25
ATOM     25  C   UNL     1     -37.930  16.512  17.342  1.00  0.00    -0.000 C 
BRANCH  25  26
ATOM     26  C   UNL     1     -39.422  16.712  17.678  1.00  0.00    -0.000 C 
BRANCH  26  27
ATOM     27  C   UNL     1     -39.963  15.822  18.814  1.00  0.00    -0.000 C 
BRANCH  27  28
ATOM     28  C   UNL     1     -39.270  14.454  18.951  1.00  0.00    -0.000 C 
BRANCH  28  29
ATOM     29  C   UNL     1     -40.249  13.320  19.283  1.00  0.00    -0.003 C 
ATOM     30  C   UNL     1     -39.851  12.026  18.580  1.00  0.00     0.004 C 
ENDBRANCH  28  29
ENDBRANCH  27  28
ENDBRANCH  26  27
ENDBRANCH  25  26
ENDBRANCH  24  25
ENDBRANCH  23  24
ENDBRANCH  22  23
ENDBRANCH  21  22
ENDBRANCH  20  21
ENDBRANCH  19  20
ENDBRANCH  18  19
ENDBRANCH  17  18
ENDBRANCH   1  17
TORSDOF 26
ENDMDL
MODEL 5
REMARK VINA RESULT:    16.860      3.300     10.278
REMARK INTER + INTRA:          41.581
REMARK INTER:                  42.933
REMARK INTRA:                  -1.352
REMARK UNBOUND:                -0.906
REMARK SMILES CCCCCCCCCCCCCCCCCCCCCCCCCCCC(=O)[O-]
REMARK SMILES IDX 15 1 16 2 17 3 18 4 19 5 20 6 21 7 22 8 23 9 24 10 25 11
REMARK SMILES IDX 26 12 27 13 28 14 29 15 30 16 14 17 13 18 12 19 11 20 10 21
REMARK SMILES IDX 9 22 8 23 7 24 6 25 5 26 4 27 3 28 2 29 1 30
REMARK H PARENT
REMARK Flexibility Score: inf
ROOT
ATOM      1  C   UNL     1     -33.059  12.212  18.972  1.00  0.00     0.000 C 
ENDROOT
BRANCH   1   2
ATOM      2  C   UNL     1     -31.731  12.892  18.596  1.00  0.00     0.000 C 
BRANCH   2   3
ATOM      3  C   UNL     1     -31.478  12.903  17.080  1.00  0.00     0.000 C 
BRANCH   3   4
ATOM      4  C   UNL     1     -32.531  13.716  16.304  1.00  0.00     0.000 C 
BRANCH   4   5
ATOM      5  C   UNL     1     -33.970  13.532  16.830  1.00  0.00     0.000 C 
BRANCH   5   6
ATOM      6  C   UNL     1     -34.685  14.874  17.060  1.00  0.00     0.000 C 
BRANCH   6   7
ATOM      7  C   UNL     1     -34.757  15.741  15.792  1.00  0.00     0.000 C 
BRANCH   7   8
ATOM      8  C   UNL     1     -34.876  17.252  16.082  1.00  0.00     0.000 C 
BRANCH   8   9
ATOM      9  C   UNL     1     -34.746  17.564  17.580  1.00  0.00     0.000 C 
BRANCH   9  10
ATOM     10  C   UNL     1     -35.920  18.418  18.075  1.00  0.00     0.000 C 
BRANCH  10  11
ATOM     11  C   UNL     1     -37.260  17.793  17.664  1.00  0.00     0.000 C 
BRANCH  11  12
ATOM     12  C   UNL     1     -37.479  16.400  18.274  1.00  0.00     0.006 C 
BRANCH  12  13
ATOM     13  C   UNL     1     -38.771  15.732  17.782  1.00  0.00     0.053 C 
BRANCH  13  14
ATOM     14  C   UNL     1     -39.925  16.688  17.813  1.00  0.00     0.041 C 
ATOM     15  O   UNL     1     -40.359  17.115  18.916  1.00  0.00    -0.550 OA
ATOM     16  O   UNL     1     -40.559  17.067  16.635  1.00  0.00    -0.550 OA
ENDBRANCH  13  14
ENDBRANCH  12  13
ENDBRANCH  11  12
ENDBRANCH  10  11
ENDBRANCH   9  10
ENDBRANCH   8   9
ENDBRANCH   7   8
ENDBRANCH   6   7
ENDBRANCH   5   6
ENDBRANCH   4   5
ENDBRANCH   3   4
ENDBRANCH   2   3
ENDBRANCH   1   2
BRANCH   1  17
ATOM     17  C   UNL     1     -33.650  12.758  20.283  1.00  0.00     0.000 C 
BRANCH  17  18
ATOM     18  C   UNL     1     -34.028  11.615  21.239  1.00  0.00     0.000 C 
BRANCH  18  19
ATOM     19  C   UNL     1     -33.925  10.231  20.575  1.00  0.00     0.000 C 
BRANCH  19  20
ATOM     20  C   UNL     1     -33.120   9.227  21.418  1.00  0.00     0.000 C 
BRANCH  20  21
ATOM     21  C   UNL     1     -33.894   8.731  22.651  1.00  0.00     0.000 C 
BRANCH  21  22
ATOM     22  C   UNL     1     -34.544   7.341  22.505  1.00  0.00    -0.000 C 
BRANCH  22  23
ATOM     23  C   UNL     1     -34.737   6.565  23.818  1.00  0.00    -0.000 C 
BRANCH  23  24
ATOM     24  C   UNL     1     -34.544   7.446  25.064  1.00  0.00    -0.000 C 
BRANCH  24  25
ATOM     25  C   UNL     1     -33.327   7.031  25.911  1.00  0.00    -0.000 C 
BRANCH  25  26
ATOM     26  C   UNL     1     -32.527   8.198  26.526  1.00  0.00    -0.000 C 
BRANCH  26  27
ATOM     27  C   UNL     1     -33.377   9.371  27.052  1.00  0.00    -0.000 C 
BRANCH  27  28
ATOM     28  C   UNL     1     -33.189  10.698  26.294  1.00  0.00    -0.000 C 
BRANCH  28  29
ATOM     29  C   UNL     1     -34.439  11.118  25.509  1.00  0.00    -0.003 C 
ATOM     30  C   UNL     1     -34.083  12.091  24.389  1.00  0.00     0.004 C 
ENDBRANCH  28  29
ENDBRANCH  27  28
ENDBRANCH  26  27
ENDBRANCH  25  26
ENDBRANCH  24  25
ENDBRANCH  23  24
ENDBRANCH  22  23
ENDBRANCH  21  22
ENDBRANCH  20  21
ENDBRANCH  19  20
ENDBRANCH  18  19
ENDBRANCH  17  18
ENDBRANCH   1  17
TORSDOF 26
ENDMDL
MODEL 6
REMARK VINA RESULT:    16.881      2.040      3.361
REMARK INTER + INTRA:          41.633
REMARK INTER:                  42.816
REMARK INTRA:                  -1.182
REMARK UNBOUND:                -0.906
REMARK SMILES CCCCCCCCCCCCCCCCCCCCCCCCCCCC(=O)[O-]
REMARK SMILES IDX 15 1 16 2 17 3 18 4 19 5 20 6 21 7 22 8 23 9 24 10 25 11
REMARK SMILES IDX 26 12 27 13 28 14 29 15 30 16 14 17 13 18 12 19 11 20 10 21
REMARK SMILES IDX 9 22 8 23 7 24 6 25 5 26 4 27 3 28 2 29 1 30
REMARK H PARENT
REMARK Flexibility Score: inf
ROOT
ATOM      1  C   UNL     1     -32.130  12.859  19.077  1.00  0.00     0.000 C 
ENDROOT
BRANCH   1   2
ATOM      2  C   UNL     1     -33.128  11.709  19.297  1.00  0.00     0.000 C 
BRANCH   2   3
ATOM      3  C   UNL     1     -33.790  11.755  20.684  1.00  0.00     0.000 C 
BRANCH   3   4
ATOM      4  C   UNL     1     -34.438  10.417  21.083  1.00  0.00     0.000 C 
BRANCH   4   5
ATOM      5  C   UNL     1     -33.598   9.592  22.081  1.00  0.00     0.000 C 
BRANCH   5   6
ATOM      6  C   UNL     1     -33.238   8.201  21.533  1.00  0.00     0.000 C 
BRANCH   6   7
ATOM      7  C   UNL     1     -33.881   7.055  22.332  1.00  0.00     0.000 C 
BRANCH   7   8
ATOM      8  C   UNL     1     -35.403   7.214  22.527  1.00  0.00     0.000 C 
BRANCH   8   9
ATOM      9  C   UNL     1     -35.787   7.318  24.011  1.00  0.00     0.000 C 
BRANCH   9  10
ATOM     10  C   UNL     1     -34.710   6.700  24.910  1.00  0.00     0.000 C 
BRANCH  10  11
ATOM     11  C   UNL     1     -33.871   7.795  25.587  1.00  0.00     0.000 C 
BRANCH  11  12
ATOM     12  C   UNL     1     -34.695   9.041  25.944  1.00  0.00     0.006 C 
BRANCH  12  13
ATOM     13  C   UNL     1     -33.865  10.332  25.910  1.00  0.00     0.053 C 
BRANCH  13  14
ATOM     14  C   UNL     1     -32.875  10.373  27.034  1.00  0.00     0.041 C 
ATOM     15  O   UNL     1     -32.368  11.471  27.386  1.00  0.00    -0.550 OA
ATOM     16  O   UNL     1     -32.468   9.199  27.658  1.00  0.00    -0.550 OA
ENDBRANCH  13  14
ENDBRANCH  12  13
ENDBRANCH  11  12
ENDBRANCH  10  11
ENDBRANCH   9  10
ENDBRANCH   8   9
ENDBRANCH   7   8
ENDBRANCH   6   7
ENDBRANCH   5   6
ENDBRANCH   4   5
ENDBRANCH   3   4
ENDBRANCH   2   3
ENDBRANCH   1   2
BRANCH   1  17
ATOM     17  C   UNL     1     -31.433  12.780  17.709  1.00  0.00     0.000 C 
BRANCH  17  18
ATOM     18  C   UNL     1     -32.309  13.395  16.605  1.00  0.00     0.000 C 
BRANCH  18  19
ATOM     19  C   UNL     1     -33.742  12.838  16.608  1.00  0.00     0.000 C 
BRANCH  19  20
ATOM     20  C   UNL     1     -34.810  13.944  16.546  1.00  0.00     0.000 C 
BRANCH  20  21
ATOM     21  C   UNL     1     -34.367  15.237  17.251  1.00  0.00     0.000 C 
BRANCH  21  22
ATOM     22  C   UNL     1     -34.823  16.545  16.573  1.00  0.00    -0.000 C 
BRANCH  22  23
ATOM     23  C   UNL     1     -35.149  17.702  17.531  1.00  0.00    -0.000 C 
BRANCH  23  24
ATOM     24  C   UNL     1     -36.648  17.798  17.861  1.00  0.00    -0.000 C 
BRANCH  24  25
ATOM     25  C   UNL     1     -37.461  16.611  17.311  1.00  0.00    -0.000 C 
BRANCH  25  26
ATOM     26  C   UNL     1     -38.231  15.796  18.370  1.00  0.00    -0.000 C 
BRANCH  26  27
ATOM     27  C   UNL     1     -39.525  16.451  18.889  1.00  0.00    -0.000 C 
BRANCH  27  28
ATOM     28  C   UNL     1     -40.792  16.111  18.083  1.00  0.00    -0.000 C 
BRANCH  28  29
ATOM     29  C   UNL     1     -40.778  16.711  16.670  1.00  0.00    -0.003 C 
ATOM     30  C   UNL     1     -40.564  18.220  16.716  1.00  0.00     0.004 C 
ENDBRANCH  28  29
ENDBRANCH  27  28
ENDBRANCH  26  27
ENDBRANCH  25  26
ENDBRANCH  24  25
ENDBRANCH  23  24
ENDBRANCH  22  23
ENDBRANCH  21  22
ENDBRANCH  20  21
ENDBRANCH  19  20
ENDBRANCH  18  19
ENDBRANCH  17  18
ENDBRANCH   1  17
TORSDOF 26
ENDMDL
MODEL 7
REMARK VINA RESULT:    17.221      2.852     10.244
REMARK INTER + INTRA:          42.491
REMARK INTER:                  42.979
REMARK INTRA:                  -0.488
REMARK UNBOUND:                -0.906
REMARK SMILES CCCCCCCCCCCCCCCCCCCCCCCCCCCC(=O)[O-]
REMARK SMILES IDX 15 1 16 2 17 3 18 4 19 5 20 6 21 7 22 8 23 9 24 10 25 11
REMARK SMILES IDX 26 12 27 13 28 14 29 15 30 16 14 17 13 18 12 19 11 20 10 21
REMARK SMILES IDX 9 22 8 23 7 24 6 25 5 26 4 27 3 28 2 29 1 30
REMARK H PARENT
REMARK Flexibility Score: inf
ROOT
ATOM      1  C   UNL     1     -33.394  11.188  19.951  1.00  0.00     0.000 C 
ENDROOT
BRANCH   1   2
ATOM      2  C   UNL     1     -33.053  12.607  19.465  1.00  0.00     0.000 C 
BRANCH   2   3
ATOM      3  C   UNL     1     -31.682  12.684  18.774  1.00  0.00     0.000 C 
BRANCH   3   4
ATOM      4  C   UNL     1     -31.786  13.019  17.275  1.00  0.00     0.000 C 
BRANCH   4   5
ATOM      5  C   UNL     1     -33.215  12.890  16.706  1.00  0.00     0.000 C 
BRANCH   5   6
ATOM      6  C   UNL     1     -33.619  14.108  15.859  1.00  0.00     0.000 C 
BRANCH   6   7
ATOM      7  C   UNL     1     -34.729  14.952  16.509  1.00  0.00     0.000 C 
BRANCH   7   8
ATOM      8  C   UNL     1     -35.231  16.106  15.617  1.00  0.00     0.000 C 
BRANCH   8   9
ATOM      9  C   UNL     1     -34.832  17.481  16.175  1.00  0.00     0.000 C 
BRANCH   9  10
ATOM     10  C   UNL     1     -34.444  17.391  17.656  1.00  0.00     0.000 C 
BRANCH  10  11
ATOM     11  C   UNL     1     -35.665  17.630  18.555  1.00  0.00     0.000 C 
BRANCH  11  12
ATOM     12  C   UNL     1     -36.968  17.795  17.759  1.00  0.00     0.006 C 
BRANCH  12  13
ATOM     13  C   UNL     1     -37.658  16.455  17.465  1.00  0.00     0.053 C 
BRANCH  13  14
ATOM     14  C   UNL     1     -38.924  16.310  18.254  1.00  0.00     0.041 C 
ATOM     15  O   UNL     1     -38.919  15.677  19.343  1.00  0.00    -0.550 OA
ATOM     16  O   UNL     1     -40.122  16.822  17.765  1.00  0.00    -0.550 OA
ENDBRANCH  13  14
ENDBRANCH  12  13
ENDBRANCH  11  12
ENDBRANCH  10  11
ENDBRANCH   9  10
ENDBRANCH   8   9
ENDBRANCH   7   8
ENDBRANCH   6   7
ENDBRANCH   5   6
ENDBRANCH   4   5
ENDBRANCH   3   4
ENDBRANCH   2   3
ENDBRANCH   1   2
BRANCH   1  17
ATOM     17  C   UNL     1     -34.020  11.181  21.356  1.00  0.00     0.000 C 
BRANCH  17  18
ATOM     18  C   UNL     1     -34.190  12.611  21.894  1.00  0.00     0.000 C 
BRANCH  18  19
ATOM     19  C   UNL     1     -34.342  12.653  23.423  1.00  0.00     0.000 C 
BRANCH  19  20
ATOM     20  C   UNL     1     -33.824  11.375  24.107  1.00  0.00     0.000 C 
BRANCH  20  21
ATOM     21  C   UNL     1     -34.146  11.334  25.611  1.00  0.00     0.000 C 
BRANCH  21  22
ATOM     22  C   UNL     1     -33.043  10.728  26.502  1.00  0.00    -0.000 C 
BRANCH  22  23
ATOM     23  C   UNL     1     -33.400   9.389  27.168  1.00  0.00    -0.000 C 
BRANCH  23  24
ATOM     24  C   UNL     1     -32.621   8.203  26.576  1.00  0.00    -0.000 C 
BRANCH  24  25
ATOM     25  C   UNL     1     -33.521   7.211  25.817  1.00  0.00    -0.000 C 
BRANCH  25  26
ATOM     26  C   UNL     1     -34.772   7.829  25.161  1.00  0.00    -0.000 C 
BRANCH  26  27
ATOM     27  C   UNL     1     -35.595   6.868  24.281  1.00  0.00    -0.000 C 
BRANCH  27  28
ATOM     28  C   UNL     1     -35.391   7.043  22.765  1.00  0.00    -0.000 C 
BRANCH  28  29
ATOM     29  C   UNL     1     -33.910   7.049  22.360  1.00  0.00    -0.003 C 
ATOM     30  C   UNL     1     -33.445   8.456  21.999  1.00  0.00     0.004 C 
ENDBRANCH  28  29
ENDBRANCH  27  28
ENDBRANCH  26  27
ENDBRANCH  25  26
ENDBRANCH  24  25
ENDBRANCH  23  24
ENDBRANCH  22  23
ENDBRANCH  21  22
ENDBRANCH  20  21
ENDBRANCH  19  20
ENDBRANCH  18  19
ENDBRANCH  17  18
ENDBRANCH   1  17
TORSDOF 26
ENDMDL
MODEL 8
REMARK VINA RESULT:    17.273      2.504      9.973
REMARK INTER + INTRA:          42.622
REMARK INTER:                  42.077
REMARK INTRA:                   0.545
REMARK UNBOUND:                -0.906
REMARK SMILES CCCCCCCCCCCCCCCCCCCCCCCCCCCC(=O)[O-]
REMARK SMILES IDX 15 1 16 2 17 3 18 4 19 5 20 6 21 7 22 8 23 9 24 10 25 11
REMARK SMILES IDX 26 12 27 13 28 14 29 15 30 16 14 17 13 18 12 19 11 20 10 21
REMARK SMILES IDX 9 22 8 23 7 24 6 25 5 26 4 27 3 28 2 29 1 30
REMARK H PARENT
REMARK Flexibility Score: inf
ROOT
ATOM      1  C   UNL     1     -33.478  11.423  19.340  1.00  0.00     0.000 C 
ENDROOT
BRANCH   1   2
ATOM      2  C   UNL     1     -32.320  12.417  19.141  1.00  0.00     0.000 C 
BRANCH   2   3
ATOM      3  C   UNL     1     -32.238  12.950  17.701  1.00  0.00     0.000 C 
BRANCH   3   4
ATOM      4  C   UNL     1     -33.592  12.909  16.970  1.00  0.00     0.000 C 
BRANCH   4   5
ATOM      5  C   UNL     1     -33.909  14.193  16.175  1.00  0.00     0.000 C 
BRANCH   5   6
ATOM      6  C   UNL     1     -34.573  15.272  17.046  1.00  0.00     0.000 C 
BRANCH   6   7
ATOM      7  C   UNL     1     -34.961  16.531  16.253  1.00  0.00     0.000 C 
BRANCH   7   8
ATOM      8  C   UNL     1     -34.876  17.832  17.076  1.00  0.00     0.000 C 
BRANCH   8   9
ATOM      9  C   UNL     1     -36.019  17.947  18.096  1.00  0.00     0.000 C 
BRANCH   9  10
ATOM     10  C   UNL     1     -37.186  17.020  17.731  1.00  0.00     0.000 C 
BRANCH  10  11
ATOM     11  C   UNL     1     -38.497  17.811  17.625  1.00  0.00     0.000 C 
BRANCH  11  12
ATOM     12  C   UNL     1     -39.710  16.918  17.324  1.00  0.00     0.006 C 
BRANCH  12  13
ATOM     13  C   UNL     1     -40.228  16.180  18.567  1.00  0.00     0.053 C 
BRANCH  13  14
ATOM     14  C   UNL     1     -39.339  15.028  18.927  1.00  0.00     0.041 C 
ATOM     15  O   UNL     1     -38.092  15.125  18.777  1.00  0.00    -0.550 OA
ATOM     16  O   UNL     1     -39.885  13.830  19.373  1.00  0.00    -0.550 OA
ENDBRANCH  13  14
ENDBRANCH  12  13
ENDBRANCH  11  12
ENDBRANCH  10  11
ENDBRANCH   9  10
ENDBRANCH   8   9
ENDBRANCH   7   8
ENDBRANCH   6   7
ENDBRANCH   5   6
ENDBRANCH   4   5
ENDBRANCH   3   4
ENDBRANCH   2   3
ENDBRANCH   1   2
BRANCH   1  17
ATOM     17  C   UNL     1     -33.997  11.406  20.788  1.00  0.00     0.000 C 
BRANCH  17  18
ATOM     18  C   UNL     1     -34.180  12.834  21.327  1.00  0.00     0.000 C 
BRANCH  18  19
ATOM     19  C   UNL     1     -34.165  12.892  22.864  1.00  0.00     0.000 C 
BRANCH  19  20
ATOM     20  C   UNL     1     -33.897  11.520  23.507  1.00  0.00     0.000 C 
BRANCH  20  21
ATOM     21  C   UNL     1     -34.098  11.529  25.032  1.00  0.00     0.000 C 
BRANCH  21  22
ATOM     22  C   UNL     1     -32.852  11.162  25.862  1.00  0.00    -0.000 C 
BRANCH  22  23
ATOM     23  C   UNL     1     -33.133  10.385  27.159  1.00  0.00    -0.000 C 
BRANCH  23  24
ATOM     24  C   UNL     1     -33.091   8.861  26.962  1.00  0.00    -0.000 C 
BRANCH  24  25
ATOM     25  C   UNL     1     -34.267   8.331  26.121  1.00  0.00    -0.000 C 
BRANCH  25  26
ATOM     26  C   UNL     1     -33.905   7.225  25.109  1.00  0.00    -0.000 C 
BRANCH  26  27
ATOM     27  C   UNL     1     -34.985   6.926  24.051  1.00  0.00    -0.000 C 
BRANCH  27  28
ATOM     28  C   UNL     1     -34.527   7.101  22.591  1.00  0.00    -0.000 C 
BRANCH  28  29
ATOM     29  C   UNL     1     -34.043   8.525  22.285  1.00  0.00    -0.003 C 
ATOM     30  C   UNL     1     -32.734   8.505  21.503  1.00  0.00     0.004 C 
ENDBRANCH  28  29
ENDBRANCH  27  28
ENDBRANCH  26  27
ENDBRANCH  25  26
ENDBRANCH  24  25
ENDBRANCH  23  24
ENDBRANCH  22  23
ENDBRANCH  21  22
ENDBRANCH  20  21
ENDBRANCH  19  20
ENDBRANCH  18  19
ENDBRANCH  17  18
ENDBRANCH   1  17
TORSDOF 26
ENDMDL
MODEL 9
REMARK VINA RESULT:    17.702      2.236      9.516
REMARK INTER + INTRA:          43.703
REMARK INTER:                  45.558
REMARK INTRA:                  -1.855
REMARK UNBOUND:                -0.906
REMARK SMILES CCCCCCCCCCCCCCCCCCCCCCCCCCCC(=O)[O-]
REMARK SMILES IDX 15 1 16 2 17 3 18 4 19 5 20 6 21 7 22 8 23 9 24 10 25 11
REMARK SMILES IDX 26 12 27 13 28 14 29 15 30 16 14 17 13 18 12 19 11 20 10 21
REMARK SMILES IDX 9 22 8 23 7 24 6 25 5 26 4 27 3 28 2 29 1 30
REMARK H PARENT
REMARK Flexibility Score: inf
ROOT
ATOM      1  C   UNL     1     -32.183  12.533  18.846  1.00  0.00     0.000 C 
ENDROOT
BRANCH   1   2
ATOM      2  C   UNL     1     -32.250  13.126  17.427  1.00  0.00     0.000 C 
BRANCH   2   3
ATOM      3  C   UNL     1     -33.525  12.716  16.673  1.00  0.00     0.000 C 
BRANCH   3   4
ATOM      4  C   UNL     1     -34.581  13.835  16.631  1.00  0.00     0.000 C 
BRANCH   4   5
ATOM      5  C   UNL     1     -34.072  15.192  17.163  1.00  0.00     0.000 C 
BRANCH   5   6
ATOM      6  C   UNL     1     -34.830  16.382  16.551  1.00  0.00     0.000 C 
BRANCH   6   7
ATOM      7  C   UNL     1     -35.182  17.465  17.585  1.00  0.00     0.000 C 
BRANCH   7   8
ATOM      8  C   UNL     1     -36.695  17.741  17.702  1.00  0.00     0.000 C 
BRANCH   8   9
ATOM      9  C   UNL     1     -37.520  16.445  17.698  1.00  0.00     0.000 C 
BRANCH   9  10
ATOM     10  C   UNL     1     -39.023  16.742  17.631  1.00  0.00     0.000 C 
BRANCH  10  11
ATOM     11  C   UNL     1     -39.751  16.145  18.844  1.00  0.00     0.000 C 
BRANCH  11  12
ATOM     12  C   UNL     1     -39.257  14.735  19.201  1.00  0.00     0.006 C 
BRANCH  12  13
ATOM     13  C   UNL     1     -40.381  13.689  19.185  1.00  0.00     0.053 C 
BRANCH  13  14
ATOM     14  C   UNL     1     -39.887  12.367  18.680  1.00  0.00     0.041 C 
ATOM     15  O   UNL     1     -40.461  11.304  19.035  1.00  0.00    -0.550 OA
ATOM     16  O   UNL     1     -38.761  12.300  17.866  1.00  0.00    -0.550 OA
ENDBRANCH  13  14
ENDBRANCH  12  13
ENDBRANCH  11  12
ENDBRANCH  10  11
ENDBRANCH   9  10
ENDBRANCH   8   9
ENDBRANCH   7   8
ENDBRANCH   6   7
ENDBRANCH   5   6
ENDBRANCH   4   5
ENDBRANCH   3   4
ENDBRANCH   2   3
ENDBRANCH   1   2
BRANCH   1  17
ATOM     17  C   UNL     1     -33.402  11.655  19.175  1.00  0.00     0.000 C 
BRANCH  17  18
ATOM     18  C   UNL     1     -33.951  11.972  20.575  1.00  0.00     0.000 C 
BRANCH  18  19
ATOM     19  C   UNL     1     -33.945  10.746  21.504  1.00  0.00     0.000 C 
BRANCH  19  20
ATOM     20  C   UNL     1     -33.110   9.582  20.945  1.00  0.00     0.000 C 
BRANCH  20  21
ATOM     21  C   UNL     1     -33.189   8.319  21.821  1.00  0.00     0.000 C 
BRANCH  21  22
ATOM     22  C   UNL     1     -34.516   8.130  22.583  1.00  0.00    -0.000 C 
BRANCH  22  23
ATOM     23  C   UNL     1     -34.685   6.769  23.278  1.00  0.00    -0.000 C 
BRANCH  23  24
ATOM     24  C   UNL     1     -34.120   6.756  24.708  1.00  0.00    -0.000 C 
BRANCH  24  25
ATOM     25  C   UNL     1     -34.363   8.077  25.461  1.00  0.00    -0.000 C 
BRANCH  25  26
ATOM     26  C   UNL     1     -33.292   8.443  26.509  1.00  0.00    -0.000 C 
BRANCH  26  27
ATOM     27  C   UNL     1     -33.194   9.942  26.851  1.00  0.00    -0.000 C 
BRANCH  27  28
ATOM     28  C   UNL     1     -34.158  10.850  26.066  1.00  0.00    -0.000 C 
BRANCH  28  29
ATOM     29  C   UNL     1     -33.438  11.745  25.048  1.00  0.00    -0.003 C 
ATOM     30  C   UNL     1     -34.417  12.309  24.023  1.00  0.00     0.004 C 
ENDBRANCH  28  29
ENDBRANCH  27  28
ENDBRANCH  26  27
ENDBRANCH  25  26
ENDBRANCH  24  25
ENDBRANCH  23  24
ENDBRANCH  22  23
ENDBRANCH  21  22
ENDBRANCH  20  21
ENDBRANCH  19  20
ENDBRANCH  18  19
ENDBRANCH  17  18
ENDBRANCH   1  17
TORSDOF 26
ENDMDL
