MODEL 1
REMARK VINA RESULT:    -3.968      0.000      0.000
REMARK INTER + INTRA:          -4.693
REMARK INTER:                  -4.548
REMARK INTRA:                  -0.145
REMARK UNBOUND:                -0.145
REMARK SMILES O=C([O-])C=Cc1ccc(O)cc1
REMARK SMILES IDX 6 1 7 2 12 3 8 4 11 5 9 6 5 7 4 8 2 9 1 10 3 11 10 12
REMARK H PARENT 10 13
REMARK Flexibility Score: inf
ROOT
ATOM      1  C   UNL     1      -3.403  85.809  -7.959  1.00  0.00    -0.025 A 
ATOM      2  C   UNL     1      -2.276  86.243  -7.240  1.00  0.00     0.012 A 
ATOM      3  C   UNL     1      -4.470  86.709  -8.156  1.00  0.00     0.012 A 
ATOM      4  C   UNL     1      -2.224  87.534  -6.707  1.00  0.00     0.047 A 
ATOM      5  C   UNL     1      -4.414  88.001  -7.622  1.00  0.00     0.047 A 
ATOM      6  C   UNL     1      -3.295  88.416  -6.896  1.00  0.00     0.115 A 
ENDROOT
BRANCH   1   7
ATOM      7  C   UNL     1      -3.405  84.432  -8.513  1.00  0.00     0.010 C 
ATOM      8  C   UNL     1      -3.120  83.339  -7.792  1.00  0.00     0.025 C 
BRANCH   8   9
ATOM      9  C   UNL     1      -3.122  81.993  -8.386  1.00  0.00     0.064 C 
ATOM     10  O   UNL     1      -3.454  81.846  -9.591  1.00  0.00    -0.545 OA
ATOM     11  O   UNL     1      -2.761  80.878  -7.638  1.00  0.00    -0.545 OA
ENDBRANCH   8   9
ENDBRANCH   1   7
BRANCH   6  12
ATOM     12  O   UNL     1      -3.256  89.705  -6.371  1.00  0.00    -0.508 OA
ATOM     13  H   UNL     1      -2.795  90.463  -6.862  1.00  0.00     0.293 HD
ENDBRANCH   6  12
TORSDOF 3
ENDMDL
MODEL 2
REMARK VINA RESULT:    -3.951      0.053      1.399
REMARK INTER + INTRA:          -4.674
REMARK INTER:                  -4.532
REMARK INTRA:                  -0.142
REMARK UNBOUND:                -0.145
REMARK SMILES O=C([O-])C=Cc1ccc(O)cc1
REMARK SMILES IDX 6 1 7 2 12 3 8 4 11 5 9 6 5 7 4 8 2 9 1 10 3 11 10 12
REMARK H PARENT 10 13
REMARK Flexibility Score: inf
ROOT
ATOM      1  C   UNL     1      -3.340  85.789  -7.934  1.00  0.00    -0.025 A 
ATOM      2  C   UNL     1      -4.433  86.652  -8.125  1.00  0.00     0.012 A 
ATOM      3  C   UNL     1      -2.233  86.249  -7.192  1.00  0.00     0.012 A 
ATOM      4  C   UNL     1      -4.412  87.952  -7.612  1.00  0.00     0.047 A 
ATOM      5  C   UNL     1      -2.217  87.551  -6.679  1.00  0.00     0.047 A 
ATOM      6  C   UNL     1      -3.302  88.405  -6.889  1.00  0.00     0.115 A 
ENDROOT
BRANCH   1   7
ATOM      7  C   UNL     1      -3.415  84.414  -8.490  1.00  0.00     0.010 C 
ATOM      8  C   UNL     1      -3.038  83.318  -7.818  1.00  0.00     0.025 C 
BRANCH   8   9
ATOM      9  C   UNL     1      -3.118  81.976  -8.413  1.00  0.00     0.064 C 
ATOM     10  O   UNL     1      -3.491  81.847  -9.608  1.00  0.00    -0.545 OA
ATOM     11  O   UNL     1      -2.784  80.844  -7.678  1.00  0.00    -0.545 OA
ENDBRANCH   8   9
ENDBRANCH   1   7
BRANCH   6  12
ATOM     12  O   UNL     1      -3.270  89.698  -6.372  1.00  0.00    -0.508 OA
ATOM     13  H   UNL     1      -2.524  90.343  -6.607  1.00  0.00     0.293 HD
ENDBRANCH   6  12
TORSDOF 3
ENDMDL
MODEL 3
REMARK VINA RESULT:    -3.921      3.586      6.066
REMARK INTER + INTRA:          -4.640
REMARK INTER:                  -4.494
REMARK INTRA:                  -0.146
REMARK UNBOUND:                -0.145
REMARK SMILES O=C([O-])C=Cc1ccc(O)cc1
REMARK SMILES IDX 6 1 7 2 12 3 8 4 11 5 9 6 5 7 4 8 2 9 1 10 3 11 10 12
REMARK H PARENT 10 13
REMARK Flexibility Score: inf
ROOT
ATOM      1  C   UNL     1      -5.475  84.895  -9.710  1.00  0.00    -0.025 A 
ATOM      2  C   UNL     1      -4.402  85.397  -8.954  1.00  0.00     0.012 A 
ATOM      3  C   UNL     1      -5.502  83.521 -10.024  1.00  0.00     0.012 A 
ATOM      4  C   UNL     1      -3.365  84.554  -8.543  1.00  0.00     0.047 A 
ATOM      5  C   UNL     1      -4.463  82.681  -9.610  1.00  0.00     0.047 A 
ATOM      6  C   UNL     1      -3.393  83.193  -8.872  1.00  0.00     0.115 A 
ENDROOT
BRANCH   1   7
ATOM      7  C   UNL     1      -6.557  85.830 -10.113  1.00  0.00     0.010 C 
ATOM      8  C   UNL     1      -6.340  87.086 -10.525  1.00  0.00     0.025 C 
BRANCH   8   9
ATOM      9  C   UNL     1      -7.443  87.981 -10.905  1.00  0.00     0.064 C 
ATOM     10  O   UNL     1      -8.360  88.223 -10.077  1.00  0.00    -0.545 OA
ATOM     11  O   UNL     1      -7.490  88.569 -12.164  1.00  0.00    -0.545 OA
ENDBRANCH   8   9
ENDBRANCH   1   7
BRANCH   6  12
ATOM     12  O   UNL     1      -2.367  82.343  -8.467  1.00  0.00    -0.508 OA
ATOM     13  H   UNL     1      -1.537  82.697  -8.005  1.00  0.00     0.293 HD
ENDBRANCH   6  12
TORSDOF 3
ENDMDL
MODEL 4
REMARK VINA RESULT:    -3.866      4.358      6.024
REMARK INTER + INTRA:          -4.576
REMARK INTER:                  -4.441
REMARK INTRA:                  -0.135
REMARK UNBOUND:                -0.145
REMARK SMILES O=C([O-])C=Cc1ccc(O)cc1
REMARK SMILES IDX 6 1 7 2 12 3 8 4 11 5 9 6 5 7 4 8 2 9 1 10 3 11 10 12
REMARK H PARENT 10 13
REMARK Flexibility Score: inf
ROOT
ATOM      1  C   UNL     1      -6.058  83.105  -8.933  1.00  0.00    -0.025 A 
ATOM      2  C   UNL     1      -5.190  82.770  -9.987  1.00  0.00     0.012 A 
ATOM      3  C   UNL     1      -5.536  83.199  -7.627  1.00  0.00     0.012 A 
ATOM      4  C   UNL     1      -3.839  82.510  -9.741  1.00  0.00     0.047 A 
ATOM      5  C   UNL     1      -4.183  82.939  -7.385  1.00  0.00     0.047 A 
ATOM      6  C   UNL     1      -3.332  82.592  -8.439  1.00  0.00     0.115 A 
ENDROOT
BRANCH   1   7
ATOM      7  C   UNL     1      -7.482  83.382  -9.248  1.00  0.00     0.010 C 
ATOM      8  C   UNL     1      -8.508  82.703  -8.716  1.00  0.00     0.025 C 
BRANCH   8   9
ATOM      9  C   UNL     1      -9.904  83.004  -9.065  1.00  0.00     0.064 C 
ATOM     10  O   UNL     1     -10.673  82.071  -9.416  1.00  0.00    -0.545 OA
ATOM     11  O   UNL     1     -10.393  84.305  -9.012  1.00  0.00    -0.545 OA
ENDBRANCH   8   9
ENDBRANCH   1   7
BRANCH   6  12
ATOM     12  O   UNL     1      -1.988  82.336  -8.181  1.00  0.00    -0.508 OA
ATOM     13  H   UNL     1      -1.581  82.514  -7.270  1.00  0.00     0.293 HD
ENDBRANCH   6  12
TORSDOF 3
ENDMDL
MODEL 5
REMARK VINA RESULT:    -3.821      1.753      6.127
REMARK INTER + INTRA:          -4.525
REMARK INTER:                  -4.371
REMARK INTRA:                  -0.154
REMARK UNBOUND:                -0.145
REMARK SMILES O=C([O-])C=Cc1ccc(O)cc1
REMARK SMILES IDX 6 1 7 2 12 3 8 4 11 5 9 6 5 7 4 8 2 9 1 10 3 11 10 12
REMARK H PARENT 10 13
REMARK Flexibility Score: inf
ROOT
ATOM      1  C   UNL     1      -4.205  85.904  -8.462  1.00  0.00    -0.025 A 
ATOM      2  C   UNL     1      -5.283  85.847  -9.362  1.00  0.00     0.012 A 
ATOM      3  C   UNL     1      -3.440  84.741  -8.243  1.00  0.00     0.012 A 
ATOM      4  C   UNL     1      -5.608  84.652 -10.009  1.00  0.00     0.047 A 
ATOM      5  C   UNL     1      -3.768  83.546  -8.894  1.00  0.00     0.047 A 
ATOM      6  C   UNL     1      -4.852  83.497  -9.775  1.00  0.00     0.115 A 
ENDROOT
BRANCH   1   7
ATOM      7  C   UNL     1      -3.895  87.201  -7.808  1.00  0.00     0.010 C 
ATOM      8  C   UNL     1      -4.532  88.346  -8.086  1.00  0.00     0.025 C 
BRANCH   8   9
ATOM      9  C   UNL     1      -4.183  89.611  -7.421  1.00  0.00     0.064 C 
ATOM     10  O   UNL     1      -3.701  89.590  -6.258  1.00  0.00    -0.545 OA
ATOM     11  O   UNL     1      -4.373  90.832  -8.057  1.00  0.00    -0.545 OA
ENDBRANCH   8   9
ENDBRANCH   1   7
BRANCH   6  12
ATOM     12  O   UNL     1      -5.165  82.300 -10.414  1.00  0.00    -0.508 OA
ATOM     13  H   UNL     1      -4.728  81.426 -10.144  1.00  0.00     0.293 HD
ENDBRANCH   6  12
TORSDOF 3
ENDMDL
MODEL 6
REMARK VINA RESULT:    -3.821      8.372     10.134
REMARK INTER + INTRA:          -4.525
REMARK INTER:                  -4.383
REMARK INTRA:                  -0.142
REMARK UNBOUND:                -0.145
REMARK SMILES O=C([O-])C=Cc1ccc(O)cc1
REMARK SMILES IDX 6 1 7 2 12 3 8 4 11 5 9 6 5 7 4 8 2 9 1 10 3 11 10 12
REMARK H PARENT 10 13
REMARK Flexibility Score: inf
ROOT
ATOM      1  C   UNL     1      -4.552  91.713 -13.053  1.00  0.00    -0.025 A 
ATOM      2  C   UNL     1      -5.133  90.438 -13.166  1.00  0.00     0.012 A 
ATOM      3  C   UNL     1      -4.076  92.349 -14.218  1.00  0.00     0.012 A 
ATOM      4  C   UNL     1      -5.213  89.800 -14.407  1.00  0.00     0.047 A 
ATOM      5  C   UNL     1      -4.160  91.707 -15.458  1.00  0.00     0.047 A 
ATOM      6  C   UNL     1      -4.725  90.433 -15.557  1.00  0.00     0.115 A 
ENDROOT
BRANCH   1   7
ATOM      7  C   UNL     1      -4.499  92.353 -11.714  1.00  0.00     0.010 C 
ATOM      8  C   UNL     1      -4.097  93.615 -11.508  1.00  0.00     0.025 C 
BRANCH   8   9
ATOM      9  C   UNL     1      -4.049  94.205 -10.161  1.00  0.00     0.064 C 
ATOM     10  O   UNL     1      -2.981  94.729  -9.750  1.00  0.00    -0.545 OA
ATOM     11  O   UNL     1      -5.167  94.197  -9.334  1.00  0.00    -0.545 OA
ENDBRANCH   8   9
ENDBRANCH   1   7
BRANCH   6  12
ATOM     12  O   UNL     1      -4.800  89.808 -16.798  1.00  0.00    -0.508 OA
ATOM     13  H   UNL     1      -4.659  88.809 -16.898  1.00  0.00     0.293 HD
ENDBRANCH   6  12
TORSDOF 3
ENDMDL
MODEL 7
REMARK VINA RESULT:    -3.770      8.344      9.405
REMARK INTER + INTRA:          -4.466
REMARK INTER:                  -4.333
REMARK INTRA:                  -0.133
REMARK UNBOUND:                -0.145
REMARK SMILES O=C([O-])C=Cc1ccc(O)cc1
REMARK SMILES IDX 6 1 7 2 12 3 8 4 11 5 9 6 5 7 4 8 2 9 1 10 3 11 10 12
REMARK H PARENT 10 13
REMARK Flexibility Score: inf
ROOT
ATOM      1  C   UNL     1      -5.932  89.653 -14.641  1.00  0.00    -0.025 A 
ATOM      2  C   UNL     1      -4.905  89.692 -13.682  1.00  0.00     0.012 A 
ATOM      3  C   UNL     1      -5.663  90.119 -15.944  1.00  0.00     0.012 A 
ATOM      4  C   UNL     1      -3.647  90.208 -14.006  1.00  0.00     0.047 A 
ATOM      5  C   UNL     1      -4.402  90.634 -16.265  1.00  0.00     0.047 A 
ATOM      6  C   UNL     1      -3.393  90.682 -15.299  1.00  0.00     0.115 A 
ENDROOT
BRANCH   1   7
ATOM      7  C   UNL     1      -7.248  89.086 -14.250  1.00  0.00     0.010 C 
ATOM      8  C   UNL     1      -8.229  89.803 -13.686  1.00  0.00     0.025 C 
BRANCH   8   9
ATOM      9  C   UNL     1      -9.513  89.197 -13.303  1.00  0.00     0.064 C 
ATOM     10  O   UNL     1      -9.788  89.039 -12.085  1.00  0.00    -0.545 OA
ATOM     11  O   UNL     1     -10.433  88.797 -14.266  1.00  0.00    -0.545 OA
ENDBRANCH   8   9
ENDBRANCH   1   7
BRANCH   6  12
ATOM     12  O   UNL     1      -2.144  91.197 -15.634  1.00  0.00    -0.508 OA
ATOM     13  H   UNL     1      -2.021  92.176 -15.869  1.00  0.00     0.293 HD
ENDBRANCH   6  12
TORSDOF 3
ENDMDL
MODEL 8
REMARK VINA RESULT:    -3.757      8.903      9.890
REMARK INTER + INTRA:          -4.451
REMARK INTER:                  -4.318
REMARK INTRA:                  -0.133
REMARK UNBOUND:                -0.145
REMARK SMILES O=C([O-])C=Cc1ccc(O)cc1
REMARK SMILES IDX 6 1 7 2 12 3 8 4 11 5 9 6 5 7 4 8 2 9 1 10 3 11 10 12
REMARK H PARENT 10 13
REMARK Flexibility Score: inf
ROOT
ATOM      1  C   UNL     1      -5.084  90.405 -15.603  1.00  0.00    -0.025 A 
ATOM      2  C   UNL     1      -3.827  90.696 -15.047  1.00  0.00     0.012 A 
ATOM      3  C   UNL     1      -5.446  91.015 -16.822  1.00  0.00     0.012 A 
ATOM      4  C   UNL     1      -2.960  91.594 -15.677  1.00  0.00     0.047 A 
ATOM      5  C   UNL     1      -4.575  91.912 -17.450  1.00  0.00     0.047 A 
ATOM      6  C   UNL     1      -3.333  92.206 -16.879  1.00  0.00     0.115 A 
ENDROOT
BRANCH   1   7
ATOM      7  C   UNL     1      -5.965  89.437 -14.901  1.00  0.00     0.010 C 
ATOM      8  C   UNL     1      -6.994  89.797 -14.122  1.00  0.00     0.025 C 
BRANCH   8   9
ATOM      9  C   UNL     1      -7.833  88.803 -13.436  1.00  0.00     0.064 C 
ATOM     10  O   UNL     1      -8.708  88.173 -14.085  1.00  0.00    -0.545 OA
ATOM     11  O   UNL     1      -7.675  88.545 -12.078  1.00  0.00    -0.545 OA
ENDBRANCH   8   9
ENDBRANCH   1   7
BRANCH   6  12
ATOM     12  O   UNL     1      -2.479  93.101 -17.517  1.00  0.00    -0.508 OA
ATOM     13  H   UNL     1      -1.700  93.529 -17.028  1.00  0.00     0.293 HD
ENDBRANCH   6  12
TORSDOF 3
ENDMDL
MODEL 9
REMARK VINA RESULT:    -3.636      7.906      9.442
REMARK INTER + INTRA:          -4.312
REMARK INTER:                  -4.162
REMARK INTRA:                  -0.150
REMARK UNBOUND:                -0.145
REMARK SMILES O=C([O-])C=Cc1ccc(O)cc1
REMARK SMILES IDX 6 1 7 2 12 3 8 4 11 5 9 6 5 7 4 8 2 9 1 10 3 11 10 12
REMARK H PARENT 10 13
REMARK Flexibility Score: inf
ROOT
ATOM      1  C   UNL     1      -5.684  89.784 -13.839  1.00  0.00    -0.025 A 
ATOM      2  C   UNL     1      -6.781  89.179 -14.476  1.00  0.00     0.012 A 
ATOM      3  C   UNL     1      -5.687  89.889 -12.433  1.00  0.00     0.012 A 
ATOM      4  C   UNL     1      -7.868  88.713 -13.731  1.00  0.00     0.047 A 
ATOM      5  C   UNL     1      -6.776  89.420 -11.692  1.00  0.00     0.047 A 
ATOM      6  C   UNL     1      -7.869  88.834 -12.336  1.00  0.00     0.115 A 
ENDROOT
BRANCH   1   7
ATOM      7  C   UNL     1      -4.550  90.255 -14.674  1.00  0.00     0.010 C 
ATOM      8  C   UNL     1      -4.657  90.553 -15.976  1.00  0.00     0.025 C 
BRANCH   8   9
ATOM      9  C   UNL     1      -3.503  91.004 -16.768  1.00  0.00     0.064 C 
ATOM     10  O   UNL     1      -3.655  91.283 -17.986  1.00  0.00    -0.545 OA
ATOM     11  O   UNL     1      -2.243  91.131 -16.193  1.00  0.00    -0.545 OA
ENDBRANCH   8   9
ENDBRANCH   1   7
BRANCH   6  12
ATOM     12  O   UNL     1      -8.945  88.372 -11.583  1.00  0.00    -0.508 OA
ATOM     13  H   UNL     1      -9.803  88.906 -11.504  1.00  0.00     0.293 HD
ENDBRANCH   6  12
TORSDOF 3
ENDMDL
