MODEL 1
REMARK VINA RESULT:    -4.042      0.000      0.000
REMARK INTER + INTRA:         -10.044
REMARK INTER:                  -8.768
REMARK INTRA:                  -1.276
REMARK UNBOUND:                -1.276
REMARK SMILES CCCCCCCCCCCCCCCCCCCCCC(=O)[O-]
REMARK SMILES IDX 12 1 11 2 10 3 9 4 8 5 7 6 6 7 5 8 4 9 3 10 2 11 1 12 13 13
REMARK SMILES IDX 14 14 15 15 16 16 17 17 18 18 19 19 20 20 21 21 22 22 23 23
REMARK SMILES IDX 24 24
REMARK H PARENT
REMARK Flexibility Score: inf
ROOT
ATOM      1  C   UNL     1      -7.504  -9.048   0.469  1.00  0.00     0.000 C 
ENDROOT
BRANCH   1   2
ATOM      2  C   UNL     1      -7.415  -7.643   1.092  1.00  0.00     0.000 C 
BRANCH   2   3
ATOM      3  C   UNL     1      -6.041  -6.988   0.877  1.00  0.00     0.000 C 
BRANCH   3   4
ATOM      4  C   UNL     1      -6.008  -6.080  -0.361  1.00  0.00    -0.000 C 
BRANCH   4   5
ATOM      5  C   UNL     1      -5.317  -4.748  -0.045  1.00  0.00    -0.000 C 
BRANCH   5   6
ATOM      6  C   UNL     1      -5.215  -4.524   1.469  1.00  0.00    -0.000 C 
BRANCH   6   7
ATOM      7  C   UNL     1      -6.283  -3.531   1.950  1.00  0.00    -0.000 C 
BRANCH   7   8
ATOM      8  C   UNL     1      -7.355  -4.197   2.827  1.00  0.00    -0.000 C 
BRANCH   8   9
ATOM      9  C   UNL     1      -8.771  -3.672   2.532  1.00  0.00    -0.000 C 
BRANCH   9  10
ATOM     10  C   UNL     1      -9.757  -4.793   2.158  1.00  0.00    -0.000 C 
BRANCH  10  11
ATOM     11  C   UNL     1     -10.961  -4.934   3.106  1.00  0.00    -0.003 C 
ATOM     12  C   UNL     1     -12.138  -4.040   2.716  1.00  0.00     0.004 C 
ENDBRANCH  10  11
ENDBRANCH   9  10
ENDBRANCH   8   9
ENDBRANCH   7   8
ENDBRANCH   6   7
ENDBRANCH   5   6
ENDBRANCH   4   5
ENDBRANCH   3   4
ENDBRANCH   2   3
ENDBRANCH   1   2
BRANCH   1  13
ATOM     13  C   UNL     1      -6.179  -9.821   0.567  1.00  0.00     0.000 C 
BRANCH  13  14
ATOM     14  C   UNL     1      -6.228 -11.172  -0.163  1.00  0.00     0.000 C 
BRANCH  14  15
ATOM     15  C   UNL     1      -5.895 -12.324   0.794  1.00  0.00     0.000 C 
BRANCH  15  16
ATOM     16  C   UNL     1      -5.396 -13.585   0.065  1.00  0.00     0.000 C 
BRANCH  16  17
ATOM     17  C   UNL     1      -5.268 -14.844   0.945  1.00  0.00     0.000 C 
BRANCH  17  18
ATOM     18  C   UNL     1      -6.493 -15.776   0.935  1.00  0.00     0.000 C 
BRANCH  18  19
ATOM     19  C   UNL     1      -6.195 -17.161   1.529  1.00  0.00     0.000 C 
BRANCH  19  20
ATOM     20  C   UNL     1      -6.609 -18.275   0.556  1.00  0.00     0.006 C 
BRANCH  20  21
ATOM     21  C   UNL     1      -5.426 -18.789  -0.274  1.00  0.00     0.053 C 
BRANCH  21  22
ATOM     22  C   UNL     1      -5.796 -19.998  -1.079  1.00  0.00     0.041 C 
ATOM     23  O   UNL     1      -5.252 -20.208  -2.195  1.00  0.00    -0.550 OA
ATOM     24  O   UNL     1      -6.761 -20.878  -0.607  1.00  0.00    -0.550 OA
ENDBRANCH  21  22
ENDBRANCH  20  21
ENDBRANCH  19  20
ENDBRANCH  18  19
ENDBRANCH  17  18
ENDBRANCH  16  17
ENDBRANCH  15  16
ENDBRANCH  14  15
ENDBRANCH  13  14
ENDBRANCH   1  13
TORSDOF 20
ENDMDL
MODEL 2
REMARK VINA RESULT:    -3.959      5.205     12.544
REMARK INTER + INTRA:          -9.865
REMARK INTER:                  -8.725
REMARK INTRA:                  -1.139
REMARK UNBOUND:                -1.276
REMARK SMILES CCCCCCCCCCCCCCCCCCCCCC(=O)[O-]
REMARK SMILES IDX 12 1 11 2 10 3 9 4 8 5 7 6 6 7 5 8 4 9 3 10 2 11 1 12 13 13
REMARK SMILES IDX 14 14 15 15 16 16 17 17 18 18 19 19 20 20 21 21 22 22 23 23
REMARK SMILES IDX 24 24
REMARK H PARENT
REMARK Flexibility Score: inf
ROOT
ATOM      1  C   UNL     1      -6.192 -11.152   1.353  1.00  0.00     0.000 C 
ENDROOT
BRANCH   1   2
ATOM      2  C   UNL     1      -5.592 -11.698   0.045  1.00  0.00     0.000 C 
BRANCH   2   3
ATOM      3  C   UNL     1      -5.898 -13.189  -0.168  1.00  0.00     0.000 C 
BRANCH   3   4
ATOM      4  C   UNL     1      -6.448 -13.865   1.097  1.00  0.00    -0.000 C 
BRANCH   4   5
ATOM      5  C   UNL     1      -6.547 -15.384   0.907  1.00  0.00    -0.000 C 
BRANCH   5   6
ATOM      6  C   UNL     1      -5.327 -16.096   1.503  1.00  0.00    -0.000 C 
BRANCH   6   7
ATOM      7  C   UNL     1      -4.951 -17.331   0.671  1.00  0.00    -0.000 C 
BRANCH   7   8
ATOM      8  C   UNL     1      -6.106 -18.338   0.554  1.00  0.00    -0.000 C 
BRANCH   8   9
ATOM      9  C   UNL     1      -5.639 -19.719   0.064  1.00  0.00    -0.000 C 
BRANCH   9  10
ATOM     10  C   UNL     1      -5.347 -19.749  -1.447  1.00  0.00    -0.000 C 
BRANCH  10  11
ATOM     11  C   UNL     1      -5.837 -21.014  -2.174  1.00  0.00    -0.003 C 
ATOM     12  C   UNL     1      -5.311 -21.125  -3.604  1.00  0.00     0.004 C 
ENDBRANCH  10  11
ENDBRANCH   9  10
ENDBRANCH   8   9
ENDBRANCH   7   8
ENDBRANCH   6   7
ENDBRANCH   5   6
ENDBRANCH   4   5
ENDBRANCH   3   4
ENDBRANCH   2   3
ENDBRANCH   1   2
BRANCH   1  13
ATOM     13  C   UNL     1      -6.466  -9.640   1.289  1.00  0.00     0.000 C 
BRANCH  13  14
ATOM     14  C   UNL     1      -7.488  -9.271   0.203  1.00  0.00     0.000 C 
BRANCH  14  15
ATOM     15  C   UNL     1      -7.215  -7.865  -0.350  1.00  0.00     0.000 C 
BRANCH  15  16
ATOM     16  C   UNL     1      -6.279  -7.039   0.549  1.00  0.00     0.000 C 
BRANCH  16  17
ATOM     17  C   UNL     1      -6.172  -5.544   0.187  1.00  0.00     0.000 C 
BRANCH  17  18
ATOM     18  C   UNL     1      -5.433  -4.672   1.218  1.00  0.00     0.000 C 
BRANCH  18  19
ATOM     19  C   UNL     1      -6.174  -4.577   2.560  1.00  0.00     0.000 C 
BRANCH  19  20
ATOM     20  C   UNL     1      -7.529  -3.873   2.388  1.00  0.00     0.006 C 
BRANCH  20  21
ATOM     21  C   UNL     1      -8.708  -4.794   2.726  1.00  0.00     0.053 C 
BRANCH  21  22
ATOM     22  C   UNL     1     -10.012  -4.219   2.263  1.00  0.00     0.041 C 
ATOM     23  O   UNL     1     -10.890  -4.966   1.756  1.00  0.00    -0.550 OA
ATOM     24  O   UNL     1     -10.246  -2.854   2.367  1.00  0.00    -0.550 OA
ENDBRANCH  21  22
ENDBRANCH  20  21
ENDBRANCH  19  20
ENDBRANCH  18  19
ENDBRANCH  17  18
ENDBRANCH  16  17
ENDBRANCH  15  16
ENDBRANCH  14  15
ENDBRANCH  13  14
ENDBRANCH   1  13
TORSDOF 20
ENDMDL
MODEL 3
REMARK VINA RESULT:    -3.495     21.271     23.561
REMARK INTER + INTRA:          -8.858
REMARK INTER:                  -5.765
REMARK INTRA:                  -3.093
REMARK UNBOUND:                -1.276
REMARK SMILES CCCCCCCCCCCCCCCCCCCCCC(=O)[O-]
REMARK SMILES IDX 12 1 11 2 10 3 9 4 8 5 7 6 6 7 5 8 4 9 3 10 2 11 1 12 13 13
REMARK SMILES IDX 14 14 15 15 16 16 17 17 18 18 19 19 20 20 21 21 22 22 23 23
REMARK SMILES IDX 24 24
REMARK H PARENT
REMARK Flexibility Score: inf
ROOT
ATOM      1  C   UNL     1     -20.651  -6.957 -12.857  1.00  0.00     0.000 C 
ENDROOT
BRANCH   1   2
ATOM      2  C   UNL     1     -20.956  -5.449 -12.793  1.00  0.00     0.000 C 
BRANCH   2   3
ATOM      3  C   UNL     1     -22.362  -5.108 -13.311  1.00  0.00     0.000 C 
BRANCH   3   4
ATOM      4  C   UNL     1     -23.082  -4.076 -12.430  1.00  0.00    -0.000 C 
BRANCH   4   5
ATOM      5  C   UNL     1     -24.567  -3.981 -12.802  1.00  0.00    -0.000 C 
BRANCH   5   6
ATOM      6  C   UNL     1     -24.871  -2.665 -13.528  1.00  0.00    -0.000 C 
BRANCH   6   7
ATOM      7  C   UNL     1     -24.515  -2.766 -15.019  1.00  0.00    -0.000 C 
BRANCH   7   8
ATOM      8  C   UNL     1     -23.593  -1.628 -15.484  1.00  0.00    -0.000 C 
BRANCH   8   9
ATOM      9  C   UNL     1     -22.922  -0.893 -14.310  1.00  0.00    -0.000 C 
BRANCH   9  10
ATOM     10  C   UNL     1     -21.434  -1.255 -14.151  1.00  0.00    -0.000 C 
BRANCH  10  11
ATOM     11  C   UNL     1     -20.939  -2.367 -15.093  1.00  0.00    -0.003 C 
ATOM     12  C   UNL     1     -19.649  -1.999 -15.826  1.00  0.00     0.004 C 
ENDBRANCH  10  11
ENDBRANCH   9  10
ENDBRANCH   8   9
ENDBRANCH   7   8
ENDBRANCH   6   7
ENDBRANCH   5   6
ENDBRANCH   4   5
ENDBRANCH   3   4
ENDBRANCH   2   3
ENDBRANCH   1   2
BRANCH   1  13
ATOM     13  C   UNL     1     -19.996  -7.370 -14.185  1.00  0.00     0.000 C 
BRANCH  13  14
ATOM     14  C   UNL     1     -20.004  -6.238 -15.225  1.00  0.00     0.000 C 
BRANCH  14  15
ATOM     15  C   UNL     1     -20.895  -6.600 -16.422  1.00  0.00     0.000 C 
BRANCH  15  16
ATOM     16  C   UNL     1     -21.651  -5.389 -16.994  1.00  0.00     0.000 C 
BRANCH  16  17
ATOM     17  C   UNL     1     -23.189  -5.491 -16.943  1.00  0.00     0.000 C 
BRANCH  17  18
ATOM     18  C   UNL     1     -23.739  -6.660 -16.106  1.00  0.00     0.000 C 
BRANCH  18  19
ATOM     19  C   UNL     1     -25.122  -7.134 -16.578  1.00  0.00     0.000 C 
BRANCH  19  20
ATOM     20  C   UNL     1     -25.122  -8.647 -16.840  1.00  0.00     0.006 C 
BRANCH  20  21
ATOM     21  C   UNL     1     -23.705  -9.235 -16.847  1.00  0.00     0.053 C 
BRANCH  21  22
ATOM     22  C   UNL     1     -23.710 -10.700 -16.532  1.00  0.00     0.041 C 
ATOM     23  O   UNL     1     -22.840 -11.459 -17.033  1.00  0.00    -0.550 OA
ATOM     24  O   UNL     1     -24.692 -11.231 -15.707  1.00  0.00    -0.550 OA
ENDBRANCH  21  22
ENDBRANCH  20  21
ENDBRANCH  19  20
ENDBRANCH  18  19
ENDBRANCH  17  18
ENDBRANCH  16  17
ENDBRANCH  15  16
ENDBRANCH  14  15
ENDBRANCH  13  14
ENDBRANCH   1  13
TORSDOF 20
ENDMDL
MODEL 4
REMARK VINA RESULT:    -2.963     21.729     24.938
REMARK INTER + INTRA:          -7.704
REMARK INTER:                  -4.975
REMARK INTRA:                  -2.729
REMARK UNBOUND:                -1.276
REMARK SMILES CCCCCCCCCCCCCCCCCCCCCC(=O)[O-]
REMARK SMILES IDX 12 1 11 2 10 3 9 4 8 5 7 6 6 7 5 8 4 9 3 10 2 11 1 12 13 13
REMARK SMILES IDX 14 14 15 15 16 16 17 17 18 18 19 19 20 20 21 21 22 22 23 23
REMARK SMILES IDX 24 24
REMARK H PARENT
REMARK Flexibility Score: inf
ROOT
ATOM      1  C   UNL     1     -20.526  -5.493 -13.721  1.00  0.00     0.000 C 
ENDROOT
BRANCH   1   2
ATOM      2  C   UNL     1     -21.452  -6.345 -14.609  1.00  0.00     0.000 C 
BRANCH   2   3
ATOM      3  C   UNL     1     -20.938  -6.468 -16.051  1.00  0.00     0.000 C 
BRANCH   3   4
ATOM      4  C   UNL     1     -21.737  -5.604 -17.038  1.00  0.00    -0.000 C 
BRANCH   4   5
ATOM      5  C   UNL     1     -22.835  -4.817 -16.312  1.00  0.00    -0.000 C 
BRANCH   5   6
ATOM      6  C   UNL     1     -24.200  -5.033 -16.976  1.00  0.00    -0.000 C 
BRANCH   6   7
ATOM      7  C   UNL     1     -24.980  -6.155 -16.275  1.00  0.00    -0.000 C 
BRANCH   7   8
ATOM      8  C   UNL     1     -25.066  -7.433 -17.123  1.00  0.00    -0.000 C 
BRANCH   8   9
ATOM      9  C   UNL     1     -23.868  -8.373 -16.899  1.00  0.00    -0.000 C 
BRANCH   9  10
ATOM     10  C   UNL     1     -24.278  -9.855 -16.827  1.00  0.00    -0.000 C 
BRANCH  10  11
ATOM     11  C   UNL     1     -23.148 -10.816 -16.419  1.00  0.00    -0.003 C 
ATOM     12  C   UNL     1     -23.430 -12.269 -16.801  1.00  0.00     0.004 C 
ENDBRANCH  10  11
ENDBRANCH   9  10
ENDBRANCH   8   9
ENDBRANCH   7   8
ENDBRANCH   6   7
ENDBRANCH   5   6
ENDBRANCH   4   5
ENDBRANCH   3   4
ENDBRANCH   2   3
ENDBRANCH   1   2
BRANCH   1  13
ATOM     13  C   UNL     1     -21.305  -4.636 -12.710  1.00  0.00     0.000 C 
BRANCH  13  14
ATOM     14  C   UNL     1     -22.677  -5.233 -12.363  1.00  0.00     0.000 C 
BRANCH  14  15
ATOM     15  C   UNL     1     -23.808  -4.412 -12.999  1.00  0.00     0.000 C 
BRANCH  15  16
ATOM     16  C   UNL     1     -23.576  -2.894 -12.901  1.00  0.00     0.000 C 
BRANCH  16  17
ATOM     17  C   UNL     1     -24.389  -2.040 -13.894  1.00  0.00     0.000 C 
BRANCH  17  18
ATOM     18  C   UNL     1     -23.674  -1.720 -15.219  1.00  0.00     0.000 C 
BRANCH  18  19
ATOM     19  C   UNL     1     -22.406  -0.877 -15.025  1.00  0.00     0.000 C 
BRANCH  19  20
ATOM     20  C   UNL     1     -21.147  -1.753 -15.115  1.00  0.00     0.006 C 
BRANCH  20  21
ATOM     21  C   UNL     1     -20.204  -1.300 -16.236  1.00  0.00     0.053 C 
BRANCH  21  22
ATOM     22  C   UNL     1     -18.970  -2.148 -16.300  1.00  0.00     0.041 C 
ATOM     23  O   UNL     1     -17.850  -1.621 -16.528  1.00  0.00    -0.550 OA
ATOM     24  O   UNL     1     -19.062  -3.524 -16.135  1.00  0.00    -0.550 OA
ENDBRANCH  21  22
ENDBRANCH  20  21
ENDBRANCH  19  20
ENDBRANCH  18  19
ENDBRANCH  17  18
ENDBRANCH  16  17
ENDBRANCH  15  16
ENDBRANCH  14  15
ENDBRANCH  13  14
ENDBRANCH   1  13
TORSDOF 20
ENDMDL
MODEL 5
REMARK VINA RESULT:    -2.482     20.918     23.246
REMARK INTER + INTRA:          -6.661
REMARK INTER:                  -4.359
REMARK INTRA:                  -2.302
REMARK UNBOUND:                -1.276
REMARK SMILES CCCCCCCCCCCCCCCCCCCCCC(=O)[O-]
REMARK SMILES IDX 12 1 11 2 10 3 9 4 8 5 7 6 6 7 5 8 4 9 3 10 2 11 1 12 13 13
REMARK SMILES IDX 14 14 15 15 16 16 17 17 18 18 19 19 20 20 21 21 22 22 23 23
REMARK SMILES IDX 24 24
REMARK H PARENT
REMARK Flexibility Score: inf
ROOT
ATOM      1  C   UNL     1     -19.783  -4.576 -16.359  1.00  0.00     0.000 C 
ENDROOT
BRANCH   1   2
ATOM      2  C   UNL     1     -19.552  -3.254 -17.113  1.00  0.00     0.000 C 
BRANCH   2   3
ATOM      3  C   UNL     1     -19.072  -2.123 -16.190  1.00  0.00     0.000 C 
BRANCH   3   4
ATOM      4  C   UNL     1     -19.963  -0.875 -16.272  1.00  0.00    -0.000 C 
BRANCH   4   5
ATOM      5  C   UNL     1     -21.349  -1.228 -16.827  1.00  0.00    -0.000 C 
BRANCH   5   6
ATOM      6  C   UNL     1     -22.406  -1.224 -15.716  1.00  0.00    -0.000 C 
BRANCH   6   7
ATOM      7  C   UNL     1     -23.809  -1.464 -16.293  1.00  0.00    -0.000 C 
BRANCH   7   8
ATOM      8  C   UNL     1     -24.907  -1.403 -15.219  1.00  0.00    -0.000 C 
BRANCH   8   9
ATOM      9  C   UNL     1     -24.383  -0.889 -13.866  1.00  0.00    -0.000 C 
BRANCH   9  10
ATOM     10  C   UNL     1     -24.420  -1.964 -12.765  1.00  0.00    -0.000 C 
BRANCH  10  11
ATOM     11  C   UNL     1     -24.143  -1.440 -11.344  1.00  0.00    -0.003 C 
ATOM     12  C   UNL     1     -22.657  -1.214 -11.069  1.00  0.00     0.004 C 
ENDBRANCH  10  11
ENDBRANCH   9  10
ENDBRANCH   8   9
ENDBRANCH   7   8
ENDBRANCH   6   7
ENDBRANCH   5   6
ENDBRANCH   4   5
ENDBRANCH   3   4
ENDBRANCH   2   3
ENDBRANCH   1   2
BRANCH   1  13
ATOM     13  C   UNL     1     -20.889  -5.433 -16.996  1.00  0.00     0.000 C 
BRANCH  13  14
ATOM     14  C   UNL     1     -22.299  -4.920 -16.665  1.00  0.00     0.000 C 
BRANCH  14  15
ATOM     15  C   UNL     1     -23.312  -6.074 -16.656  1.00  0.00     0.000 C 
BRANCH  15  16
ATOM     16  C   UNL     1     -22.646  -7.457 -16.553  1.00  0.00     0.000 C 
BRANCH  16  17
ATOM     17  C   UNL     1     -22.176  -7.856 -15.140  1.00  0.00     0.000 C 
BRANCH  17  18
ATOM     18  C   UNL     1     -20.656  -7.779 -14.910  1.00  0.00     0.000 C 
BRANCH  18  19
ATOM     19  C   UNL     1     -20.248  -8.176 -13.483  1.00  0.00     0.000 C 
BRANCH  19  20
ATOM     20  C   UNL     1     -20.701  -7.115 -12.469  1.00  0.00     0.006 C 
BRANCH  20  21
ATOM     21  C   UNL     1     -20.247  -5.704 -12.863  1.00  0.00     0.053 C 
BRANCH  21  22
ATOM     22  C   UNL     1     -21.410  -4.777 -13.046  1.00  0.00     0.041 C 
ATOM     23  O   UNL     1     -21.226  -3.605 -13.467  1.00  0.00    -0.550 OA
ATOM     24  O   UNL     1     -22.693  -5.200 -12.724  1.00  0.00    -0.550 OA
ENDBRANCH  21  22
ENDBRANCH  20  21
ENDBRANCH  19  20
ENDBRANCH  18  19
ENDBRANCH  17  18
ENDBRANCH  16  17
ENDBRANCH  15  16
ENDBRANCH  14  15
ENDBRANCH  13  14
ENDBRANCH   1  13
TORSDOF 20
ENDMDL
MODEL 6
REMARK VINA RESULT:    -2.414     21.830     25.069
REMARK INTER + INTRA:          -6.512
REMARK INTER:                  -4.890
REMARK INTRA:                  -1.623
REMARK UNBOUND:                -1.276
REMARK SMILES CCCCCCCCCCCCCCCCCCCCCC(=O)[O-]
REMARK SMILES IDX 12 1 11 2 10 3 9 4 8 5 7 6 6 7 5 8 4 9 3 10 2 11 1 12 13 13
REMARK SMILES IDX 14 14 15 15 16 16 17 17 18 18 19 19 20 20 21 21 22 22 23 23
REMARK SMILES IDX 24 24
REMARK H PARENT
REMARK Flexibility Score: inf
ROOT
ATOM      1  C   UNL     1     -20.139  -7.362 -13.351  1.00  0.00     0.000 C 
ENDROOT
BRANCH   1   2
ATOM      2  C   UNL     1     -20.557  -7.605 -14.813  1.00  0.00     0.000 C 
BRANCH   2   3
ATOM      3  C   UNL     1     -20.700  -6.300 -15.611  1.00  0.00     0.000 C 
BRANCH   3   4
ATOM      4  C   UNL     1     -21.949  -6.288 -16.505  1.00  0.00    -0.000 C 
BRANCH   4   5
ATOM      5  C   UNL     1     -22.682  -4.945 -16.404  1.00  0.00    -0.000 C 
BRANCH   5   6
ATOM      6  C   UNL     1     -24.199  -5.149 -16.314  1.00  0.00    -0.000 C 
BRANCH   6   7
ATOM      7  C   UNL     1     -24.536  -6.593 -15.912  1.00  0.00    -0.000 C 
BRANCH   7   8
ATOM      8  C   UNL     1     -24.834  -7.488 -17.125  1.00  0.00    -0.000 C 
BRANCH   8   9
ATOM      9  C   UNL     1     -24.233  -8.898 -16.982  1.00  0.00    -0.000 C 
BRANCH   9  10
ATOM     10  C   UNL     1     -25.083  -9.822 -16.093  1.00  0.00    -0.000 C 
BRANCH  10  11
ATOM     11  C   UNL     1     -24.905 -11.325 -16.371  1.00  0.00    -0.003 C 
ATOM     12  C   UNL     1     -23.440 -11.739 -16.510  1.00  0.00     0.004 C 
ENDBRANCH  10  11
ENDBRANCH   9  10
ENDBRANCH   8   9
ENDBRANCH   7   8
ENDBRANCH   6   7
ENDBRANCH   5   6
ENDBRANCH   4   5
ENDBRANCH   3   4
ENDBRANCH   2   3
ENDBRANCH   1   2
BRANCH   1  13
ATOM     13  C   UNL     1     -20.761  -6.085 -12.765  1.00  0.00     0.000 C 
BRANCH  13  14
ATOM     14  C   UNL     1     -19.863  -4.852 -12.949  1.00  0.00     0.000 C 
BRANCH  14  15
ATOM     15  C   UNL     1     -20.684  -3.639 -13.410  1.00  0.00     0.000 C 
BRANCH  15  16
ATOM     16  C   UNL     1     -21.917  -3.380 -12.526  1.00  0.00     0.000 C 
BRANCH  16  17
ATOM     17  C   UNL     1     -22.207  -1.896 -12.223  1.00  0.00     0.000 C 
BRANCH  17  18
ATOM     18  C   UNL     1     -23.475  -1.634 -11.391  1.00  0.00     0.000 C 
BRANCH  18  19
ATOM     19  C   UNL     1     -24.764  -2.035 -12.123  1.00  0.00     0.000 C 
BRANCH  19  20
ATOM     20  C   UNL     1     -24.994  -1.144 -13.354  1.00  0.00     0.006 C 
BRANCH  20  21
ATOM     21  C   UNL     1     -25.088  -1.958 -14.650  1.00  0.00     0.053 C 
BRANCH  21  22
ATOM     22  C   UNL     1     -24.175  -1.422 -15.710  1.00  0.00     0.041 C 
ATOM     23  O   UNL     1     -24.651  -0.931 -16.768  1.00  0.00    -0.550 OA
ATOM     24  O   UNL     1     -22.799  -1.491 -15.542  1.00  0.00    -0.550 OA
ENDBRANCH  21  22
ENDBRANCH  20  21
ENDBRANCH  19  20
ENDBRANCH  18  19
ENDBRANCH  17  18
ENDBRANCH  16  17
ENDBRANCH  15  16
ENDBRANCH  14  15
ENDBRANCH  13  14
ENDBRANCH   1  13
TORSDOF 20
ENDMDL
