MODEL 1
REMARK VINA RESULT:    16.432      0.000      0.000
REMARK INTER + INTRA:          40.307
REMARK INTER:                  41.407
REMARK INTRA:                  -1.100
REMARK UNBOUND:                -1.100
REMARK SMILES CCCCCCCCCCCCCCCCCCCCCCCCCCCC(=O)[O-]
REMARK SMILES IDX 15 1 16 2 17 3 18 4 19 5 20 6 21 7 22 8 23 9 24 10 25 11
REMARK SMILES IDX 26 12 27 13 28 14 29 15 30 16 14 17 13 18 12 19 11 20 10 21
REMARK SMILES IDX 9 22 8 23 7 24 6 25 5 26 4 27 3 28 2 29 1 30
REMARK H PARENT
REMARK Flexibility Score: inf
ROOT
ATOM      1  C   UNL     1      10.100 -29.946 -11.532  1.00  0.00     0.000 C 
ENDROOT
BRANCH   1   2
ATOM      2  C   UNL     1       9.989 -29.756 -10.003  1.00  0.00     0.000 C 
BRANCH   2   3
ATOM      3  C   UNL     1       9.113 -28.572  -9.545  1.00  0.00     0.000 C 
BRANCH   3   4
ATOM      4  C   UNL     1       9.878 -27.265  -9.272  1.00  0.00     0.000 C 
BRANCH   4   5
ATOM      5  C   UNL     1       8.976 -26.021  -9.301  1.00  0.00     0.000 C 
BRANCH   5   6
ATOM      6  C   UNL     1       8.726 -25.520  -7.874  1.00  0.00     0.000 C 
BRANCH   6   7
ATOM      7  C   UNL     1       8.436 -24.012  -7.807  1.00  0.00     0.000 C 
BRANCH   7   8
ATOM      8  C   UNL     1       7.937 -23.500  -6.440  1.00  0.00     0.000 C 
BRANCH   8   9
ATOM      9  C   UNL     1       7.091 -24.500  -5.632  1.00  0.00     0.000 C 
BRANCH   9  10
ATOM     10  C   UNL     1       7.816 -25.050  -4.397  1.00  0.00     0.000 C 
BRANCH  10  11
ATOM     11  C   UNL     1       9.293 -24.639  -4.412  1.00  0.00     0.000 C 
BRANCH  11  12
ATOM     12  C   UNL     1      10.215 -25.856  -4.529  1.00  0.00     0.006 C 
BRANCH  12  13
ATOM     13  C   UNL     1      11.550 -25.460  -5.172  1.00  0.00     0.053 C 
BRANCH  13  14
ATOM     14  C   UNL     1      12.582 -26.534  -4.994  1.00  0.00     0.041 C 
ATOM     15  O   UNL     1      13.632 -26.521  -5.694  1.00  0.00    -0.550 OA
ATOM     16  O   UNL     1      12.317 -27.629  -4.185  1.00  0.00    -0.550 OA
ENDBRANCH  13  14
ENDBRANCH  12  13
ENDBRANCH  11  12
ENDBRANCH  10  11
ENDBRANCH   9  10
ENDBRANCH   8   9
ENDBRANCH   7   8
ENDBRANCH   6   7
ENDBRANCH   5   6
ENDBRANCH   4   5
ENDBRANCH   3   4
ENDBRANCH   2   3
ENDBRANCH   1   2
BRANCH   1  17
ATOM     17  C   UNL     1       8.766 -30.272 -12.224  1.00  0.00     0.000 C 
BRANCH  17  18
ATOM     18  C   UNL     1       8.811 -30.034 -13.754  1.00  0.00     0.000 C 
BRANCH  18  19
ATOM     19  C   UNL     1       9.813 -30.962 -14.455  1.00  0.00     0.000 C 
BRANCH  19  20
ATOM     20  C   UNL     1       9.126 -32.110 -15.229  1.00  0.00     0.000 C 
BRANCH  20  21
ATOM     21  C   UNL     1       9.268 -31.978 -16.762  1.00  0.00     0.000 C 
BRANCH  21  22
ATOM     22  C   UNL     1       9.929 -30.668 -17.224  1.00  0.00    -0.000 C 
BRANCH  22  23
ATOM     23  C   UNL     1       8.932 -29.666 -17.836  1.00  0.00    -0.000 C 
BRANCH  23  24
ATOM     24  C   UNL     1       7.873 -29.199 -16.816  1.00  0.00    -0.000 C 
BRANCH  24  25
ATOM     25  C   UNL     1       6.560 -28.731 -17.470  1.00  0.00    -0.000 C 
BRANCH  25  26
ATOM     26  C   UNL     1       6.777 -28.074 -18.844  1.00  0.00    -0.000 C 
BRANCH  26  27
ATOM     27  C   UNL     1       6.063 -28.846 -19.974  1.00  0.00    -0.000 C 
BRANCH  27  28
ATOM     28  C   UNL     1       6.858 -28.909 -21.296  1.00  0.00    -0.000 C 
BRANCH  28  29
ATOM     29  C   UNL     1       7.840 -30.096 -21.388  1.00  0.00    -0.003 C 
ATOM     30  C   UNL     1       9.132 -29.852 -20.605  1.00  0.00     0.004 C 
ENDBRANCH  28  29
ENDBRANCH  27  28
ENDBRANCH  26  27
ENDBRANCH  25  26
ENDBRANCH  24  25
ENDBRANCH  23  24
ENDBRANCH  22  23
ENDBRANCH  21  22
ENDBRANCH  20  21
ENDBRANCH  19  20
ENDBRANCH  18  19
ENDBRANCH  17  18
ENDBRANCH   1  17
TORSDOF 26
ENDMDL
MODEL 2
REMARK VINA RESULT:    16.498      3.612     12.194
REMARK INTER + INTRA:          40.474
REMARK INTER:                  39.617
REMARK INTRA:                   0.856
REMARK UNBOUND:                -1.100
REMARK SMILES CCCCCCCCCCCCCCCCCCCCCCCCCCCC(=O)[O-]
REMARK SMILES IDX 15 1 16 2 17 3 18 4 19 5 20 6 21 7 22 8 23 9 24 10 25 11
REMARK SMILES IDX 26 12 27 13 28 14 29 15 30 16 14 17 13 18 12 19 11 20 10 21
REMARK SMILES IDX 9 22 8 23 7 24 6 25 5 26 4 27 3 28 2 29 1 30
REMARK H PARENT
REMARK Flexibility Score: inf
ROOT
ATOM      1  C   UNL     1       8.741 -29.888 -12.081  1.00  0.00     0.000 C 
ENDROOT
BRANCH   1   2
ATOM      2  C   UNL     1       7.749 -29.581 -13.223  1.00  0.00     0.000 C 
BRANCH   2   3
ATOM      3  C   UNL     1       8.371 -29.472 -14.630  1.00  0.00     0.000 C 
BRANCH   3   4
ATOM      4  C   UNL     1       7.740 -28.403 -15.540  1.00  0.00     0.000 C 
BRANCH   4   5
ATOM      5  C   UNL     1       6.724 -28.982 -16.537  1.00  0.00     0.000 C 
BRANCH   5   6
ATOM      6  C   UNL     1       6.678 -28.117 -17.802  1.00  0.00     0.000 C 
BRANCH   6   7
ATOM      7  C   UNL     1       6.233 -28.898 -19.049  1.00  0.00     0.000 C 
BRANCH   7   8
ATOM      8  C   UNL     1       7.001 -28.558 -20.343  1.00  0.00     0.000 C 
BRANCH   8   9
ATOM      9  C   UNL     1       8.021 -29.616 -20.800  1.00  0.00     0.000 C 
BRANCH   9  10
ATOM     10  C   UNL     1       9.244 -29.716 -19.881  1.00  0.00     0.000 C 
BRANCH  10  11
ATOM     11  C   UNL     1       8.839 -30.241 -18.499  1.00  0.00     0.000 C 
BRANCH  11  12
ATOM     12  C   UNL     1      10.043 -30.349 -17.561  1.00  0.00     0.006 C 
BRANCH  12  13
ATOM     13  C   UNL     1       9.646 -31.038 -16.250  1.00  0.00     0.053 C 
BRANCH  13  14
ATOM     14  C   UNL     1       9.389 -32.501 -16.457  1.00  0.00     0.041 C 
ATOM     15  O   UNL     1       9.601 -33.024 -17.585  1.00  0.00    -0.550 OA
ATOM     16  O   UNL     1       8.768 -33.247 -15.466  1.00  0.00    -0.550 OA
ENDBRANCH  13  14
ENDBRANCH  12  13
ENDBRANCH  11  12
ENDBRANCH  10  11
ENDBRANCH   9  10
ENDBRANCH   8   9
ENDBRANCH   7   8
ENDBRANCH   6   7
ENDBRANCH   5   6
ENDBRANCH   4   5
ENDBRANCH   3   4
ENDBRANCH   2   3
ENDBRANCH   1   2
BRANCH   1  17
ATOM     17  C   UNL     1       8.274 -29.410 -10.695  1.00  0.00     0.000 C 
BRANCH  17  18
ATOM     18  C   UNL     1       9.400 -29.457  -9.633  1.00  0.00     0.000 C 
BRANCH  18  19
ATOM     19  C   UNL     1       9.312 -28.286  -8.644  1.00  0.00     0.000 C 
BRANCH  19  20
ATOM     20  C   UNL     1       9.747 -26.941  -9.267  1.00  0.00     0.000 C 
BRANCH  20  21
ATOM     21  C   UNL     1       8.630 -25.875  -9.251  1.00  0.00     0.000 C 
BRANCH  21  22
ATOM     22  C   UNL     1       8.699 -24.906  -8.058  1.00  0.00    -0.000 C 
BRANCH  22  23
ATOM     23  C   UNL     1       7.577 -25.130  -7.026  1.00  0.00    -0.000 C 
BRANCH  23  24
ATOM     24  C   UNL     1       7.424 -23.937  -6.061  1.00  0.00    -0.000 C 
BRANCH  24  25
ATOM     25  C   UNL     1       8.154 -24.138  -4.720  1.00  0.00    -0.000 C 
BRANCH  25  26
ATOM     26  C   UNL     1       8.841 -25.510  -4.614  1.00  0.00    -0.000 C 
BRANCH  26  27
ATOM     27  C   UNL     1      10.379 -25.397  -4.697  1.00  0.00    -0.000 C 
BRANCH  27  28
ATOM     28  C   UNL     1      11.120 -26.746  -4.580  1.00  0.00    -0.000 C 
BRANCH  28  29
ATOM     29  C   UNL     1      12.630 -26.668  -4.885  1.00  0.00    -0.003 C 
ATOM     30  C   UNL     1      13.372 -27.955  -4.518  1.00  0.00     0.004 C 
ENDBRANCH  28  29
ENDBRANCH  27  28
ENDBRANCH  26  27
ENDBRANCH  25  26
ENDBRANCH  24  25
ENDBRANCH  23  24
ENDBRANCH  22  23
ENDBRANCH  21  22
ENDBRANCH  20  21
ENDBRANCH  19  20
ENDBRANCH  18  19
ENDBRANCH  17  18
ENDBRANCH   1  17
TORSDOF 26
ENDMDL
MODEL 3
REMARK VINA RESULT:    16.506      4.696     12.795
REMARK INTER + INTRA:          40.495
REMARK INTER:                  41.727
REMARK INTRA:                  -1.232
REMARK UNBOUND:                -1.100
REMARK SMILES CCCCCCCCCCCCCCCCCCCCCCCCCCCC(=O)[O-]
REMARK SMILES IDX 15 1 16 2 17 3 18 4 19 5 20 6 21 7 22 8 23 9 24 10 25 11
REMARK SMILES IDX 26 12 27 13 28 14 29 15 30 16 14 17 13 18 12 19 11 20 10 21
REMARK SMILES IDX 9 22 8 23 7 24 6 25 5 26 4 27 3 28 2 29 1 30
REMARK H PARENT
REMARK Flexibility Score: inf
ROOT
ATOM      1  C   UNL     1      10.097 -29.599 -11.778  1.00  0.00     0.000 C 
ENDROOT
BRANCH   1   2
ATOM      2  C   UNL     1       9.044 -30.517 -12.437  1.00  0.00     0.000 C 
BRANCH   2   3
ATOM      3  C   UNL     1       8.920 -30.388 -13.969  1.00  0.00     0.000 C 
BRANCH   3   4
ATOM      4  C   UNL     1       9.854 -31.307 -14.776  1.00  0.00     0.000 C 
BRANCH   4   5
ATOM      5  C   UNL     1       9.097 -32.299 -15.672  1.00  0.00     0.000 C 
BRANCH   5   6
ATOM      6  C   UNL     1       9.415 -32.024 -17.147  1.00  0.00     0.000 C 
BRANCH   6   7
ATOM      7  C   UNL     1      10.035 -30.636 -17.380  1.00  0.00     0.000 C 
BRANCH   7   8
ATOM      8  C   UNL     1       9.032 -29.523 -17.745  1.00  0.00     0.000 C 
BRANCH   8   9
ATOM      9  C   UNL     1       8.059 -29.120 -16.623  1.00  0.00     0.000 C 
BRANCH   9  10
ATOM     10  C   UNL     1       6.651 -28.789 -17.131  1.00  0.00     0.000 C 
BRANCH  10  11
ATOM     11  C   UNL     1       6.721 -28.051 -18.473  1.00  0.00     0.000 C 
BRANCH  11  12
ATOM     12  C   UNL     1       6.119 -28.885 -19.607  1.00  0.00     0.006 C 
BRANCH  12  13
ATOM     13  C   UNL     1       6.047 -28.064 -20.901  1.00  0.00     0.053 C 
BRANCH  13  14
ATOM     14  C   UNL     1       7.017 -28.574 -21.925  1.00  0.00     0.041 C 
ATOM     15  O   UNL     1       6.921 -28.196 -23.125  1.00  0.00    -0.550 OA
ATOM     16  O   UNL     1       7.914 -29.580 -21.598  1.00  0.00    -0.550 OA
ENDBRANCH  13  14
ENDBRANCH  12  13
ENDBRANCH  11  12
ENDBRANCH  10  11
ENDBRANCH   9  10
ENDBRANCH   8   9
ENDBRANCH   7   8
ENDBRANCH   6   7
ENDBRANCH   5   6
ENDBRANCH   4   5
ENDBRANCH   3   4
ENDBRANCH   2   3
ENDBRANCH   1   2
BRANCH   1  17
ATOM     17  C   UNL     1      10.347 -29.897 -10.289  1.00  0.00     0.000 C 
BRANCH  17  18
ATOM     18  C   UNL     1       9.300 -29.234  -9.360  1.00  0.00     0.000 C 
BRANCH  18  19
ATOM     19  C   UNL     1       9.708 -27.811  -8.952  1.00  0.00     0.000 C 
BRANCH  19  20
ATOM     20  C   UNL     1       8.895 -26.721  -9.686  1.00  0.00     0.000 C 
BRANCH  20  21
ATOM     21  C   UNL     1       8.802 -25.398  -8.895  1.00  0.00     0.000 C 
BRANCH  21  22
ATOM     22  C   UNL     1       8.557 -25.580  -7.387  1.00  0.00    -0.000 C 
BRANCH  22  23
ATOM     23  C   UNL     1       7.340 -24.791  -6.868  1.00  0.00    -0.000 C 
BRANCH  23  24
ATOM     24  C   UNL     1       7.620 -24.108  -5.514  1.00  0.00    -0.000 C 
BRANCH  24  25
ATOM     25  C   UNL     1       8.335 -25.025  -4.504  1.00  0.00    -0.000 C 
BRANCH  25  26
ATOM     26  C   UNL     1       9.693 -24.466  -4.048  1.00  0.00    -0.000 C 
BRANCH  26  27
ATOM     27  C   UNL     1      10.875 -25.289  -4.606  1.00  0.00    -0.000 C 
BRANCH  27  28
ATOM     28  C   UNL     1      10.627 -26.812  -4.635  1.00  0.00    -0.000 C 
BRANCH  28  29
ATOM     29  C   UNL     1      11.769 -27.651  -4.025  1.00  0.00    -0.003 C 
ATOM     30  C   UNL     1      13.114 -27.401  -4.711  1.00  0.00     0.004 C 
ENDBRANCH  28  29
ENDBRANCH  27  28
ENDBRANCH  26  27
ENDBRANCH  25  26
ENDBRANCH  24  25
ENDBRANCH  23  24
ENDBRANCH  22  23
ENDBRANCH  21  22
ENDBRANCH  20  21
ENDBRANCH  19  20
ENDBRANCH  18  19
ENDBRANCH  17  18
ENDBRANCH   1  17
TORSDOF 26
ENDMDL
MODEL 4
REMARK VINA RESULT:    17.293      0.913      3.507
REMARK INTER + INTRA:          42.478
REMARK INTER:                  40.809
REMARK INTRA:                   1.669
REMARK UNBOUND:                -1.100
REMARK SMILES CCCCCCCCCCCCCCCCCCCCCCCCCCCC(=O)[O-]
REMARK SMILES IDX 15 1 16 2 17 3 18 4 19 5 20 6 21 7 22 8 23 9 24 10 25 11
REMARK SMILES IDX 26 12 27 13 28 14 29 15 30 16 14 17 13 18 12 19 11 20 10 21
REMARK SMILES IDX 9 22 8 23 7 24 6 25 5 26 4 27 3 28 2 29 1 30
REMARK H PARENT
REMARK Flexibility Score: inf
ROOT
ATOM      1  C   UNL     1       8.781 -29.993 -13.607  1.00  0.00     0.000 C 
ENDROOT
BRANCH   1   2
ATOM      2  C   UNL     1       8.812 -29.709 -12.089  1.00  0.00     0.000 C 
BRANCH   2   3
ATOM      3  C   UNL     1      10.184 -29.895 -11.409  1.00  0.00     0.000 C 
BRANCH   3   4
ATOM      4  C   UNL     1      10.133 -30.076  -9.881  1.00  0.00     0.000 C 
BRANCH   4   5
ATOM      5  C   UNL     1       9.166 -29.102  -9.191  1.00  0.00     0.000 C 
BRANCH   5   6
ATOM      6  C   UNL     1       9.836 -27.734  -9.014  1.00  0.00     0.000 C 
BRANCH   6   7
ATOM      7  C   UNL     1       8.876 -26.557  -9.253  1.00  0.00     0.000 C 
BRANCH   7   8
ATOM      8  C   UNL     1       8.880 -25.474  -8.154  1.00  0.00     0.000 C 
BRANCH   8   9
ATOM      9  C   UNL     1       8.373 -25.933  -6.776  1.00  0.00     0.000 C 
BRANCH   9  10
ATOM     10  C   UNL     1       8.168 -24.777  -5.789  1.00  0.00     0.000 C 
BRANCH  10  11
ATOM     11  C   UNL     1       9.031 -24.977  -4.538  1.00  0.00     0.000 C 
BRANCH  11  12
ATOM     12  C   UNL     1      10.506 -25.178  -4.897  1.00  0.00     0.006 C 
BRANCH  12  13
ATOM     13  C   UNL     1      10.889 -26.659  -4.792  1.00  0.00     0.053 C 
BRANCH  13  14
ATOM     14  C   UNL     1      12.376 -26.845  -4.848  1.00  0.00     0.041 C 
ATOM     15  O   UNL     1      13.076 -26.099  -5.587  1.00  0.00    -0.550 OA
ATOM     16  O   UNL     1      12.968 -27.932  -4.222  1.00  0.00    -0.550 OA
ENDBRANCH  13  14
ENDBRANCH  12  13
ENDBRANCH  11  12
ENDBRANCH  10  11
ENDBRANCH   9  10
ENDBRANCH   8   9
ENDBRANCH   7   8
ENDBRANCH   6   7
ENDBRANCH   5   6
ENDBRANCH   4   5
ENDBRANCH   3   4
ENDBRANCH   2   3
ENDBRANCH   1   2
BRANCH   1  17
ATOM     17  C   UNL     1       7.929 -29.000 -14.416  1.00  0.00     0.000 C 
BRANCH  17  18
ATOM     18  C   UNL     1       7.796 -29.398 -15.906  1.00  0.00     0.000 C 
BRANCH  18  19
ATOM     19  C   UNL     1       6.963 -28.386 -16.704  1.00  0.00     0.000 C 
BRANCH  19  20
ATOM     20  C   UNL     1       6.552 -28.914 -18.097  1.00  0.00     0.000 C 
BRANCH  20  21
ATOM     21  C   UNL     1       6.268 -27.786 -19.113  1.00  0.00     0.000 C 
BRANCH  21  22
ATOM     22  C   UNL     1       6.773 -28.077 -20.537  1.00  0.00    -0.000 C 
BRANCH  22  23
ATOM     23  C   UNL     1       7.084 -29.566 -20.781  1.00  0.00    -0.000 C 
BRANCH  23  24
ATOM     24  C   UNL     1       8.579 -29.890 -20.585  1.00  0.00    -0.000 C 
BRANCH  24  25
ATOM     25  C   UNL     1       8.917 -30.375 -19.163  1.00  0.00    -0.000 C 
BRANCH  25  26
ATOM     26  C   UNL     1      10.053 -29.568 -18.512  1.00  0.00    -0.000 C 
BRANCH  26  27
ATOM     27  C   UNL     1      10.445 -30.131 -17.129  1.00  0.00    -0.000 C 
BRANCH  27  28
ATOM     28  C   UNL     1       9.358 -31.009 -16.472  1.00  0.00    -0.000 C 
BRANCH  28  29
ATOM     29  C   UNL     1       9.448 -32.506 -16.838  1.00  0.00    -0.003 C 
ATOM     30  C   UNL     1       8.909 -33.415 -15.731  1.00  0.00     0.004 C 
ENDBRANCH  28  29
ENDBRANCH  27  28
ENDBRANCH  26  27
ENDBRANCH  25  26
ENDBRANCH  24  25
ENDBRANCH  23  24
ENDBRANCH  22  23
ENDBRANCH  21  22
ENDBRANCH  20  21
ENDBRANCH  19  20
ENDBRANCH  18  19
ENDBRANCH  17  18
ENDBRANCH   1  17
TORSDOF 26
ENDMDL
MODEL 5
REMARK VINA RESULT:    17.321      3.575     12.029
REMARK INTER + INTRA:          42.549
REMARK INTER:                  41.854
REMARK INTRA:                   0.695
REMARK UNBOUND:                -1.100
REMARK SMILES CCCCCCCCCCCCCCCCCCCCCCCCCCCC(=O)[O-]
REMARK SMILES IDX 15 1 16 2 17 3 18 4 19 5 20 6 21 7 22 8 23 9 24 10 25 11
REMARK SMILES IDX 26 12 27 13 28 14 29 15 30 16 14 17 13 18 12 19 11 20 10 21
REMARK SMILES IDX 9 22 8 23 7 24 6 25 5 26 4 27 3 28 2 29 1 30
REMARK H PARENT
REMARK Flexibility Score: inf
ROOT
ATOM      1  C   UNL     1       8.152 -29.282 -14.428  1.00  0.00     0.000 C 
ENDROOT
BRANCH   1   2
ATOM      2  C   UNL     1       7.454 -28.396 -15.482  1.00  0.00     0.000 C 
BRANCH   2   3
ATOM      3  C   UNL     1       7.401 -28.980 -16.909  1.00  0.00     0.000 C 
BRANCH   3   4
ATOM      4  C   UNL     1       6.228 -28.482 -17.772  1.00  0.00     0.000 C 
BRANCH   4   5
ATOM      5  C   UNL     1       6.673 -27.944 -19.141  1.00  0.00     0.000 C 
BRANCH   5   6
ATOM      6  C   UNL     1       5.982 -28.728 -20.263  1.00  0.00     0.000 C 
BRANCH   6   7
ATOM      7  C   UNL     1       6.970 -29.312 -21.286  1.00  0.00     0.000 C 
BRANCH   7   8
ATOM      8  C   UNL     1       8.445 -29.333 -20.835  1.00  0.00     0.000 C 
BRANCH   8   9
ATOM      9  C   UNL     1       8.772 -30.315 -19.697  1.00  0.00     0.000 C 
BRANCH   9  10
ATOM     10  C   UNL     1      10.043 -29.947 -18.923  1.00  0.00     0.000 C 
BRANCH  10  11
ATOM     11  C   UNL     1       9.731 -29.747 -17.436  1.00  0.00     0.000 C 
BRANCH  11  12
ATOM     12  C   UNL     1      10.434 -30.793 -16.567  1.00  0.00     0.006 C 
BRANCH  12  13
ATOM     13  C   UNL     1       9.449 -31.416 -15.569  1.00  0.00     0.053 C 
BRANCH  13  14
ATOM     14  C   UNL     1       9.165 -32.850 -15.904  1.00  0.00     0.041 C 
ATOM     15  O   UNL     1       9.160 -33.227 -17.108  1.00  0.00    -0.550 OA
ATOM     16  O   UNL     1       8.748 -33.728 -14.914  1.00  0.00    -0.550 OA
ENDBRANCH  13  14
ENDBRANCH  12  13
ENDBRANCH  11  12
ENDBRANCH  10  11
ENDBRANCH   9  10
ENDBRANCH   8   9
ENDBRANCH   7   8
ENDBRANCH   6   7
ENDBRANCH   5   6
ENDBRANCH   4   5
ENDBRANCH   3   4
ENDBRANCH   2   3
ENDBRANCH   1   2
BRANCH   1  17
ATOM     17  C   UNL     1       7.542 -29.183 -13.019  1.00  0.00     0.000 C 
BRANCH  17  18
ATOM     18  C   UNL     1       8.469 -29.763 -11.922  1.00  0.00     0.000 C 
BRANCH  18  19
ATOM     19  C   UNL     1       8.009 -29.373 -10.511  1.00  0.00     0.000 C 
BRANCH  19  20
ATOM     20  C   UNL     1       9.186 -29.188  -9.527  1.00  0.00     0.000 C 
BRANCH  20  21
ATOM     21  C   UNL     1       9.740 -27.746  -9.509  1.00  0.00     0.000 C 
BRANCH  21  22
ATOM     22  C   UNL     1       9.233 -26.890  -8.336  1.00  0.00    -0.000 C 
BRANCH  22  23
ATOM     23  C   UNL     1       8.691 -25.516  -8.775  1.00  0.00    -0.000 C 
BRANCH  23  24
ATOM     24  C   UNL     1       8.497 -24.557  -7.583  1.00  0.00    -0.000 C 
BRANCH  24  25
ATOM     25  C   UNL     1       7.861 -25.230  -6.354  1.00  0.00    -0.000 C 
BRANCH  25  26
ATOM     26  C   UNL     1       8.386 -24.664  -5.023  1.00  0.00    -0.000 C 
BRANCH  26  27
ATOM     27  C   UNL     1       9.425 -25.597  -4.366  1.00  0.00    -0.000 C 
BRANCH  27  28
ATOM     28  C   UNL     1      10.723 -25.774  -5.184  1.00  0.00    -0.000 C 
BRANCH  28  29
ATOM     29  C   UNL     1      11.589 -26.973  -4.745  1.00  0.00    -0.003 C 
ATOM     30  C   UNL     1      13.052 -26.829  -5.170  1.00  0.00     0.004 C 
ENDBRANCH  28  29
ENDBRANCH  27  28
ENDBRANCH  26  27
ENDBRANCH  25  26
ENDBRANCH  24  25
ENDBRANCH  23  24
ENDBRANCH  22  23
ENDBRANCH  21  22
ENDBRANCH  20  21
ENDBRANCH  19  20
ENDBRANCH  18  19
ENDBRANCH  17  18
ENDBRANCH   1  17
TORSDOF 26
ENDMDL
MODEL 6
REMARK VINA RESULT:    17.539      0.805      2.741
REMARK INTER + INTRA:          43.098
REMARK INTER:                  42.291
REMARK INTRA:                   0.807
REMARK UNBOUND:                -1.100
REMARK SMILES CCCCCCCCCCCCCCCCCCCCCCCCCCCC(=O)[O-]
REMARK SMILES IDX 15 1 16 2 17 3 18 4 19 5 20 6 21 7 22 8 23 9 24 10 25 11
REMARK SMILES IDX 26 12 27 13 28 14 29 15 30 16 14 17 13 18 12 19 11 20 10 21
REMARK SMILES IDX 9 22 8 23 7 24 6 25 5 26 4 27 3 28 2 29 1 30
REMARK H PARENT
REMARK Flexibility Score: inf
ROOT
ATOM      1  C   UNL     1      10.529 -29.896 -11.634  1.00  0.00     0.000 C 
ENDROOT
BRANCH   1   2
ATOM      2  C   UNL     1      10.181 -30.065 -10.139  1.00  0.00     0.000 C 
BRANCH   2   3
ATOM      3  C   UNL     1       9.270 -28.973  -9.543  1.00  0.00     0.000 C 
BRANCH   3   4
ATOM      4  C   UNL     1       9.985 -27.662  -9.169  1.00  0.00     0.000 C 
BRANCH   4   5
ATOM      5  C   UNL     1       9.078 -26.427  -9.280  1.00  0.00     0.000 C 
BRANCH   5   6
ATOM      6  C   UNL     1       8.844 -25.821  -7.891  1.00  0.00     0.000 C 
BRANCH   6   7
ATOM      7  C   UNL     1       7.820 -24.674  -7.899  1.00  0.00     0.000 C 
BRANCH   7   8
ATOM      8  C   UNL     1       7.892 -23.722  -6.687  1.00  0.00     0.000 C 
BRANCH   8   9
ATOM      9  C   UNL     1       7.441 -24.329  -5.346  1.00  0.00     0.000 C 
BRANCH   9  10
ATOM     10  C   UNL     1       8.608 -24.812  -4.476  1.00  0.00     0.000 C 
BRANCH  10  11
ATOM     11  C   UNL     1       9.279 -26.037  -5.105  1.00  0.00     0.000 C 
BRANCH  11  12
ATOM     12  C   UNL     1      10.479 -26.509  -4.279  1.00  0.00     0.006 C 
BRANCH  12  13
ATOM     13  C   UNL     1      11.765 -25.821  -4.754  1.00  0.00     0.053 C 
BRANCH  13  14
ATOM     14  C   UNL     1      12.840 -26.821  -5.059  1.00  0.00     0.041 C 
ATOM     15  O   UNL     1      13.057 -27.775  -4.263  1.00  0.00    -0.550 OA
ATOM     16  O   UNL     1      13.704 -26.613  -6.124  1.00  0.00    -0.550 OA
ENDBRANCH  13  14
ENDBRANCH  12  13
ENDBRANCH  11  12
ENDBRANCH  10  11
ENDBRANCH   9  10
ENDBRANCH   8   9
ENDBRANCH   7   8
ENDBRANCH   6   7
ENDBRANCH   5   6
ENDBRANCH   4   5
ENDBRANCH   3   4
ENDBRANCH   2   3
ENDBRANCH   1   2
BRANCH   1  17
ATOM     17  C   UNL     1       9.636 -30.713 -12.584  1.00  0.00     0.000 C 
BRANCH  17  18
ATOM     18  C   UNL     1       8.481 -29.877 -13.189  1.00  0.00     0.000 C 
BRANCH  18  19
ATOM     19  C   UNL     1       8.603 -29.739 -14.713  1.00  0.00     0.000 C 
BRANCH  19  20
ATOM     20  C   UNL     1       7.632 -28.688 -15.298  1.00  0.00     0.000 C 
BRANCH  20  21
ATOM     21  C   UNL     1       7.771 -28.520 -16.827  1.00  0.00     0.000 C 
BRANCH  21  22
ATOM     22  C   UNL     1       6.556 -29.016 -17.630  1.00  0.00    -0.000 C 
BRANCH  22  23
ATOM     23  C   UNL     1       6.523 -28.485 -19.075  1.00  0.00    -0.000 C 
BRANCH  23  24
ATOM     24  C   UNL     1       7.091 -29.503 -20.085  1.00  0.00    -0.000 C 
BRANCH  24  25
ATOM     25  C   UNL     1       8.630 -29.553 -20.101  1.00  0.00    -0.000 C 
BRANCH  25  26
ATOM     26  C   UNL     1       9.204 -30.621 -19.155  1.00  0.00    -0.000 C 
BRANCH  26  27
ATOM     27  C   UNL     1       9.924 -29.995 -17.942  1.00  0.00    -0.000 C 
BRANCH  27  28
ATOM     28  C   UNL     1      10.006 -30.921 -16.709  1.00  0.00    -0.000 C 
BRANCH  28  29
ATOM     29  C   UNL     1       9.447 -32.340 -16.943  1.00  0.00    -0.003 C 
ATOM     30  C   UNL     1       8.876 -32.965 -15.668  1.00  0.00     0.004 C 
ENDBRANCH  28  29
ENDBRANCH  27  28
ENDBRANCH  26  27
ENDBRANCH  25  26
ENDBRANCH  24  25
ENDBRANCH  23  24
ENDBRANCH  22  23
ENDBRANCH  21  22
ENDBRANCH  20  21
ENDBRANCH  19  20
ENDBRANCH  18  19
ENDBRANCH  17  18
ENDBRANCH   1  17
TORSDOF 26
ENDMDL
MODEL 7
REMARK VINA RESULT:    17.746      3.557     12.091
REMARK INTER + INTRA:          43.619
REMARK INTER:                  41.759
REMARK INTRA:                   1.860
REMARK UNBOUND:                -1.100
REMARK SMILES CCCCCCCCCCCCCCCCCCCCCCCCCCCC(=O)[O-]
REMARK SMILES IDX 15 1 16 2 17 3 18 4 19 5 20 6 21 7 22 8 23 9 24 10 25 11
REMARK SMILES IDX 26 12 27 13 28 14 29 15 30 16 14 17 13 18 12 19 11 20 10 21
REMARK SMILES IDX 9 22 8 23 7 24 6 25 5 26 4 27 3 28 2 29 1 30
REMARK H PARENT
REMARK Flexibility Score: inf
ROOT
ATOM      1  C   UNL     1      10.477 -29.599 -11.646  1.00  0.00     0.000 C 
ENDROOT
BRANCH   1   2
ATOM      2  C   UNL     1       9.900 -30.480 -12.775  1.00  0.00     0.000 C 
BRANCH   2   3
ATOM      3  C   UNL     1       8.508 -30.063 -13.294  1.00  0.00     0.000 C 
BRANCH   3   4
ATOM      4  C   UNL     1       8.462 -29.659 -14.779  1.00  0.00     0.000 C 
BRANCH   4   5
ATOM      5  C   UNL     1       7.379 -28.613 -15.086  1.00  0.00     0.000 C 
BRANCH   5   6
ATOM      6  C   UNL     1       7.546 -28.089 -16.517  1.00  0.00     0.000 C 
BRANCH   6   7
ATOM      7  C   UNL     1       6.634 -28.800 -17.529  1.00  0.00     0.000 C 
BRANCH   7   8
ATOM      8  C   UNL     1       6.685 -28.239 -18.965  1.00  0.00     0.000 C 
BRANCH   8   9
ATOM      9  C   UNL     1       6.697 -29.295 -20.084  1.00  0.00     0.000 C 
BRANCH   9  10
ATOM     10  C   UNL     1       8.099 -29.574 -20.640  1.00  0.00     0.000 C 
BRANCH  10  11
ATOM     11  C   UNL     1       9.127 -29.630 -19.505  1.00  0.00     0.000 C 
BRANCH  11  12
ATOM     12  C   UNL     1       8.549 -30.294 -18.253  1.00  0.00     0.006 C 
BRANCH  12  13
ATOM     13  C   UNL     1       9.674 -30.768 -17.325  1.00  0.00     0.053 C 
BRANCH  13  14
ATOM     14  C   UNL     1       9.441 -32.174 -16.857  1.00  0.00     0.041 C 
ATOM     15  O   UNL     1       9.521 -32.451 -15.629  1.00  0.00    -0.550 OA
ATOM     16  O   UNL     1       9.299 -33.202 -17.778  1.00  0.00    -0.550 OA
ENDBRANCH  13  14
ENDBRANCH  12  13
ENDBRANCH  11  12
ENDBRANCH  10  11
ENDBRANCH   9  10
ENDBRANCH   8   9
ENDBRANCH   7   8
ENDBRANCH   6   7
ENDBRANCH   5   6
ENDBRANCH   4   5
ENDBRANCH   3   4
ENDBRANCH   2   3
ENDBRANCH   1   2
BRANCH   1  17
ATOM     17  C   UNL     1      10.625 -30.323 -10.296  1.00  0.00     0.000 C 
BRANCH  17  18
ATOM     18  C   UNL     1       9.565 -29.878  -9.258  1.00  0.00     0.000 C 
BRANCH  18  19
ATOM     19  C   UNL     1       8.959 -28.510  -9.600  1.00  0.00     0.000 C 
BRANCH  19  20
ATOM     20  C   UNL     1       9.843 -27.330  -9.137  1.00  0.00     0.000 C 
BRANCH  20  21
ATOM     21  C   UNL     1       9.043 -26.032  -8.891  1.00  0.00     0.000 C 
BRANCH  21  22
ATOM     22  C   UNL     1       8.552 -25.858  -7.444  1.00  0.00    -0.000 C 
BRANCH  22  23
ATOM     23  C   UNL     1       8.226 -24.396  -7.083  1.00  0.00    -0.000 C 
BRANCH  23  24
ATOM     24  C   UNL     1       7.298 -24.290  -5.856  1.00  0.00    -0.000 C 
BRANCH  24  25
ATOM     25  C   UNL     1       8.001 -24.625  -4.528  1.00  0.00    -0.000 C 
BRANCH  25  26
ATOM     26  C   UNL     1       9.533 -24.526  -4.621  1.00  0.00    -0.000 C 
BRANCH  26  27
ATOM     27  C   UNL     1      10.225 -25.844  -4.212  1.00  0.00    -0.000 C 
BRANCH  27  28
ATOM     28  C   UNL     1      11.063 -26.493  -5.335  1.00  0.00    -0.000 C 
BRANCH  28  29
ATOM     29  C   UNL     1      12.574 -26.571  -5.033  1.00  0.00    -0.003 C 
ATOM     30  C   UNL     1      12.940 -27.782  -4.172  1.00  0.00     0.004 C 
ENDBRANCH  28  29
ENDBRANCH  27  28
ENDBRANCH  26  27
ENDBRANCH  25  26
ENDBRANCH  24  25
ENDBRANCH  23  24
ENDBRANCH  22  23
ENDBRANCH  21  22
ENDBRANCH  20  21
ENDBRANCH  19  20
ENDBRANCH  18  19
ENDBRANCH  17  18
ENDBRANCH   1  17
TORSDOF 26
ENDMDL
MODEL 8
REMARK VINA RESULT:    18.115      3.494     11.834
REMARK INTER + INTRA:          44.548
REMARK INTER:                  44.831
REMARK INTRA:                  -0.284
REMARK UNBOUND:                -1.100
REMARK SMILES CCCCCCCCCCCCCCCCCCCCCCCCCCCC(=O)[O-]
REMARK SMILES IDX 15 1 16 2 17 3 18 4 19 5 20 6 21 7 22 8 23 9 24 10 25 11
REMARK SMILES IDX 26 12 27 13 28 14 29 15 30 16 14 17 13 18 12 19 11 20 10 21
REMARK SMILES IDX 9 22 8 23 7 24 6 25 5 26 4 27 3 28 2 29 1 30
REMARK H PARENT
REMARK Flexibility Score: inf
ROOT
ATOM      1  C   UNL     1       7.274 -29.157 -16.754  1.00  0.00     0.000 C 
ENDROOT
BRANCH   1   2
ATOM      2  C   UNL     1       6.445 -28.236 -17.674  1.00  0.00     0.000 C 
BRANCH   2   3
ATOM      3  C   UNL     1       6.267 -28.733 -19.124  1.00  0.00     0.000 C 
BRANCH   3   4
ATOM      4  C   UNL     1       6.594 -27.695 -20.212  1.00  0.00     0.000 C 
BRANCH   4   5
ATOM      5  C   UNL     1       6.763 -28.316 -21.607  1.00  0.00     0.000 C 
BRANCH   5   6
ATOM      6  C   UNL     1       6.824 -29.845 -21.497  1.00  0.00     0.000 C 
BRANCH   6   7
ATOM      7  C   UNL     1       8.259 -30.382 -21.368  1.00  0.00     0.000 C 
BRANCH   7   8
ATOM      8  C   UNL     1       9.136 -29.665 -20.320  1.00  0.00     0.000 C 
BRANCH   8   9
ATOM      9  C   UNL     1       9.340 -30.429 -19.001  1.00  0.00     0.000 C 
BRANCH   9  10
ATOM     10  C   UNL     1      10.183 -29.659 -17.977  1.00  0.00     0.000 C 
BRANCH  10  11
ATOM     11  C   UNL     1      10.425 -30.511 -16.727  1.00  0.00     0.000 C 
BRANCH  11  12
ATOM     12  C   UNL     1       9.360 -31.600 -16.572  1.00  0.00     0.006 C 
BRANCH  12  13
ATOM     13  C   UNL     1       9.268 -32.060 -15.111  1.00  0.00     0.053 C 
BRANCH  13  14
ATOM     14  C   UNL     1       8.771 -33.472 -15.014  1.00  0.00     0.041 C 
ATOM     15  O   UNL     1       8.009 -33.934 -15.906  1.00  0.00    -0.550 OA
ATOM     16  O   UNL     1       9.011 -34.218 -13.869  1.00  0.00    -0.550 OA
ENDBRANCH  13  14
ENDBRANCH  12  13
ENDBRANCH  11  12
ENDBRANCH  10  11
ENDBRANCH   9  10
ENDBRANCH   8   9
ENDBRANCH   7   8
ENDBRANCH   6   7
ENDBRANCH   5   6
ENDBRANCH   4   5
ENDBRANCH   3   4
ENDBRANCH   2   3
ENDBRANCH   1   2
BRANCH   1  17
ATOM     17  C   UNL     1       7.782 -28.474 -15.472  1.00  0.00     0.000 C 
BRANCH  17  18
ATOM     18  C   UNL     1       8.227 -29.487 -14.389  1.00  0.00     0.000 C 
BRANCH  18  19
ATOM     19  C   UNL     1       7.613 -29.175 -13.017  1.00  0.00     0.000 C 
BRANCH  19  20
ATOM     20  C   UNL     1       8.395 -29.818 -11.850  1.00  0.00     0.000 C 
BRANCH  20  21
ATOM     21  C   UNL     1       8.151 -29.116 -10.496  1.00  0.00     0.000 C 
BRANCH  21  22
ATOM     22  C   UNL     1       9.334 -29.204  -9.517  1.00  0.00    -0.000 C 
BRANCH  22  23
ATOM     23  C   UNL     1       9.479 -27.958  -8.623  1.00  0.00    -0.000 C 
BRANCH  23  24
ATOM     24  C   UNL     1       9.352 -26.646  -9.424  1.00  0.00    -0.000 C 
BRANCH  24  25
ATOM     25  C   UNL     1       8.366 -25.642  -8.799  1.00  0.00    -0.000 C 
BRANCH  25  26
ATOM     26  C   UNL     1       8.887 -25.033  -7.487  1.00  0.00    -0.000 C 
BRANCH  26  27
ATOM     27  C   UNL     1       7.960 -25.348  -6.293  1.00  0.00    -0.000 C 
BRANCH  27  28
ATOM     28  C   UNL     1       8.684 -25.418  -4.931  1.00  0.00    -0.000 C 
BRANCH  28  29
ATOM     29  C   UNL     1      10.222 -25.352  -5.028  1.00  0.00    -0.003 C 
ATOM     30  C   UNL     1      10.897 -26.644  -4.561  1.00  0.00     0.004 C 
ENDBRANCH  28  29
ENDBRANCH  27  28
ENDBRANCH  26  27
ENDBRANCH  25  26
ENDBRANCH  24  25
ENDBRANCH  23  24
ENDBRANCH  22  23
ENDBRANCH  21  22
ENDBRANCH  20  21
ENDBRANCH  19  20
ENDBRANCH  18  19
ENDBRANCH  17  18
ENDBRANCH   1  17
TORSDOF 26
ENDMDL
MODEL 9
REMARK VINA RESULT:    18.341      1.195      1.977
REMARK INTER + INTRA:          45.118
REMARK INTER:                  46.922
REMARK INTRA:                  -1.805
REMARK UNBOUND:                -1.100
REMARK SMILES CCCCCCCCCCCCCCCCCCCCCCCCCCCC(=O)[O-]
REMARK SMILES IDX 15 1 16 2 17 3 18 4 19 5 20 6 21 7 22 8 23 9 24 10 25 11
REMARK SMILES IDX 26 12 27 13 28 14 29 15 30 16 14 17 13 18 12 19 11 20 10 21
REMARK SMILES IDX 9 22 8 23 7 24 6 25 5 26 4 27 3 28 2 29 1 30
REMARK H PARENT
REMARK Flexibility Score: inf
ROOT
ATOM      1  C   UNL     1      10.330 -30.719 -11.994  1.00  0.00     0.000 C 
ENDROOT
BRANCH   1   2
ATOM      2  C   UNL     1      10.688 -29.697 -10.893  1.00  0.00     0.000 C 
BRANCH   2   3
ATOM      3  C   UNL     1       9.909 -29.848  -9.571  1.00  0.00     0.000 C 
BRANCH   3   4
ATOM      4  C   UNL     1       8.921 -28.708  -9.264  1.00  0.00     0.000 C 
BRANCH   4   5
ATOM      5  C   UNL     1       9.615 -27.418  -8.797  1.00  0.00     0.000 C 
BRANCH   5   6
ATOM      6  C   UNL     1       8.874 -26.194  -9.348  1.00  0.00     0.000 C 
BRANCH   6   7
ATOM      7  C   UNL     1       8.826 -25.022  -8.354  1.00  0.00     0.000 C 
BRANCH   7   8
ATOM      8  C   UNL     1       7.856 -25.206  -7.169  1.00  0.00     0.000 C 
BRANCH   8   9
ATOM      9  C   UNL     1       7.762 -24.012  -6.204  1.00  0.00     0.000 C 
BRANCH   9  10
ATOM     10  C   UNL     1       8.171 -24.359  -4.767  1.00  0.00     0.000 C 
BRANCH  10  11
ATOM     11  C   UNL     1       8.857 -25.729  -4.718  1.00  0.00     0.000 C 
BRANCH  11  12
ATOM     12  C   UNL     1      10.382 -25.596  -4.720  1.00  0.00     0.006 C 
BRANCH  12  13
ATOM     13  C   UNL     1      11.044 -26.979  -4.680  1.00  0.00     0.053 C 
BRANCH  13  14
ATOM     14  C   UNL     1      12.538 -26.872  -4.760  1.00  0.00     0.041 C 
ATOM     15  O   UNL     1      13.068 -25.962  -5.453  1.00  0.00    -0.550 OA
ATOM     16  O   UNL     1      13.338 -27.863  -4.211  1.00  0.00    -0.550 OA
ENDBRANCH  13  14
ENDBRANCH  12  13
ENDBRANCH  11  12
ENDBRANCH  10  11
ENDBRANCH   9  10
ENDBRANCH   8   9
ENDBRANCH   7   8
ENDBRANCH   6   7
ENDBRANCH   5   6
ENDBRANCH   4   5
ENDBRANCH   3   4
ENDBRANCH   2   3
ENDBRANCH   1   2
BRANCH   1  17
ATOM     17  C   UNL     1       9.227 -30.247 -12.957  1.00  0.00     0.000 C 
BRANCH  17  18
ATOM     18  C   UNL     1       9.117 -31.132 -14.223  1.00  0.00     0.000 C 
BRANCH  18  19
ATOM     19  C   UNL     1       9.983 -30.605 -15.375  1.00  0.00     0.000 C 
BRANCH  19  20
ATOM     20  C   UNL     1       9.523 -31.124 -16.756  1.00  0.00     0.000 C 
BRANCH  20  21
ATOM     21  C   UNL     1       8.861 -30.031 -17.624  1.00  0.00     0.000 C 
BRANCH  21  22
ATOM     22  C   UNL     1       7.702 -29.293 -16.934  1.00  0.00    -0.000 C 
BRANCH  22  23
ATOM     23  C   UNL     1       7.033 -28.235 -17.832  1.00  0.00    -0.000 C 
BRANCH  23  24
ATOM     24  C   UNL     1       6.317 -28.865 -19.044  1.00  0.00    -0.000 C 
BRANCH  24  25
ATOM     25  C   UNL     1       6.859 -28.371 -20.398  1.00  0.00    -0.000 C 
BRANCH  25  26
ATOM     26  C   UNL     1       7.078 -29.512 -21.406  1.00  0.00    -0.000 C 
BRANCH  26  27
ATOM     27  C   UNL     1       8.341 -30.338 -21.081  1.00  0.00    -0.000 C 
BRANCH  27  28
ATOM     28  C   UNL     1       8.330 -31.767 -21.667  1.00  0.00    -0.000 C 
BRANCH  28  29
ATOM     29  C   UNL     1       9.667 -32.522 -21.519  1.00  0.00    -0.003 C 
ATOM     30  C   UNL     1       9.629 -33.575 -20.410  1.00  0.00     0.004 C 
ENDBRANCH  28  29
ENDBRANCH  27  28
ENDBRANCH  26  27
ENDBRANCH  25  26
ENDBRANCH  24  25
ENDBRANCH  23  24
ENDBRANCH  22  23
ENDBRANCH  21  22
ENDBRANCH  20  21
ENDBRANCH  19  20
ENDBRANCH  18  19
ENDBRANCH  17  18
ENDBRANCH   1  17
TORSDOF 26
ENDMDL
