MODEL 1
REMARK VINA RESULT:    -2.782      0.000      0.000
REMARK INTER + INTRA:          -7.571
REMARK INTER:                  -5.059
REMARK INTRA:                  -2.512
REMARK UNBOUND:                -2.512
REMARK SMILES CCCCCCCCCCCCCCCC(=O)[O-]
REMARK SMILES IDX 9 1 10 2 11 3 12 4 13 5 14 6 15 7 16 8 17 9 18 10 8 11 7 12
REMARK SMILES IDX 6 13 5 14 4 15 3 16 2 17 1 18
REMARK H PARENT
REMARK Flexibility Score: inf
ROOT
ATOM      1  C   UNL     1      99.364  63.384 227.766  1.00  0.00     0.000 C 
ENDROOT
BRANCH   1   2
ATOM      2  C   UNL     1      97.992  63.308 227.076  1.00  0.00     0.000 C 
BRANCH   2   3
ATOM      3  C   UNL     1      97.913  64.190 225.819  1.00  0.00     0.000 C 
BRANCH   3   4
ATOM      4  C   UNL     1      96.574  64.942 225.701  1.00  0.00     0.000 C 
BRANCH   4   5
ATOM      5  C   UNL     1      95.887  65.272 227.042  1.00  0.00     0.000 C 
BRANCH   5   6
ATOM      6  C   UNL     1      96.359  66.575 227.717  1.00  0.00     0.006 C 
BRANCH   6   7
ATOM      7  C   UNL     1      97.307  66.363 228.908  1.00  0.00     0.053 C 
BRANCH   7   8
ATOM      8  C   UNL     1      96.690  65.507 229.970  1.00  0.00     0.041 C 
ATOM      9  O   UNL     1      97.329  64.534 230.450  1.00  0.00    -0.550 OA
ATOM     10  O   UNL     1      95.422  65.803 230.453  1.00  0.00    -0.550 OA
ENDBRANCH   7   8
ENDBRANCH   6   7
ENDBRANCH   5   6
ENDBRANCH   4   5
ENDBRANCH   3   4
ENDBRANCH   2   3
ENDBRANCH   1   2
BRANCH   1  11
ATOM     11  C   UNL     1     100.447  62.588 227.016  1.00  0.00     0.000 C 
BRANCH  11  12
ATOM     12  C   UNL     1     101.868  63.108 227.294  1.00  0.00    -0.000 C 
BRANCH  12  13
ATOM     13  C   UNL     1     102.532  63.851 226.117  1.00  0.00    -0.000 C 
BRANCH  13  14
ATOM     14  C   UNL     1     101.630  63.976 224.872  1.00  0.00    -0.000 C 
BRANCH  14  15
ATOM     15  C   UNL     1     101.178  65.427 224.627  1.00  0.00    -0.000 C 
BRANCH  15  16
ATOM     16  C   UNL     1     101.533  66.361 225.794  1.00  0.00    -0.000 C 
BRANCH  16  17
ATOM     17  C   UNL     1     100.288  66.875 226.532  1.00  0.00    -0.003 C 
ATOM     18  C   UNL     1      99.332  67.576 225.571  1.00  0.00     0.004 C 
ENDBRANCH  16  17
ENDBRANCH  15  16
ENDBRANCH  14  15
ENDBRANCH  13  14
ENDBRANCH  12  13
ENDBRANCH  11  12
ENDBRANCH   1  11
TORSDOF 14
ENDMDL
MODEL 2
REMARK VINA RESULT:    -2.702      3.032      5.343
REMARK INTER + INTRA:          -7.426
REMARK INTER:                  -5.118
REMARK INTRA:                  -2.308
REMARK UNBOUND:                -2.512
REMARK SMILES CCCCCCCCCCCCCCCC(=O)[O-]
REMARK SMILES IDX 9 1 10 2 11 3 12 4 13 5 14 6 15 7 16 8 17 9 18 10 8 11 7 12
REMARK SMILES IDX 6 13 5 14 4 15 3 16 2 17 1 18
REMARK H PARENT
REMARK Flexibility Score: inf
ROOT
ATOM      1  C   UNL     1      96.367  65.800 228.451  1.00  0.00     0.000 C 
ENDROOT
BRANCH   1   2
ATOM      2  C   UNL     1      97.464  65.116 229.284  1.00  0.00     0.000 C 
BRANCH   2   3
ATOM      3  C   UNL     1      97.792  63.700 228.782  1.00  0.00     0.000 C 
BRANCH   3   4
ATOM      4  C   UNL     1      99.305  63.437 228.685  1.00  0.00     0.000 C 
BRANCH   4   5
ATOM      5  C   UNL     1      99.758  62.667 227.427  1.00  0.00     0.000 C 
BRANCH   5   6
ATOM      6  C   UNL     1     101.278  62.664 227.171  1.00  0.00     0.006 C 
BRANCH   6   7
ATOM      7  C   UNL     1     101.671  62.557 225.689  1.00  0.00     0.053 C 
BRANCH   7   8
ATOM      8  C   UNL     1     102.517  63.710 225.248  1.00  0.00     0.041 C 
ATOM      9  O   UNL     1     103.704  63.816 225.652  1.00  0.00    -0.550 OA
ATOM     10  O   UNL     1     102.003  64.652 224.365  1.00  0.00    -0.550 OA
ENDBRANCH   7   8
ENDBRANCH   6   7
ENDBRANCH   5   6
ENDBRANCH   4   5
ENDBRANCH   3   4
ENDBRANCH   2   3
ENDBRANCH   1   2
BRANCH   1  11
ATOM     11  C   UNL     1      95.799  64.881 227.355  1.00  0.00     0.000 C 
BRANCH  11  12
ATOM     12  C   UNL     1      95.395  65.648 226.085  1.00  0.00    -0.000 C 
BRANCH  12  13
ATOM     13  C   UNL     1      96.290  65.394 224.856  1.00  0.00    -0.000 C 
BRANCH  13  14
ATOM     14  C   UNL     1      97.523  64.515 225.155  1.00  0.00    -0.000 C 
BRANCH  14  15
ATOM     15  C   UNL     1      98.842  65.284 224.965  1.00  0.00    -0.000 C 
BRANCH  15  16
ATOM     16  C   UNL     1      99.192  66.165 226.174  1.00  0.00    -0.000 C 
BRANCH  16  17
ATOM     17  C   UNL     1      99.561  67.599 225.765  1.00  0.00    -0.003 C 
ATOM     18  C   UNL     1      98.322  68.385 225.347  1.00  0.00     0.004 C 
ENDBRANCH  16  17
ENDBRANCH  15  16
ENDBRANCH  14  15
ENDBRANCH  13  14
ENDBRANCH  12  13
ENDBRANCH  11  12
ENDBRANCH   1  11
TORSDOF 14
ENDMDL
MODEL 3
REMARK VINA RESULT:    -2.620      8.623     10.623
REMARK INTER + INTRA:          -7.276
REMARK INTER:                  -4.924
REMARK INTRA:                  -2.352
REMARK UNBOUND:                -2.512
REMARK SMILES CCCCCCCCCCCCCCCC(=O)[O-]
REMARK SMILES IDX 9 1 10 2 11 3 12 4 13 5 14 6 15 7 16 8 17 9 18 10 8 11 7 12
REMARK SMILES IDX 6 13 5 14 4 15 3 16 2 17 1 18
REMARK H PARENT
REMARK Flexibility Score: inf
ROOT
ATOM      1  C   UNL     1      96.588  55.247 222.370  1.00  0.00     0.000 C 
ENDROOT
BRANCH   1   2
ATOM      2  C   UNL     1      97.347  56.043 221.296  1.00  0.00     0.000 C 
BRANCH   2   3
ATOM      3  C   UNL     1      97.487  57.533 221.651  1.00  0.00     0.000 C 
BRANCH   3   4
ATOM      4  C   UNL     1      98.576  58.243 220.826  1.00  0.00     0.000 C 
BRANCH   4   5
ATOM      5  C   UNL     1      99.396  57.327 219.895  1.00  0.00     0.000 C 
BRANCH   5   6
ATOM      6  C   UNL     1     100.503  58.035 219.088  1.00  0.00     0.006 C 
BRANCH   6   7
ATOM      7  C   UNL     1     101.821  58.227 219.854  1.00  0.00     0.053 C 
BRANCH   7   8
ATOM      8  C   UNL     1     102.285  59.650 219.825  1.00  0.00     0.041 C 
ATOM      9  O   UNL     1     103.514  59.915 219.782  1.00  0.00    -0.550 OA
ATOM     10  O   UNL     1     101.356  60.683 219.814  1.00  0.00    -0.550 OA
ENDBRANCH   7   8
ENDBRANCH   6   7
ENDBRANCH   5   6
ENDBRANCH   4   5
ENDBRANCH   3   4
ENDBRANCH   2   3
ENDBRANCH   1   2
BRANCH   1  11
ATOM     11  C   UNL     1      95.672  56.138 223.228  1.00  0.00     0.000 C 
BRANCH  11  12
ATOM     12  C   UNL     1      95.713  55.773 224.721  1.00  0.00    -0.000 C 
BRANCH  12  13
ATOM     13  C   UNL     1      97.099  55.896 225.385  1.00  0.00    -0.000 C 
BRANCH  13  14
ATOM     14  C   UNL     1      97.667  57.330 225.380  1.00  0.00    -0.000 C 
BRANCH  14  15
ATOM     15  C   UNL     1      99.198  57.348 225.230  1.00  0.00    -0.000 C 
BRANCH  15  16
ATOM     16  C   UNL     1      99.735  56.103 224.505  1.00  0.00    -0.000 C 
BRANCH  16  17
ATOM     17  C   UNL     1     100.647  56.463 223.323  1.00  0.00    -0.003 C 
ATOM     18  C   UNL     1     101.197  57.879 223.466  1.00  0.00     0.004 C 
ENDBRANCH  16  17
ENDBRANCH  15  16
ENDBRANCH  14  15
ENDBRANCH  13  14
ENDBRANCH  12  13
ENDBRANCH  11  12
ENDBRANCH   1  11
TORSDOF 14
ENDMDL
MODEL 4
REMARK VINA RESULT:    -2.607      3.124      6.102
REMARK INTER + INTRA:          -7.253
REMARK INTER:                  -5.160
REMARK INTRA:                  -2.093
REMARK UNBOUND:                -2.512
REMARK SMILES CCCCCCCCCCCCCCCC(=O)[O-]
REMARK SMILES IDX 9 1 10 2 11 3 12 4 13 5 14 6 15 7 16 8 17 9 18 10 8 11 7 12
REMARK SMILES IDX 6 13 5 14 4 15 3 16 2 17 1 18
REMARK H PARENT
REMARK Flexibility Score: inf
ROOT
ATOM      1  C   UNL     1      98.614  65.433 225.106  1.00  0.00     0.000 C 
ENDROOT
BRANCH   1   2
ATOM      2  C   UNL     1      99.169  64.845 226.413  1.00  0.00     0.000 C 
BRANCH   2   3
ATOM      3  C   UNL     1      98.478  63.530 226.812  1.00  0.00     0.000 C 
BRANCH   3   4
ATOM      4  C   UNL     1      99.375  62.621 227.671  1.00  0.00     0.000 C 
BRANCH   4   5
ATOM      5  C   UNL     1     100.884  62.935 227.604  1.00  0.00     0.000 C 
BRANCH   5   6
ATOM      6  C   UNL     1     101.736  61.898 226.845  1.00  0.00     0.006 C 
BRANCH   6   7
ATOM      7  C   UNL     1     101.978  62.237 225.366  1.00  0.00     0.053 C 
BRANCH   7   8
ATOM      8  C   UNL     1     102.605  63.585 225.196  1.00  0.00     0.041 C 
ATOM      9  O   UNL     1     103.724  63.834 225.715  1.00  0.00    -0.550 OA
ATOM     10  O   UNL     1     101.968  64.558 224.435  1.00  0.00    -0.550 OA
ENDBRANCH   7   8
ENDBRANCH   6   7
ENDBRANCH   5   6
ENDBRANCH   4   5
ENDBRANCH   3   4
ENDBRANCH   2   3
ENDBRANCH   1   2
BRANCH   1  11
ATOM     11  C   UNL     1      97.230  64.864 224.744  1.00  0.00     0.000 C 
BRANCH  11  12
ATOM     12  C   UNL     1      96.350  65.875 223.988  1.00  0.00    -0.000 C 
BRANCH  12  13
ATOM     13  C   UNL     1      94.921  66.039 224.544  1.00  0.00    -0.000 C 
BRANCH  13  14
ATOM     14  C   UNL     1      94.875  66.424 226.038  1.00  0.00    -0.000 C 
BRANCH  14  15
ATOM     15  C   UNL     1      95.706  67.683 226.339  1.00  0.00    -0.000 C 
BRANCH  15  16
ATOM     16  C   UNL     1      96.590  67.524 227.586  1.00  0.00    -0.000 C 
BRANCH  16  17
ATOM     17  C   UNL     1      96.309  66.215 228.338  1.00  0.00    -0.003 C 
ATOM     18  C   UNL     1      97.342  65.982 229.437  1.00  0.00     0.004 C 
ENDBRANCH  16  17
ENDBRANCH  15  16
ENDBRANCH  14  15
ENDBRANCH  13  14
ENDBRANCH  12  13
ENDBRANCH  11  12
ENDBRANCH   1  11
TORSDOF 14
ENDMDL
MODEL 5
REMARK VINA RESULT:    -2.598      2.999      5.934
REMARK INTER + INTRA:          -7.237
REMARK INTER:                  -4.914
REMARK INTRA:                  -2.323
REMARK UNBOUND:                -2.512
REMARK SMILES CCCCCCCCCCCCCCCC(=O)[O-]
REMARK SMILES IDX 9 1 10 2 11 3 12 4 13 5 14 6 15 7 16 8 17 9 18 10 8 11 7 12
REMARK SMILES IDX 6 13 5 14 4 15 3 16 2 17 1 18
REMARK H PARENT
REMARK Flexibility Score: inf
ROOT
ATOM      1  C   UNL     1      95.304  65.064 226.841  1.00  0.00     0.000 C 
ENDROOT
BRANCH   1   2
ATOM      2  C   UNL     1      96.721  64.473 226.767  1.00  0.00     0.000 C 
BRANCH   2   3
ATOM      3  C   UNL     1      97.335  64.580 225.362  1.00  0.00     0.000 C 
BRANCH   3   4
ATOM      4  C   UNL     1      98.673  65.341 225.350  1.00  0.00     0.000 C 
BRANCH   4   5
ATOM      5  C   UNL     1      99.389  65.430 226.714  1.00  0.00     0.000 C 
BRANCH   5   6
ATOM      6  C   UNL     1     100.204  64.182 227.109  1.00  0.00     0.006 C 
BRANCH   6   7
ATOM      7  C   UNL     1     100.962  63.526 225.944  1.00  0.00     0.053 C 
BRANCH   7   8
ATOM      8  C   UNL     1     102.046  64.411 225.412  1.00  0.00     0.041 C 
ATOM      9  O   UNL     1     102.001  64.826 224.225  1.00  0.00    -0.550 OA
ATOM     10  O   UNL     1     103.092  64.804 226.239  1.00  0.00    -0.550 OA
ENDBRANCH   7   8
ENDBRANCH   6   7
ENDBRANCH   5   6
ENDBRANCH   4   5
ENDBRANCH   3   4
ENDBRANCH   2   3
ENDBRANCH   1   2
BRANCH   1  11
ATOM     11  C   UNL     1      94.894  65.779 225.541  1.00  0.00     0.000 C 
BRANCH  11  12
ATOM     12  C   UNL     1      94.875  67.310 225.684  1.00  0.00    -0.000 C 
BRANCH  12  13
ATOM     13  C   UNL     1      95.392  67.846 227.034  1.00  0.00    -0.000 C 
BRANCH  13  14
ATOM     14  C   UNL     1      96.843  68.368 226.982  1.00  0.00    -0.000 C 
BRANCH  14  15
ATOM     15  C   UNL     1      97.570  68.195 228.327  1.00  0.00    -0.000 C 
BRANCH  15  16
ATOM     16  C   UNL     1      96.798  67.294 229.304  1.00  0.00    -0.000 C 
BRANCH  16  17
ATOM     17  C   UNL     1      97.680  66.186 229.899  1.00  0.00    -0.003 C 
ATOM     18  C   UNL     1      96.832  65.120 230.585  1.00  0.00     0.004 C 
ENDBRANCH  16  17
ENDBRANCH  15  16
ENDBRANCH  14  15
ENDBRANCH  13  14
ENDBRANCH  12  13
ENDBRANCH  11  12
ENDBRANCH   1  11
TORSDOF 14
ENDMDL
MODEL 6
REMARK VINA RESULT:    -2.580      2.627      5.063
REMARK INTER + INTRA:          -7.203
REMARK INTER:                  -4.863
REMARK INTRA:                  -2.340
REMARK UNBOUND:                -2.512
REMARK SMILES CCCCCCCCCCCCCCCC(=O)[O-]
REMARK SMILES IDX 9 1 10 2 11 3 12 4 13 5 14 6 15 7 16 8 17 9 18 10 8 11 7 12
REMARK SMILES IDX 6 13 5 14 4 15 3 16 2 17 1 18
REMARK H PARENT
REMARK Flexibility Score: inf
ROOT
ATOM      1  C   UNL     1      97.082  66.206 229.175  1.00  0.00     0.000 C 
ENDROOT
BRANCH   1   2
ATOM      2  C   UNL     1      96.216  66.442 227.928  1.00  0.00     0.000 C 
BRANCH   2   3
ATOM      3  C   UNL     1      95.939  65.148 227.145  1.00  0.00     0.000 C 
BRANCH   3   4
ATOM      4  C   UNL     1      95.633  65.403 225.658  1.00  0.00     0.000 C 
BRANCH   4   5
ATOM      5  C   UNL     1      96.751  64.990 224.678  1.00  0.00     0.000 C 
BRANCH   5   6
ATOM      6  C   UNL     1      98.115  64.687 225.331  1.00  0.00     0.006 C 
BRANCH   6   7
ATOM      7  C   UNL     1      99.124  65.844 225.256  1.00  0.00     0.053 C 
BRANCH   7   8
ATOM      8  C   UNL     1     100.539  65.354 225.244  1.00  0.00     0.041 C 
ATOM      9  O   UNL     1     101.300  65.593 226.217  1.00  0.00    -0.550 OA
ATOM     10  O   UNL     1     101.006  64.606 224.171  1.00  0.00    -0.550 OA
ENDBRANCH   7   8
ENDBRANCH   6   7
ENDBRANCH   5   6
ENDBRANCH   4   5
ENDBRANCH   3   4
ENDBRANCH   2   3
ENDBRANCH   1   2
BRANCH   1  11
ATOM     11  C   UNL     1      98.587  66.182 228.854  1.00  0.00     0.000 C 
BRANCH  11  12
ATOM     12  C   UNL     1      99.199  64.776 228.974  1.00  0.00    -0.000 C 
BRANCH  12  13
ATOM     13  C   UNL     1      98.589  63.891 230.079  1.00  0.00    -0.000 C 
BRANCH  13  14
ATOM     14  C   UNL     1      97.863  62.639 229.544  1.00  0.00    -0.000 C 
BRANCH  14  15
ATOM     15  C   UNL     1      98.265  62.310 228.096  1.00  0.00    -0.000 C 
BRANCH  15  16
ATOM     16  C   UNL     1      98.839  60.892 227.950  1.00  0.00    -0.000 C 
BRANCH  16  17
ATOM     17  C   UNL     1     100.366  60.894 227.780  1.00  0.00    -0.003 C 
ATOM     18  C   UNL     1     100.822  62.085 226.943  1.00  0.00     0.004 C 
ENDBRANCH  16  17
ENDBRANCH  15  16
ENDBRANCH  14  15
ENDBRANCH  13  14
ENDBRANCH  12  13
ENDBRANCH  11  12
ENDBRANCH   1  11
TORSDOF 14
ENDMDL
MODEL 7
REMARK VINA RESULT:    -2.567      1.744      4.125
REMARK INTER + INTRA:          -7.180
REMARK INTER:                  -4.725
REMARK INTRA:                  -2.455
REMARK UNBOUND:                -2.512
REMARK SMILES CCCCCCCCCCCCCCCC(=O)[O-]
REMARK SMILES IDX 9 1 10 2 11 3 12 4 13 5 14 6 15 7 16 8 17 9 18 10 8 11 7 12
REMARK SMILES IDX 6 13 5 14 4 15 3 16 2 17 1 18
REMARK H PARENT
REMARK Flexibility Score: inf
ROOT
ATOM      1  C   UNL     1      97.594  64.602 225.286  1.00  0.00     0.000 C 
ENDROOT
BRANCH   1   2
ATOM      2  C   UNL     1      99.069  65.026 225.370  1.00  0.00     0.000 C 
BRANCH   2   3
ATOM      3  C   UNL     1      99.759  64.520 226.648  1.00  0.00     0.000 C 
BRANCH   3   4
ATOM      4  C   UNL     1     100.178  65.662 227.592  1.00  0.00     0.000 C 
BRANCH   4   5
ATOM      5  C   UNL     1     100.175  65.306 229.093  1.00  0.00     0.000 C 
BRANCH   5   6
ATOM      6  C   UNL     1      98.828  64.795 229.642  1.00  0.00     0.006 C 
BRANCH   6   7
ATOM      7  C   UNL     1      97.905  65.897 230.185  1.00  0.00     0.053 C 
BRANCH   7   8
ATOM      8  C   UNL     1      96.658  65.335 230.794  1.00  0.00     0.041 C 
ATOM      9  O   UNL     1      96.732  64.500 231.733  1.00  0.00    -0.550 OA
ATOM     10  O   UNL     1      95.414  65.758 230.345  1.00  0.00    -0.550 OA
ENDBRANCH   7   8
ENDBRANCH   6   7
ENDBRANCH   5   6
ENDBRANCH   4   5
ENDBRANCH   3   4
ENDBRANCH   2   3
ENDBRANCH   1   2
BRANCH   1  11
ATOM     11  C   UNL     1      96.964  64.380 226.673  1.00  0.00     0.000 C 
BRANCH  11  12
ATOM     12  C   UNL     1      95.597  65.070 226.824  1.00  0.00    -0.000 C 
BRANCH  12  13
ATOM     13  C   UNL     1      95.544  66.528 226.326  1.00  0.00    -0.000 C 
BRANCH  13  14
ATOM     14  C   UNL     1      95.993  67.562 227.380  1.00  0.00    -0.000 C 
BRANCH  14  15
ATOM     15  C   UNL     1      97.435  68.044 227.142  1.00  0.00    -0.000 C 
BRANCH  15  16
ATOM     16  C   UNL     1      97.540  69.044 225.980  1.00  0.00    -0.000 C 
BRANCH  16  17
ATOM     17  C   UNL     1      98.459  68.541 224.857  1.00  0.00    -0.003 C 
ATOM     18  C   UNL     1      99.926  68.633 225.267  1.00  0.00     0.004 C 
ENDBRANCH  16  17
ENDBRANCH  15  16
ENDBRANCH  14  15
ENDBRANCH  13  14
ENDBRANCH  12  13
ENDBRANCH  11  12
ENDBRANCH   1  11
TORSDOF 14
ENDMDL
MODEL 8
REMARK VINA RESULT:    -2.564      1.891      4.061
REMARK INTER + INTRA:          -7.175
REMARK INTER:                  -4.715
REMARK INTRA:                  -2.460
REMARK UNBOUND:                -2.512
REMARK SMILES CCCCCCCCCCCCCCCC(=O)[O-]
REMARK SMILES IDX 9 1 10 2 11 3 12 4 13 5 14 6 15 7 16 8 17 9 18 10 8 11 7 12
REMARK SMILES IDX 6 13 5 14 4 15 3 16 2 17 1 18
REMARK H PARENT
REMARK Flexibility Score: inf
ROOT
ATOM      1  C   UNL     1     101.240  64.233 224.896  1.00  0.00     0.000 C 
ENDROOT
BRANCH   1   2
ATOM      2  C   UNL     1     101.175  65.755 224.693  1.00  0.00     0.000 C 
BRANCH   2   3
ATOM      3  C   UNL     1     101.549  66.539 225.962  1.00  0.00     0.000 C 
BRANCH   3   4
ATOM      4  C   UNL     1     100.655  67.772 226.187  1.00  0.00     0.000 C 
BRANCH   4   5
ATOM      5  C   UNL     1      99.346  67.792 225.370  1.00  0.00     0.000 C 
BRANCH   5   6
ATOM      6  C   UNL     1      98.156  68.490 226.057  1.00  0.00     0.006 C 
BRANCH   6   7
ATOM      7  C   UNL     1      97.669  67.795 227.339  1.00  0.00     0.053 C 
BRANCH   7   8
ATOM      8  C   UNL     1      96.188  67.578 227.331  1.00  0.00     0.041 C 
ATOM      9  O   UNL     1      95.432  68.385 226.730  1.00  0.00    -0.550 OA
ATOM     10  O   UNL     1      95.645  66.465 227.962  1.00  0.00    -0.550 OA
ENDBRANCH   7   8
ENDBRANCH   6   7
ENDBRANCH   5   6
ENDBRANCH   4   5
ENDBRANCH   3   4
ENDBRANCH   2   3
ENDBRANCH   1   2
BRANCH   1  11
ATOM     11  C   UNL     1     101.256  63.837 226.384  1.00  0.00     0.000 C 
BRANCH  11  12
ATOM     12  C   UNL     1      99.905  63.282 226.867  1.00  0.00    -0.000 C 
BRANCH  12  13
ATOM     13  C   UNL     1      98.803  64.340 227.075  1.00  0.00    -0.000 C 
BRANCH  13  14
ATOM     14  C   UNL     1      97.526  64.079 226.249  1.00  0.00    -0.000 C 
BRANCH  14  15
ATOM     15  C   UNL     1      97.522  64.861 224.924  1.00  0.00    -0.000 C 
BRANCH  15  16
ATOM     16  C   UNL     1      96.114  65.321 224.514  1.00  0.00    -0.000 C 
BRANCH  16  17
ATOM     17  C   UNL     1      96.090  65.954 223.115  1.00  0.00    -0.003 C 
ATOM     18  C   UNL     1      96.024  67.476 223.203  1.00  0.00     0.004 C 
ENDBRANCH  16  17
ENDBRANCH  15  16
ENDBRANCH  14  15
ENDBRANCH  13  14
ENDBRANCH  12  13
ENDBRANCH  11  12
ENDBRANCH   1  11
TORSDOF 14
ENDMDL
MODEL 9
REMARK VINA RESULT:    -2.563      2.989      5.655
REMARK INTER + INTRA:          -7.172
REMARK INTER:                  -5.080
REMARK INTRA:                  -2.092
REMARK UNBOUND:                -2.512
REMARK SMILES CCCCCCCCCCCCCCCC(=O)[O-]
REMARK SMILES IDX 9 1 10 2 11 3 12 4 13 5 14 6 15 7 16 8 17 9 18 10 8 11 7 12
REMARK SMILES IDX 6 13 5 14 4 15 3 16 2 17 1 18
REMARK H PARENT
REMARK Flexibility Score: inf
ROOT
ATOM      1  C   UNL     1      98.029  64.474 225.499  1.00  0.00     0.000 C 
ENDROOT
BRANCH   1   2
ATOM      2  C   UNL     1      98.003  64.623 227.028  1.00  0.00     0.000 C 
BRANCH   2   3
ATOM      3  C   UNL     1      97.963  63.268 227.755  1.00  0.00     0.000 C 
BRANCH   3   4
ATOM      4  C   UNL     1      99.238  62.434 227.533  1.00  0.00     0.000 C 
BRANCH   4   5
ATOM      5  C   UNL     1     100.525  63.026 228.144  1.00  0.00     0.000 C 
BRANCH   5   6
ATOM      6  C   UNL     1     101.789  62.887 227.272  1.00  0.00     0.006 C 
BRANCH   6   7
ATOM      7  C   UNL     1     101.518  62.891 225.759  1.00  0.00     0.053 C 
BRANCH   7   8
ATOM      8  C   UNL     1     101.752  64.239 225.152  1.00  0.00     0.041 C 
ATOM      9  O   UNL     1     101.158  64.569 224.092  1.00  0.00    -0.550 OA
ATOM     10  O   UNL     1     102.601  65.145 225.775  1.00  0.00    -0.550 OA
ENDBRANCH   7   8
ENDBRANCH   6   7
ENDBRANCH   5   6
ENDBRANCH   4   5
ENDBRANCH   3   4
ENDBRANCH   2   3
ENDBRANCH   1   2
BRANCH   1  11
ATOM     11  C   UNL     1      96.756  65.023 224.830  1.00  0.00     0.000 C 
BRANCH  11  12
ATOM     12  C   UNL     1      95.659  65.386 225.846  1.00  0.00    -0.000 C 
BRANCH  12  13
ATOM     13  C   UNL     1      95.059  66.796 225.681  1.00  0.00    -0.000 C 
BRANCH  13  14
ATOM     14  C   UNL     1      95.385  67.752 226.847  1.00  0.00    -0.000 C 
BRANCH  14  15
ATOM     15  C   UNL     1      96.418  68.821 226.450  1.00  0.00    -0.000 C 
BRANCH  15  16
ATOM     16  C   UNL     1      97.866  68.338 226.627  1.00  0.00    -0.000 C 
BRANCH  16  17
ATOM     17  C   UNL     1      98.643  68.321 225.303  1.00  0.00    -0.003 C 
ATOM     18  C   UNL     1      99.990  67.622 225.467  1.00  0.00     0.004 C 
ENDBRANCH  16  17
ENDBRANCH  15  16
ENDBRANCH  14  15
ENDBRANCH  13  14
ENDBRANCH  12  13
ENDBRANCH  11  12
ENDBRANCH   1  11
TORSDOF 14
ENDMDL
