MODEL 1
REMARK VINA RESULT:    -4.058      0.000      0.000
REMARK INTER + INTRA:          -8.102
REMARK INTER:                  -7.379
REMARK INTRA:                  -0.723
REMARK UNBOUND:                -0.723
REMARK SMILES CCCCCCCCCCCCCCCC(=O)[O-]
REMARK SMILES IDX 9 1 10 2 11 3 12 4 13 5 14 6 15 7 16 8 17 9 18 10 8 11 7 12
REMARK SMILES IDX 6 13 5 14 4 15 3 16 2 17 1 18
REMARK H PARENT
REMARK Flexibility Score: inf
ROOT
ATOM      1  C   UNL     1      -7.878  -8.089 -25.867  1.00  0.00     0.000 C 
ENDROOT
BRANCH   1   2
ATOM      2  C   UNL     1      -6.682  -7.136 -26.026  1.00  0.00     0.000 C 
BRANCH   2   3
ATOM      3  C   UNL     1      -7.004  -5.931 -26.927  1.00  0.00     0.000 C 
BRANCH   3   4
ATOM      4  C   UNL     1      -6.780  -4.587 -26.214  1.00  0.00     0.000 C 
BRANCH   4   5
ATOM      5  C   UNL     1      -8.092  -3.942 -25.730  1.00  0.00     0.000 C 
BRANCH   5   6
ATOM      6  C   UNL     1      -7.993  -3.183 -24.394  1.00  0.00     0.006 C 
BRANCH   6   7
ATOM      7  C   UNL     1      -7.019  -2.001 -24.448  1.00  0.00     0.053 C 
BRANCH   7   8
ATOM      8  C   UNL     1      -6.414  -1.759 -23.101  1.00  0.00     0.041 C 
ATOM      9  O   UNL     1      -5.630  -2.606 -22.597  1.00  0.00    -0.550 OA
ATOM     10  O   UNL     1      -6.754  -0.622 -22.381  1.00  0.00    -0.550 OA
ENDBRANCH   7   8
ENDBRANCH   6   7
ENDBRANCH   5   6
ENDBRANCH   4   5
ENDBRANCH   3   4
ENDBRANCH   2   3
ENDBRANCH   1   2
BRANCH   1  11
ATOM     11  C   UNL     1      -9.060  -7.708 -26.772  1.00  0.00     0.000 C 
BRANCH  11  12
ATOM     12  C   UNL     1     -10.275  -8.636 -26.584  1.00  0.00    -0.000 C 
BRANCH  12  13
ATOM     13  C   UNL     1     -11.093  -8.805 -27.873  1.00  0.00    -0.000 C 
BRANCH  13  14
ATOM     14  C   UNL     1     -11.996 -10.048 -27.840  1.00  0.00    -0.000 C 
BRANCH  14  15
ATOM     15  C   UNL     1     -11.477 -11.077 -26.824  1.00  0.00    -0.000 C 
BRANCH  15  16
ATOM     16  C   UNL     1     -11.605 -12.525 -27.341  1.00  0.00    -0.000 C 
BRANCH  16  17
ATOM     17  C   UNL     1     -12.636 -13.366 -26.571  1.00  0.00    -0.003 C 
ATOM     18  C   UNL     1     -12.181 -14.807 -26.341  1.00  0.00     0.004 C 
ENDBRANCH  16  17
ENDBRANCH  15  16
ENDBRANCH  14  15
ENDBRANCH  13  14
ENDBRANCH  12  13
ENDBRANCH  11  12
ENDBRANCH   1  11
TORSDOF 14
ENDMDL
MODEL 2
REMARK VINA RESULT:    -4.057      5.763     10.202
REMARK INTER + INTRA:          -8.099
REMARK INTER:                  -5.830
REMARK INTRA:                  -2.269
REMARK UNBOUND:                -0.723
REMARK SMILES CCCCCCCCCCCCCCCC(=O)[O-]
REMARK SMILES IDX 9 1 10 2 11 3 12 4 13 5 14 6 15 7 16 8 17 9 18 10 8 11 7 12
REMARK SMILES IDX 6 13 5 14 4 15 3 16 2 17 1 18
REMARK H PARENT
REMARK Flexibility Score: inf
ROOT
ATOM      1  C   UNL     1      -8.413  -1.332 -23.806  1.00  0.00     0.000 C 
ENDROOT
BRANCH   1   2
ATOM      2  C   UNL     1      -7.182  -1.168 -22.898  1.00  0.00     0.000 C 
BRANCH   2   3
ATOM      3  C   UNL     1      -6.213  -2.358 -22.998  1.00  0.00     0.000 C 
BRANCH   3   4
ATOM      4  C   UNL     1      -5.018  -2.068 -23.921  1.00  0.00     0.000 C 
BRANCH   4   5
ATOM      5  C   UNL     1      -5.244  -2.560 -25.363  1.00  0.00     0.000 C 
BRANCH   5   6
ATOM      6  C   UNL     1      -5.968  -3.912 -25.486  1.00  0.00     0.006 C 
BRANCH   6   7
ATOM      7  C   UNL     1      -6.874  -3.996 -26.719  1.00  0.00     0.053 C 
BRANCH   7   8
ATOM      8  C   UNL     1      -8.313  -4.011 -26.311  1.00  0.00     0.041 C 
ATOM      9  O   UNL     1      -8.692  -4.728 -25.348  1.00  0.00    -0.550 OA
ATOM     10  O   UNL     1      -9.245  -3.268 -27.024  1.00  0.00    -0.550 OA
ENDBRANCH   7   8
ENDBRANCH   6   7
ENDBRANCH   5   6
ENDBRANCH   4   5
ENDBRANCH   3   4
ENDBRANCH   2   3
ENDBRANCH   1   2
BRANCH   1  11
ATOM     11  C   UNL     1      -8.637  -0.118 -24.720  1.00  0.00     0.000 C 
BRANCH  11  12
ATOM     12  C   UNL     1      -7.897  -0.244 -26.066  1.00  0.00    -0.000 C 
BRANCH  12  13
ATOM     13  C   UNL     1      -7.089   1.015 -26.415  1.00  0.00    -0.000 C 
BRANCH  13  14
ATOM     14  C   UNL     1      -5.787   1.123 -25.608  1.00  0.00    -0.000 C 
BRANCH  14  15
ATOM     15  C   UNL     1      -5.834   2.319 -24.645  1.00  0.00    -0.000 C 
BRANCH  15  16
ATOM     16  C   UNL     1      -5.347   1.948 -23.229  1.00  0.00    -0.000 C 
BRANCH  16  17
ATOM     17  C   UNL     1      -5.896   2.868 -22.126  1.00  0.00    -0.003 C 
ATOM     18  C   UNL     1      -4.904   3.095 -20.986  1.00  0.00     0.004 C 
ENDBRANCH  16  17
ENDBRANCH  15  16
ENDBRANCH  14  15
ENDBRANCH  13  14
ENDBRANCH  12  13
ENDBRANCH  11  12
ENDBRANCH   1  11
TORSDOF 14
ENDMDL
MODEL 3
REMARK VINA RESULT:    -3.989      4.319      7.060
REMARK INTER + INTRA:          -7.976
REMARK INTER:                  -6.322
REMARK INTRA:                  -1.654
REMARK UNBOUND:                -0.723
REMARK SMILES CCCCCCCCCCCCCCCC(=O)[O-]
REMARK SMILES IDX 9 1 10 2 11 3 12 4 13 5 14 6 15 7 16 8 17 9 18 10 8 11 7 12
REMARK SMILES IDX 6 13 5 14 4 15 3 16 2 17 1 18
REMARK H PARENT
REMARK Flexibility Score: inf
ROOT
ATOM      1  C   UNL     1     -10.294  -0.073 -25.236  1.00  0.00     0.000 C 
ENDROOT
BRANCH   1   2
ATOM      2  C   UNL     1      -8.875  -0.007 -24.647  1.00  0.00     0.000 C 
BRANCH   2   3
ATOM      3  C   UNL     1      -8.562  -1.198 -23.726  1.00  0.00     0.000 C 
BRANCH   3   4
ATOM      4  C   UNL     1      -7.120  -1.166 -23.192  1.00  0.00     0.000 C 
BRANCH   4   5
ATOM      5  C   UNL     1      -6.167  -0.360 -24.095  1.00  0.00     0.000 C 
BRANCH   5   6
ATOM      6  C   UNL     1      -5.149   0.520 -23.349  1.00  0.00     0.006 C 
BRANCH   6   7
ATOM      7  C   UNL     1      -5.766   1.282 -22.171  1.00  0.00     0.053 C 
BRANCH   7   8
ATOM      8  C   UNL     1      -6.073   2.693 -22.564  1.00  0.00     0.041 C 
ATOM      9  O   UNL     1      -7.082   2.947 -23.273  1.00  0.00    -0.550 OA
ATOM     10  O   UNL     1      -5.219   3.721 -22.186  1.00  0.00    -0.550 OA
ENDBRANCH   7   8
ENDBRANCH   6   7
ENDBRANCH   5   6
ENDBRANCH   4   5
ENDBRANCH   3   4
ENDBRANCH   2   3
ENDBRANCH   1   2
BRANCH   1  11
ATOM     11  C   UNL     1     -10.337   0.336 -26.717  1.00  0.00     0.000 C 
BRANCH  11  12
ATOM     12  C   UNL     1     -10.474  -0.872 -27.663  1.00  0.00    -0.000 C 
BRANCH  12  13
ATOM     13  C   UNL     1      -9.130  -1.561 -27.939  1.00  0.00    -0.000 C 
BRANCH  13  14
ATOM     14  C   UNL     1      -9.045  -2.962 -27.313  1.00  0.00    -0.000 C 
BRANCH  14  15
ATOM     15  C   UNL     1      -7.660  -3.204 -26.694  1.00  0.00    -0.000 C 
BRANCH  15  16
ATOM     16  C   UNL     1      -7.717  -4.182 -25.501  1.00  0.00    -0.000 C 
BRANCH  16  17
ATOM     17  C   UNL     1      -7.319  -5.622 -25.864  1.00  0.00    -0.003 C 
ATOM     18  C   UNL     1      -8.523  -6.540 -26.078  1.00  0.00     0.004 C 
ENDBRANCH  16  17
ENDBRANCH  15  16
ENDBRANCH  14  15
ENDBRANCH  13  14
ENDBRANCH  12  13
ENDBRANCH  11  12
ENDBRANCH   1  11
TORSDOF 14
ENDMDL
MODEL 4
REMARK VINA RESULT:    -3.979      2.507      5.307
REMARK INTER + INTRA:          -7.958
REMARK INTER:                  -6.595
REMARK INTRA:                  -1.364
REMARK UNBOUND:                -0.723
REMARK SMILES CCCCCCCCCCCCCCCC(=O)[O-]
REMARK SMILES IDX 9 1 10 2 11 3 12 4 13 5 14 6 15 7 16 8 17 9 18 10 8 11 7 12
REMARK SMILES IDX 6 13 5 14 4 15 3 16 2 17 1 18
REMARK H PARENT
REMARK Flexibility Score: inf
ROOT
ATOM      1  C   UNL     1      -7.644  -2.797 -24.163  1.00  0.00     0.000 C 
ENDROOT
BRANCH   1   2
ATOM      2  C   UNL     1      -6.519  -2.164 -23.325  1.00  0.00     0.000 C 
BRANCH   2   3
ATOM      3  C   UNL     1      -6.934  -0.822 -22.699  1.00  0.00     0.000 C 
BRANCH   3   4
ATOM      4  C   UNL     1      -6.105   0.358 -23.234  1.00  0.00     0.000 C 
BRANCH   4   5
ATOM      5  C   UNL     1      -6.513   0.776 -24.659  1.00  0.00     0.000 C 
BRANCH   5   6
ATOM      6  C   UNL     1      -7.920   1.385 -24.784  1.00  0.00     0.006 C 
BRANCH   6   7
ATOM      7  C   UNL     1      -8.675   0.899 -26.026  1.00  0.00     0.053 C 
BRANCH   7   8
ATOM      8  C   UNL     1      -9.765  -0.049 -25.638  1.00  0.00     0.041 C 
ATOM      9  O   UNL     1     -10.392  -0.690 -26.522  1.00  0.00    -0.550 OA
ATOM     10  O   UNL     1     -10.120  -0.190 -24.303  1.00  0.00    -0.550 OA
ENDBRANCH   7   8
ENDBRANCH   6   7
ENDBRANCH   5   6
ENDBRANCH   4   5
ENDBRANCH   3   4
ENDBRANCH   2   3
ENDBRANCH   1   2
BRANCH   1  11
ATOM     11  C   UNL     1      -7.329  -2.794 -25.667  1.00  0.00     0.000 C 
BRANCH  11  12
ATOM     12  C   UNL     1      -8.133  -3.855 -26.444  1.00  0.00    -0.000 C 
BRANCH  12  13
ATOM     13  C   UNL     1      -8.255  -5.180 -25.677  1.00  0.00    -0.000 C 
BRANCH  13  14
ATOM     14  C   UNL     1      -7.273  -6.248 -26.185  1.00  0.00    -0.000 C 
BRANCH  14  15
ATOM     15  C   UNL     1      -7.740  -7.657 -25.788  1.00  0.00    -0.000 C 
BRANCH  15  16
ATOM     16  C   UNL     1      -9.189  -7.939 -26.237  1.00  0.00    -0.000 C 
BRANCH  16  17
ATOM     17  C   UNL     1      -9.873  -9.064 -25.443  1.00  0.00    -0.003 C 
ATOM     18  C   UNL     1     -10.297 -10.242 -26.318  1.00  0.00     0.004 C 
ENDBRANCH  16  17
ENDBRANCH  15  16
ENDBRANCH  14  15
ENDBRANCH  13  14
ENDBRANCH  12  13
ENDBRANCH  11  12
ENDBRANCH   1  11
TORSDOF 14
ENDMDL
MODEL 5
REMARK VINA RESULT:    -3.967      3.890      9.495
REMARK INTER + INTRA:          -7.937
REMARK INTER:                  -6.749
REMARK INTRA:                  -1.188
REMARK UNBOUND:                -0.723
REMARK SMILES CCCCCCCCCCCCCCCC(=O)[O-]
REMARK SMILES IDX 9 1 10 2 11 3 12 4 13 5 14 6 15 7 16 8 17 9 18 10 8 11 7 12
REMARK SMILES IDX 6 13 5 14 4 15 3 16 2 17 1 18
REMARK H PARENT
REMARK Flexibility Score: inf
ROOT
ATOM      1  C   UNL     1      -6.486  -2.998 -24.653  1.00  0.00     0.000 C 
ENDROOT
BRANCH   1   2
ATOM      2  C   UNL     1      -7.983  -3.344 -24.715  1.00  0.00     0.000 C 
BRANCH   2   3
ATOM      3  C   UNL     1      -8.262  -4.610 -25.543  1.00  0.00     0.000 C 
BRANCH   3   4
ATOM      4  C   UNL     1      -6.973  -5.341 -25.953  1.00  0.00     0.000 C 
BRANCH   4   5
ATOM      5  C   UNL     1      -7.090  -6.872 -25.832  1.00  0.00     0.000 C 
BRANCH   5   6
ATOM      6  C   UNL     1      -8.521  -7.428 -25.946  1.00  0.00     0.006 C 
BRANCH   6   7
ATOM      7  C   UNL     1      -8.557  -8.925 -26.272  1.00  0.00     0.053 C 
BRANCH   7   8
ATOM      8  C   UNL     1      -9.870  -9.518 -25.869  1.00  0.00     0.041 C 
ATOM      9  O   UNL     1     -10.719  -9.832 -26.743  1.00  0.00    -0.550 OA
ATOM     10  O   UNL     1     -10.174  -9.679 -24.523  1.00  0.00    -0.550 OA
ENDBRANCH   7   8
ENDBRANCH   6   7
ENDBRANCH   5   6
ENDBRANCH   4   5
ENDBRANCH   3   4
ENDBRANCH   2   3
ENDBRANCH   1   2
BRANCH   1  11
ATOM     11  C   UNL     1      -6.057  -2.487 -23.269  1.00  0.00     0.000 C 
BRANCH  11  12
ATOM     12  C   UNL     1      -5.445  -1.074 -23.320  1.00  0.00    -0.000 C 
BRANCH  12  13
ATOM     13  C   UNL     1      -6.355  -0.014 -22.681  1.00  0.00    -0.000 C 
BRANCH  13  14
ATOM     14  C   UNL     1      -6.635   1.168 -23.623  1.00  0.00    -0.000 C 
BRANCH  14  15
ATOM     15  C   UNL     1      -6.959   0.675 -25.041  1.00  0.00    -0.000 C 
BRANCH  15  16
ATOM     16  C   UNL     1      -8.390   1.054 -25.477  1.00  0.00    -0.000 C 
BRANCH  16  17
ATOM     17  C   UNL     1      -9.447  -0.001 -25.111  1.00  0.00    -0.003 C 
ATOM     18  C   UNL     1     -10.674   0.040 -26.022  1.00  0.00     0.004 C 
ENDBRANCH  16  17
ENDBRANCH  15  16
ENDBRANCH  14  15
ENDBRANCH  13  14
ENDBRANCH  12  13
ENDBRANCH  11  12
ENDBRANCH   1  11
TORSDOF 14
ENDMDL
MODEL 6
REMARK VINA RESULT:    -3.957      4.830      8.757
REMARK INTER + INTRA:          -7.918
REMARK INTER:                  -6.075
REMARK INTRA:                  -1.843
REMARK UNBOUND:                -0.723
REMARK SMILES CCCCCCCCCCCCCCCC(=O)[O-]
REMARK SMILES IDX 9 1 10 2 11 3 12 4 13 5 14 6 15 7 16 8 17 9 18 10 8 11 7 12
REMARK SMILES IDX 6 13 5 14 4 15 3 16 2 17 1 18
REMARK H PARENT
REMARK Flexibility Score: inf
ROOT
ATOM      1  C   UNL     1      -6.897  -1.020 -22.739  1.00  0.00     0.000 C 
ENDROOT
BRANCH   1   2
ATOM      2  C   UNL     1      -6.313  -2.384 -23.145  1.00  0.00     0.000 C 
BRANCH   2   3
ATOM      3  C   UNL     1      -5.828  -2.407 -24.605  1.00  0.00     0.000 C 
BRANCH   3   4
ATOM      4  C   UNL     1      -6.957  -2.741 -25.595  1.00  0.00     0.000 C 
BRANCH   4   5
ATOM      5  C   UNL     1      -8.040  -3.649 -24.982  1.00  0.00     0.000 C 
BRANCH   5   6
ATOM      6  C   UNL     1      -8.235  -5.002 -25.689  1.00  0.00     0.006 C 
BRANCH   6   7
ATOM      7  C   UNL     1      -6.927  -5.781 -25.862  1.00  0.00     0.053 C 
BRANCH   7   8
ATOM      8  C   UNL     1      -7.194  -7.253 -25.893  1.00  0.00     0.041 C 
ATOM      9  O   UNL     1      -6.249  -8.065 -26.071  1.00  0.00    -0.550 OA
ATOM     10  O   UNL     1      -8.495  -7.725 -25.772  1.00  0.00    -0.550 OA
ENDBRANCH   7   8
ENDBRANCH   6   7
ENDBRANCH   5   6
ENDBRANCH   4   5
ENDBRANCH   3   4
ENDBRANCH   2   3
ENDBRANCH   1   2
BRANCH   1  11
ATOM     11  C   UNL     1      -5.962   0.148 -23.088  1.00  0.00     0.000 C 
BRANCH  11  12
ATOM     12  C   UNL     1      -6.694   1.305 -23.793  1.00  0.00    -0.000 C 
BRANCH  12  13
ATOM     13  C   UNL     1      -7.002   0.998 -25.266  1.00  0.00    -0.000 C 
BRANCH  13  14
ATOM     14  C   UNL     1      -8.480   1.229 -25.620  1.00  0.00    -0.000 C 
BRANCH  14  15
ATOM     15  C   UNL     1      -9.357   0.086 -25.087  1.00  0.00    -0.000 C 
BRANCH  15  16
ATOM     16  C   UNL     1     -10.587  -0.172 -25.983  1.00  0.00    -0.000 C 
BRANCH  16  17
ATOM     17  C   UNL     1     -10.231  -0.499 -27.442  1.00  0.00    -0.003 C 
ATOM     18  C   UNL     1     -10.339  -1.989 -27.765  1.00  0.00     0.004 C 
ENDBRANCH  16  17
ENDBRANCH  15  16
ENDBRANCH  14  15
ENDBRANCH  13  14
ENDBRANCH  12  13
ENDBRANCH  11  12
ENDBRANCH   1  11
TORSDOF 14
ENDMDL
MODEL 7
REMARK VINA RESULT:    -3.932      5.666      9.507
REMARK INTER + INTRA:          -7.873
REMARK INTER:                  -5.503
REMARK INTRA:                  -2.370
REMARK UNBOUND:                -0.723
REMARK SMILES CCCCCCCCCCCCCCCC(=O)[O-]
REMARK SMILES IDX 9 1 10 2 11 3 12 4 13 5 14 6 15 7 16 8 17 9 18 10 8 11 7 12
REMARK SMILES IDX 6 13 5 14 4 15 3 16 2 17 1 18
REMARK H PARENT
REMARK Flexibility Score: inf
ROOT
ATOM      1  C   UNL     1      -5.694   0.021 -22.769  1.00  0.00     0.000 C 
ENDROOT
BRANCH   1   2
ATOM      2  C   UNL     1      -6.866  -0.975 -22.751  1.00  0.00     0.000 C 
BRANCH   2   3
ATOM      3  C   UNL     1      -6.453  -2.379 -23.224  1.00  0.00     0.000 C 
BRANCH   3   4
ATOM      4  C   UNL     1      -5.118  -2.374 -23.989  1.00  0.00     0.000 C 
BRANCH   4   5
ATOM      5  C   UNL     1      -5.263  -2.849 -25.446  1.00  0.00     0.000 C 
BRANCH   5   6
ATOM      6  C   UNL     1      -5.901  -4.239 -25.620  1.00  0.00     0.006 C 
BRANCH   6   7
ATOM      7  C   UNL     1      -6.887  -4.303 -26.792  1.00  0.00     0.053 C 
BRANCH   7   8
ATOM      8  C   UNL     1      -8.292  -4.147 -26.302  1.00  0.00     0.041 C 
ATOM      9  O   UNL     1      -8.659  -4.713 -25.239  1.00  0.00    -0.550 OA
ATOM     10  O   UNL     1      -9.210  -3.416 -27.046  1.00  0.00    -0.550 OA
ENDBRANCH   7   8
ENDBRANCH   6   7
ENDBRANCH   5   6
ENDBRANCH   4   5
ENDBRANCH   3   4
ENDBRANCH   2   3
ENDBRANCH   1   2
BRANCH   1  11
ATOM     11  C   UNL     1      -6.080   1.395 -22.200  1.00  0.00     0.000 C 
BRANCH  11  12
ATOM     12  C   UNL     1      -6.334   2.444 -23.299  1.00  0.00    -0.000 C 
BRANCH  12  13
ATOM     13  C   UNL     1      -5.589   2.122 -24.604  1.00  0.00    -0.000 C 
BRANCH  13  14
ATOM     14  C   UNL     1      -6.543   1.917 -25.792  1.00  0.00    -0.000 C 
BRANCH  14  15
ATOM     15  C   UNL     1      -6.423   0.493 -26.353  1.00  0.00    -0.000 C 
BRANCH  15  16
ATOM     16  C   UNL     1      -7.785  -0.229 -26.408  1.00  0.00    -0.000 C 
BRANCH  16  17
ATOM     17  C   UNL     1      -8.943   0.589 -25.812  1.00  0.00    -0.003 C 
ATOM     18  C   UNL     1      -9.780  -0.202 -24.808  1.00  0.00     0.004 C 
ENDBRANCH  16  17
ENDBRANCH  15  16
ENDBRANCH  14  15
ENDBRANCH  13  14
ENDBRANCH  12  13
ENDBRANCH  11  12
ENDBRANCH   1  11
TORSDOF 14
ENDMDL
MODEL 8
REMARK VINA RESULT:    -3.897      4.538      6.857
REMARK INTER + INTRA:          -7.809
REMARK INTER:                  -5.593
REMARK INTRA:                  -2.216
REMARK UNBOUND:                -0.723
REMARK SMILES CCCCCCCCCCCCCCCC(=O)[O-]
REMARK SMILES IDX 9 1 10 2 11 3 12 4 13 5 14 6 15 7 16 8 17 9 18 10 8 11 7 12
REMARK SMILES IDX 6 13 5 14 4 15 3 16 2 17 1 18
REMARK H PARENT
REMARK Flexibility Score: inf
ROOT
ATOM      1  C   UNL     1      -7.044  -1.274 -22.968  1.00  0.00     0.000 C 
ENDROOT
BRANCH   1   2
ATOM      2  C   UNL     1      -6.403   0.049 -22.515  1.00  0.00     0.000 C 
BRANCH   2   3
ATOM      3  C   UNL     1      -5.312   0.538 -23.484  1.00  0.00     0.000 C 
BRANCH   3   4
ATOM      4  C   UNL     1      -5.882   1.389 -24.631  1.00  0.00     0.000 C 
BRANCH   4   5
ATOM      5  C   UNL     1      -5.882   0.648 -25.981  1.00  0.00     0.000 C 
BRANCH   5   6
ATOM      6  C   UNL     1      -7.260   0.150 -26.453  1.00  0.00     0.006 C 
BRANCH   6   7
ATOM      7  C   UNL     1      -8.425   0.860 -25.754  1.00  0.00     0.053 C 
BRANCH   7   8
ATOM      8  C   UNL     1      -9.561  -0.089 -25.536  1.00  0.00     0.041 C 
ATOM      9  O   UNL     1     -10.014  -0.766 -26.495  1.00  0.00    -0.550 OA
ATOM     10  O   UNL     1     -10.149  -0.190 -24.282  1.00  0.00    -0.550 OA
ENDBRANCH   7   8
ENDBRANCH   6   7
ENDBRANCH   5   6
ENDBRANCH   4   5
ENDBRANCH   3   4
ENDBRANCH   2   3
ENDBRANCH   1   2
BRANCH   1  11
ATOM     11  C   UNL     1      -6.007  -2.388 -23.181  1.00  0.00     0.000 C 
BRANCH  11  12
ATOM     12  C   UNL     1      -6.083  -3.007 -24.589  1.00  0.00    -0.000 C 
BRANCH  12  13
ATOM     13  C   UNL     1      -7.526  -3.290 -25.033  1.00  0.00    -0.000 C 
BRANCH  13  14
ATOM     14  C   UNL     1      -7.653  -3.459 -26.555  1.00  0.00    -0.000 C 
BRANCH  14  15
ATOM     15  C   UNL     1      -8.242  -4.834 -26.907  1.00  0.00    -0.000 C 
BRANCH  15  16
ATOM     16  C   UNL     1      -8.244  -5.795 -25.701  1.00  0.00    -0.000 C 
BRANCH  16  17
ATOM     17  C   UNL     1      -7.289  -6.989 -25.862  1.00  0.00    -0.003 C 
ATOM     18  C   UNL     1      -5.815  -6.589 -25.814  1.00  0.00     0.004 C 
ENDBRANCH  16  17
ENDBRANCH  15  16
ENDBRANCH  14  15
ENDBRANCH  13  14
ENDBRANCH  12  13
ENDBRANCH  11  12
ENDBRANCH   1  11
TORSDOF 14
ENDMDL
MODEL 9
REMARK VINA RESULT:    -3.814      3.980      6.541
REMARK INTER + INTRA:          -7.658
REMARK INTER:                  -5.810
REMARK INTRA:                  -1.848
REMARK UNBOUND:                -0.723
REMARK SMILES CCCCCCCCCCCCCCCC(=O)[O-]
REMARK SMILES IDX 9 1 10 2 11 3 12 4 13 5 14 6 15 7 16 8 17 9 18 10 8 11 7 12
REMARK SMILES IDX 6 13 5 14 4 15 3 16 2 17 1 18
REMARK H PARENT
REMARK Flexibility Score: inf
ROOT
ATOM      1  C   UNL     1      -8.236  -1.928 -23.999  1.00  0.00     0.000 C 
ENDROOT
BRANCH   1   2
ATOM      2  C   UNL     1      -8.488  -1.352 -25.403  1.00  0.00     0.000 C 
BRANCH   2   3
ATOM      3  C   UNL     1      -9.483  -0.179 -25.389  1.00  0.00     0.000 C 
BRANCH   3   4
ATOM      4  C   UNL     1      -9.022   0.994 -26.271  1.00  0.00     0.000 C 
BRANCH   4   5
ATOM      5  C   UNL     1      -7.572   1.426 -25.980  1.00  0.00     0.000 C 
BRANCH   5   6
ATOM      6  C   UNL     1      -7.346   2.068 -24.600  1.00  0.00     0.006 C 
BRANCH   6   7
ATOM      7  C   UNL     1      -5.971   1.743 -24.005  1.00  0.00     0.053 C 
BRANCH   7   8
ATOM      8  C   UNL     1      -6.022   1.794 -22.511  1.00  0.00     0.041 C 
ATOM      9  O   UNL     1      -5.736   0.773 -21.832  1.00  0.00    -0.550 OA
ATOM     10  O   UNL     1      -6.431   2.956 -21.870  1.00  0.00    -0.550 OA
ENDBRANCH   7   8
ENDBRANCH   6   7
ENDBRANCH   5   6
ENDBRANCH   4   5
ENDBRANCH   3   4
ENDBRANCH   2   3
ENDBRANCH   1   2
BRANCH   1  11
ATOM     11  C   UNL     1      -6.740  -2.057 -23.675  1.00  0.00     0.000 C 
BRANCH  11  12
ATOM     12  C   UNL     1      -5.891  -2.396 -24.916  1.00  0.00    -0.000 C 
BRANCH  12  13
ATOM     13  C   UNL     1      -5.768  -3.909 -25.152  1.00  0.00    -0.000 C 
BRANCH  13  14
ATOM     14  C   UNL     1      -5.923  -4.288 -26.633  1.00  0.00    -0.000 C 
BRANCH  14  15
ATOM     15  C   UNL     1      -7.379  -4.656 -26.956  1.00  0.00    -0.000 C 
BRANCH  15  16
ATOM     16  C   UNL     1      -8.133  -5.193 -25.722  1.00  0.00    -0.000 C 
BRANCH  16  17
ATOM     17  C   UNL     1      -8.547  -6.669 -25.845  1.00  0.00    -0.003 C 
ATOM     18  C   UNL     1      -7.359  -7.609 -26.045  1.00  0.00     0.004 C 
ENDBRANCH  16  17
ENDBRANCH  15  16
ENDBRANCH  14  15
ENDBRANCH  13  14
ENDBRANCH  12  13
ENDBRANCH  11  12
ENDBRANCH   1  11
TORSDOF 14
ENDMDL
