MODEL 1
REMARK VINA RESULT:    -4.791      0.000      0.000
REMARK INTER + INTRA:          -5.723
REMARK INTER:                  -5.911
REMARK INTRA:                   0.189
REMARK UNBOUND:                 0.189
REMARK SMILES Oc1cc(O)c2cc(O)c(-c3cc(O)c(O)c(O)c3)[o+]c2c1
REMARK SMILES IDX 10 1 20 2 21 3 22 4 2 5 3 6 4 7 6 8 7 9 8 10 11 11 12 12
REMARK SMILES IDX 13 13 19 14 15 15 17 16 14 17 16 19 18 21 9 23 1 25 5 27
REMARK H PARENT 14 18 16 20 18 22 9 24 1 26 5 28
REMARK Flexibility Score: inf
ROOT
ATOM      1  C   UNL     1      27.371   3.785 -14.218  1.00  0.00     0.402 A 
ATOM      2  O   UNL     1      28.482   3.208 -14.670  1.00  0.00    -0.202 OA
ATOM      3  C   UNL     1      29.362   3.830 -15.447  1.00  0.00     0.368 A 
ATOM      4  C   UNL     1      30.500   3.139 -15.874  1.00  0.00     0.162 A 
ATOM      5  C   UNL     1      31.440   3.766 -16.695  1.00  0.00     0.128 A 
ATOM      6  C   UNL     1      31.242   5.090 -17.093  1.00  0.00     0.093 A 
ATOM      7  C   UNL     1      30.110   5.805 -16.680  1.00  0.00     0.136 A 
ATOM      8  C   UNL     1      29.154   5.172 -15.844  1.00  0.00     0.125 A 
ATOM      9  C   UNL     1      27.998   5.814 -15.371  1.00  0.00     0.078 A 
ATOM     10  C   UNL     1      27.103   5.127 -14.545  1.00  0.00     0.223 A 
ENDROOT
BRANCH   1  11
ATOM     11  C   UNL     1      26.463   2.984 -13.366  1.00  0.00     0.091 A 
ATOM     12  C   UNL     1      25.085   3.245 -13.319  1.00  0.00     0.068 A 
ATOM     13  C   UNL     1      24.239   2.462 -12.523  1.00  0.00     0.162 A 
ATOM     14  C   UNL     1      26.978   1.906 -12.631  1.00  0.00     0.068 A 
ATOM     15  C   UNL     1      24.760   1.399 -11.771  1.00  0.00     0.200 A 
ATOM     16  C   UNL     1      26.145   1.116 -11.830  1.00  0.00     0.162 A 
BRANCH  13  17
ATOM     17  O   UNL     1      22.872   2.732 -12.477  1.00  0.00    -0.504 OA
ATOM     18  H   UNL     1      22.258   2.501 -13.250  1.00  0.00     0.293 HD
ENDBRANCH  13  17
BRANCH  15  19
ATOM     19  O   UNL     1      23.875   0.655 -10.987  1.00  0.00    -0.502 OA
ATOM     20  H   UNL     1      23.014   1.018 -10.606  1.00  0.00     0.293 HD
ENDBRANCH  15  19
BRANCH  16  21
ATOM     21  O   UNL     1      26.733   0.069 -11.119  1.00  0.00    -0.504 OA
ATOM     22  H   UNL     1      26.280  -0.426 -10.363  1.00  0.00     0.293 HD
ENDBRANCH  16  21
ENDBRANCH   1  11
BRANCH  10  23
ATOM     23  O   UNL     1      25.979   5.779 -14.035  1.00  0.00    -0.500 OA
ATOM     24  H   UNL     1      25.285   5.290 -13.482  1.00  0.00     0.294 HD
ENDBRANCH  10  23
BRANCH   5  25
ATOM     25  O   UNL     1      32.577   3.084 -17.123  1.00  0.00    -0.507 OA
ATOM     26  H   UNL     1      32.873   3.102 -18.092  1.00  0.00     0.293 HD
ENDBRANCH   5  25
BRANCH   7  27
ATOM     27  O   UNL     1      29.984   7.123 -17.125  1.00  0.00    -0.507 OA
ATOM     28  H   UNL     1      30.730   7.804 -17.113  1.00  0.00     0.293 HD
ENDBRANCH   7  27
TORSDOF 7
ENDMDL
MODEL 2
REMARK VINA RESULT:    -4.417      2.156      2.908
REMARK INTER + INTRA:          -5.261
REMARK INTER:                  -5.553
REMARK INTRA:                   0.292
REMARK UNBOUND:                 0.189
REMARK SMILES Oc1cc(O)c2cc(O)c(-c3cc(O)c(O)c(O)c3)[o+]c2c1
REMARK SMILES IDX 10 1 20 2 21 3 22 4 2 5 3 6 4 7 6 8 7 9 8 10 11 11 12 12
REMARK SMILES IDX 13 13 19 14 15 15 17 16 14 17 16 19 18 21 9 23 1 25 5 27
REMARK H PARENT 14 18 16 20 18 22 9 24 1 26 5 28
REMARK Flexibility Score: inf
ROOT
ATOM      1  C   UNL     1      27.367   4.757 -13.874  1.00  0.00     0.402 A 
ATOM      2  O   UNL     1      27.650   3.559 -14.381  1.00  0.00    -0.202 OA
ATOM      3  C   UNL     1      28.632   3.348 -15.249  1.00  0.00     0.368 A 
ATOM      4  C   UNL     1      28.851   2.053 -15.727  1.00  0.00     0.162 A 
ATOM      5  C   UNL     1      29.875   1.802 -16.645  1.00  0.00     0.128 A 
ATOM      6  C   UNL     1      30.684   2.851 -17.086  1.00  0.00     0.093 A 
ATOM      7  C   UNL     1      30.486   4.158 -16.624  1.00  0.00     0.136 A 
ATOM      8  C   UNL     1      29.449   4.417 -15.690  1.00  0.00     0.125 A 
ATOM      9  C   UNL     1      29.186   5.692 -15.162  1.00  0.00     0.078 A 
ATOM     10  C   UNL     1      28.148   5.868 -14.241  1.00  0.00     0.223 A 
ENDROOT
BRANCH   1  11
ATOM     11  C   UNL     1      26.240   4.866 -12.921  1.00  0.00     0.091 A 
ATOM     12  C   UNL     1      26.156   5.927 -12.006  1.00  0.00     0.068 A 
ATOM     13  C   UNL     1      25.070   6.025 -11.127  1.00  0.00     0.162 A 
ATOM     14  C   UNL     1      25.204   3.922 -12.966  1.00  0.00     0.068 A 
ATOM     15  C   UNL     1      24.047   5.067 -11.158  1.00  0.00     0.200 A 
ATOM     16  C   UNL     1      24.112   4.006 -12.093  1.00  0.00     0.162 A 
BRANCH  13  17
ATOM     17  O   UNL     1      24.998   7.078 -10.217  1.00  0.00    -0.504 OA
ATOM     18  H   UNL     1      25.446   7.028  -9.309  1.00  0.00     0.293 HD
ENDBRANCH  13  17
BRANCH  15  19
ATOM     19  O   UNL     1      22.990   5.206 -10.254  1.00  0.00    -0.502 OA
ATOM     20  H   UNL     1      23.037   4.933  -9.283  1.00  0.00     0.293 HD
ENDBRANCH  15  19
BRANCH  16  21
ATOM     21  O   UNL     1      23.127   3.023 -12.189  1.00  0.00    -0.504 OA
ATOM     22  H   UNL     1      22.607   2.663 -11.402  1.00  0.00     0.293 HD
ENDBRANCH  16  21
ENDBRANCH   1  11
BRANCH  10  23
ATOM     23  O   UNL     1      27.918   7.124 -13.679  1.00  0.00    -0.500 OA
ATOM     24  H   UNL     1      27.072   7.648 -13.873  1.00  0.00     0.294 HD
ENDBRANCH  10  23
BRANCH   5  25
ATOM     25  O   UNL     1      30.099   0.513 -17.124  1.00  0.00    -0.507 OA
ATOM     26  H   UNL     1      29.819  -0.305 -16.595  1.00  0.00     0.293 HD
ENDBRANCH   5  25
BRANCH   7  27
ATOM     27  O   UNL     1      31.336   5.151 -17.117  1.00  0.00    -0.507 OA
ATOM     28  H   UNL     1      31.994   5.670 -16.555  1.00  0.00     0.293 HD
ENDBRANCH   7  27
TORSDOF 7
ENDMDL
MODEL 3
REMARK VINA RESULT:    -4.407      2.645      3.597
REMARK INTER + INTRA:          -5.249
REMARK INTER:                  -5.224
REMARK INTRA:                  -0.025
REMARK UNBOUND:                 0.189
REMARK SMILES Oc1cc(O)c2cc(O)c(-c3cc(O)c(O)c(O)c3)[o+]c2c1
REMARK SMILES IDX 10 1 20 2 21 3 22 4 2 5 3 6 4 7 6 8 7 9 8 10 11 11 12 12
REMARK SMILES IDX 13 13 19 14 15 15 17 16 14 17 16 19 18 21 9 23 1 25 5 27
REMARK H PARENT 14 18 16 20 18 22 9 24 1 26 5 28
REMARK Flexibility Score: inf
ROOT
ATOM      1  C   UNL     1      27.444   4.703 -13.375  1.00  0.00     0.402 A 
ATOM      2  O   UNL     1      28.220   5.603 -13.975  1.00  0.00    -0.202 OA
ATOM      3  C   UNL     1      29.066   5.299 -14.954  1.00  0.00     0.368 A 
ATOM      4  C   UNL     1      29.842   6.313 -15.520  1.00  0.00     0.162 A 
ATOM      5  C   UNL     1      30.742   6.022 -16.549  1.00  0.00     0.128 A 
ATOM      6  C   UNL     1      30.866   4.711 -17.013  1.00  0.00     0.093 A 
ATOM      7  C   UNL     1      30.100   3.676 -16.462  1.00  0.00     0.136 A 
ATOM      8  C   UNL     1      29.184   3.967 -15.419  1.00  0.00     0.125 A 
ATOM      9  C   UNL     1      28.366   2.997 -14.816  1.00  0.00     0.078 A 
ATOM     10  C   UNL     1      27.482   3.362 -13.796  1.00  0.00     0.223 A 
ENDROOT
BRANCH   1  11
ATOM     11  C   UNL     1      26.550   5.164 -12.288  1.00  0.00     0.091 A 
ATOM     12  C   UNL     1      25.192   4.809 -12.259  1.00  0.00     0.068 A 
ATOM     13  C   UNL     1      24.368   5.237 -11.211  1.00  0.00     0.162 A 
ATOM     14  C   UNL     1      27.078   5.925 -11.235  1.00  0.00     0.068 A 
ATOM     15  C   UNL     1      24.892   6.018 -10.171  1.00  0.00     0.200 A 
ATOM     16  C   UNL     1      26.265   6.361 -10.182  1.00  0.00     0.162 A 
BRANCH  13  17
ATOM     17  O   UNL     1      23.019   4.885 -11.193  1.00  0.00    -0.504 OA
ATOM     18  H   UNL     1      22.425   5.096 -10.399  1.00  0.00     0.293 HD
ENDBRANCH  13  17
BRANCH  15  19
ATOM     19  O   UNL     1      24.025   6.425  -9.154  1.00  0.00    -0.502 OA
ATOM     20  H   UNL     1      23.760   7.384  -8.987  1.00  0.00     0.293 HD
ENDBRANCH  15  19
BRANCH  16  21
ATOM     21  O   UNL     1      26.860   7.125  -9.176  1.00  0.00    -0.504 OA
ATOM     22  H   UNL     1      26.369   7.476  -8.367  1.00  0.00     0.293 HD
ENDBRANCH  16  21
ENDBRANCH   1  11
BRANCH  10  23
ATOM     23  O   UNL     1      26.634   2.408 -13.231  1.00  0.00    -0.500 OA
ATOM     24  H   UNL     1      25.998   1.858 -13.797  1.00  0.00     0.294 HD
ENDBRANCH  10  23
BRANCH   5  25
ATOM     25  O   UNL     1      31.518   7.029 -17.120  1.00  0.00    -0.507 OA
ATOM     26  H   UNL     1      32.116   6.849 -17.918  1.00  0.00     0.293 HD
ENDBRANCH   5  25
BRANCH   7  27
ATOM     27  O   UNL     1      30.286   2.391 -16.980  1.00  0.00    -0.507 OA
ATOM     28  H   UNL     1      30.380   2.180 -17.962  1.00  0.00     0.293 HD
ENDBRANCH   7  27
TORSDOF 7
ENDMDL
MODEL 4
REMARK VINA RESULT:    -4.298      2.003      2.859
REMARK INTER + INTRA:          -5.114
REMARK INTER:                  -5.484
REMARK INTRA:                   0.369
REMARK UNBOUND:                 0.189
REMARK SMILES Oc1cc(O)c2cc(O)c(-c3cc(O)c(O)c(O)c3)[o+]c2c1
REMARK SMILES IDX 10 1 20 2 21 3 22 4 2 5 3 6 4 7 6 8 7 9 8 10 11 11 12 12
REMARK SMILES IDX 13 13 19 14 15 15 17 16 14 17 16 19 18 21 9 23 1 25 5 27
REMARK H PARENT 14 18 16 20 18 22 9 24 1 26 5 28
REMARK Flexibility Score: inf
ROOT
ATOM      1  C   UNL     1      27.434   4.714 -14.043  1.00  0.00     0.402 A 
ATOM      2  O   UNL     1      27.776   3.521 -14.525  1.00  0.00    -0.202 OA
ATOM      3  C   UNL     1      28.803   3.333 -15.346  1.00  0.00     0.368 A 
ATOM      4  C   UNL     1      29.083   2.042 -15.801  1.00  0.00     0.162 A 
ATOM      5  C   UNL     1      30.155   1.816 -16.668  1.00  0.00     0.128 A 
ATOM      6  C   UNL     1      30.951   2.886 -17.083  1.00  0.00     0.093 A 
ATOM      7  C   UNL     1      30.692   4.190 -16.642  1.00  0.00     0.136 A 
ATOM      8  C   UNL     1      29.606   4.424 -15.760  1.00  0.00     0.125 A 
ATOM      9  C   UNL     1      29.280   5.694 -15.256  1.00  0.00     0.078 A 
ATOM     10  C   UNL     1      28.196   5.846 -14.385  1.00  0.00     0.223 A 
ENDROOT
BRANCH   1  11
ATOM     11  C   UNL     1      26.261   4.795 -13.143  1.00  0.00     0.091 A 
ATOM     12  C   UNL     1      25.306   3.768 -13.092  1.00  0.00     0.068 A 
ATOM     13  C   UNL     1      24.216   3.853 -12.218  1.00  0.00     0.162 A 
ATOM     14  C   UNL     1      26.128   5.893 -12.281  1.00  0.00     0.068 A 
ATOM     15  C   UNL     1      24.071   4.963 -11.373  1.00  0.00     0.200 A 
ATOM     16  C   UNL     1      25.042   5.992 -11.402  1.00  0.00     0.162 A 
BRANCH  13  17
ATOM     17  O   UNL     1      23.268   2.832 -12.179  1.00  0.00    -0.504 OA
ATOM     18  H   UNL     1      23.539   1.856 -12.132  1.00  0.00     0.293 HD
ENDBRANCH  13  17
BRANCH  15  19
ATOM     19  O   UNL     1      22.961   5.003 -10.526  1.00  0.00    -0.502 OA
ATOM     20  H   UNL     1      22.477   4.183 -10.189  1.00  0.00     0.293 HD
ENDBRANCH  15  19
BRANCH  16  21
ATOM     21  O   UNL     1      24.970   7.121 -10.584  1.00  0.00    -0.504 OA
ATOM     22  H   UNL     1      24.959   8.070 -10.928  1.00  0.00     0.293 HD
ENDBRANCH  16  21
ENDBRANCH   1  11
BRANCH  10  23
ATOM     23  O   UNL     1      27.902   7.099 -13.846  1.00  0.00    -0.500 OA
ATOM     24  H   UNL     1      27.401   7.802 -14.376  1.00  0.00     0.294 HD
ENDBRANCH  10  23
BRANCH   5  25
ATOM     25  O   UNL     1      30.440   0.531 -17.125  1.00  0.00    -0.507 OA
ATOM     26  H   UNL     1      29.856  -0.260 -16.879  1.00  0.00     0.293 HD
ENDBRANCH   5  25
BRANCH   7  27
ATOM     27  O   UNL     1      31.532   5.205 -17.106  1.00  0.00    -0.507 OA
ATOM     28  H   UNL     1      31.873   5.968 -16.540  1.00  0.00     0.293 HD
ENDBRANCH   7  27
TORSDOF 7
ENDMDL
MODEL 5
REMARK VINA RESULT:    -3.901      3.212      7.215
REMARK INTER + INTRA:          -4.625
REMARK INTER:                  -4.381
REMARK INTRA:                  -0.244
REMARK UNBOUND:                 0.189
REMARK SMILES Oc1cc(O)c2cc(O)c(-c3cc(O)c(O)c(O)c3)[o+]c2c1
REMARK SMILES IDX 10 1 20 2 21 3 22 4 2 5 3 6 4 7 6 8 7 9 8 10 11 11 12 12
REMARK SMILES IDX 13 13 19 14 15 15 17 16 14 17 16 19 18 21 9 23 1 25 5 27
REMARK H PARENT 14 18 16 20 18 22 9 24 1 26 5 28
REMARK Flexibility Score: inf
ROOT
ATOM      1  C   UNL     1      28.150   5.213 -12.581  1.00  0.00     0.402 A 
ATOM      2  O   UNL     1      26.825   5.091 -12.592  1.00  0.00    -0.202 OA
ATOM      3  C   UNL     1      26.047   5.495 -11.593  1.00  0.00     0.368 A 
ATOM      4  C   UNL     1      24.664   5.321 -11.696  1.00  0.00     0.162 A 
ATOM      5  C   UNL     1      23.822   5.733 -10.659  1.00  0.00     0.128 A 
ATOM      6  C   UNL     1      24.365   6.320  -9.515  1.00  0.00     0.093 A 
ATOM      7  C   UNL     1      25.748   6.505  -9.387  1.00  0.00     0.136 A 
ATOM      8  C   UNL     1      26.606   6.091 -10.438  1.00  0.00     0.125 A 
ATOM      9  C   UNL     1      28.001   6.249 -10.403  1.00  0.00     0.078 A 
ATOM     10  C   UNL     1      28.783   5.820 -11.480  1.00  0.00     0.223 A 
ENDROOT
BRANCH   1  11
ATOM     11  C   UNL     1      28.909   4.715 -13.751  1.00  0.00     0.091 A 
ATOM     12  C   UNL     1      28.959   3.348 -14.062  1.00  0.00     0.068 A 
ATOM     13  C   UNL     1      29.663   2.899 -15.186  1.00  0.00     0.162 A 
ATOM     14  C   UNL     1      29.545   5.631 -14.601  1.00  0.00     0.068 A 
ATOM     15  C   UNL     1      30.319   3.814 -16.021  1.00  0.00     0.200 A 
ATOM     16  C   UNL     1      30.254   5.197 -15.728  1.00  0.00     0.162 A 
BRANCH  13  17
ATOM     17  O   UNL     1      29.714   1.538 -15.483  1.00  0.00    -0.504 OA
ATOM     18  H   UNL     1      29.061   1.110 -16.129  1.00  0.00     0.293 HD
ENDBRANCH  13  17
BRANCH  15  19
ATOM     19  O   UNL     1      31.014   3.313 -17.125  1.00  0.00    -0.502 OA
ATOM     20  H   UNL     1      30.698   3.401 -18.080  1.00  0.00     0.293 HD
ENDBRANCH  15  19
BRANCH  16  21
ATOM     21  O   UNL     1      30.872   6.166 -16.519  1.00  0.00    -0.504 OA
ATOM     22  H   UNL     1      31.870   6.319 -16.552  1.00  0.00     0.293 HD
ENDBRANCH  16  21
ENDBRANCH   1  11
BRANCH  10  23
ATOM     23  O   UNL     1      30.163   6.021 -11.467  1.00  0.00    -0.500 OA
ATOM     24  H   UNL     1      30.678   6.128 -10.601  1.00  0.00     0.294 HD
ENDBRANCH  10  23
BRANCH   5  25
ATOM     25  O   UNL     1      22.442   5.563 -10.755  1.00  0.00    -0.507 OA
ATOM     26  H   UNL     1      21.990   4.712 -10.444  1.00  0.00     0.293 HD
ENDBRANCH   5  25
BRANCH   7  27
ATOM     27  O   UNL     1      26.212   7.098  -8.209  1.00  0.00    -0.507 OA
ATOM     28  H   UNL     1      25.908   6.839  -7.282  1.00  0.00     0.293 HD
ENDBRANCH   7  27
TORSDOF 7
ENDMDL
MODEL 6
REMARK VINA RESULT:    -3.845      3.212      7.131
REMARK INTER + INTRA:          -4.555
REMARK INTER:                  -4.332
REMARK INTRA:                  -0.223
REMARK UNBOUND:                 0.189
REMARK SMILES Oc1cc(O)c2cc(O)c(-c3cc(O)c(O)c(O)c3)[o+]c2c1
REMARK SMILES IDX 10 1 20 2 21 3 22 4 2 5 3 6 4 7 6 8 7 9 8 10 11 11 12 12
REMARK SMILES IDX 13 13 19 14 15 15 17 16 14 17 16 19 18 21 9 23 1 25 5 27
REMARK H PARENT 14 18 16 20 18 22 9 24 1 26 5 28
REMARK Flexibility Score: inf
ROOT
ATOM      1  C   UNL     1      28.142   5.267 -12.628  1.00  0.00     0.402 A 
ATOM      2  O   UNL     1      26.816   5.147 -12.630  1.00  0.00    -0.202 OA
ATOM      3  C   UNL     1      26.046   5.545 -11.623  1.00  0.00     0.368 A 
ATOM      4  C   UNL     1      24.663   5.374 -11.716  1.00  0.00     0.162 A 
ATOM      5  C   UNL     1      23.829   5.780 -10.670  1.00  0.00     0.128 A 
ATOM      6  C   UNL     1      24.382   6.359  -9.526  1.00  0.00     0.093 A 
ATOM      7  C   UNL     1      25.766   6.541  -9.407  1.00  0.00     0.136 A 
ATOM      8  C   UNL     1      26.616   6.132 -10.467  1.00  0.00     0.125 A 
ATOM      9  C   UNL     1      28.011   6.288 -10.442  1.00  0.00     0.078 A 
ATOM     10  C   UNL     1      28.783   5.865 -11.528  1.00  0.00     0.223 A 
ENDROOT
BRANCH   1  11
ATOM     11  C   UNL     1      28.891   4.777 -13.807  1.00  0.00     0.091 A 
ATOM     12  C   UNL     1      29.606   5.655 -14.636  1.00  0.00     0.068 A 
ATOM     13  C   UNL     1      30.327   5.169 -15.734  1.00  0.00     0.162 A 
ATOM     14  C   UNL     1      28.935   3.401 -14.074  1.00  0.00     0.068 A 
ATOM     15  C   UNL     1      30.350   3.795 -16.013  1.00  0.00     0.200 A 
ATOM     16  C   UNL     1      29.649   2.900 -15.169  1.00  0.00     0.162 A 
BRANCH  13  17
ATOM     17  O   UNL     1      31.029   6.049 -16.556  1.00  0.00    -0.504 OA
ATOM     18  H   UNL     1      31.748   6.661 -16.188  1.00  0.00     0.293 HD
ENDBRANCH  13  17
BRANCH  15  19
ATOM     19  O   UNL     1      31.077   3.363 -17.125  1.00  0.00    -0.502 OA
ATOM     20  H   UNL     1      30.712   3.344 -18.066  1.00  0.00     0.293 HD
ENDBRANCH  15  19
BRANCH  16  21
ATOM     21  O   UNL     1      29.636   1.520 -15.377  1.00  0.00    -0.504 OA
ATOM     22  H   UNL     1      30.394   1.004 -15.801  1.00  0.00     0.293 HD
ENDBRANCH  16  21
ENDBRANCH   1  11
BRANCH  10  23
ATOM     23  O   UNL     1      30.165   6.064 -11.524  1.00  0.00    -0.500 OA
ATOM     24  H   UNL     1      30.686   6.202 -12.383  1.00  0.00     0.294 HD
ENDBRANCH  10  23
BRANCH   5  25
ATOM     25  O   UNL     1      22.449   5.613 -10.757  1.00  0.00    -0.507 OA
ATOM     26  H   UNL     1      22.019   5.154 -11.551  1.00  0.00     0.293 HD
ENDBRANCH   5  25
BRANCH   7  27
ATOM     27  O   UNL     1      26.239   7.124  -8.229  1.00  0.00    -0.507 OA
ATOM     28  H   UNL     1      26.513   6.608  -7.406  1.00  0.00     0.293 HD
ENDBRANCH   7  27
TORSDOF 7
ENDMDL
MODEL 7
REMARK VINA RESULT:    -3.259      2.147      7.190
REMARK INTER + INTRA:          -3.832
REMARK INTER:                  -4.201
REMARK INTRA:                   0.369
REMARK UNBOUND:                 0.189
REMARK SMILES Oc1cc(O)c2cc(O)c(-c3cc(O)c(O)c(O)c3)[o+]c2c1
REMARK SMILES IDX 10 1 20 2 21 3 22 4 2 5 3 6 4 7 6 8 7 9 8 10 11 11 12 12
REMARK SMILES IDX 13 13 19 14 15 15 17 16 14 17 16 19 18 21 9 23 1 25 5 27
REMARK H PARENT 14 18 16 20 18 22 9 24 1 26 5 28
REMARK Flexibility Score: inf
ROOT
ATOM      1  C   UNL     1      27.275   4.415 -14.111  1.00  0.00     0.402 A 
ATOM      2  O   UNL     1      27.028   5.283 -13.133  1.00  0.00    -0.202 OA
ATOM      3  C   UNL     1      25.938   5.237 -12.375  1.00  0.00     0.368 A 
ATOM      4  C   UNL     1      25.765   6.195 -11.373  1.00  0.00     0.162 A 
ATOM      5  C   UNL     1      24.626   6.173 -10.564  1.00  0.00     0.128 A 
ATOM      6  C   UNL     1      23.655   5.189 -10.758  1.00  0.00     0.093 A 
ATOM      7  C   UNL     1      23.803   4.217 -11.756  1.00  0.00     0.136 A 
ATOM      8  C   UNL     1      24.959   4.235 -12.579  1.00  0.00     0.125 A 
ATOM      9  C   UNL     1      25.198   3.294 -13.594  1.00  0.00     0.078 A 
ATOM     10  C   UNL     1      26.365   3.372 -14.361  1.00  0.00     0.223 A 
ENDROOT
BRANCH   1  11
ATOM     11  C   UNL     1      28.523   4.578 -14.892  1.00  0.00     0.091 A 
ATOM     12  C   UNL     1      29.233   5.788 -14.892  1.00  0.00     0.068 A 
ATOM     13  C   UNL     1      30.423   5.915 -15.619  1.00  0.00     0.162 A 
ATOM     14  C   UNL     1      29.039   3.485 -15.603  1.00  0.00     0.068 A 
ATOM     15  C   UNL     1      30.925   4.829 -16.349  1.00  0.00     0.200 A 
ATOM     16  C   UNL     1      30.227   3.598 -16.336  1.00  0.00     0.162 A 
BRANCH  13  17
ATOM     17  O   UNL     1      31.119   7.124 -15.619  1.00  0.00    -0.504 OA
ATOM     18  H   UNL     1      31.065   7.768 -14.838  1.00  0.00     0.293 HD
ENDBRANCH  13  17
BRANCH  15  19
ATOM     19  O   UNL     1      32.112   5.011 -17.064  1.00  0.00    -0.502 OA
ATOM     20  H   UNL     1      32.952   5.411 -16.672  1.00  0.00     0.293 HD
ENDBRANCH  15  19
BRANCH  16  21
ATOM     21  O   UNL     1      30.672   2.471 -17.029  1.00  0.00    -0.504 OA
ATOM     22  H   UNL     1      31.150   1.693 -16.597  1.00  0.00     0.293 HD
ENDBRANCH  16  21
ENDBRANCH   1  11
BRANCH  10  23
ATOM     23  O   UNL     1      26.627   2.410 -15.337  1.00  0.00    -0.500 OA
ATOM     24  H   UNL     1      26.565   1.418 -15.136  1.00  0.00     0.294 HD
ENDBRANCH  10  23
BRANCH   5  25
ATOM     25  O   UNL     1      24.448   7.124  -9.561  1.00  0.00    -0.507 OA
ATOM     26  H   UNL     1      23.580   7.638  -9.466  1.00  0.00     0.293 HD
ENDBRANCH   5  25
BRANCH   7  27
ATOM     27  O   UNL     1      22.785   3.270 -11.889  1.00  0.00    -0.507 OA
ATOM     28  H   UNL     1      22.190   2.961 -11.134  1.00  0.00     0.293 HD
ENDBRANCH   7  27
TORSDOF 7
ENDMDL
MODEL 8
REMARK VINA RESULT:    -3.199      3.019      6.841
REMARK INTER + INTRA:          -3.758
REMARK INTER:                  -3.375
REMARK INTRA:                  -0.384
REMARK UNBOUND:                 0.189
REMARK SMILES Oc1cc(O)c2cc(O)c(-c3cc(O)c(O)c(O)c3)[o+]c2c1
REMARK SMILES IDX 10 1 20 2 21 3 22 4 2 5 3 6 4 7 6 8 7 9 8 10 11 11 12 12
REMARK SMILES IDX 13 13 19 14 15 15 17 16 14 17 16 19 18 21 9 23 1 25 5 27
REMARK H PARENT 14 18 16 20 18 22 9 24 1 26 5 28
REMARK Flexibility Score: inf
ROOT
ATOM      1  C   UNL     1      27.385   5.288 -13.703  1.00  0.00     0.402 A 
ATOM      2  O   UNL     1      27.652   5.376 -12.402  1.00  0.00    -0.202 OA
ATOM      3  C   UNL     1      26.776   5.817 -11.505  1.00  0.00     0.368 A 
ATOM      4  C   UNL     1      27.151   5.876 -10.160  1.00  0.00     0.162 A 
ATOM      5  C   UNL     1      26.251   6.339  -9.197  1.00  0.00     0.128 A 
ATOM      6  C   UNL     1      24.971   6.745  -9.579  1.00  0.00     0.093 A 
ATOM      7  C   UNL     1      24.571   6.697 -10.921  1.00  0.00     0.136 A 
ATOM      8  C   UNL     1      25.480   6.226 -11.903  1.00  0.00     0.125 A 
ATOM      9  C   UNL     1      25.162   6.130 -13.267  1.00  0.00     0.078 A 
ATOM     10  C   UNL     1      26.110   5.649 -14.176  1.00  0.00     0.223 A 
ENDROOT
BRANCH   1  11
ATOM     11  C   UNL     1      28.449   4.790 -14.604  1.00  0.00     0.091 A 
ATOM     12  C   UNL     1      29.374   5.664 -15.195  1.00  0.00     0.068 A 
ATOM     13  C   UNL     1      30.387   5.170 -16.027  1.00  0.00     0.162 A 
ATOM     14  C   UNL     1      28.573   3.411 -14.829  1.00  0.00     0.068 A 
ATOM     15  C   UNL     1      30.495   3.794 -16.271  1.00  0.00     0.200 A 
ATOM     16  C   UNL     1      29.580   2.904 -15.659  1.00  0.00     0.162 A 
BRANCH  13  17
ATOM     17  O   UNL     1      31.298   6.046 -16.617  1.00  0.00    -0.504 OA
ATOM     18  H   UNL     1      30.992   6.850 -17.153  1.00  0.00     0.293 HD
ENDBRANCH  13  17
BRANCH  15  19
ATOM     19  O   UNL     1      31.518   3.355 -17.114  1.00  0.00    -0.502 OA
ATOM     20  H   UNL     1      31.533   3.506 -18.112  1.00  0.00     0.293 HD
ENDBRANCH  15  19
BRANCH  16  21
ATOM     21  O   UNL     1      29.632   1.522 -15.846  1.00  0.00    -0.504 OA
ATOM     22  H   UNL     1      29.799   0.856 -15.104  1.00  0.00     0.293 HD
ENDBRANCH  16  21
ENDBRANCH   1  11
BRANCH  10  23
ATOM     23  O   UNL     1      25.778   5.508 -15.524  1.00  0.00    -0.500 OA
ATOM     24  H   UNL     1      24.931   5.909 -15.909  1.00  0.00     0.294 HD
ENDBRANCH  10  23
BRANCH   5  25
ATOM     25  O   UNL     1      26.618   6.399  -7.854  1.00  0.00    -0.507 OA
ATOM     26  H   UNL     1      25.926   6.370  -7.114  1.00  0.00     0.293 HD
ENDBRANCH   5  25
BRANCH   7  27
ATOM     27  O   UNL     1      23.275   7.125 -11.222  1.00  0.00    -0.507 OA
ATOM     28  H   UNL     1      22.660   7.587 -10.568  1.00  0.00     0.293 HD
ENDBRANCH   7  27
TORSDOF 7
ENDMDL
