MODEL 1
REMARK VINA RESULT:    -5.894      0.000      0.000
REMARK INTER + INTRA:          -7.423
REMARK INTER:                  -7.100
REMARK INTRA:                  -0.323
REMARK UNBOUND:                -0.323
REMARK SMILES O=c1c(O)c(-c2ccc(O)c(O)c2)oc2cc(O)cc(O)c12
REMARK SMILES IDX 5 1 3 2 2 3 1 4 22 5 20 6 19 7 17 8 16 9 15 10 14 11 6 12
REMARK SMILES IDX 7 13 8 14 9 15 13 16 11 17 10 18 12 20 4 22 21 24 18 26
REMARK H PARENT 10 19 12 21 4 23 21 25 18 27
REMARK Flexibility Score: inf
ROOT
ATOM      1  C   UNL     1     -41.731  25.791  -8.379  1.00  0.00     0.180 A 
ATOM      2  C   UNL     1     -40.563  25.641  -7.611  1.00  0.00     0.208 A 
ATOM      3  C   UNL     1     -39.949  24.380  -7.545  1.00  0.00     0.238 A 
ATOM      4  O   UNL     1     -38.875  24.265  -6.900  1.00  0.00    -0.285 OA
ATOM      5  C   UNL     1     -40.519  23.283  -8.233  1.00  0.00     0.111 A 
ATOM      6  C   UNL     1     -40.004  21.951  -8.202  1.00  0.00     0.134 A 
ATOM      7  C   UNL     1     -40.573  20.972  -9.026  1.00  0.00     0.093 A 
ATOM      8  C   UNL     1     -41.679  21.260  -9.829  1.00  0.00     0.123 A 
ATOM      9  C   UNL     1     -42.226  22.540  -9.820  1.00  0.00     0.094 A 
ATOM     10  C   UNL     1     -41.658  23.548  -9.037  1.00  0.00     0.146 A 
ATOM     11  O   UNL     1     -42.204  24.758  -9.066  1.00  0.00    -0.452 OA
ENDROOT
BRANCH   1  12
ATOM     12  C   UNL     1     -42.450  27.083  -8.477  1.00  0.00     0.025 A 
ATOM     13  C   UNL     1     -42.254  27.898  -9.602  1.00  0.00     0.016 A 
ATOM     14  C   UNL     1     -42.937  29.111  -9.726  1.00  0.00     0.051 A 
ATOM     15  C   UNL     1     -43.835  29.520  -8.735  1.00  0.00     0.157 A 
ATOM     16  C   UNL     1     -43.369  27.486  -7.492  1.00  0.00     0.062 A 
ATOM     17  C   UNL     1     -44.056  28.703  -7.614  1.00  0.00     0.158 A 
BRANCH  15  18
ATOM     18  O   UNL     1     -44.500  30.737  -8.885  1.00  0.00    -0.504 OA
ATOM     19  H   UNL     1     -45.297  30.842  -9.501  1.00  0.00     0.293 HD
ENDBRANCH  15  18
BRANCH  17  20
ATOM     20  O   UNL     1     -44.961  29.098  -6.630  1.00  0.00    -0.504 OA
ATOM     21  H   UNL     1     -45.167  30.074  -6.459  1.00  0.00     0.293 HD
ENDBRANCH  17  20
ENDBRANCH   1  12
BRANCH   2  22
ATOM     22  O   UNL     1     -40.006  26.744  -6.958  1.00  0.00    -0.502 OA
ATOM     23  H   UNL     1     -40.385  27.113  -6.095  1.00  0.00     0.293 HD
ENDBRANCH   2  22
BRANCH   6  24
ATOM     24  O   UNL     1     -38.961  21.537  -7.368  1.00  0.00    -0.507 OA
ATOM     25  H   UNL     1     -38.807  20.585  -7.072  1.00  0.00     0.293 HD
ENDBRANCH   6  24
BRANCH   8  26
ATOM     26  O   UNL     1     -42.249  20.275 -10.633  1.00  0.00    -0.508 OA
ATOM     27  H   UNL     1     -42.335  20.393 -11.636  1.00  0.00     0.293 HD
ENDBRANCH   8  26
TORSDOF 6
ENDMDL
MODEL 2
REMARK VINA RESULT:    -5.677      1.730      7.285
REMARK INTER + INTRA:          -7.162
REMARK INTER:                  -7.378
REMARK INTRA:                   0.216
REMARK UNBOUND:                -0.323
REMARK SMILES O=c1c(O)c(-c2ccc(O)c(O)c2)oc2cc(O)cc(O)c12
REMARK SMILES IDX 5 1 3 2 2 3 1 4 22 5 20 6 19 7 17 8 16 9 15 10 14 11 6 12
REMARK SMILES IDX 7 13 8 14 9 15 13 16 11 17 10 18 12 20 4 22 21 24 18 26
REMARK H PARENT 10 19 12 21 4 23 21 25 18 27
REMARK Flexibility Score: inf
ROOT
ATOM      1  C   UNL     1     -41.684  23.815  -8.819  1.00  0.00     0.180 A 
ATOM      2  C   UNL     1     -43.060  24.086  -8.914  1.00  0.00     0.208 A 
ATOM      3  C   UNL     1     -43.507  25.407  -8.743  1.00  0.00     0.238 A 
ATOM      4  O   UNL     1     -44.733  25.652  -8.882  1.00  0.00    -0.285 OA
ATOM      5  C   UNL     1     -42.575  26.435  -8.465  1.00  0.00     0.111 A 
ATOM      6  C   UNL     1     -42.921  27.801  -8.234  1.00  0.00     0.134 A 
ATOM      7  C   UNL     1     -41.907  28.756  -8.096  1.00  0.00     0.093 A 
ATOM      8  C   UNL     1     -40.560  28.385  -8.116  1.00  0.00     0.123 A 
ATOM      9  C   UNL     1     -40.214  27.046  -8.282  1.00  0.00     0.094 A 
ATOM     10  C   UNL     1     -41.202  26.076  -8.458  1.00  0.00     0.146 A 
ATOM     11  O   UNL     1     -40.829  24.812  -8.622  1.00  0.00    -0.452 OA
ENDROOT
BRANCH   1  12
ATOM     12  C   UNL     1     -41.139  22.445  -8.961  1.00  0.00     0.025 A 
ATOM     13  C   UNL     1     -40.067  22.041  -8.151  1.00  0.00     0.016 A 
ATOM     14  C   UNL     1     -39.550  20.747  -8.254  1.00  0.00     0.051 A 
ATOM     15  C   UNL     1     -40.105  19.834  -9.156  1.00  0.00     0.157 A 
ATOM     16  C   UNL     1     -41.710  21.519  -9.853  1.00  0.00     0.062 A 
ATOM     17  C   UNL     1     -41.193  20.219  -9.957  1.00  0.00     0.158 A 
BRANCH  15  18
ATOM     18  O   UNL     1     -39.567  18.550  -9.238  1.00  0.00    -0.504 OA
ATOM     19  H   UNL     1     -39.469  18.063 -10.121  1.00  0.00     0.293 HD
ENDBRANCH  15  18
BRANCH  17  20
ATOM     20  O   UNL     1     -41.761  19.309 -10.848  1.00  0.00    -0.504 OA
ATOM     21  H   UNL     1     -41.210  18.857 -11.567  1.00  0.00     0.293 HD
ENDBRANCH  17  20
ENDBRANCH   1  12
BRANCH   2  22
ATOM     22  O   UNL     1     -43.960  23.059  -9.211  1.00  0.00    -0.502 OA
ATOM     23  H   UNL     1     -44.110  22.272  -8.593  1.00  0.00     0.293 HD
ENDBRANCH   2  22
BRANCH   6  24
ATOM     24  O   UNL     1     -44.235  28.262  -8.104  1.00  0.00    -0.507 OA
ATOM     25  H   UNL     1     -44.907  27.902  -7.446  1.00  0.00     0.293 HD
ENDBRANCH   6  24
BRANCH   8  26
ATOM     26  O   UNL     1     -39.557  29.340  -7.963  1.00  0.00    -0.508 OA
ATOM     27  H   UNL     1     -38.898  29.541  -8.706  1.00  0.00     0.293 HD
ENDBRANCH   8  26
TORSDOF 6
ENDMDL
MODEL 3
REMARK VINA RESULT:    -5.211      1.402      6.738
REMARK INTER + INTRA:          -6.601
REMARK INTER:                  -6.290
REMARK INTRA:                  -0.311
REMARK UNBOUND:                -0.323
REMARK SMILES O=c1c(O)c(-c2ccc(O)c(O)c2)oc2cc(O)cc(O)c12
REMARK SMILES IDX 5 1 3 2 2 3 1 4 22 5 20 6 19 7 17 8 16 9 15 10 14 11 6 12
REMARK SMILES IDX 7 13 8 14 9 15 13 16 11 17 10 18 12 20 4 22 21 24 18 26
REMARK H PARENT 10 19 12 21 4 23 21 25 18 27
REMARK Flexibility Score: inf
ROOT
ATOM      1  C   UNL     1     -41.224  24.350  -9.101  1.00  0.00     0.180 A 
ATOM      2  C   UNL     1     -40.085  24.815  -8.421  1.00  0.00     0.208 A 
ATOM      3  C   UNL     1     -40.033  26.160  -8.020  1.00  0.00     0.238 A 
ATOM      4  O   UNL     1     -39.035  26.556  -7.364  1.00  0.00    -0.285 OA
ATOM      5  C   UNL     1     -41.113  27.025  -8.317  1.00  0.00     0.111 A 
ATOM      6  C   UNL     1     -41.149  28.416  -7.993  1.00  0.00     0.134 A 
ATOM      7  C   UNL     1     -42.323  29.147  -8.219  1.00  0.00     0.093 A 
ATOM      8  C   UNL     1     -43.437  28.552  -8.817  1.00  0.00     0.123 A 
ATOM      9  C   UNL     1     -43.390  27.212  -9.190  1.00  0.00     0.094 A 
ATOM     10  C   UNL     1     -42.247  26.448  -8.945  1.00  0.00     0.146 A 
ATOM     11  O   UNL     1     -42.248  25.170  -9.307  1.00  0.00    -0.452 OA
ENDROOT
BRANCH   1  12
ATOM     12  C   UNL     1     -41.341  22.953  -9.579  1.00  0.00     0.025 A 
ATOM     13  C   UNL     1     -41.811  21.962  -8.703  1.00  0.00     0.016 A 
ATOM     14  C   UNL     1     -41.950  20.641  -9.138  1.00  0.00     0.051 A 
ATOM     15  C   UNL     1     -41.635  20.294 -10.455  1.00  0.00     0.157 A 
ATOM     16  C   UNL     1     -41.044  22.606 -10.909  1.00  0.00     0.062 A 
ATOM     17  C   UNL     1     -41.184  21.281 -11.347  1.00  0.00     0.158 A 
BRANCH  15  18
ATOM     18  O   UNL     1     -41.780  18.967 -10.860  1.00  0.00    -0.504 OA
ATOM     19  H   UNL     1     -42.455  18.345 -10.431  1.00  0.00     0.293 HD
ENDBRANCH  15  18
BRANCH  17  20
ATOM     20  O   UNL     1     -40.881  20.945 -12.666  1.00  0.00    -0.504 OA
ATOM     21  H   UNL     1     -41.376  21.360 -13.447  1.00  0.00     0.293 HD
ENDBRANCH  17  20
ENDBRANCH   1  12
BRANCH   2  22
ATOM     22  O   UNL     1     -39.040  23.938  -8.118  1.00  0.00    -0.502 OA
ATOM     23  H   UNL     1     -38.450  24.056  -7.304  1.00  0.00     0.293 HD
ENDBRANCH   2  22
BRANCH   6  24
ATOM     24  O   UNL     1     -40.061  29.126  -7.479  1.00  0.00    -0.507 OA
ATOM     25  H   UNL     1     -39.247  29.394  -8.011  1.00  0.00     0.293 HD
ENDBRANCH   6  24
BRANCH   8  26
ATOM     26  O   UNL     1     -44.595  29.291  -9.052  1.00  0.00    -0.508 OA
ATOM     27  H   UNL     1     -44.779  30.159  -8.562  1.00  0.00     0.293 HD
ENDBRANCH   8  26
TORSDOF 6
ENDMDL
MODEL 4
REMARK VINA RESULT:    -5.122      1.575      2.301
REMARK INTER + INTRA:          -6.493
REMARK INTER:                  -6.207
REMARK INTRA:                  -0.286
REMARK UNBOUND:                -0.323
REMARK SMILES O=c1c(O)c(-c2ccc(O)c(O)c2)oc2cc(O)cc(O)c12
REMARK SMILES IDX 5 1 3 2 2 3 1 4 22 5 20 6 19 7 17 8 16 9 15 10 14 11 6 12
REMARK SMILES IDX 7 13 8 14 9 15 13 16 11 17 10 18 12 20 4 22 21 24 18 26
REMARK H PARENT 10 19 12 21 4 23 21 25 18 27
REMARK Flexibility Score: inf
ROOT
ATOM      1  C   UNL     1     -40.976  24.051  -9.039  1.00  0.00     0.180 A 
ATOM      2  C   UNL     1     -40.119  23.421  -8.120  1.00  0.00     0.208 A 
ATOM      3  C   UNL     1     -39.767  22.078  -8.327  1.00  0.00     0.238 A 
ATOM      4  O   UNL     1     -38.958  21.536  -7.531  1.00  0.00    -0.285 OA
ATOM      5  C   UNL     1     -40.288  21.378  -9.442  1.00  0.00     0.111 A 
ATOM      6  C   UNL     1     -40.030  20.002  -9.727  1.00  0.00     0.134 A 
ATOM      7  C   UNL     1     -40.493  19.448 -10.927  1.00  0.00     0.093 A 
ATOM      8  C   UNL     1     -41.259  20.201 -11.820  1.00  0.00     0.123 A 
ATOM      9  C   UNL     1     -41.566  21.526 -11.522  1.00  0.00     0.094 A 
ATOM     10  C   UNL     1     -41.088  22.117 -10.350  1.00  0.00     0.146 A 
ATOM     11  O   UNL     1     -41.395  23.387 -10.109  1.00  0.00    -0.452 OA
ENDROOT
BRANCH   1  12
ATOM     12  C   UNL     1     -41.412  25.457  -8.874  1.00  0.00     0.025 A 
ATOM     13  C   UNL     1     -40.550  26.496  -9.255  1.00  0.00     0.016 A 
ATOM     14  C   UNL     1     -40.949  27.830  -9.127  1.00  0.00     0.051 A 
ATOM     15  C   UNL     1     -42.218  28.144  -8.632  1.00  0.00     0.157 A 
ATOM     16  C   UNL     1     -42.696  25.774  -8.394  1.00  0.00     0.062 A 
ATOM     17  C   UNL     1     -43.099  27.111  -8.267  1.00  0.00     0.158 A 
BRANCH  15  18
ATOM     18  O   UNL     1     -42.587  29.483  -8.513  1.00  0.00    -0.504 OA
ATOM     19  H   UNL     1     -43.556  29.770  -8.439  1.00  0.00     0.293 HD
ENDBRANCH  15  18
BRANCH  17  20
ATOM     20  O   UNL     1     -44.371  27.416  -7.785  1.00  0.00    -0.504 OA
ATOM     21  H   UNL     1     -45.195  27.320  -8.365  1.00  0.00     0.293 HD
ENDBRANCH  17  20
ENDBRANCH   1  12
BRANCH   2  22
ATOM     22  O   UNL     1     -39.598  24.138  -7.039  1.00  0.00    -0.502 OA
ATOM     23  H   UNL     1     -38.686  23.943  -6.646  1.00  0.00     0.293 HD
ENDBRANCH   2  22
BRANCH   6  24
ATOM     24  O   UNL     1     -39.355  19.138  -8.860  1.00  0.00    -0.507 OA
ATOM     25  H   UNL     1     -38.700  19.432  -8.152  1.00  0.00     0.293 HD
ENDBRANCH   6  24
BRANCH   8  26
ATOM     26  O   UNL     1     -41.728  19.637 -13.005  1.00  0.00    -0.508 OA
ATOM     27  H   UNL     1     -41.172  18.974 -13.533  1.00  0.00     0.293 HD
ENDBRANCH   8  26
TORSDOF 6
ENDMDL
MODEL 5
REMARK VINA RESULT:    -5.023      1.885      7.193
REMARK INTER + INTRA:          -6.374
REMARK INTER:                  -6.104
REMARK INTRA:                  -0.270
REMARK UNBOUND:                -0.323
REMARK SMILES O=c1c(O)c(-c2ccc(O)c(O)c2)oc2cc(O)cc(O)c12
REMARK SMILES IDX 5 1 3 2 2 3 1 4 22 5 20 6 19 7 17 8 16 9 15 10 14 11 6 12
REMARK SMILES IDX 7 13 8 14 9 15 13 16 11 17 10 18 12 20 4 22 21 24 18 26
REMARK H PARENT 10 19 12 21 4 23 21 25 18 27
REMARK Flexibility Score: inf
ROOT
ATOM      1  C   UNL     1     -41.768  23.871  -9.432  1.00  0.00     0.180 A 
ATOM      2  C   UNL     1     -43.123  24.131  -9.165  1.00  0.00     0.208 A 
ATOM      3  C   UNL     1     -43.500  25.415  -8.742  1.00  0.00     0.238 A 
ATOM      4  O   UNL     1     -44.721  25.657  -8.556  1.00  0.00    -0.285 OA
ATOM      5  C   UNL     1     -42.515  26.418  -8.575  1.00  0.00     0.111 A 
ATOM      6  C   UNL     1     -42.779  27.743  -8.111  1.00  0.00     0.134 A 
ATOM      7  C   UNL     1     -41.748  28.691  -8.108  1.00  0.00     0.093 A 
ATOM      8  C   UNL     1     -40.449  28.344  -8.490  1.00  0.00     0.123 A 
ATOM      9  C   UNL     1     -40.170  27.039  -8.887  1.00  0.00     0.094 A 
ATOM     10  C   UNL     1     -41.185  26.081  -8.935  1.00  0.00     0.146 A 
ATOM     11  O   UNL     1     -40.878  24.850  -9.329  1.00  0.00    -0.452 OA
ENDROOT
BRANCH   1  12
ATOM     12  C   UNL     1     -41.291  22.535  -9.858  1.00  0.00     0.025 A 
ATOM     13  C   UNL     1     -41.466  22.132 -11.191  1.00  0.00     0.016 A 
ATOM     14  C   UNL     1     -41.005  20.884 -11.619  1.00  0.00     0.051 A 
ATOM     15  C   UNL     1     -40.351  20.028 -10.729  1.00  0.00     0.157 A 
ATOM     16  C   UNL     1     -40.614  21.681  -8.968  1.00  0.00     0.062 A 
ATOM     17  C   UNL     1     -40.149  20.429  -9.397  1.00  0.00     0.158 A 
BRANCH  15  18
ATOM     18  O   UNL     1     -39.904  18.788 -11.185  1.00  0.00    -0.504 OA
ATOM     19  H   UNL     1     -40.487  17.960 -11.149  1.00  0.00     0.293 HD
ENDBRANCH  15  18
BRANCH  17  20
ATOM     20  O   UNL     1     -39.485  19.587  -8.507  1.00  0.00    -0.504 OA
ATOM     21  H   UNL     1     -39.274  18.625  -8.743  1.00  0.00     0.293 HD
ENDBRANCH  17  20
ENDBRANCH   1  12
BRANCH   2  22
ATOM     22  O   UNL     1     -44.082  23.132  -9.358  1.00  0.00    -0.502 OA
ATOM     23  H   UNL     1     -44.177  22.342  -8.732  1.00  0.00     0.293 HD
ENDBRANCH   2  22
BRANCH   6  24
ATOM     24  O   UNL     1     -44.017  28.167  -7.621  1.00  0.00    -0.507 OA
ATOM     25  H   UNL     1     -44.159  28.988  -7.054  1.00  0.00     0.293 HD
ENDBRANCH   6  24
BRANCH   8  26
ATOM     26  O   UNL     1     -39.426  29.290  -8.470  1.00  0.00    -0.508 OA
ATOM     27  H   UNL     1     -38.657  29.225  -7.814  1.00  0.00     0.293 HD
ENDBRANCH   8  26
TORSDOF 6
ENDMDL
MODEL 6
REMARK VINA RESULT:    -4.990      2.636      7.231
REMARK INTER + INTRA:          -6.335
REMARK INTER:                  -6.404
REMARK INTRA:                   0.069
REMARK UNBOUND:                -0.323
REMARK SMILES O=c1c(O)c(-c2ccc(O)c(O)c2)oc2cc(O)cc(O)c12
REMARK SMILES IDX 5 1 3 2 2 3 1 4 22 5 20 6 19 7 17 8 16 9 15 10 14 11 6 12
REMARK SMILES IDX 7 13 8 14 9 15 13 16 11 17 10 18 12 20 4 22 21 24 18 26
REMARK H PARENT 10 19 12 21 4 23 21 25 18 27
REMARK Flexibility Score: inf
ROOT
ATOM      1  C   UNL     1     -42.063  22.973  -9.734  1.00  0.00     0.180 A 
ATOM      2  C   UNL     1     -42.324  23.794  -8.624  1.00  0.00     0.208 A 
ATOM      3  C   UNL     1     -43.014  25.001  -8.817  1.00  0.00     0.238 A 
ATOM      4  O   UNL     1     -43.291  25.706  -7.812  1.00  0.00    -0.285 OA
ATOM      5  C   UNL     1     -43.421  25.379 -10.120  1.00  0.00     0.111 A 
ATOM      6  C   UNL     1     -44.091  26.600 -10.436  1.00  0.00     0.134 A 
ATOM      7  C   UNL     1     -44.562  26.810 -11.738  1.00  0.00     0.093 A 
ATOM      8  C   UNL     1     -44.330  25.873 -12.748  1.00  0.00     0.123 A 
ATOM      9  C   UNL     1     -43.626  24.707 -12.462  1.00  0.00     0.094 A 
ATOM     10  C   UNL     1     -43.175  24.452 -11.165  1.00  0.00     0.146 A 
ATOM     11  O   UNL     1     -42.516  23.323 -10.933  1.00  0.00    -0.452 OA
ENDROOT
BRANCH   1  12
ATOM     12  C   UNL     1     -41.319  21.698  -9.614  1.00  0.00     0.025 A 
ATOM     13  C   UNL     1     -40.131  21.660  -8.868  1.00  0.00     0.016 A 
ATOM     14  C   UNL     1     -39.423  20.464  -8.724  1.00  0.00     0.051 A 
ATOM     15  C   UNL     1     -39.898  19.287  -9.310  1.00  0.00     0.157 A 
ATOM     16  C   UNL     1     -41.806  20.509 -10.186  1.00  0.00     0.062 A 
ATOM     17  C   UNL     1     -41.097  19.307 -10.042  1.00  0.00     0.158 A 
BRANCH  15  18
ATOM     18  O   UNL     1     -39.168  18.109  -9.152  1.00  0.00    -0.504 OA
ATOM     19  H   UNL     1     -38.231  18.103  -8.767  1.00  0.00     0.293 HD
ENDBRANCH  15  18
BRANCH  17  20
ATOM     20  O   UNL     1     -41.584  18.134 -10.617  1.00  0.00    -0.504 OA
ATOM     21  H   UNL     1     -41.518  17.964 -11.614  1.00  0.00     0.293 HD
ENDBRANCH  17  20
ENDBRANCH   1  12
BRANCH   2  22
ATOM     22  O   UNL     1     -41.932  23.391  -7.344  1.00  0.00    -0.502 OA
ATOM     23  H   UNL     1     -41.049  22.929  -7.166  1.00  0.00     0.293 HD
ENDBRANCH   2  22
BRANCH   6  24
ATOM     24  O   UNL     1     -44.293  27.640  -9.524  1.00  0.00    -0.507 OA
ATOM     25  H   UNL     1     -44.246  27.540  -8.521  1.00  0.00     0.293 HD
ENDBRANCH   6  24
BRANCH   8  26
ATOM     26  O   UNL     1     -44.789  26.099 -14.045  1.00  0.00    -0.508 OA
ATOM     27  H   UNL     1     -44.153  26.315 -14.803  1.00  0.00     0.293 HD
ENDBRANCH   8  26
TORSDOF 6
ENDMDL
MODEL 7
REMARK VINA RESULT:    -4.911      1.875      6.905
REMARK INTER + INTRA:          -6.240
REMARK INTER:                  -6.020
REMARK INTRA:                  -0.220
REMARK UNBOUND:                -0.323
REMARK SMILES O=c1c(O)c(-c2ccc(O)c(O)c2)oc2cc(O)cc(O)c12
REMARK SMILES IDX 5 1 3 2 2 3 1 4 22 5 20 6 19 7 17 8 16 9 15 10 14 11 6 12
REMARK SMILES IDX 7 13 8 14 9 15 13 16 11 17 10 18 12 20 4 22 21 24 18 26
REMARK H PARENT 10 19 12 21 4 23 21 25 18 27
REMARK Flexibility Score: inf
ROOT
ATOM      1  C   UNL     1     -41.073  22.647  -9.661  1.00  0.00     0.180 A 
ATOM      2  C   UNL     1     -40.046  22.774  -8.710  1.00  0.00     0.208 A 
ATOM      3  C   UNL     1     -40.076  23.857  -7.817  1.00  0.00     0.238 A 
ATOM      4  O   UNL     1     -39.183  23.936  -6.933  1.00  0.00    -0.285 OA
ATOM      5  C   UNL     1     -41.123  24.807  -7.897  1.00  0.00     0.111 A 
ATOM      6  C   UNL     1     -41.230  25.966  -7.069  1.00  0.00     0.134 A 
ATOM      7  C   UNL     1     -42.376  26.767  -7.148  1.00  0.00     0.093 A 
ATOM      8  C   UNL     1     -43.387  26.487  -8.070  1.00  0.00     0.123 A 
ATOM      9  C   UNL     1     -43.264  25.394  -8.923  1.00  0.00     0.094 A 
ATOM     10  C   UNL     1     -42.149  24.555  -8.843  1.00  0.00     0.146 A 
ATOM     11  O   UNL     1     -42.076  23.517  -9.668  1.00  0.00    -0.452 OA
ENDROOT
BRANCH   1  12
ATOM     12  C   UNL     1     -41.097  21.546 -10.652  1.00  0.00     0.025 A 
ATOM     13  C   UNL     1     -40.794  21.821 -11.995  1.00  0.00     0.016 A 
ATOM     14  C   UNL     1     -40.790  20.794 -12.944  1.00  0.00     0.051 A 
ATOM     15  C   UNL     1     -41.074  19.479 -12.563  1.00  0.00     0.157 A 
ATOM     16  C   UNL     1     -41.361  20.220 -10.268  1.00  0.00     0.062 A 
ATOM     17  C   UNL     1     -41.357  19.188 -11.218  1.00  0.00     0.158 A 
BRANCH  15  18
ATOM     18  O   UNL     1     -41.066  18.476 -13.533  1.00  0.00    -0.504 OA
ATOM     19  H   UNL     1     -41.394  18.638 -14.477  1.00  0.00     0.293 HD
ENDBRANCH  15  18
BRANCH  17  20
ATOM     20  O   UNL     1     -41.626  17.877 -10.829  1.00  0.00    -0.504 OA
ATOM     21  H   UNL     1     -41.660  17.120 -11.501  1.00  0.00     0.293 HD
ENDBRANCH  17  20
ENDBRANCH   1  12
BRANCH   2  22
ATOM     22  O   UNL     1     -39.035  21.813  -8.634  1.00  0.00    -0.502 OA
ATOM     23  H   UNL     1     -38.077  22.009  -8.899  1.00  0.00     0.293 HD
ENDBRANCH   2  22
BRANCH   6  24
ATOM     24  O   UNL     1     -40.235  26.385  -6.180  1.00  0.00    -0.507 OA
ATOM     25  H   UNL     1     -39.630  25.767  -5.663  1.00  0.00     0.293 HD
ENDBRANCH   6  24
BRANCH   8  26
ATOM     26  O   UNL     1     -44.517  27.299  -8.152  1.00  0.00    -0.508 OA
ATOM     27  H   UNL     1     -45.425  26.921  -8.399  1.00  0.00     0.293 HD
ENDBRANCH   8  26
TORSDOF 6
ENDMDL
MODEL 8
REMARK VINA RESULT:    -4.883      2.136      3.696
REMARK INTER + INTRA:          -6.206
REMARK INTER:                  -5.913
REMARK INTRA:                  -0.293
REMARK UNBOUND:                -0.323
REMARK SMILES O=c1c(O)c(-c2ccc(O)c(O)c2)oc2cc(O)cc(O)c12
REMARK SMILES IDX 5 1 3 2 2 3 1 4 22 5 20 6 19 7 17 8 16 9 15 10 14 11 6 12
REMARK SMILES IDX 7 13 8 14 9 15 13 16 11 17 10 18 12 20 4 22 21 24 18 26
REMARK H PARENT 10 19 12 21 4 23 21 25 18 27
REMARK Flexibility Score: inf
ROOT
ATOM      1  C   UNL     1     -41.907  24.247 -10.301  1.00  0.00     0.180 A 
ATOM      2  C   UNL     1     -42.509  23.902 -11.524  1.00  0.00     0.208 A 
ATOM      3  C   UNL     1     -42.326  22.606 -12.031  1.00  0.00     0.238 A 
ATOM      4  O   UNL     1     -42.911  22.287 -13.098  1.00  0.00    -0.285 OA
ATOM      5  C   UNL     1     -41.531  21.676 -11.318  1.00  0.00     0.111 A 
ATOM      6  C   UNL     1     -41.245  20.349 -11.760  1.00  0.00     0.134 A 
ATOM      7  C   UNL     1     -40.555  19.473 -10.912  1.00  0.00     0.093 A 
ATOM      8  C   UNL     1     -40.084  19.898  -9.667  1.00  0.00     0.123 A 
ATOM      9  C   UNL     1     -40.306  21.209  -9.253  1.00  0.00     0.094 A 
ATOM     10  C   UNL     1     -41.023  22.094 -10.061  1.00  0.00     0.146 A 
ATOM     11  O   UNL     1     -41.221  23.333  -9.625  1.00  0.00    -0.452 OA
ENDROOT
BRANCH   1  12
ATOM     12  C   UNL     1     -42.032  25.601  -9.715  1.00  0.00     0.025 A 
ATOM     13  C   UNL     1     -41.002  26.535  -9.907  1.00  0.00     0.016 A 
ATOM     14  C   UNL     1     -41.109  27.825  -9.380  1.00  0.00     0.051 A 
ATOM     15  C   UNL     1     -42.250  28.206  -8.668  1.00  0.00     0.157 A 
ATOM     16  C   UNL     1     -43.189  25.993  -9.017  1.00  0.00     0.062 A 
ATOM     17  C   UNL     1     -43.298  27.288  -8.489  1.00  0.00     0.158 A 
BRANCH  15  18
ATOM     18  O   UNL     1     -42.327  29.499  -8.152  1.00  0.00    -0.504 OA
ATOM     19  H   UNL     1     -41.514  30.100  -8.083  1.00  0.00     0.293 HD
ENDBRANCH  15  18
BRANCH  17  20
ATOM     20  O   UNL     1     -44.446  27.665  -7.792  1.00  0.00    -0.504 OA
ATOM     21  H   UNL     1     -45.201  28.165  -8.245  1.00  0.00     0.293 HD
ENDBRANCH  17  20
ENDBRANCH   1  12
BRANCH   2  22
ATOM     22  O   UNL     1     -43.308  24.829 -12.199  1.00  0.00    -0.502 OA
ATOM     23  H   UNL     1     -43.523  24.744 -13.185  1.00  0.00     0.293 HD
ENDBRANCH   2  22
BRANCH   6  24
ATOM     24  O   UNL     1     -41.590  19.854 -13.021  1.00  0.00    -0.507 OA
ATOM     25  H   UNL     1     -41.616  18.876 -13.266  1.00  0.00     0.293 HD
ENDBRANCH   6  24
BRANCH   8  26
ATOM     26  O   UNL     1     -39.385  19.024  -8.837  1.00  0.00    -0.508 OA
ATOM     27  H   UNL     1     -38.963  19.339  -7.971  1.00  0.00     0.293 HD
ENDBRANCH   8  26
TORSDOF 6
ENDMDL
MODEL 9
REMARK VINA RESULT:    -4.716      1.867      7.138
REMARK INTER + INTRA:          -6.004
REMARK INTER:                  -5.679
REMARK INTRA:                  -0.324
REMARK UNBOUND:                -0.323
REMARK SMILES O=c1c(O)c(-c2ccc(O)c(O)c2)oc2cc(O)cc(O)c12
REMARK SMILES IDX 5 1 3 2 2 3 1 4 22 5 20 6 19 7 17 8 16 9 15 10 14 11 6 12
REMARK SMILES IDX 7 13 8 14 9 15 13 16 11 17 10 18 12 20 4 22 21 24 18 26
REMARK H PARENT 10 19 12 21 4 23 21 25 18 27
REMARK Flexibility Score: inf
ROOT
ATOM      1  C   UNL     1     -41.162  24.242  -9.708  1.00  0.00     0.180 A 
ATOM      2  C   UNL     1     -40.629  25.003 -10.763  1.00  0.00     0.208 A 
ATOM      3  C   UNL     1     -41.017  26.345 -10.897  1.00  0.00     0.238 A 
ATOM      4  O   UNL     1     -40.496  27.036 -11.811  1.00  0.00    -0.285 OA
ATOM      5  C   UNL     1     -41.944  26.905  -9.985  1.00  0.00     0.111 A 
ATOM      6  C   UNL     1     -42.437  28.244 -10.052  1.00  0.00     0.134 A 
ATOM      7  C   UNL     1     -43.251  28.731  -9.021  1.00  0.00     0.093 A 
ATOM      8  C   UNL     1     -43.641  27.908  -7.962  1.00  0.00     0.123 A 
ATOM      9  C   UNL     1     -43.213  26.584  -7.920  1.00  0.00     0.094 A 
ATOM     10  C   UNL     1     -42.371  26.080  -8.914  1.00  0.00     0.146 A 
ATOM     11  O   UNL     1     -41.978  24.814  -8.830  1.00  0.00    -0.452 OA
ENDROOT
BRANCH   1  12
ATOM     12  C   UNL     1     -40.821  22.813  -9.516  1.00  0.00     0.025 A 
ATOM     13  C   UNL     1     -39.848  22.458  -8.569  1.00  0.00     0.016 A 
ATOM     14  C   UNL     1     -39.525  21.114  -8.356  1.00  0.00     0.051 A 
ATOM     15  C   UNL     1     -40.178  20.108  -9.074  1.00  0.00     0.157 A 
ATOM     16  C   UNL     1     -41.492  21.799 -10.222  1.00  0.00     0.062 A 
ATOM     17  C   UNL     1     -41.170  20.450 -10.009  1.00  0.00     0.158 A 
BRANCH  15  18
ATOM     18  O   UNL     1     -39.833  18.777  -8.843  1.00  0.00    -0.504 OA
ATOM     19  H   UNL     1     -40.191  18.021  -9.414  1.00  0.00     0.293 HD
ENDBRANCH  15  18
BRANCH  17  20
ATOM     20  O   UNL     1     -41.835  19.452 -10.719  1.00  0.00    -0.504 OA
ATOM     21  H   UNL     1     -42.622  19.662 -11.321  1.00  0.00     0.293 HD
ENDBRANCH  17  20
ENDBRANCH   1  12
BRANCH   2  22
ATOM     22  O   UNL     1     -39.699  24.436 -11.638  1.00  0.00    -0.502 OA
ATOM     23  H   UNL     1     -38.738  24.751 -11.690  1.00  0.00     0.293 HD
ENDBRANCH   2  22
BRANCH   6  24
ATOM     24  O   UNL     1     -42.183  29.118 -11.113  1.00  0.00    -0.507 OA
ATOM     25  H   UNL     1     -41.643  28.885 -11.932  1.00  0.00     0.293 HD
ENDBRANCH   6  24
BRANCH   8  26
ATOM     26  O   UNL     1     -44.463  28.397  -6.949  1.00  0.00    -0.508 OA
ATOM     27  H   UNL     1     -45.066  29.199  -7.095  1.00  0.00     0.293 HD
ENDBRANCH   8  26
TORSDOF 6
ENDMDL
