MODEL 1
REMARK VINA RESULT:    -5.128      0.000      0.000
REMARK INTER + INTRA:         -10.522
REMARK INTER:                  -9.325
REMARK INTRA:                  -1.197
REMARK UNBOUND:                -1.197
REMARK SMILES CCCCCCCCCCCCCCCC(=O)[O-]
REMARK SMILES IDX 9 1 10 2 11 3 12 4 13 5 14 6 15 7 16 8 17 9 18 10 8 11 7 12
REMARK SMILES IDX 6 13 5 14 4 15 3 16 2 17 1 18
REMARK H PARENT
REMARK Flexibility Score: inf
ROOT
ATOM      1  C   UNL     1     -19.506  37.937  84.610  1.00  0.00     0.000 C 
ENDROOT
BRANCH   1   2
ATOM      2  C   UNL     1     -18.346  36.990  84.243  1.00  0.00     0.000 C 
BRANCH   2   3
ATOM      3  C   UNL     1     -17.376  37.526  83.170  1.00  0.00     0.000 C 
BRANCH   3   4
ATOM      4  C   UNL     1     -16.449  36.468  82.547  1.00  0.00     0.000 C 
BRANCH   4   5
ATOM      5  C   UNL     1     -17.108  35.081  82.450  1.00  0.00     0.000 C 
BRANCH   5   6
ATOM      6  C   UNL     1     -18.077  34.971  81.254  1.00  0.00     0.006 C 
BRANCH   6   7
ATOM      7  C   UNL     1     -17.585  35.706  79.997  1.00  0.00     0.053 C 
BRANCH   7   8
ATOM      8  C   UNL     1     -18.547  36.756  79.537  1.00  0.00     0.041 C 
ATOM      9  O   UNL     1     -19.469  37.148  80.298  1.00  0.00    -0.550 OA
ATOM     10  O   UNL     1     -18.406  37.324  78.276  1.00  0.00    -0.550 OA
ENDBRANCH   7   8
ENDBRANCH   6   7
ENDBRANCH   5   6
ENDBRANCH   4   5
ENDBRANCH   3   4
ENDBRANCH   2   3
ENDBRANCH   1   2
BRANCH   1  11
ATOM     11  C   UNL     1     -19.800  38.050  86.116  1.00  0.00     0.000 C 
BRANCH  11  12
ATOM     12  C   UNL     1     -19.908  39.506  86.593  1.00  0.00    -0.000 C 
BRANCH  12  13
ATOM     13  C   UNL     1     -20.966  39.646  87.695  1.00  0.00    -0.000 C 
BRANCH  13  14
ATOM     14  C   UNL     1     -20.426  40.461  88.875  1.00  0.00    -0.000 C 
BRANCH  14  15
ATOM     15  C   UNL     1     -19.000  40.030  89.237  1.00  0.00    -0.000 C 
BRANCH  15  16
ATOM     16  C   UNL     1     -19.012  38.917  90.293  1.00  0.00    -0.000 C 
BRANCH  16  17
ATOM     17  C   UNL     1     -18.012  37.812  89.937  1.00  0.00    -0.003 C 
ATOM     18  C   UNL     1     -18.727  36.568  89.416  1.00  0.00     0.004 C 
ENDBRANCH  16  17
ENDBRANCH  15  16
ENDBRANCH  14  15
ENDBRANCH  13  14
ENDBRANCH  12  13
ENDBRANCH  11  12
ENDBRANCH   1  11
TORSDOF 14
ENDMDL
MODEL 2
REMARK VINA RESULT:    -5.121      1.422      2.817
REMARK INTER + INTRA:         -10.509
REMARK INTER:                  -9.324
REMARK INTRA:                  -1.185
REMARK UNBOUND:                -1.197
REMARK SMILES CCCCCCCCCCCCCCCC(=O)[O-]
REMARK SMILES IDX 9 1 10 2 11 3 12 4 13 5 14 6 15 7 16 8 17 9 18 10 8 11 7 12
REMARK SMILES IDX 6 13 5 14 4 15 3 16 2 17 1 18
REMARK H PARENT
REMARK Flexibility Score: inf
ROOT
ATOM      1  C   UNL     1     -20.983  39.696  87.187  1.00  0.00     0.000 C 
ENDROOT
BRANCH   1   2
ATOM      2  C   UNL     1     -20.233  38.398  86.828  1.00  0.00     0.000 C 
BRANCH   2   3
ATOM      3  C   UNL     1     -20.049  38.143  85.319  1.00  0.00     0.000 C 
BRANCH   3   4
ATOM      4  C   UNL     1     -18.755  37.403  84.938  1.00  0.00     0.000 C 
BRANCH   4   5
ATOM      5  C   UNL     1     -18.491  37.405  83.422  1.00  0.00     0.000 C 
BRANCH   5   6
ATOM      6  C   UNL     1     -16.986  37.459  83.087  1.00  0.00     0.006 C 
BRANCH   6   7
ATOM      7  C   UNL     1     -16.440  36.147  82.502  1.00  0.00     0.053 C 
BRANCH   7   8
ATOM      8  C   UNL     1     -17.079  35.795  81.195  1.00  0.00     0.041 C 
ATOM      9  O   UNL     1     -17.187  36.662  80.289  1.00  0.00    -0.550 OA
ATOM     10  O   UNL     1     -17.530  34.501  80.968  1.00  0.00    -0.550 OA
ENDBRANCH   7   8
ENDBRANCH   6   7
ENDBRANCH   5   6
ENDBRANCH   4   5
ENDBRANCH   3   4
ENDBRANCH   2   3
ENDBRANCH   1   2
BRANCH   1  11
ATOM     11  C   UNL     1     -20.088  40.933  87.377  1.00  0.00     0.000 C 
BRANCH  11  12
ATOM     12  C   UNL     1     -20.378  41.682  88.686  1.00  0.00    -0.000 C 
BRANCH  12  13
ATOM     13  C   UNL     1     -19.630  41.043  89.862  1.00  0.00    -0.000 C 
BRANCH  13  14
ATOM     14  C   UNL     1     -20.608  40.389  90.845  1.00  0.00    -0.000 C 
BRANCH  14  15
ATOM     15  C   UNL     1     -20.020  39.099  91.431  1.00  0.00    -0.000 C 
BRANCH  15  16
ATOM     16  C   UNL     1     -19.941  37.998  90.367  1.00  0.00    -0.000 C 
BRANCH  16  17
ATOM     17  C   UNL     1     -18.484  37.635  90.060  1.00  0.00    -0.003 C 
ATOM     18  C   UNL     1     -18.393  36.308  89.310  1.00  0.00     0.004 C 
ENDBRANCH  16  17
ENDBRANCH  15  16
ENDBRANCH  14  15
ENDBRANCH  13  14
ENDBRANCH  12  13
ENDBRANCH  11  12
ENDBRANCH   1  11
TORSDOF 14
ENDMDL
MODEL 3
REMARK VINA RESULT:    -5.068      4.166      8.862
REMARK INTER + INTRA:         -10.413
REMARK INTER:                  -9.583
REMARK INTRA:                  -0.830
REMARK UNBOUND:                -1.197
REMARK SMILES CCCCCCCCCCCCCCCC(=O)[O-]
REMARK SMILES IDX 9 1 10 2 11 3 12 4 13 5 14 6 15 7 16 8 17 9 18 10 8 11 7 12
REMARK SMILES IDX 6 13 5 14 4 15 3 16 2 17 1 18
REMARK H PARENT
REMARK Flexibility Score: inf
ROOT
ATOM      1  C   UNL     1     -20.009  38.503  85.282  1.00  0.00     0.000 C 
ENDROOT
BRANCH   1   2
ATOM      2  C   UNL     1     -20.064  39.069  86.714  1.00  0.00     0.000 C 
BRANCH   2   3
ATOM      3  C   UNL     1     -20.705  38.138  87.763  1.00  0.00     0.000 C 
BRANCH   3   4
ATOM      4  C   UNL     1     -20.276  38.405  89.217  1.00  0.00     0.000 C 
BRANCH   4   5
ATOM      5  C   UNL     1     -19.222  37.402  89.720  1.00  0.00     0.000 C 
BRANCH   5   6
ATOM      6  C   UNL     1     -17.944  38.099  90.230  1.00  0.00     0.006 C 
BRANCH   6   7
ATOM      7  C   UNL     1     -18.155  38.898  91.526  1.00  0.00     0.053 C 
BRANCH   7   8
ATOM      8  C   UNL     1     -17.859  40.355  91.353  1.00  0.00     0.041 C 
ATOM      9  O   UNL     1     -16.797  40.845  91.819  1.00  0.00    -0.550 OA
ATOM     10  O   UNL     1     -18.742  41.166  90.652  1.00  0.00    -0.550 OA
ENDBRANCH   7   8
ENDBRANCH   6   7
ENDBRANCH   5   6
ENDBRANCH   4   5
ENDBRANCH   3   4
ENDBRANCH   2   3
ENDBRANCH   1   2
BRANCH   1  11
ATOM     11  C   UNL     1     -18.940  37.421  85.051  1.00  0.00     0.000 C 
BRANCH  11  12
ATOM     12  C   UNL     1     -18.785  37.044  83.570  1.00  0.00    -0.000 C 
BRANCH  12  13
ATOM     13  C   UNL     1     -17.309  36.842  83.206  1.00  0.00    -0.000 C 
BRANCH  13  14
ATOM     14  C   UNL     1     -16.947  35.352  83.184  1.00  0.00    -0.000 C 
BRANCH  14  15
ATOM     15  C   UNL     1     -17.265  34.728  81.819  1.00  0.00    -0.000 C 
BRANCH  15  16
ATOM     16  C   UNL     1     -17.088  35.751  80.691  1.00  0.00    -0.000 C 
BRANCH  16  17
ATOM     17  C   UNL     1     -18.230  35.649  79.673  1.00  0.00    -0.003 C 
ATOM     18  C   UNL     1     -18.883  37.009  79.440  1.00  0.00     0.004 C 
ENDBRANCH  16  17
ENDBRANCH  15  16
ENDBRANCH  14  15
ENDBRANCH  13  14
ENDBRANCH  12  13
ENDBRANCH  11  12
ENDBRANCH   1  11
TORSDOF 14
ENDMDL
MODEL 4
REMARK VINA RESULT:    -5.004      8.419     12.091
REMARK INTER + INTRA:         -10.297
REMARK INTER:                  -9.054
REMARK INTRA:                  -1.243
REMARK UNBOUND:                -1.197
REMARK SMILES CCCCCCCCCCCCCCCC(=O)[O-]
REMARK SMILES IDX 9 1 10 2 11 3 12 4 13 5 14 6 15 7 16 8 17 9 18 10 8 11 7 12
REMARK SMILES IDX 6 13 5 14 4 15 3 16 2 17 1 18
REMARK H PARENT
REMARK Flexibility Score: inf
ROOT
ATOM      1  C   UNL     1     -21.934  45.886  86.003  1.00  0.00     0.000 C 
ENDROOT
BRANCH   1   2
ATOM      2  C   UNL     1     -22.921  46.538  86.991  1.00  0.00     0.000 C 
BRANCH   2   3
ATOM      3  C   UNL     1     -23.867  45.558  87.715  1.00  0.00     0.000 C 
BRANCH   3   4
ATOM      4  C   UNL     1     -25.355  45.703  87.348  1.00  0.00     0.000 C 
BRANCH   4   5
ATOM      5  C   UNL     1     -26.123  46.612  88.323  1.00  0.00     0.000 C 
BRANCH   5   6
ATOM      6  C   UNL     1     -25.747  46.347  89.796  1.00  0.00     0.006 C 
BRANCH   6   7
ATOM      7  C   UNL     1     -26.925  45.853  90.651  1.00  0.00     0.053 C 
BRANCH   7   8
ATOM      8  C   UNL     1     -26.880  44.376  90.886  1.00  0.00     0.041 C 
ATOM      9  O   UNL     1     -25.777  43.795  91.054  1.00  0.00    -0.550 OA
ATOM     10  O   UNL     1     -28.061  43.646  90.949  1.00  0.00    -0.550 OA
ENDBRANCH   7   8
ENDBRANCH   6   7
ENDBRANCH   5   6
ENDBRANCH   4   5
ENDBRANCH   3   4
ENDBRANCH   2   3
ENDBRANCH   1   2
BRANCH   1  11
ATOM     11  C   UNL     1     -20.848  45.010  86.651  1.00  0.00     0.000 C 
BRANCH  11  12
ATOM     12  C   UNL     1     -20.612  43.696  85.892  1.00  0.00    -0.000 C 
BRANCH  12  13
ATOM     13  C   UNL     1     -19.130  43.528  85.533  1.00  0.00    -0.000 C 
BRANCH  13  14
ATOM     14  C   UNL     1     -18.416  44.883  85.492  1.00  0.00    -0.000 C 
BRANCH  14  15
ATOM     15  C   UNL     1     -18.126  45.310  84.047  1.00  0.00    -0.000 C 
BRANCH  15  16
ATOM     16  C   UNL     1     -18.439  46.797  83.839  1.00  0.00    -0.000 C 
BRANCH  16  17
ATOM     17  C   UNL     1     -19.390  46.997  82.654  1.00  0.00    -0.003 C 
ATOM     18  C   UNL     1     -20.526  45.978  82.682  1.00  0.00     0.004 C 
ENDBRANCH  16  17
ENDBRANCH  15  16
ENDBRANCH  14  15
ENDBRANCH  13  14
ENDBRANCH  12  13
ENDBRANCH  11  12
ENDBRANCH   1  11
TORSDOF 14
ENDMDL
MODEL 5
REMARK VINA RESULT:    -4.999      3.177      8.182
REMARK INTER + INTRA:         -10.288
REMARK INTER:                  -9.452
REMARK INTRA:                  -0.836
REMARK UNBOUND:                -1.197
REMARK SMILES CCCCCCCCCCCCCCCC(=O)[O-]
REMARK SMILES IDX 9 1 10 2 11 3 12 4 13 5 14 6 15 7 16 8 17 9 18 10 8 11 7 12
REMARK SMILES IDX 6 13 5 14 4 15 3 16 2 17 1 18
REMARK H PARENT
REMARK Flexibility Score: inf
ROOT
ATOM      1  C   UNL     1     -17.330  35.078  86.264  1.00  0.00     0.000 C 
ENDROOT
BRANCH   1   2
ATOM      2  C   UNL     1     -16.617  34.617  87.550  1.00  0.00     0.000 C 
BRANCH   2   3
ATOM      3  C   UNL     1     -17.204  35.174  88.862  1.00  0.00     0.000 C 
BRANCH   3   4
ATOM      4  C   UNL     1     -18.338  36.198  88.682  1.00  0.00     0.000 C 
BRANCH   4   5
ATOM      5  C   UNL     1     -18.466  37.161  89.876  1.00  0.00     0.000 C 
BRANCH   5   6
ATOM      6  C   UNL     1     -19.692  38.090  89.755  1.00  0.00     0.006 C 
BRANCH   6   7
ATOM      7  C   UNL     1     -20.277  38.151  88.334  1.00  0.00     0.053 C 
BRANCH   7   8
ATOM      8  C   UNL     1     -20.276  39.540  87.776  1.00  0.00     0.041 C 
ATOM      9  O   UNL     1     -19.325  40.324  88.031  1.00  0.00    -0.550 OA
ATOM     10  O   UNL     1     -21.312  39.958  86.950  1.00  0.00    -0.550 OA
ENDBRANCH   7   8
ENDBRANCH   6   7
ENDBRANCH   5   6
ENDBRANCH   4   5
ENDBRANCH   3   4
ENDBRANCH   2   3
ENDBRANCH   1   2
BRANCH   1  11
ATOM     11  C   UNL     1     -16.424  35.200  85.026  1.00  0.00     0.000 C 
BRANCH  11  12
ATOM     12  C   UNL     1     -17.208  35.524  83.745  1.00  0.00    -0.000 C 
BRANCH  12  13
ATOM     13  C   UNL     1     -16.718  36.835  83.118  1.00  0.00    -0.000 C 
BRANCH  13  14
ATOM     14  C   UNL     1     -16.861  36.803  81.593  1.00  0.00    -0.000 C 
BRANCH  14  15
ATOM     15  C   UNL     1     -17.264  35.405  81.105  1.00  0.00    -0.000 C 
BRANCH  15  16
ATOM     16  C   UNL     1     -18.090  35.489  79.816  1.00  0.00    -0.000 C 
BRANCH  16  17
ATOM     17  C   UNL     1     -18.774  36.855  79.690  1.00  0.00    -0.003 C 
ATOM     18  C   UNL     1     -18.750  37.352  78.248  1.00  0.00     0.004 C 
ENDBRANCH  16  17
ENDBRANCH  15  16
ENDBRANCH  14  15
ENDBRANCH  13  14
ENDBRANCH  12  13
ENDBRANCH  11  12
ENDBRANCH   1  11
TORSDOF 14
ENDMDL
MODEL 6
REMARK VINA RESULT:    -4.972      9.185     12.358
REMARK INTER + INTRA:         -10.239
REMARK INTER:                  -9.354
REMARK INTRA:                  -0.885
REMARK UNBOUND:                -1.197
REMARK SMILES CCCCCCCCCCCCCCCC(=O)[O-]
REMARK SMILES IDX 9 1 10 2 11 3 12 4 13 5 14 6 15 7 16 8 17 9 18 10 8 11 7 12
REMARK SMILES IDX 6 13 5 14 4 15 3 16 2 17 1 18
REMARK H PARENT
REMARK Flexibility Score: inf
ROOT
ATOM      1  C   UNL     1     -24.892  46.846  86.177  1.00  0.00     0.000 C 
ENDROOT
BRANCH   1   2
ATOM      2  C   UNL     1     -25.482  45.908  87.249  1.00  0.00     0.000 C 
BRANCH   2   3
ATOM      3  C   UNL     1     -26.328  46.602  88.335  1.00  0.00     0.000 C 
BRANCH   3   4
ATOM      4  C   UNL     1     -25.799  46.443  89.771  1.00  0.00     0.000 C 
BRANCH   4   5
ATOM      5  C   UNL     1     -26.691  45.537  90.637  1.00  0.00     0.000 C 
BRANCH   5   6
ATOM      6  C   UNL     1     -25.981  44.229  91.045  1.00  0.00     0.006 C 
BRANCH   6   7
ATOM      7  C   UNL     1     -26.928  43.181  91.654  1.00  0.00     0.053 C 
BRANCH   7   8
ATOM      8  C   UNL     1     -28.052  42.823  90.733  1.00  0.00     0.041 C 
ATOM      9  O   UNL     1     -29.245  43.014  91.086  1.00  0.00    -0.550 OA
ATOM     10  O   UNL     1     -27.780  42.306  89.472  1.00  0.00    -0.550 OA
ENDBRANCH   7   8
ENDBRANCH   6   7
ENDBRANCH   5   6
ENDBRANCH   4   5
ENDBRANCH   3   4
ENDBRANCH   2   3
ENDBRANCH   1   2
BRANCH   1  11
ATOM     11  C   UNL     1     -23.358  46.964  86.189  1.00  0.00     0.000 C 
BRANCH  11  12
ATOM     12  C   UNL     1     -22.693  45.974  87.157  1.00  0.00    -0.000 C 
BRANCH  12  13
ATOM     13  C   UNL     1     -21.719  45.050  86.415  1.00  0.00    -0.000 C 
BRANCH  13  14
ATOM     14  C   UNL     1     -21.047  45.782  85.249  1.00  0.00    -0.000 C 
BRANCH  14  15
ATOM     15  C   UNL     1     -19.910  44.943  84.653  1.00  0.00    -0.000 C 
BRANCH  15  16
ATOM     16  C   UNL     1     -19.078  45.767  83.662  1.00  0.00    -0.000 C 
BRANCH  16  17
ATOM     17  C   UNL     1     -17.632  45.914  84.149  1.00  0.00    -0.003 C 
ATOM     18  C   UNL     1     -17.397  45.113  85.427  1.00  0.00     0.004 C 
ENDBRANCH  16  17
ENDBRANCH  15  16
ENDBRANCH  14  15
ENDBRANCH  13  14
ENDBRANCH  12  13
ENDBRANCH  11  12
ENDBRANCH   1  11
TORSDOF 14
ENDMDL
MODEL 7
REMARK VINA RESULT:    -4.918      8.773     11.906
REMARK INTER + INTRA:         -10.141
REMARK INTER:                  -8.934
REMARK INTRA:                  -1.207
REMARK UNBOUND:                -1.197
REMARK SMILES CCCCCCCCCCCCCCCC(=O)[O-]
REMARK SMILES IDX 9 1 10 2 11 3 12 4 13 5 14 6 15 7 16 8 17 9 18 10 8 11 7 12
REMARK SMILES IDX 6 13 5 14 4 15 3 16 2 17 1 18
REMARK H PARENT
REMARK Flexibility Score: inf
ROOT
ATOM      1  C   UNL     1     -23.151  43.927  88.066  1.00  0.00     0.000 C 
ENDROOT
BRANCH   1   2
ATOM      2  C   UNL     1     -23.803  45.264  88.469  1.00  0.00     0.000 C 
BRANCH   2   3
ATOM      3  C   UNL     1     -24.964  45.727  87.566  1.00  0.00     0.000 C 
BRANCH   3   4
ATOM      4  C   UNL     1     -26.281  46.027  88.303  1.00  0.00     0.000 C 
BRANCH   4   5
ATOM      5  C   UNL     1     -26.105  46.101  89.830  1.00  0.00     0.000 C 
BRANCH   5   6
ATOM      6  C   UNL     1     -27.195  45.314  90.587  1.00  0.00     0.006 C 
BRANCH   6   7
ATOM      7  C   UNL     1     -26.901  43.809  90.696  1.00  0.00     0.053 C 
BRANCH   7   8
ATOM      8  C   UNL     1     -28.097  42.969  90.375  1.00  0.00     0.041 C 
ATOM      9  O   UNL     1     -28.243  42.489  89.221  1.00  0.00    -0.550 OA
ATOM     10  O   UNL     1     -29.037  42.693  91.361  1.00  0.00    -0.550 OA
ENDBRANCH   7   8
ENDBRANCH   6   7
ENDBRANCH   5   6
ENDBRANCH   4   5
ENDBRANCH   3   4
ENDBRANCH   2   3
ENDBRANCH   1   2
BRANCH   1  11
ATOM     11  C   UNL     1     -21.681  43.767  88.491  1.00  0.00     0.000 C 
BRANCH  11  12
ATOM     12  C   UNL     1     -20.719  44.607  87.636  1.00  0.00    -0.000 C 
BRANCH  12  13
ATOM     13  C   UNL     1     -21.089  44.522  86.150  1.00  0.00    -0.000 C 
BRANCH  13  14
ATOM     14  C   UNL     1     -21.373  45.914  85.574  1.00  0.00    -0.000 C 
BRANCH  14  15
ATOM     15  C   UNL     1     -20.252  46.357  84.625  1.00  0.00    -0.000 C 
BRANCH  15  16
ATOM     16  C   UNL     1     -19.363  45.171  84.232  1.00  0.00    -0.000 C 
BRANCH  16  17
ATOM     17  C   UNL     1     -17.892  45.593  84.147  1.00  0.00    -0.003 C 
ATOM     18  C   UNL     1     -17.118  45.145  85.384  1.00  0.00     0.004 C 
ENDBRANCH  16  17
ENDBRANCH  15  16
ENDBRANCH  14  15
ENDBRANCH  13  14
ENDBRANCH  12  13
ENDBRANCH  11  12
ENDBRANCH   1  11
TORSDOF 14
ENDMDL
MODEL 8
REMARK VINA RESULT:    -4.904      5.953      8.471
REMARK INTER + INTRA:         -10.115
REMARK INTER:                  -8.620
REMARK INTRA:                  -1.494
REMARK UNBOUND:                -1.197
REMARK SMILES CCCCCCCCCCCCCCCC(=O)[O-]
REMARK SMILES IDX 9 1 10 2 11 3 12 4 13 5 14 6 15 7 16 8 17 9 18 10 8 11 7 12
REMARK SMILES IDX 6 13 5 14 4 15 3 16 2 17 1 18
REMARK H PARENT
REMARK Flexibility Score: inf
ROOT
ATOM      1  C   UNL     1     -21.034  38.831  87.961  1.00  0.00     0.000 C 
ENDROOT
BRANCH   1   2
ATOM      2  C   UNL     1     -19.719  38.086  87.660  1.00  0.00     0.000 C 
BRANCH   2   3
ATOM      3  C   UNL     1     -19.207  37.175  88.794  1.00  0.00     0.000 C 
BRANCH   3   4
ATOM      4  C   UNL     1     -19.247  37.801  90.199  1.00  0.00     0.000 C 
BRANCH   4   5
ATOM      5  C   UNL     1     -18.029  38.697  90.486  1.00  0.00     0.000 C 
BRANCH   5   6
ATOM      6  C   UNL     1     -18.403  39.961  91.287  1.00  0.00     0.006 C 
BRANCH   6   7
ATOM      7  C   UNL     1     -19.188  40.998  90.467  1.00  0.00     0.053 C 
BRANCH   7   8
ATOM      8  C   UNL     1     -20.622  41.090  90.885  1.00  0.00     0.041 C 
ATOM      9  O   UNL     1     -21.408  41.868  90.285  1.00  0.00    -0.550 OA
ATOM     10  O   UNL     1     -21.096  40.295  91.921  1.00  0.00    -0.550 OA
ENDBRANCH   7   8
ENDBRANCH   6   7
ENDBRANCH   5   6
ENDBRANCH   4   5
ENDBRANCH   3   4
ENDBRANCH   2   3
ENDBRANCH   1   2
BRANCH   1  11
ATOM     11  C   UNL     1     -21.237  40.137  87.172  1.00  0.00     0.000 C 
BRANCH  11  12
ATOM     12  C   UNL     1     -19.917  40.862  86.871  1.00  0.00    -0.000 C 
BRANCH  12  13
ATOM     13  C   UNL     1     -20.082  42.381  87.004  1.00  0.00    -0.000 C 
BRANCH  13  14
ATOM     14  C   UNL     1     -19.584  43.101  85.746  1.00  0.00    -0.000 C 
BRANCH  14  15
ATOM     15  C   UNL     1     -20.186  44.507  85.641  1.00  0.00    -0.000 C 
BRANCH  15  16
ATOM     16  C   UNL     1     -19.634  45.253  84.420  1.00  0.00    -0.000 C 
BRANCH  16  17
ATOM     17  C   UNL     1     -18.168  44.882  84.168  1.00  0.00    -0.003 C 
ATOM     18  C   UNL     1     -17.228  45.771  84.979  1.00  0.00     0.004 C 
ENDBRANCH  16  17
ENDBRANCH  15  16
ENDBRANCH  14  15
ENDBRANCH  13  14
ENDBRANCH  12  13
ENDBRANCH  11  12
ENDBRANCH   1  11
TORSDOF 14
ENDMDL
MODEL 9
REMARK VINA RESULT:    -4.833      6.006      8.793
REMARK INTER + INTRA:          -9.985
REMARK INTER:                  -8.607
REMARK INTRA:                  -1.379
REMARK UNBOUND:                -1.197
REMARK SMILES CCCCCCCCCCCCCCCC(=O)[O-]
REMARK SMILES IDX 9 1 10 2 11 3 12 4 13 5 14 6 15 7 16 8 17 9 18 10 8 11 7 12
REMARK SMILES IDX 6 13 5 14 4 15 3 16 2 17 1 18
REMARK H PARENT
REMARK Flexibility Score: inf
ROOT
ATOM      1  C   UNL     1     -20.122  42.725  86.464  1.00  0.00     0.000 C 
ENDROOT
BRANCH   1   2
ATOM      2  C   UNL     1     -21.190  42.288  87.486  1.00  0.00     0.000 C 
BRANCH   2   3
ATOM      3  C   UNL     1     -21.365  40.764  87.642  1.00  0.00     0.000 C 
BRANCH   3   4
ATOM      4  C   UNL     1     -20.332  39.911  86.883  1.00  0.00     0.000 C 
BRANCH   4   5
ATOM      5  C   UNL     1     -19.941  38.633  87.644  1.00  0.00     0.000 C 
BRANCH   5   6
ATOM      6  C   UNL     1     -20.130  38.774  89.169  1.00  0.00     0.006 C 
BRANCH   6   7
ATOM      7  C   UNL     1     -18.818  38.661  89.963  1.00  0.00     0.053 C 
BRANCH   7   8
ATOM      8  C   UNL     1     -18.406  39.965  90.572  1.00  0.00     0.041 C 
ATOM      9  O   UNL     1     -17.370  40.032  91.283  1.00  0.00    -0.550 OA
ATOM     10  O   UNL     1     -19.152  41.112  90.330  1.00  0.00    -0.550 OA
ENDBRANCH   7   8
ENDBRANCH   6   7
ENDBRANCH   5   6
ENDBRANCH   4   5
ENDBRANCH   3   4
ENDBRANCH   2   3
ENDBRANCH   1   2
BRANCH   1  11
ATOM     11  C   UNL     1     -20.612  43.720  85.397  1.00  0.00     0.000 C 
BRANCH  11  12
ATOM     12  C   UNL     1     -21.021  45.076  85.992  1.00  0.00    -0.000 C 
BRANCH  12  13
ATOM     13  C   UNL     1     -21.068  46.159  84.907  1.00  0.00    -0.000 C 
BRANCH  13  14
ATOM     14  C   UNL     1     -20.695  45.583  83.537  1.00  0.00    -0.000 C 
BRANCH  14  15
ATOM     15  C   UNL     1     -19.359  46.154  83.043  1.00  0.00    -0.000 C 
BRANCH  15  16
ATOM     16  C   UNL     1     -18.763  47.125  84.069  1.00  0.00    -0.000 C 
BRANCH  16  17
ATOM     17  C   UNL     1     -17.322  46.737  84.419  1.00  0.00    -0.003 C 
ATOM     18  C   UNL     1     -17.273  45.394  85.141  1.00  0.00     0.004 C 
ENDBRANCH  16  17
ENDBRANCH  15  16
ENDBRANCH  14  15
ENDBRANCH  13  14
ENDBRANCH  12  13
ENDBRANCH  11  12
ENDBRANCH   1  11
TORSDOF 14
ENDMDL
