MODEL 1
REMARK VINA RESULT:    -7.244      0.000      0.000
REMARK INTER + INTRA:         -12.146
REMARK INTER:                  -9.997
REMARK INTRA:                  -2.149
REMARK UNBOUND:                -2.149
REMARK SMILES CC[C@H](CC[C@@H](C)[C@@H]1CC[C@@H]2[C@@H]3CC=C4C[C@@H](O)CC[C@@]4(C)[C@@H]3CC[C@@]21C)C(C)C
REMARK SMILES IDX 5 1 4 2 3 3 2 4 1 5 28 6 29 7 30 8 6 9 7 10 8 11 9 12 26 13
REMARK SMILES IDX 10 14 11 15 25 16 27 17 12 18 24 19 23 20 13 21 21 22 14 23
REMARK SMILES IDX 15 24 20 25 22 26 16 27 19 28 17 29 18 30
REMARK H PARENT 18 31
REMARK Flexibility Score: inf
ROOT
ATOM      1  C   UNL     1     115.368 116.216 126.222  1.00  0.00     0.004 C 
ENDROOT
BRANCH   1   2
ATOM      2  C   UNL     1     114.179 115.565 125.459  1.00  0.00     0.004 C 
BRANCH   2   3
ATOM      3  C   UNL     1     112.698 115.955 125.885  1.00  0.00    -0.009 C 
BRANCH   3   4
ATOM      4  C   UNL     1     112.853 116.640 127.261  1.00  0.00     0.000 C 
ATOM      5  C   UNL     1     111.965 116.021 128.352  1.00  0.00     0.004 C 
ENDBRANCH   3   4
BRANCH   3   6
ATOM      6  C   UNL     1     111.969 116.814 124.841  1.00  0.00    -0.014 C 
ATOM      7  C   UNL     1     112.706 116.932 123.473  1.00  0.00     0.007 C 
ATOM      8  C   UNL     1     111.651 118.252 125.304  1.00  0.00     0.007 C 
ENDBRANCH   3   6
ENDBRANCH   2   3
ENDBRANCH   1   2
BRANCH   1   9
ATOM      9  C   UNL     1     116.118 117.390 125.561  1.00  0.00    -0.011 C 
ATOM     10  C   UNL     1     116.419 117.190 124.040  1.00  0.00     0.008 C 
BRANCH   9  11
ATOM     11  C   UNL     1     115.335 118.685 125.905  1.00  0.00    -0.002 C 
ATOM     12  C   UNL     1     114.952 119.654 124.794  1.00  0.00     0.005 C 
ATOM     13  C   UNL     1     116.006 119.618 126.939  1.00  0.00    -0.026 C 
ATOM     14  C   UNL     1     114.429 120.898 125.537  1.00  0.00     0.005 C 
ATOM     15  C   UNL     1     114.977 120.775 126.978  1.00  0.00    -0.001 C 
ATOM     16  C   UNL     1     117.424 120.165 126.561  1.00  0.00     0.007 C 
ATOM     17  C   UNL     1     116.045 118.966 128.355  1.00  0.00     0.012 C 
ATOM     18  C   UNL     1     115.560 122.063 127.605  1.00  0.00     0.000 C 
ATOM     19  C   UNL     1     117.462 121.579 125.902  1.00  0.00     0.005 C 
ATOM     20  C   UNL     1     116.820 122.599 126.901  1.00  0.00     0.003 C 
ATOM     21  C   UNL     1     114.425 123.109 127.789  1.00  0.00     0.031 C 
ATOM     22  C   UNL     1     116.819 124.094 126.410  1.00  0.00    -0.008 C 
ATOM     23  C   UNL     1     114.999 124.480 128.090  1.00  0.00    -0.027 C 
ATOM     24  C   UNL     1     115.999 124.972 127.381  1.00  0.00    -0.065 C 
ATOM     25  C   UNL     1     118.291 124.598 126.403  1.00  0.00     0.014 C 
ATOM     26  C   UNL     1     116.193 124.255 125.012  1.00  0.00     0.016 C 
ATOM     27  C   UNL     1     116.268 126.473 127.502  1.00  0.00     0.063 C 
ATOM     28  C   UNL     1     118.437 126.132 126.255  1.00  0.00     0.033 C 
ATOM     29  C   UNL     1     117.759 126.856 127.453  1.00  0.00     0.118 C 
BRANCH  29  30
ATOM     30  O   UNL     1     118.442 126.630 128.674  1.00  0.00    -0.393 OA
ATOM     31  H   UNL     1     118.634 127.536 129.057  1.00  0.00     0.210 HD
ENDBRANCH  29  30
ENDBRANCH   9  11
ENDBRANCH   1   9
TORSDOF 7
ENDMDL
MODEL 2
REMARK VINA RESULT:    -7.009      1.123      2.209
REMARK INTER + INTRA:         -11.821
REMARK INTER:                 -10.277
REMARK INTRA:                  -1.544
REMARK UNBOUND:                -2.149
REMARK SMILES CC[C@H](CC[C@@H](C)[C@@H]1CC[C@@H]2[C@@H]3CC=C4C[C@@H](O)CC[C@@]4(C)[C@@H]3CC[C@@]21C)C(C)C
REMARK SMILES IDX 5 1 4 2 3 3 2 4 1 5 28 6 29 7 30 8 6 9 7 10 8 11 9 12 26 13
REMARK SMILES IDX 10 14 11 15 25 16 27 17 12 18 24 19 23 20 13 21 21 22 14 23
REMARK SMILES IDX 15 24 20 25 22 26 16 27 19 28 17 29 18 30
REMARK H PARENT 18 31
REMARK Flexibility Score: inf
ROOT
ATOM      1  C   UNL     1     115.038 116.357 126.782  1.00  0.00     0.004 C 
ENDROOT
BRANCH   1   2
ATOM      2  C   UNL     1     113.566 116.085 127.204  1.00  0.00     0.004 C 
BRANCH   2   3
ATOM      3  C   UNL     1     112.911 117.009 128.318  1.00  0.00    -0.009 C 
BRANCH   3   4
ATOM      4  C   UNL     1     111.581 117.490 127.697  1.00  0.00     0.000 C 
ATOM      5  C   UNL     1     111.364 119.007 127.821  1.00  0.00     0.004 C 
ENDBRANCH   3   4
BRANCH   3   6
ATOM      6  C   UNL     1     112.746 116.307 129.675  1.00  0.00    -0.014 C 
ATOM      7  C   UNL     1     112.365 117.257 130.851  1.00  0.00     0.007 C 
ATOM      8  C   UNL     1     113.980 115.500 130.133  1.00  0.00     0.007 C 
ENDBRANCH   3   6
ENDBRANCH   2   3
ENDBRANCH   1   2
BRANCH   1   9
ATOM      9  C   UNL     1     115.311 117.394 125.674  1.00  0.00    -0.011 C 
ATOM     10  C   UNL     1     114.881 116.939 124.242  1.00  0.00     0.008 C 
BRANCH   9  11
ATOM     11  C   UNL     1     114.692 118.739 126.143  1.00  0.00    -0.002 C 
ATOM     12  C   UNL     1     114.148 119.720 125.113  1.00  0.00     0.005 C 
ATOM     13  C   UNL     1     115.614 119.637 126.999  1.00  0.00    -0.026 C 
ATOM     14  C   UNL     1     113.862 121.000 125.921  1.00  0.00     0.005 C 
ATOM     15  C   UNL     1     114.684 120.856 127.222  1.00  0.00    -0.001 C 
ATOM     16  C   UNL     1     116.954 120.092 126.330  1.00  0.00     0.007 C 
ATOM     17  C   UNL     1     115.902 118.996 128.392  1.00  0.00     0.012 C 
ATOM     18  C   UNL     1     115.457 122.111 127.691  1.00  0.00     0.000 C 
ATOM     19  C   UNL     1     116.940 121.495 125.647  1.00  0.00     0.005 C 
ATOM     20  C   UNL     1     116.577 122.561 126.734  1.00  0.00     0.003 C 
ATOM     21  C   UNL     1     114.448 123.226 128.079  1.00  0.00     0.031 C 
ATOM     22  C   UNL     1     116.564 124.050 126.222  1.00  0.00    -0.008 C 
ATOM     23  C   UNL     1     115.150 124.562 128.229  1.00  0.00    -0.027 C 
ATOM     24  C   UNL     1     116.012 124.985 127.321  1.00  0.00    -0.065 C 
ATOM     25  C   UNL     1     118.031 124.461 125.906  1.00  0.00     0.014 C 
ATOM     26  C   UNL     1     115.676 124.237 124.978  1.00  0.00     0.016 C 
ATOM     27  C   UNL     1     116.388 126.467 127.354  1.00  0.00     0.063 C 
ATOM     28  C   UNL     1     118.233 125.982 125.699  1.00  0.00     0.033 C 
ATOM     29  C   UNL     1     117.858 126.757 126.995  1.00  0.00     0.118 C 
BRANCH  29  30
ATOM     30  O   UNL     1     118.761 126.500 128.056  1.00  0.00    -0.393 OA
ATOM     31  H   UNL     1     119.063 125.551 127.939  1.00  0.00     0.210 HD
ENDBRANCH  29  30
ENDBRANCH   9  11
ENDBRANCH   1   9
TORSDOF 7
ENDMDL
MODEL 3
REMARK VINA RESULT:    -6.932      3.000      9.350
REMARK INTER + INTRA:         -11.716
REMARK INTER:                 -10.696
REMARK INTRA:                  -1.020
REMARK UNBOUND:                -2.149
REMARK SMILES CC[C@H](CC[C@@H](C)[C@@H]1CC[C@@H]2[C@@H]3CC=C4C[C@@H](O)CC[C@@]4(C)[C@@H]3CC[C@@]21C)C(C)C
REMARK SMILES IDX 5 1 4 2 3 3 2 4 1 5 28 6 29 7 30 8 6 9 7 10 8 11 9 12 26 13
REMARK SMILES IDX 10 14 11 15 25 16 27 17 12 18 24 19 23 20 13 21 21 22 14 23
REMARK SMILES IDX 15 24 20 25 22 26 16 27 19 28 17 29 18 30
REMARK H PARENT 18 31
REMARK Flexibility Score: inf
ROOT
ATOM      1  C   UNL     1     118.520 126.951 125.576  1.00  0.00     0.004 C 
ENDROOT
BRANCH   1   2
ATOM      2  C   UNL     1     119.605 128.020 125.892  1.00  0.00     0.004 C 
BRANCH   2   3
ATOM      3  C   UNL     1     119.141 129.510 126.193  1.00  0.00    -0.009 C 
BRANCH   3   4
ATOM      4  C   UNL     1     120.385 130.376 125.898  1.00  0.00     0.000 C 
ATOM      5  C   UNL     1     121.540 129.586 125.261  1.00  0.00     0.004 C 
ENDBRANCH   3   4
BRANCH   3   6
ATOM      6  C   UNL     1     117.889 129.930 125.406  1.00  0.00    -0.014 C 
ATOM      7  C   UNL     1     118.001 131.320 124.710  1.00  0.00     0.007 C 
ATOM      8  C   UNL     1     116.587 129.947 126.235  1.00  0.00     0.007 C 
ENDBRANCH   3   6
ENDBRANCH   2   3
ENDBRANCH   1   2
BRANCH   1   9
ATOM      9  C   UNL     1     118.025 126.039 126.716  1.00  0.00    -0.011 C 
ATOM     10  C   UNL     1     117.906 126.746 128.105  1.00  0.00     0.008 C 
BRANCH   9  11
ATOM     11  C   UNL     1     116.723 125.352 126.221  1.00  0.00    -0.002 C 
ATOM     12  C   UNL     1     115.541 125.203 127.169  1.00  0.00     0.005 C 
ATOM     13  C   UNL     1     116.891 123.916 125.674  1.00  0.00    -0.026 C 
ATOM     14  C   UNL     1     114.565 124.277 126.418  1.00  0.00     0.005 C 
ATOM     15  C   UNL     1     115.418 123.575 125.335  1.00  0.00    -0.001 C 
ATOM     16  C   UNL     1     117.478 122.860 126.669  1.00  0.00     0.007 C 
ATOM     17  C   UNL     1     117.702 123.904 124.341  1.00  0.00     0.012 C 
ATOM     18  C   UNL     1     115.190 122.056 125.157  1.00  0.00     0.000 C 
ATOM     19  C   UNL     1     116.438 121.985 127.435  1.00  0.00     0.005 C 
ATOM     20  C   UNL     1     115.585 121.206 126.379  1.00  0.00     0.003 C 
ATOM     21  C   UNL     1     113.749 121.807 124.632  1.00  0.00     0.031 C 
ATOM     22  C   UNL     1     114.508 120.232 126.987  1.00  0.00    -0.008 C 
ATOM     23  C   UNL     1     113.376 120.342 124.752  1.00  0.00    -0.027 C 
ATOM     24  C   UNL     1     113.608 119.668 125.865  1.00  0.00    -0.065 C 
ATOM     25  C   UNL     1     115.259 119.051 127.666  1.00  0.00     0.014 C 
ATOM     26  C   UNL     1     113.585 120.932 128.002  1.00  0.00     0.016 C 
ATOM     27  C   UNL     1     112.884 118.331 126.034  1.00  0.00     0.063 C 
ATOM     28  C   UNL     1     114.355 117.848 128.030  1.00  0.00     0.033 C 
ATOM     29  C   UNL     1     113.714 117.246 126.746  1.00  0.00     0.118 C 
BRANCH  29  30
ATOM     30  O   UNL     1     114.673 116.627 125.908  1.00  0.00    -0.393 OA
ATOM     31  H   UNL     1     115.376 117.319 125.730  1.00  0.00     0.210 HD
ENDBRANCH  29  30
ENDBRANCH   9  11
ENDBRANCH   1   9
TORSDOF 7
ENDMDL
MODEL 4
REMARK VINA RESULT:    -6.652      3.019      9.375
REMARK INTER + INTRA:         -11.329
REMARK INTER:                 -10.510
REMARK INTRA:                  -0.819
REMARK UNBOUND:                -2.149
REMARK SMILES CC[C@H](CC[C@@H](C)[C@@H]1CC[C@@H]2[C@@H]3CC=C4C[C@@H](O)CC[C@@]4(C)[C@@H]3CC[C@@]21C)C(C)C
REMARK SMILES IDX 5 1 4 2 3 3 2 4 1 5 28 6 29 7 30 8 6 9 7 10 8 11 9 12 26 13
REMARK SMILES IDX 10 14 11 15 25 16 27 17 12 18 24 19 23 20 13 21 21 22 14 23
REMARK SMILES IDX 15 24 20 25 22 26 16 27 19 28 17 29 18 30
REMARK H PARENT 18 31
REMARK Flexibility Score: inf
ROOT
ATOM      1  C   UNL     1     118.035 126.438 125.931  1.00  0.00     0.004 C 
ENDROOT
BRANCH   1   2
ATOM      2  C   UNL     1     118.207 127.893 126.453  1.00  0.00     0.004 C 
BRANCH   2   3
ATOM      3  C   UNL     1     118.900 128.964 125.506  1.00  0.00    -0.009 C 
BRANCH   3   4
ATOM      4  C   UNL     1     117.783 129.979 125.176  1.00  0.00     0.000 C 
ATOM      5  C   UNL     1     116.599 129.920 126.156  1.00  0.00     0.004 C 
ENDBRANCH   3   4
BRANCH   3   6
ATOM      6  C   UNL     1     120.157 129.601 126.121  1.00  0.00    -0.014 C 
ATOM      7  C   UNL     1     119.989 131.096 126.529  1.00  0.00     0.007 C 
ATOM      8  C   UNL     1     121.417 129.516 125.234  1.00  0.00     0.007 C 
ENDBRANCH   3   6
ENDBRANCH   2   3
ENDBRANCH   1   2
BRANCH   1   9
ATOM      9  C   UNL     1     117.138 125.467 126.724  1.00  0.00    -0.011 C 
ATOM     10  C   UNL     1     115.881 126.132 127.373  1.00  0.00     0.008 C 
BRANCH   9  11
ATOM     11  C   UNL     1     116.830 124.263 125.793  1.00  0.00    -0.002 C 
ATOM     12  C   UNL     1     115.544 124.249 124.977  1.00  0.00     0.005 C 
ATOM     13  C   UNL     1     116.801 122.878 126.479  1.00  0.00    -0.026 C 
ATOM     14  C   UNL     1     115.478 122.824 124.396  1.00  0.00     0.005 C 
ATOM     15  C   UNL     1     116.432 121.979 125.272  1.00  0.00    -0.001 C 
ATOM     16  C   UNL     1     115.756 122.696 127.630  1.00  0.00     0.007 C 
ATOM     17  C   UNL     1     118.219 122.455 126.972  1.00  0.00     0.012 C 
ATOM     18  C   UNL     1     115.916 120.588 125.708  1.00  0.00     0.000 C 
ATOM     19  C   UNL     1     114.396 122.047 127.228  1.00  0.00     0.005 C 
ATOM     20  C   UNL     1     114.689 120.627 126.638  1.00  0.00     0.003 C 
ATOM     21  C   UNL     1     115.753 119.681 124.457  1.00  0.00     0.031 C 
ATOM     22  C   UNL     1     113.413 119.808 126.220  1.00  0.00    -0.008 C 
ATOM     23  C   UNL     1     114.953 118.438 124.792  1.00  0.00    -0.027 C 
ATOM     24  C   UNL     1     113.828 118.516 125.482  1.00  0.00    -0.065 C 
ATOM     25  C   UNL     1     112.646 119.418 127.517  1.00  0.00     0.014 C 
ATOM     26  C   UNL     1     112.490 120.596 125.270  1.00  0.00     0.016 C 
ATOM     27  C   UNL     1     112.910 117.292 125.460  1.00  0.00     0.063 C 
ATOM     28  C   UNL     1     111.550 118.346 127.309  1.00  0.00     0.033 C 
ATOM     29  C   UNL     1     112.182 117.022 126.790  1.00  0.00     0.118 C 
BRANCH  29  30
ATOM     30  O   UNL     1     112.998 116.398 127.765  1.00  0.00    -0.393 OA
ATOM     31  H   UNL     1     113.721 115.921 127.259  1.00  0.00     0.210 HD
ENDBRANCH  29  30
ENDBRANCH   9  11
ENDBRANCH   1   9
TORSDOF 7
ENDMDL
MODEL 5
REMARK VINA RESULT:    -6.652      2.719      7.711
REMARK INTER + INTRA:         -11.329
REMARK INTER:                 -10.484
REMARK INTRA:                  -0.844
REMARK UNBOUND:                -2.149
REMARK SMILES CC[C@H](CC[C@@H](C)[C@@H]1CC[C@@H]2[C@@H]3CC=C4C[C@@H](O)CC[C@@]4(C)[C@@H]3CC[C@@]21C)C(C)C
REMARK SMILES IDX 5 1 4 2 3 3 2 4 1 5 28 6 29 7 30 8 6 9 7 10 8 11 9 12 26 13
REMARK SMILES IDX 10 14 11 15 25 16 27 17 12 18 24 19 23 20 13 21 21 22 14 23
REMARK SMILES IDX 15 24 20 25 22 26 16 27 19 28 17 29 18 30
REMARK H PARENT 18 31
REMARK Flexibility Score: inf
ROOT
ATOM      1  C   UNL     1     116.914 123.344 123.656  1.00  0.00     0.004 C 
ENDROOT
BRANCH   1   2
ATOM      2  C   UNL     1     117.726 124.278 124.599  1.00  0.00     0.004 C 
BRANCH   2   3
ATOM      3  C   UNL     1     117.025 124.823 125.917  1.00  0.00    -0.009 C 
BRANCH   3   4
ATOM      4  C   UNL     1     116.833 123.573 126.805  1.00  0.00     0.000 C 
ATOM      5  C   UNL     1     115.426 123.470 127.413  1.00  0.00     0.004 C 
ENDBRANCH   3   4
BRANCH   3   6
ATOM      6  C   UNL     1     117.806 125.957 126.599  1.00  0.00    -0.014 C 
ATOM      7  C   UNL     1     116.919 127.125 127.125  1.00  0.00     0.007 C 
ATOM      8  C   UNL     1     118.910 126.590 125.726  1.00  0.00     0.007 C 
ENDBRANCH   3   6
ENDBRANCH   2   3
ENDBRANCH   1   2
BRANCH   1   9
ATOM      9  C   UNL     1     117.376 121.884 123.481  1.00  0.00    -0.011 C 
ATOM     10  C   UNL     1     118.572 121.470 124.398  1.00  0.00     0.008 C 
BRANCH   9  11
ATOM     11  C   UNL     1     116.117 120.986 123.609  1.00  0.00    -0.002 C 
ATOM     12  C   UNL     1     114.832 121.564 124.188  1.00  0.00     0.005 C 
ATOM     13  C   UNL     1     116.299 119.692 124.436  1.00  0.00    -0.026 C 
ATOM     14  C   UNL     1     113.917 120.340 124.382  1.00  0.00     0.005 C 
ATOM     15  C   UNL     1     114.862 119.115 124.368  1.00  0.00    -0.001 C 
ATOM     16  C   UNL     1     116.738 119.879 125.927  1.00  0.00     0.007 C 
ATOM     17  C   UNL     1     117.251 118.686 123.720  1.00  0.00     0.012 C 
ATOM     18  C   UNL     1     114.608 118.036 125.446  1.00  0.00     0.000 C 
ATOM     19  C   UNL     1     115.593 119.883 126.986  1.00  0.00     0.005 C 
ATOM     20  C   UNL     1     114.838 118.515 126.892  1.00  0.00     0.003 C 
ATOM     21  C   UNL     1     113.226 117.370 125.196  1.00  0.00     0.031 C 
ATOM     22  C   UNL     1     113.671 118.331 127.931  1.00  0.00    -0.008 C 
ATOM     23  C   UNL     1     112.797 116.551 126.397  1.00  0.00    -0.027 C 
ATOM     24  C   UNL     1     112.883 117.039 127.622  1.00  0.00    -0.065 C 
ATOM     25  C   UNL     1     114.305 118.204 129.347  1.00  0.00     0.014 C 
ATOM     26  C   UNL     1     112.663 119.496 127.900  1.00  0.00     0.016 C 
ATOM     27  C   UNL     1     112.103 116.311 128.719  1.00  0.00     0.063 C 
ATOM     28  C   UNL     1     113.328 117.700 130.437  1.00  0.00     0.033 C 
ATOM     29  C   UNL     1     112.815 116.274 130.085  1.00  0.00     0.118 C 
BRANCH  29  30
ATOM     30  O   UNL     1     113.841 115.300 130.161  1.00  0.00    -0.393 OA
ATOM     31  H   UNL     1     114.416 115.563 130.939  1.00  0.00     0.210 HD
ENDBRANCH  29  30
ENDBRANCH   9  11
ENDBRANCH   1   9
TORSDOF 7
ENDMDL
MODEL 6
REMARK VINA RESULT:    -6.584      1.941      3.373
REMARK INTER + INTRA:         -11.235
REMARK INTER:                  -9.852
REMARK INTRA:                  -1.383
REMARK UNBOUND:                -2.149
REMARK SMILES CC[C@H](CC[C@@H](C)[C@@H]1CC[C@@H]2[C@@H]3CC=C4C[C@@H](O)CC[C@@]4(C)[C@@H]3CC[C@@]21C)C(C)C
REMARK SMILES IDX 5 1 4 2 3 3 2 4 1 5 28 6 29 7 30 8 6 9 7 10 8 11 9 12 26 13
REMARK SMILES IDX 10 14 11 15 25 16 27 17 12 18 24 19 23 20 13 21 21 22 14 23
REMARK SMILES IDX 15 24 20 25 22 26 16 27 19 28 17 29 18 30
REMARK H PARENT 18 31
REMARK Flexibility Score: inf
ROOT
ATOM      1  C   UNL     1     112.588 115.705 124.677  1.00  0.00     0.004 C 
ENDROOT
BRANCH   1   2
ATOM      2  C   UNL     1     113.486 114.449 124.485  1.00  0.00     0.004 C 
BRANCH   2   3
ATOM      3  C   UNL     1     114.679 114.521 123.437  1.00  0.00    -0.009 C 
BRANCH   3   4
ATOM      4  C   UNL     1     115.941 114.762 124.295  1.00  0.00     0.000 C 
ATOM      5  C   UNL     1     116.794 115.942 123.804  1.00  0.00     0.004 C 
ENDBRANCH   3   4
BRANCH   3   6
ATOM      6  C   UNL     1     114.770 113.284 122.530  1.00  0.00    -0.014 C 
ATOM      7  C   UNL     1     114.845 111.927 123.294  1.00  0.00     0.007 C 
ATOM      8  C   UNL     1     115.950 113.305 121.535  1.00  0.00     0.007 C 
ENDBRANCH   3   6
ENDBRANCH   2   3
ENDBRANCH   1   2
BRANCH   1   9
ATOM      9  C   UNL     1     112.881 116.961 123.833  1.00  0.00    -0.011 C 
ATOM     10  C   UNL     1     112.062 117.055 122.506  1.00  0.00     0.008 C 
BRANCH   9  11
ATOM     11  C   UNL     1     112.739 118.188 124.774  1.00  0.00    -0.002 C 
ATOM     12  C   UNL     1     112.193 119.501 124.226  1.00  0.00     0.005 C 
ATOM     13  C   UNL     1     114.036 118.641 125.484  1.00  0.00    -0.026 C 
ATOM     14  C   UNL     1     112.435 120.516 125.360  1.00  0.00     0.005 C 
ATOM     15  C   UNL     1     113.509 119.870 126.266  1.00  0.00    -0.001 C 
ATOM     16  C   UNL     1     115.225 119.058 124.555  1.00  0.00     0.007 C 
ATOM     17  C   UNL     1     114.516 117.583 126.525  1.00  0.00     0.012 C 
ATOM     18  C   UNL     1     114.650 120.795 126.750  1.00  0.00     0.000 C 
ATOM     19  C   UNL     1     115.365 120.583 124.260  1.00  0.00     0.005 C 
ATOM     20  C   UNL     1     115.557 121.327 125.624  1.00  0.00     0.003 C 
ATOM     21  C   UNL     1     114.067 121.891 127.685  1.00  0.00     0.031 C 
ATOM     22  C   UNL     1     115.762 122.883 125.507  1.00  0.00    -0.008 C 
ATOM     23  C   UNL     1     115.078 122.997 127.916  1.00  0.00    -0.027 C 
ATOM     24  C   UNL     1     115.750 123.528 126.910  1.00  0.00    -0.065 C 
ATOM     25  C   UNL     1     117.151 123.136 124.852  1.00  0.00     0.014 C 
ATOM     26  C   UNL     1     114.652 123.563 124.683  1.00  0.00     0.016 C 
ATOM     27  C   UNL     1     116.459 124.859 127.170  1.00  0.00     0.063 C 
ATOM     28  C   UNL     1     117.645 124.599 124.955  1.00  0.00     0.033 C 
ATOM     29  C   UNL     1     117.811 125.009 126.447  1.00  0.00     0.118 C 
BRANCH  29  30
ATOM     30  O   UNL     1     118.871 124.314 127.080  1.00  0.00    -0.393 OA
ATOM     31  H   UNL     1     118.652 123.339 126.999  1.00  0.00     0.210 HD
ENDBRANCH  29  30
ENDBRANCH   9  11
ENDBRANCH   1   9
TORSDOF 7
ENDMDL
MODEL 7
REMARK VINA RESULT:    -6.296      1.743      3.832
REMARK INTER + INTRA:         -10.838
REMARK INTER:                  -8.924
REMARK INTRA:                  -1.913
REMARK UNBOUND:                -2.149
REMARK SMILES CC[C@H](CC[C@@H](C)[C@@H]1CC[C@@H]2[C@@H]3CC=C4C[C@@H](O)CC[C@@]4(C)[C@@H]3CC[C@@]21C)C(C)C
REMARK SMILES IDX 5 1 4 2 3 3 2 4 1 5 28 6 29 7 30 8 6 9 7 10 8 11 9 12 26 13
REMARK SMILES IDX 10 14 11 15 25 16 27 17 12 18 24 19 23 20 13 21 21 22 14 23
REMARK SMILES IDX 15 24 20 25 22 26 16 27 19 28 17 29 18 30
REMARK H PARENT 18 31
REMARK Flexibility Score: inf
ROOT
ATOM      1  C   UNL     1     112.233 115.999 124.153  1.00  0.00     0.004 C 
ENDROOT
BRANCH   1   2
ATOM      2  C   UNL     1     113.534 115.443 123.507  1.00  0.00     0.004 C 
BRANCH   2   3
ATOM      3  C   UNL     1     114.431 114.438 124.349  1.00  0.00    -0.009 C 
BRANCH   3   4
ATOM      4  C   UNL     1     113.901 113.034 123.979  1.00  0.00     0.000 C 
ATOM      5  C   UNL     1     114.930 112.174 123.228  1.00  0.00     0.004 C 
ENDBRANCH   3   4
BRANCH   3   6
ATOM      6  C   UNL     1     115.939 114.616 124.110  1.00  0.00    -0.014 C 
ATOM      7  C   UNL     1     116.782 114.789 125.409  1.00  0.00     0.007 C 
ATOM      8  C   UNL     1     116.304 115.791 123.178  1.00  0.00     0.007 C 
ENDBRANCH   3   6
ENDBRANCH   2   3
ENDBRANCH   1   2
BRANCH   1   9
ATOM      9  C   UNL     1     112.354 117.040 125.285  1.00  0.00    -0.011 C 
ATOM     10  C   UNL     1     112.349 116.433 126.725  1.00  0.00     0.008 C 
BRANCH   9  11
ATOM     11  C   UNL     1     113.583 117.931 124.958  1.00  0.00    -0.002 C 
ATOM     12  C   UNL     1     114.830 117.847 125.830  1.00  0.00     0.005 C 
ATOM     13  C   UNL     1     113.314 119.452 124.913  1.00  0.00    -0.026 C 
ATOM     14  C   UNL     1     115.703 119.025 125.358  1.00  0.00     0.005 C 
ATOM     15  C   UNL     1     114.740 119.978 124.613  1.00  0.00    -0.001 C 
ATOM     16  C   UNL     1     112.763 120.098 126.228  1.00  0.00     0.007 C 
ATOM     17  C   UNL     1     112.401 119.835 123.707  1.00  0.00     0.012 C 
ATOM     18  C   UNL     1     114.890 121.487 124.919  1.00  0.00     0.000 C 
ATOM     19  C   UNL     1     113.822 120.749 127.170  1.00  0.00     0.005 C 
ATOM     20  C   UNL     1     114.557 121.877 126.371  1.00  0.00     0.003 C 
ATOM     21  C   UNL     1     116.273 121.982 124.414  1.00  0.00     0.031 C 
ATOM     22  C   UNL     1     115.636 122.675 127.192  1.00  0.00    -0.008 C 
ATOM     23  C   UNL     1     116.593 123.354 124.976  1.00  0.00    -0.027 C 
ATOM     24  C   UNL     1     116.421 123.623 126.259  1.00  0.00    -0.065 C 
ATOM     25  C   UNL     1     114.892 123.528 128.260  1.00  0.00     0.014 C 
ATOM     26  C   UNL     1     116.665 121.750 127.870  1.00  0.00     0.016 C 
ATOM     27  C   UNL     1     117.100 124.880 126.804  1.00  0.00     0.063 C 
ATOM     28  C   UNL     1     115.771 124.609 128.935  1.00  0.00     0.033 C 
ATOM     29  C   UNL     1     116.283 125.627 127.876  1.00  0.00     0.118 C 
BRANCH  29  30
ATOM     30  O   UNL     1     115.237 126.418 127.341  1.00  0.00    -0.393 OA
ATOM     31  H   UNL     1     114.589 125.776 126.924  1.00  0.00     0.210 HD
ENDBRANCH  29  30
ENDBRANCH   9  11
ENDBRANCH   1   9
TORSDOF 7
ENDMDL
MODEL 8
REMARK VINA RESULT:    -6.262      3.435      8.616
REMARK INTER + INTRA:         -10.792
REMARK INTER:                  -9.374
REMARK INTRA:                  -1.417
REMARK UNBOUND:                -2.149
REMARK SMILES CC[C@H](CC[C@@H](C)[C@@H]1CC[C@@H]2[C@@H]3CC=C4C[C@@H](O)CC[C@@]4(C)[C@@H]3CC[C@@]21C)C(C)C
REMARK SMILES IDX 5 1 4 2 3 3 2 4 1 5 28 6 29 7 30 8 6 9 7 10 8 11 9 12 26 13
REMARK SMILES IDX 10 14 11 15 25 16 27 17 12 18 24 19 23 20 13 21 21 22 14 23
REMARK SMILES IDX 15 24 20 25 22 26 16 27 19 28 17 29 18 30
REMARK H PARENT 18 31
REMARK Flexibility Score: inf
ROOT
ATOM      1  C   UNL     1     114.538 122.273 127.831  1.00  0.00     0.004 C 
ENDROOT
BRANCH   1   2
ATOM      2  C   UNL     1     114.922 123.780 127.866  1.00  0.00     0.004 C 
BRANCH   2   3
ATOM      3  C   UNL     1     115.006 124.575 126.493  1.00  0.00    -0.009 C 
BRANCH   3   4
ATOM      4  C   UNL     1     116.497 124.958 126.352  1.00  0.00     0.000 C 
ATOM      5  C   UNL     1     116.843 126.307 127.002  1.00  0.00     0.004 C 
ENDBRANCH   3   4
BRANCH   3   6
ATOM      6  C   UNL     1     114.450 123.788 125.296  1.00  0.00    -0.014 C 
ATOM      7  C   UNL     1     115.398 123.739 124.060  1.00  0.00     0.007 C 
ATOM      8  C   UNL     1     113.077 124.278 124.790  1.00  0.00     0.007 C 
ENDBRANCH   3   6
ENDBRANCH   2   3
ENDBRANCH   1   2
BRANCH   1   9
ATOM      9  C   UNL     1     115.500 121.280 127.149  1.00  0.00    -0.011 C 
ATOM     10  C   UNL     1     116.966 121.324 127.689  1.00  0.00     0.008 C 
BRANCH   9  11
ATOM     11  C   UNL     1     114.828 119.881 127.204  1.00  0.00    -0.002 C 
ATOM     12  C   UNL     1     115.553 118.720 127.871  1.00  0.00     0.005 C 
ATOM     13  C   UNL     1     114.426 119.278 125.838  1.00  0.00    -0.026 C 
ATOM     14  C   UNL     1     114.706 117.484 127.511  1.00  0.00     0.005 C 
ATOM     15  C   UNL     1     113.852 117.914 126.296  1.00  0.00    -0.001 C 
ATOM     16  C   UNL     1     115.586 119.061 124.809  1.00  0.00     0.007 C 
ATOM     17  C   UNL     1     113.268 120.086 125.176  1.00  0.00     0.012 C 
ATOM     18  C   UNL     1     113.746 116.898 125.134  1.00  0.00     0.000 C 
ATOM     19  C   UNL     1     116.212 117.632 124.771  1.00  0.00     0.005 C 
ATOM     20  C   UNL     1     115.078 116.613 124.416  1.00  0.00     0.003 C 
ATOM     21  C   UNL     1     112.987 115.632 125.621  1.00  0.00     0.031 C 
ATOM     22  C   UNL     1     115.549 115.117 124.290  1.00  0.00    -0.008 C 
ATOM     23  C   UNL     1     113.144 114.495 124.630  1.00  0.00    -0.027 C 
ATOM     24  C   UNL     1     114.327 114.186 124.128  1.00  0.00    -0.065 C 
ATOM     25  C   UNL     1     116.438 114.999 123.018  1.00  0.00     0.014 C 
ATOM     26  C   UNL     1     116.326 114.636 125.530  1.00  0.00     0.016 C 
ATOM     27  C   UNL     1     114.459 112.826 123.441  1.00  0.00     0.063 C 
ATOM     28  C   UNL     1     116.719 113.544 122.571  1.00  0.00     0.033 C 
ATOM     29  C   UNL     1     115.387 112.824 122.211  1.00  0.00     0.118 C 
BRANCH  29  30
ATOM     30  O   UNL     1     114.784 113.360 121.047  1.00  0.00    -0.393 OA
ATOM     31  H   UNL     1     114.955 112.696 120.315  1.00  0.00     0.210 HD
ENDBRANCH  29  30
ENDBRANCH   9  11
ENDBRANCH   1   9
TORSDOF 7
ENDMDL
MODEL 9
REMARK VINA RESULT:    -6.139      3.385      8.100
REMARK INTER + INTRA:         -10.621
REMARK INTER:                  -9.232
REMARK INTRA:                  -1.389
REMARK UNBOUND:                -2.149
REMARK SMILES CC[C@H](CC[C@@H](C)[C@@H]1CC[C@@H]2[C@@H]3CC=C4C[C@@H](O)CC[C@@]4(C)[C@@H]3CC[C@@]21C)C(C)C
REMARK SMILES IDX 5 1 4 2 3 3 2 4 1 5 28 6 29 7 30 8 6 9 7 10 8 11 9 12 26 13
REMARK SMILES IDX 10 14 11 15 25 16 27 17 12 18 24 19 23 20 13 21 21 22 14 23
REMARK SMILES IDX 15 24 20 25 22 26 16 27 19 28 17 29 18 30
REMARK H PARENT 18 31
REMARK Flexibility Score: inf
ROOT
ATOM      1  C   UNL     1     115.884 122.518 126.667  1.00  0.00     0.004 C 
ENDROOT
BRANCH   1   2
ATOM      2  C   UNL     1     116.806 122.950 125.491  1.00  0.00     0.004 C 
BRANCH   2   3
ATOM      3  C   UNL     1     118.111 122.094 125.194  1.00  0.00    -0.009 C 
BRANCH   3   4
ATOM      4  C   UNL     1     118.004 120.875 126.137  1.00  0.00     0.000 C 
ATOM      5  C   UNL     1     119.157 120.785 127.149  1.00  0.00     0.004 C 
ENDBRANCH   3   4
BRANCH   3   6
ATOM      6  C   UNL     1     118.273 121.721 123.712  1.00  0.00    -0.014 C 
ATOM      7  C   UNL     1     117.058 122.104 122.814  1.00  0.00     0.007 C 
ATOM      8  C   UNL     1     118.568 120.228 123.456  1.00  0.00     0.007 C 
ENDBRANCH   3   6
ENDBRANCH   2   3
ENDBRANCH   1   2
BRANCH   1   9
ATOM      9  C   UNL     1     114.356 122.569 126.467  1.00  0.00    -0.011 C 
ATOM     10  C   UNL     1     113.902 123.190 125.106  1.00  0.00     0.008 C 
BRANCH   9  11
ATOM     11  C   UNL     1     113.809 121.143 126.746  1.00  0.00    -0.002 C 
ATOM     12  C   UNL     1     114.626 120.172 127.588  1.00  0.00     0.005 C 
ATOM     13  C   UNL     1     113.477 120.297 125.495  1.00  0.00    -0.026 C 
ATOM     14  C   UNL     1     113.896 118.825 127.432  1.00  0.00     0.005 C 
ATOM     15  C   UNL     1     113.020 118.978 126.166  1.00  0.00    -0.001 C 
ATOM     16  C   UNL     1     114.663 120.022 124.510  1.00  0.00     0.007 C 
ATOM     17  C   UNL     1     112.260 120.883 124.716  1.00  0.00     0.012 C 
ATOM     18  C   UNL     1     113.017 117.785 125.183  1.00  0.00     0.000 C 
ATOM     19  C   UNL     1     115.413 118.667 124.699  1.00  0.00     0.005 C 
ATOM     20  C   UNL     1     114.377 117.508 124.515  1.00  0.00     0.003 C 
ATOM     21  C   UNL     1     112.367 116.550 125.867  1.00  0.00     0.031 C 
ATOM     22  C   UNL     1     114.979 116.058 124.627  1.00  0.00    -0.008 C 
ATOM     23  C   UNL     1     112.635 115.288 125.070  1.00  0.00    -0.027 C 
ATOM     24  C   UNL     1     113.845 115.009 124.620  1.00  0.00    -0.065 C 
ATOM     25  C   UNL     1     115.889 115.819 123.388  1.00  0.00     0.014 C 
ATOM     26  C   UNL     1     115.781 115.852 125.926  1.00  0.00     0.016 C 
ATOM     27  C   UNL     1     114.104 113.574 124.159  1.00  0.00     0.063 C 
ATOM     28  C   UNL     1     116.301 114.342 123.178  1.00  0.00     0.033 C 
ATOM     29  C   UNL     1     115.042 113.459 122.942  1.00  0.00     0.118 C 
BRANCH  29  30
ATOM     30  O   UNL     1     114.407 113.746 121.709  1.00  0.00    -0.393 OA
ATOM     31  H   UNL     1     114.156 112.861 121.312  1.00  0.00     0.210 HD
ENDBRANCH  29  30
ENDBRANCH   9  11
ENDBRANCH   1   9
TORSDOF 7
ENDMDL
