MODEL 1
REMARK VINA RESULT:    -3.543      0.000      0.000
REMARK INTER + INTRA:          -7.141
REMARK INTER:                  -5.614
REMARK INTRA:                  -1.528
REMARK UNBOUND:                -1.528
REMARK SMILES CCCCCCCCCCCC(=O)[O-]
REMARK SMILES IDX 7 1 8 2 9 3 10 4 11 5 12 6 13 7 14 8 6 9 5 10 4 11 3 12 2 13
REMARK SMILES IDX 1 14
REMARK H PARENT
REMARK Flexibility Score: inf
ROOT
ATOM      1  C   UNL     1      -1.566   8.906  36.663  1.00  0.00     0.000 C 
ENDROOT
BRANCH   1   2
ATOM      2  C   UNL     1      -2.200   9.812  37.731  1.00  0.00     0.000 C 
BRANCH   2   3
ATOM      3  C   UNL     1      -2.631   9.036  38.985  1.00  0.00     0.000 C 
BRANCH   3   4
ATOM      4  C   UNL     1      -2.198   7.560  38.947  1.00  0.00     0.006 C 
BRANCH   4   5
ATOM      5  C   UNL     1      -2.986   6.699  39.944  1.00  0.00     0.053 C 
BRANCH   5   6
ATOM      6  C   UNL     1      -2.483   6.868  41.345  1.00  0.00     0.041 C 
ATOM      7  O   UNL     1      -3.077   7.641  42.142  1.00  0.00    -0.550 OA
ATOM      8  O   UNL     1      -1.342   6.194  41.761  1.00  0.00    -0.550 OA
ENDBRANCH   5   6
ENDBRANCH   4   5
ENDBRANCH   3   4
ENDBRANCH   2   3
ENDBRANCH   1   2
BRANCH   1   9
ATOM      9  C   UNL     1      -0.384   9.605  35.982  1.00  0.00     0.000 C 
BRANCH   9  10
ATOM     10  C   UNL     1       0.637  10.097  37.020  1.00  0.00    -0.000 C 
BRANCH  10  11
ATOM     11  C   UNL     1       1.579   8.982  37.503  1.00  0.00    -0.000 C 
BRANCH  11  12
ATOM     12  C   UNL     1       1.384   8.648  38.992  1.00  0.00    -0.000 C 
BRANCH  12  13
ATOM     13  C   UNL     1       0.901   9.859  39.808  1.00  0.00    -0.003 C 
ATOM     14  C   UNL     1       0.279   9.461  41.147  1.00  0.00     0.004 C 
ENDBRANCH  12  13
ENDBRANCH  11  12
ENDBRANCH  10  11
ENDBRANCH   9  10
ENDBRANCH   1   9
TORSDOF 10
ENDMDL
MODEL 2
REMARK VINA RESULT:    -3.468      3.346      4.775
REMARK INTER + INTRA:          -7.023
REMARK INTER:                  -5.735
REMARK INTRA:                  -1.288
REMARK UNBOUND:                -1.528
REMARK SMILES CCCCCCCCCCCC(=O)[O-]
REMARK SMILES IDX 7 1 8 2 9 3 10 4 11 5 12 6 13 7 14 8 6 9 5 10 4 11 3 12 2 13
REMARK SMILES IDX 1 14
REMARK H PARENT
REMARK Flexibility Score: inf
ROOT
ATOM      1  C   UNL     1      -2.570   7.731  39.212  1.00  0.00     0.000 C 
ENDROOT
BRANCH   1   2
ATOM      2  C   UNL     1      -2.389   9.113  38.566  1.00  0.00     0.000 C 
BRANCH   2   3
ATOM      3  C   UNL     1      -1.572   9.057  37.266  1.00  0.00     0.000 C 
BRANCH   3   4
ATOM      4  C   UNL     1      -1.003   7.655  36.984  1.00  0.00     0.006 C 
BRANCH   4   5
ATOM      5  C   UNL     1      -1.512   7.080  35.655  1.00  0.00     0.053 C 
BRANCH   5   6
ATOM      6  C   UNL     1      -0.402   6.892  34.667  1.00  0.00     0.041 C 
ATOM      7  O   UNL     1      -0.224   5.772  34.121  1.00  0.00    -0.550 OA
ATOM      8  O   UNL     1       0.453   7.946  34.372  1.00  0.00    -0.550 OA
ENDBRANCH   5   6
ENDBRANCH   4   5
ENDBRANCH   3   4
ENDBRANCH   2   3
ENDBRANCH   1   2
BRANCH   1   9
ATOM      9  C   UNL     1      -2.936   7.862  40.695  1.00  0.00     0.000 C 
BRANCH   9  10
ATOM     10  C   UNL     1      -1.721   7.574  41.590  1.00  0.00    -0.000 C 
BRANCH  10  11
ATOM     11  C   UNL     1      -0.510   7.051  40.800  1.00  0.00    -0.000 C 
BRANCH  11  12
ATOM     12  C   UNL     1       0.744   7.919  40.998  1.00  0.00    -0.000 C 
BRANCH  12  13
ATOM     13  C   UNL     1       0.428   9.423  40.982  1.00  0.00    -0.003 C 
ATOM     14  C   UNL     1       0.951  10.125  39.728  1.00  0.00     0.004 C 
ENDBRANCH  12  13
ENDBRANCH  11  12
ENDBRANCH  10  11
ENDBRANCH   9  10
ENDBRANCH   1   9
TORSDOF 10
ENDMDL
MODEL 3
REMARK VINA RESULT:    -3.438      3.197      4.402
REMARK INTER + INTRA:          -6.975
REMARK INTER:                  -5.234
REMARK INTRA:                  -1.741
REMARK UNBOUND:                -1.528
REMARK SMILES CCCCCCCCCCCC(=O)[O-]
REMARK SMILES IDX 7 1 8 2 9 3 10 4 11 5 12 6 13 7 14 8 6 9 5 10 4 11 3 12 2 13
REMARK SMILES IDX 1 14
REMARK H PARENT
REMARK Flexibility Score: inf
ROOT
ATOM      1  C   UNL     1      -2.702   6.796  40.444  1.00  0.00     0.000 C 
ENDROOT
BRANCH   1   2
ATOM      2  C   UNL     1      -2.863   5.757  39.324  1.00  0.00     0.000 C 
BRANCH   2   3
ATOM      3  C   UNL     1      -1.665   4.800  39.227  1.00  0.00     0.000 C 
BRANCH   3   4
ATOM      4  C   UNL     1      -1.215   4.558  37.776  1.00  0.00     0.006 C 
BRANCH   4   5
ATOM      5  C   UNL     1      -2.177   5.189  36.759  1.00  0.00     0.053 C 
BRANCH   5   6
ATOM      6  C   UNL     1      -1.443   5.867  35.644  1.00  0.00     0.041 C 
ATOM      7  O   UNL     1      -1.625   7.093  35.419  1.00  0.00    -0.550 OA
ATOM      8  O   UNL     1      -0.579   5.140  34.835  1.00  0.00    -0.550 OA
ENDBRANCH   5   6
ENDBRANCH   4   5
ENDBRANCH   3   4
ENDBRANCH   2   3
ENDBRANCH   1   2
BRANCH   1   9
ATOM      9  C   UNL     1      -2.990   8.210  39.926  1.00  0.00     0.000 C 
BRANCH   9  10
ATOM     10  C   UNL     1      -2.216   8.491  38.630  1.00  0.00    -0.000 C 
BRANCH  10  11
ATOM     11  C   UNL     1      -0.762   8.922  38.886  1.00  0.00    -0.000 C 
BRANCH  11  12
ATOM     12  C   UNL     1       0.260   7.910  38.339  1.00  0.00    -0.000 C 
BRANCH  12  13
ATOM     13  C   UNL     1       1.170   7.341  39.440  1.00  0.00    -0.003 C 
ATOM     14  C   UNL     1       0.868   7.926  40.820  1.00  0.00     0.004 C 
ENDBRANCH  12  13
ENDBRANCH  11  12
ENDBRANCH  10  11
ENDBRANCH   9  10
ENDBRANCH   1   9
TORSDOF 10
ENDMDL
MODEL 4
REMARK VINA RESULT:    -3.389      3.334      5.199
REMARK INTER + INTRA:          -6.898
REMARK INTER:                  -5.418
REMARK INTRA:                  -1.480
REMARK UNBOUND:                -1.528
REMARK SMILES CCCCCCCCCCCC(=O)[O-]
REMARK SMILES IDX 7 1 8 2 9 3 10 4 11 5 12 6 13 7 14 8 6 9 5 10 4 11 3 12 2 13
REMARK SMILES IDX 1 14
REMARK H PARENT
REMARK Flexibility Score: inf
ROOT
ATOM      1  C   UNL     1      -1.026   9.290  39.123  1.00  0.00     0.000 C 
ENDROOT
BRANCH   1   2
ATOM      2  C   UNL     1      -2.087   9.635  38.066  1.00  0.00     0.000 C 
BRANCH   2   3
ATOM      3  C   UNL     1      -1.597   9.385  36.631  1.00  0.00     0.000 C 
BRANCH   3   4
ATOM      4  C   UNL     1      -0.850   8.048  36.485  1.00  0.00     0.006 C 
BRANCH   4   5
ATOM      5  C   UNL     1      -1.518   7.120  35.461  1.00  0.00     0.053 C 
BRANCH   5   6
ATOM      6  C   UNL     1      -0.526   6.214  34.798  1.00  0.00     0.041 C 
ATOM      7  O   UNL     1      -0.043   6.517  33.676  1.00  0.00    -0.550 OA
ATOM      8  O   UNL     1      -0.157   5.022  35.407  1.00  0.00    -0.550 OA
ENDBRANCH   5   6
ENDBRANCH   4   5
ENDBRANCH   3   4
ENDBRANCH   2   3
ENDBRANCH   1   2
BRANCH   1   9
ATOM      9  C   UNL     1      -1.612   8.392  40.218  1.00  0.00     0.000 C 
BRANCH   9  10
ATOM     10  C   UNL     1      -2.995   7.861  39.812  1.00  0.00    -0.000 C 
BRANCH  10  11
ATOM     11  C   UNL     1      -3.096   6.329  39.905  1.00  0.00    -0.000 C 
BRANCH  11  12
ATOM     12  C   UNL     1      -2.572   5.625  38.642  1.00  0.00    -0.000 C 
BRANCH  12  13
ATOM     13  C   UNL     1      -1.429   4.643  38.948  1.00  0.00    -0.003 C 
ATOM     14  C   UNL     1      -0.054   5.312  38.932  1.00  0.00     0.004 C 
ENDBRANCH  12  13
ENDBRANCH  11  12
ENDBRANCH  10  11
ENDBRANCH   9  10
ENDBRANCH   1   9
TORSDOF 10
ENDMDL
MODEL 5
REMARK VINA RESULT:    -3.374      3.132      4.865
REMARK INTER + INTRA:          -6.874
REMARK INTER:                  -5.136
REMARK INTRA:                  -1.738
REMARK UNBOUND:                -1.528
REMARK SMILES CCCCCCCCCCCC(=O)[O-]
REMARK SMILES IDX 7 1 8 2 9 3 10 4 11 5 12 6 13 7 14 8 6 9 5 10 4 11 3 12 2 13
REMARK SMILES IDX 1 14
REMARK H PARENT
REMARK Flexibility Score: inf
ROOT
ATOM      1  C   UNL     1      -2.352   5.395  40.025  1.00  0.00     0.000 C 
ENDROOT
BRANCH   1   2
ATOM      2  C   UNL     1      -1.482   4.871  38.872  1.00  0.00     0.000 C 
BRANCH   2   3
ATOM      3  C   UNL     1      -2.026   5.268  37.491  1.00  0.00     0.000 C 
BRANCH   3   4
ATOM      4  C   UNL     1      -0.947   5.884  36.583  1.00  0.00     0.006 C 
BRANCH   4   5
ATOM      5  C   UNL     1      -1.471   7.099  35.804  1.00  0.00     0.053 C 
BRANCH   5   6
ATOM      6  C   UNL     1      -0.424   8.161  35.659  1.00  0.00     0.041 C 
ATOM      7  O   UNL     1       0.789   7.844  35.550  1.00  0.00    -0.550 OA
ATOM      8  O   UNL     1      -0.787   9.502  35.672  1.00  0.00    -0.550 OA
ENDBRANCH   5   6
ENDBRANCH   4   5
ENDBRANCH   3   4
ENDBRANCH   2   3
ENDBRANCH   1   2
BRANCH   1   9
ATOM      9  C   UNL     1      -3.355   6.441  39.524  1.00  0.00     0.000 C 
BRANCH   9  10
ATOM     10  C   UNL     1      -2.998   7.841  40.045  1.00  0.00    -0.000 C 
BRANCH  10  11
ATOM     11  C   UNL     1      -2.180   8.662  39.035  1.00  0.00    -0.000 C 
BRANCH  11  12
ATOM     12  C   UNL     1      -0.836   9.139  39.612  1.00  0.00    -0.000 C 
BRANCH  12  13
ATOM     13  C   UNL     1       0.322   8.187  39.270  1.00  0.00    -0.003 C 
ATOM     14  C   UNL     1       0.801   7.380  40.477  1.00  0.00     0.004 C 
ENDBRANCH  12  13
ENDBRANCH  11  12
ENDBRANCH  10  11
ENDBRANCH   9  10
ENDBRANCH   1   9
TORSDOF 10
ENDMDL
MODEL 6
REMARK VINA RESULT:    -3.358      3.135      4.885
REMARK INTER + INTRA:          -6.849
REMARK INTER:                  -5.163
REMARK INTRA:                  -1.686
REMARK UNBOUND:                -1.528
REMARK SMILES CCCCCCCCCCCC(=O)[O-]
REMARK SMILES IDX 7 1 8 2 9 3 10 4 11 5 12 6 13 7 14 8 6 9 5 10 4 11 3 12 2 13
REMARK SMILES IDX 1 14
REMARK H PARENT
REMARK Flexibility Score: inf
ROOT
ATOM      1  C   UNL     1      -2.848   7.805  40.204  1.00  0.00     0.000 C 
ENDROOT
BRANCH   1   2
ATOM      2  C   UNL     1      -2.634   8.745  39.008  1.00  0.00     0.000 C 
BRANCH   2   3
ATOM      3  C   UNL     1      -1.206   9.310  38.946  1.00  0.00     0.000 C 
BRANCH   3   4
ATOM      4  C   UNL     1      -0.692   9.464  37.504  1.00  0.00     0.006 C 
BRANCH   4   5
ATOM      5  C   UNL     1      -1.517   8.641  36.504  1.00  0.00     0.053 C 
BRANCH   5   6
ATOM      6  C   UNL     1      -0.645   7.901  35.537  1.00  0.00     0.041 C 
ATOM      7  O   UNL     1       0.507   8.331  35.267  1.00  0.00    -0.550 OA
ATOM      8  O   UNL     1      -1.116   6.754  34.911  1.00  0.00    -0.550 OA
ENDBRANCH   5   6
ENDBRANCH   4   5
ENDBRANCH   3   4
ENDBRANCH   2   3
ENDBRANCH   1   2
BRANCH   1   9
ATOM      9  C   UNL     1      -3.373   6.440  39.743  1.00  0.00     0.000 C 
BRANCH   9  10
ATOM     10  C   UNL     1      -2.225   5.432  39.587  1.00  0.00    -0.000 C 
BRANCH  10  11
ATOM     11  C   UNL     1      -1.724   5.320  38.137  1.00  0.00    -0.000 C 
BRANCH  11  12
ATOM     12  C   UNL     1      -0.198   5.146  38.051  1.00  0.00    -0.000 C 
BRANCH  12  13
ATOM     13  C   UNL     1       0.555   6.071  39.021  1.00  0.00    -0.003 C 
ATOM     14  C   UNL     1       1.697   6.832  38.347  1.00  0.00     0.004 C 
ENDBRANCH  12  13
ENDBRANCH  11  12
ENDBRANCH  10  11
ENDBRANCH   9  10
ENDBRANCH   1   9
TORSDOF 10
ENDMDL
MODEL 7
REMARK VINA RESULT:    -3.349      3.066      5.153
REMARK INTER + INTRA:          -6.835
REMARK INTER:                  -5.230
REMARK INTRA:                  -1.605
REMARK UNBOUND:                -1.528
REMARK SMILES CCCCCCCCCCCC(=O)[O-]
REMARK SMILES IDX 7 1 8 2 9 3 10 4 11 5 12 6 13 7 14 8 6 9 5 10 4 11 3 12 2 13
REMARK SMILES IDX 1 14
REMARK H PARENT
REMARK Flexibility Score: inf
ROOT
ATOM      1  C   UNL     1      -0.329   9.307  40.133  1.00  0.00     0.000 C 
ENDROOT
BRANCH   1   2
ATOM      2  C   UNL     1       1.112   8.921  39.762  1.00  0.00     0.000 C 
BRANCH   2   3
ATOM      3  C   UNL     1       1.248   7.438  39.382  1.00  0.00     0.000 C 
BRANCH   3   4
ATOM      4  C   UNL     1       1.817   7.240  37.966  1.00  0.00     0.006 C 
BRANCH   4   5
ATOM      5  C   UNL     1       0.709   7.071  36.917  1.00  0.00     0.053 C 
BRANCH   5   6
ATOM      6  C   UNL     1       0.735   8.168  35.897  1.00  0.00     0.041 C 
ATOM      7  O   UNL     1       0.331   7.952  34.725  1.00  0.00    -0.550 OA
ATOM      8  O   UNL     1       1.232   9.420  36.234  1.00  0.00    -0.550 OA
ENDBRANCH   5   6
ENDBRANCH   4   5
ENDBRANCH   3   4
ENDBRANCH   2   3
ENDBRANCH   1   2
BRANCH   1   9
ATOM      9  C   UNL     1      -1.128   9.708  38.888  1.00  0.00     0.000 C 
BRANCH   9  10
ATOM     10  C   UNL     1      -2.237   8.687  38.593  1.00  0.00    -0.000 C 
BRANCH  10  11
ATOM     11  C   UNL     1      -2.942   8.190  39.865  1.00  0.00    -0.000 C 
BRANCH  11  12
ATOM     12  C   UNL     1      -3.031   6.655  39.929  1.00  0.00    -0.000 C 
BRANCH  12  13
ATOM     13  C   UNL     1      -2.313   5.975  38.752  1.00  0.00    -0.003 C 
ATOM     14  C   UNL     1      -1.475   4.771  39.186  1.00  0.00     0.004 C 
ENDBRANCH  12  13
ENDBRANCH  11  12
ENDBRANCH  10  11
ENDBRANCH   9  10
ENDBRANCH   1   9
TORSDOF 10
ENDMDL
MODEL 8
REMARK VINA RESULT:    -3.339      2.807      5.205
REMARK INTER + INTRA:          -6.818
REMARK INTER:                  -5.279
REMARK INTRA:                  -1.539
REMARK UNBOUND:                -1.528
REMARK SMILES CCCCCCCCCCCC(=O)[O-]
REMARK SMILES IDX 7 1 8 2 9 3 10 4 11 5 12 6 13 7 14 8 6 9 5 10 4 11 3 12 2 13
REMARK SMILES IDX 1 14
REMARK H PARENT
REMARK Flexibility Score: inf
ROOT
ATOM      1  C   UNL     1       0.949   7.910  40.882  1.00  0.00     0.000 C 
ENDROOT
BRANCH   1   2
ATOM      2  C   UNL     1       0.494   9.315  40.458  1.00  0.00     0.000 C 
BRANCH   2   3
ATOM      3  C   UNL     1       0.227   9.421  38.948  1.00  0.00     0.000 C 
BRANCH   3   4
ATOM      4  C   UNL     1      -1.105  10.123  38.629  1.00  0.00     0.006 C 
BRANCH   4   5
ATOM      5  C   UNL     1      -1.856   9.443  37.476  1.00  0.00     0.053 C 
BRANCH   5   6
ATOM      6  C   UNL     1      -0.937   9.084  36.347  1.00  0.00     0.041 C 
ATOM      7  O   UNL     1      -0.486   9.982  35.589  1.00  0.00    -0.550 OA
ATOM      8  O   UNL     1      -0.603   7.756  36.117  1.00  0.00    -0.550 OA
ENDBRANCH   5   6
ENDBRANCH   4   5
ENDBRANCH   3   4
ENDBRANCH   2   3
ENDBRANCH   1   2
BRANCH   1   9
ATOM      9  C   UNL     1       0.048   7.352  41.989  1.00  0.00     0.000 C 
BRANCH   9  10
ATOM     10  C   UNL     1      -1.166   8.264  42.224  1.00  0.00    -0.000 C 
BRANCH  10  11
ATOM     11  C   UNL     1      -2.505   7.545  41.994  1.00  0.00    -0.000 C 
BRANCH  11  12
ATOM     12  C   UNL     1      -3.117   7.862  40.618  1.00  0.00    -0.000 C 
BRANCH  12  13
ATOM     13  C   UNL     1      -3.293   6.606  39.750  1.00  0.00    -0.003 C 
ATOM     14  C   UNL     1      -1.976   6.107  39.156  1.00  0.00     0.004 C 
ENDBRANCH  12  13
ENDBRANCH  11  12
ENDBRANCH  10  11
ENDBRANCH   9  10
ENDBRANCH   1   9
TORSDOF 10
ENDMDL
MODEL 9
REMARK VINA RESULT:    -3.315      3.003      5.143
REMARK INTER + INTRA:          -6.780
REMARK INTER:                  -5.162
REMARK INTRA:                  -1.618
REMARK UNBOUND:                -1.528
REMARK SMILES CCCCCCCCCCCC(=O)[O-]
REMARK SMILES IDX 7 1 8 2 9 3 10 4 11 5 12 6 13 7 14 8 6 9 5 10 4 11 3 12 2 13
REMARK SMILES IDX 1 14
REMARK H PARENT
REMARK Flexibility Score: inf
ROOT
ATOM      1  C   UNL     1      -2.657   8.755  39.003  1.00  0.00     0.000 C 
ENDROOT
BRANCH   1   2
ATOM      2  C   UNL     1      -1.179   9.174  38.964  1.00  0.00     0.000 C 
BRANCH   2   3
ATOM      3  C   UNL     1      -0.371   8.602  40.140  1.00  0.00     0.000 C 
BRANCH   3   4
ATOM      4  C   UNL     1       1.126   8.457  39.815  1.00  0.00     0.006 C 
BRANCH   4   5
ATOM      5  C   UNL     1       1.419   7.195  38.992  1.00  0.00     0.053 C 
BRANCH   5   6
ATOM      6  C   UNL     1       1.886   7.528  37.608  1.00  0.00     0.041 C 
ATOM      7  O   UNL     1       2.288   6.616  36.839  1.00  0.00    -0.550 OA
ATOM      8  O   UNL     1       1.904   8.849  37.178  1.00  0.00    -0.550 OA
ENDBRANCH   5   6
ENDBRANCH   4   5
ENDBRANCH   3   4
ENDBRANCH   2   3
ENDBRANCH   1   2
BRANCH   1   9
ATOM      9  C   UNL     1      -2.939   7.843  40.203  1.00  0.00     0.000 C 
BRANCH   9  10
ATOM     10  C   UNL     1      -3.364   6.441  39.741  1.00  0.00    -0.000 C 
BRANCH  10  11
ATOM     11  C   UNL     1      -2.318   5.363  40.071  1.00  0.00    -0.000 C 
BRANCH  11  12
ATOM     12  C   UNL     1      -1.452   4.988  38.856  1.00  0.00    -0.000 C 
BRANCH  12  13
ATOM     13  C   UNL     1      -2.167   5.252  37.521  1.00  0.00    -0.003 C 
ATOM     14  C   UNL     1      -1.366   6.161  36.589  1.00  0.00     0.004 C 
ENDBRANCH  12  13
ENDBRANCH  11  12
ENDBRANCH  10  11
ENDBRANCH   9  10
ENDBRANCH   1   9
TORSDOF 10
ENDMDL
