MODEL 1
REMARK VINA RESULT:    -5.425      0.000      0.000
REMARK INTER + INTRA:          -5.742
REMARK INTER:                  -5.742
REMARK INTRA:                   0.000
REMARK UNBOUND:                 0.000
REMARK SMILES O=c1ccc2cc(O)c(O)cc2o1
REMARK SMILES IDX 4 1 3 2 2 3 1 4 13 5 12 6 11 7 9 8 7 9 6 10 5 11 8 12 10 14
REMARK H PARENT 8 13 10 15
REMARK Flexibility Score: inf
ROOT
ATOM      1  C   UNL     1      10.349  -7.731  -9.375  1.00  0.00     0.019 A 
ATOM      2  C   UNL     1       9.593  -8.519 -10.243  1.00  0.00     0.094 A 
ATOM      3  C   UNL     1       8.207  -8.585 -10.064  1.00  0.00     0.336 A 
ATOM      4  O   UNL     1       7.507  -9.291 -10.837  1.00  0.00    -0.246 OA
ATOM      5  O   UNL     1       7.621  -7.905  -9.083  1.00  0.00    -0.423 OA
ATOM      6  C   UNL     1       8.304  -7.141  -8.233  1.00  0.00     0.142 A 
ATOM      7  C   UNL     1       7.634  -6.448  -7.220  1.00  0.00     0.098 A 
ATOM      8  C   UNL     1       8.347  -5.644  -6.323  1.00  0.00     0.161 A 
ATOM      9  C   UNL     1       9.744  -5.528  -6.440  1.00  0.00     0.158 A 
ATOM     10  C   UNL     1      10.421  -6.221  -7.455  1.00  0.00     0.062 A 
ATOM     11  C   UNL     1       9.706  -7.027  -8.352  1.00  0.00     0.022 A 
ENDROOT
BRANCH   9  12
ATOM     12  O   UNL     1      10.454  -4.727  -5.547  1.00  0.00    -0.504 OA
ATOM     13  H   UNL     1      10.710  -3.773  -5.777  1.00  0.00     0.293 HD
ENDBRANCH   9  12
BRANCH   8  14
ATOM     14  O   UNL     1       7.648  -4.966  -5.323  1.00  0.00    -0.504 OA
ATOM     15  H   UNL     1       7.995  -4.903  -4.374  1.00  0.00     0.293 HD
ENDBRANCH   8  14
TORSDOF 2
ENDMDL
MODEL 2
REMARK VINA RESULT:    -5.362      1.756      2.231
REMARK INTER + INTRA:          -5.675
REMARK INTER:                  -5.675
REMARK INTRA:                   0.000
REMARK UNBOUND:                 0.000
REMARK SMILES O=c1ccc2cc(O)c(O)cc2o1
REMARK SMILES IDX 4 1 3 2 2 3 1 4 13 5 12 6 11 7 9 8 7 9 6 10 5 11 8 12 10 14
REMARK H PARENT 8 13 10 15
REMARK Flexibility Score: inf
ROOT
ATOM      1  C   UNL     1       7.961  -8.940  -8.110  1.00  0.00     0.019 A 
ATOM      2  C   UNL     1       7.985  -8.711  -9.486  1.00  0.00     0.094 A 
ATOM      3  C   UNL     1       7.990  -7.393  -9.953  1.00  0.00     0.336 A 
ATOM      4  O   UNL     1       8.012  -7.165 -11.191  1.00  0.00    -0.246 OA
ATOM      5  O   UNL     1       7.974  -6.375  -9.097  1.00  0.00    -0.423 OA
ATOM      6  C   UNL     1       7.951  -6.548  -7.777  1.00  0.00     0.142 A 
ATOM      7  C   UNL     1       7.934  -5.440  -6.926  1.00  0.00     0.098 A 
ATOM      8  C   UNL     1       7.909  -5.615  -5.537  1.00  0.00     0.161 A 
ATOM      9  C   UNL     1       7.902  -6.912  -4.993  1.00  0.00     0.158 A 
ATOM     10  C   UNL     1       7.919  -8.028  -5.844  1.00  0.00     0.062 A 
ATOM     11  C   UNL     1       7.943  -7.851  -7.234  1.00  0.00     0.022 A 
ENDROOT
BRANCH   9  12
ATOM     12  O   UNL     1       7.877  -7.088  -3.610  1.00  0.00    -0.504 OA
ATOM     13  H   UNL     1       8.126  -6.337  -2.975  1.00  0.00     0.293 HD
ENDBRANCH   9  12
BRANCH   8  14
ATOM     14  O   UNL     1       7.893  -4.489  -4.714  1.00  0.00    -0.504 OA
ATOM     15  H   UNL     1       7.185  -4.353  -4.003  1.00  0.00     0.293 HD
ENDBRANCH   8  14
TORSDOF 2
ENDMDL
MODEL 3
REMARK VINA RESULT:    -5.334      1.198      2.286
REMARK INTER + INTRA:          -5.646
REMARK INTER:                  -5.646
REMARK INTRA:                   0.000
REMARK UNBOUND:                 0.000
REMARK SMILES O=c1ccc2cc(O)c(O)cc2o1
REMARK SMILES IDX 4 1 3 2 2 3 1 4 13 5 12 6 11 7 9 8 7 9 6 10 5 11 8 12 10 14
REMARK H PARENT 8 13 10 15
REMARK Flexibility Score: inf
ROOT
ATOM      1  C   UNL     1       7.661  -7.884  -9.266  1.00  0.00     0.019 A 
ATOM      2  C   UNL     1       8.412  -8.532 -10.247  1.00  0.00     0.094 A 
ATOM      3  C   UNL     1       9.802  -8.373 -10.250  1.00  0.00     0.336 A 
ATOM      4  O   UNL     1      10.498  -8.950 -11.126  1.00  0.00    -0.246 OA
ATOM      5  O   UNL     1      10.396  -7.616  -9.331  1.00  0.00    -0.423 OA
ATOM      6  C   UNL     1       9.717  -6.981  -8.379  1.00  0.00     0.142 A 
ATOM      7  C   UNL     1      10.396  -6.198  -7.440  1.00  0.00     0.098 A 
ATOM      8  C   UNL     1       9.688  -5.526  -6.436  1.00  0.00     0.161 A 
ATOM      9  C   UNL     1       8.288  -5.638  -6.368  1.00  0.00     0.158 A 
ATOM     10  C   UNL     1       7.602  -6.422  -7.309  1.00  0.00     0.062 A 
ATOM     11  C   UNL     1       8.312  -7.094  -8.314  1.00  0.00     0.022 A 
ENDROOT
BRANCH   9  12
ATOM     12  O   UNL     1       7.583  -4.969  -5.369  1.00  0.00    -0.504 OA
ATOM     13  H   UNL     1       6.685  -4.534  -5.553  1.00  0.00     0.293 HD
ENDBRANCH   9  12
BRANCH   8  14
ATOM     14  O   UNL     1      10.395  -4.754  -5.514  1.00  0.00    -0.504 OA
ATOM     15  H   UNL     1      10.395  -3.742  -5.548  1.00  0.00     0.293 HD
ENDBRANCH   8  14
TORSDOF 2
ENDMDL
MODEL 4
REMARK VINA RESULT:    -5.283      1.663      2.027
REMARK INTER + INTRA:          -5.592
REMARK INTER:                  -5.592
REMARK INTRA:                   0.000
REMARK UNBOUND:                 0.000
REMARK SMILES O=c1ccc2cc(O)c(O)cc2o1
REMARK SMILES IDX 4 1 3 2 2 3 1 4 13 5 12 6 11 7 9 8 7 9 6 10 5 11 8 12 10 14
REMARK H PARENT 8 13 10 15
REMARK Flexibility Score: inf
ROOT
ATOM      1  C   UNL     1       8.008  -6.361  -9.173  1.00  0.00     0.019 A 
ATOM      2  C   UNL     1       8.010  -7.500  -9.979  1.00  0.00     0.094 A 
ATOM      3  C   UNL     1       7.974  -8.759  -9.371  1.00  0.00     0.336 A 
ATOM      4  O   UNL     1       7.976  -9.800 -10.081  1.00  0.00    -0.246 OA
ATOM      5  O   UNL     1       7.936  -8.867  -8.046  1.00  0.00    -0.423 OA
ATOM      6  C   UNL     1       7.932  -7.807  -7.241  1.00  0.00     0.142 A 
ATOM      7  C   UNL     1       7.892  -7.982  -5.854  1.00  0.00     0.098 A 
ATOM      8  C   UNL     1       7.887  -6.872  -5.001  1.00  0.00     0.161 A 
ATOM      9  C   UNL     1       7.923  -5.573  -5.539  1.00  0.00     0.158 A 
ATOM     10  C   UNL     1       7.964  -5.392  -6.930  1.00  0.00     0.062 A 
ATOM     11  C   UNL     1       7.968  -6.505  -7.783  1.00  0.00     0.022 A 
ENDROOT
BRANCH   9  12
ATOM     12  O   UNL     1       7.919  -4.467  -4.691  1.00  0.00    -0.504 OA
ATOM     13  H   UNL     1       7.077  -4.169  -4.210  1.00  0.00     0.293 HD
ENDBRANCH   9  12
BRANCH   8  14
ATOM     14  O   UNL     1       7.847  -7.080  -3.622  1.00  0.00    -0.504 OA
ATOM     15  H   UNL     1       7.121  -7.633  -3.184  1.00  0.00     0.293 HD
ENDBRANCH   8  14
TORSDOF 2
ENDMDL
MODEL 5
REMARK VINA RESULT:    -5.054      2.255      3.052
REMARK INTER + INTRA:          -5.350
REMARK INTER:                  -5.350
REMARK INTRA:                   0.000
REMARK UNBOUND:                 0.000
REMARK SMILES O=c1ccc2cc(O)c(O)cc2o1
REMARK SMILES IDX 4 1 3 2 2 3 1 4 13 5 12 6 11 7 9 8 7 9 6 10 5 11 8 12 10 14
REMARK H PARENT 8 13 10 15
REMARK Flexibility Score: inf
ROOT
ATOM      1  C   UNL     1       8.332  -7.039 -11.649  1.00  0.00     0.019 A 
ATOM      2  C   UNL     1       9.124  -7.790 -12.518  1.00  0.00     0.094 A 
ATOM      3  C   UNL     1      10.421  -8.135 -12.126  1.00  0.00     0.336 A 
ATOM      4  O   UNL     1      11.151  -8.813 -12.896  1.00  0.00    -0.246 OA
ATOM      5  O   UNL     1      10.891  -7.754 -10.941  1.00  0.00    -0.423 OA
ATOM      6  C   UNL     1      10.170  -7.037 -10.082  1.00  0.00     0.142 A 
ATOM      7  C   UNL     1      10.717  -6.663  -8.850  1.00  0.00     0.098 A 
ATOM      8  C   UNL     1       9.965  -5.909  -7.942  1.00  0.00     0.161 A 
ATOM      9  C   UNL     1       8.652  -5.524  -8.267  1.00  0.00     0.158 A 
ATOM     10  C   UNL     1       8.098  -5.896  -9.502  1.00  0.00     0.062 A 
ATOM     11  C   UNL     1       8.853  -6.651 -10.410  1.00  0.00     0.022 A 
ENDROOT
BRANCH   9  12
ATOM     12  O   UNL     1       7.902  -4.772  -7.363  1.00  0.00    -0.504 OA
ATOM     13  H   UNL     1       8.095  -4.793  -6.368  1.00  0.00     0.293 HD
ENDBRANCH   9  12
BRANCH   8  14
ATOM     14  O   UNL     1      10.539  -5.553  -6.722  1.00  0.00    -0.504 OA
ATOM     15  H   UNL     1      10.057  -4.966  -6.052  1.00  0.00     0.293 HD
ENDBRANCH   8  14
TORSDOF 2
ENDMDL
MODEL 6
REMARK VINA RESULT:    -5.028      2.048      2.562
REMARK INTER + INTRA:          -5.322
REMARK INTER:                  -5.322
REMARK INTRA:                   0.000
REMARK UNBOUND:                 0.000
REMARK SMILES O=c1ccc2cc(O)c(O)cc2o1
REMARK SMILES IDX 4 1 3 2 2 3 1 4 13 5 12 6 11 7 9 8 7 9 6 10 5 11 8 12 10 14
REMARK H PARENT 8 13 10 15
REMARK Flexibility Score: inf
ROOT
ATOM      1  C   UNL     1       8.009  -4.884 -10.416  1.00  0.00     0.019 A 
ATOM      2  C   UNL     1       8.244  -5.560 -11.614  1.00  0.00     0.094 A 
ATOM      3  C   UNL     1       8.444  -6.944 -11.583  1.00  0.00     0.336 A 
ATOM      4  O   UNL     1       8.657  -7.572 -12.653  1.00  0.00    -0.246 OA
ATOM      5  O   UNL     1       8.410  -7.604 -10.428  1.00  0.00    -0.423 OA
ATOM      6  C   UNL     1       8.189  -6.999  -9.263  1.00  0.00     0.142 A 
ATOM      7  C   UNL     1       8.165  -7.745  -8.081  1.00  0.00     0.098 A 
ATOM      8  C   UNL     1       7.934  -7.115  -6.852  1.00  0.00     0.161 A 
ATOM      9  C   UNL     1       7.724  -5.725  -6.804  1.00  0.00     0.158 A 
ATOM     10  C   UNL     1       7.748  -4.972  -7.988  1.00  0.00     0.062 A 
ATOM     11  C   UNL     1       7.979  -5.604  -9.217  1.00  0.00     0.022 A 
ENDROOT
BRANCH   9  12
ATOM     12  O   UNL     1       7.494  -5.097  -5.581  1.00  0.00    -0.504 OA
ATOM     13  H   UNL     1       8.220  -4.568  -5.110  1.00  0.00     0.293 HD
ENDBRANCH   9  12
BRANCH   8  14
ATOM     14  O   UNL     1       7.916  -7.887  -5.691  1.00  0.00    -0.504 OA
ATOM     15  H   UNL     1       8.495  -7.667  -4.889  1.00  0.00     0.293 HD
ENDBRANCH   8  14
TORSDOF 2
ENDMDL
MODEL 7
REMARK VINA RESULT:    -5.026      1.557      2.036
REMARK INTER + INTRA:          -5.320
REMARK INTER:                  -5.320
REMARK INTRA:                   0.000
REMARK UNBOUND:                 0.000
REMARK SMILES O=c1ccc2cc(O)c(O)cc2o1
REMARK SMILES IDX 4 1 3 2 2 3 1 4 13 5 12 6 11 7 9 8 7 9 6 10 5 11 8 12 10 14
REMARK H PARENT 8 13 10 15
REMARK Flexibility Score: inf
ROOT
ATOM      1  C   UNL     1      10.479  -7.927  -7.839  1.00  0.00     0.019 A 
ATOM      2  C   UNL     1      10.833  -8.552  -9.036  1.00  0.00     0.094 A 
ATOM      3  C   UNL     1      10.083  -8.286 -10.186  1.00  0.00     0.336 A 
ATOM      4  O   UNL     1      10.386  -8.839 -11.276  1.00  0.00    -0.246 OA
ATOM      5  O   UNL     1       9.049  -7.450 -10.138  1.00  0.00    -0.423 OA
ATOM      6  C   UNL     1       8.678  -6.833  -9.018  1.00  0.00     0.142 A 
ATOM      7  C   UNL     1       7.582  -5.964  -9.028  1.00  0.00     0.098 A 
ATOM      8  C   UNL     1       7.186  -5.313  -7.854  1.00  0.00     0.161 A 
ATOM      9  C   UNL     1       7.893  -5.531  -6.657  1.00  0.00     0.158 A 
ATOM     10  C   UNL     1       8.993  -6.402  -6.642  1.00  0.00     0.062 A 
ATOM     11  C   UNL     1       9.388  -7.053  -7.819  1.00  0.00     0.022 A 
ENDROOT
BRANCH   9  12
ATOM     12  O   UNL     1       7.498  -4.883  -5.488  1.00  0.00    -0.504 OA
ATOM     13  H   UNL     1       6.946  -4.032  -5.512  1.00  0.00     0.293 HD
ENDBRANCH   9  12
BRANCH   8  14
ATOM     14  O   UNL     1       6.089  -4.452  -7.897  1.00  0.00    -0.504 OA
ATOM     15  H   UNL     1       5.523  -4.262  -7.079  1.00  0.00     0.293 HD
ENDBRANCH   8  14
TORSDOF 2
ENDMDL
MODEL 8
REMARK VINA RESULT:    -5.022      2.192      5.126
REMARK INTER + INTRA:          -5.315
REMARK INTER:                  -5.315
REMARK INTRA:                   0.000
REMARK UNBOUND:                 0.000
REMARK SMILES O=c1ccc2cc(O)c(O)cc2o1
REMARK SMILES IDX 4 1 3 2 2 3 1 4 13 5 12 6 11 7 9 8 7 9 6 10 5 11 8 12 10 14
REMARK H PARENT 8 13 10 15
REMARK Flexibility Score: inf
ROOT
ATOM      1  C   UNL     1       8.396  -8.399  -8.359  1.00  0.00     0.019 A 
ATOM      2  C   UNL     1       9.018  -7.665  -7.348  1.00  0.00     0.094 A 
ATOM      3  C   UNL     1       9.450  -6.363  -7.626  1.00  0.00     0.336 A 
ATOM      4  O   UNL     1      10.013  -5.683  -6.728  1.00  0.00    -0.246 OA
ATOM      5  O   UNL     1       9.267  -5.835  -8.833  1.00  0.00    -0.423 OA
ATOM      6  C   UNL     1       8.679  -6.501  -9.824  1.00  0.00     0.142 A 
ATOM      7  C   UNL     1       8.515  -5.895 -11.074  1.00  0.00     0.098 A 
ATOM      8  C   UNL     1       7.897  -6.589 -12.121  1.00  0.00     0.161 A 
ATOM      9  C   UNL     1       7.437  -7.903 -11.917  1.00  0.00     0.158 A 
ATOM     10  C   UNL     1       7.600  -8.515 -10.665  1.00  0.00     0.062 A 
ATOM     11  C   UNL     1       8.218  -7.819  -9.618  1.00  0.00     0.022 A 
ENDROOT
BRANCH   9  12
ATOM     12  O   UNL     1       6.822  -8.594 -12.960  1.00  0.00    -0.504 OA
ATOM     13  H   UNL     1       6.095  -9.279 -12.786  1.00  0.00     0.293 HD
ENDBRANCH   9  12
BRANCH   8  14
ATOM     14  O   UNL     1       7.748  -5.956 -13.355  1.00  0.00    -0.504 OA
ATOM     15  H   UNL     1       7.967  -4.976 -13.486  1.00  0.00     0.293 HD
ENDBRANCH   8  14
TORSDOF 2
ENDMDL
MODEL 9
REMARK VINA RESULT:    -4.937      2.523      4.506
REMARK INTER + INTRA:          -5.225
REMARK INTER:                  -5.225
REMARK INTRA:                   0.000
REMARK UNBOUND:                 0.000
REMARK SMILES O=c1ccc2cc(O)c(O)cc2o1
REMARK SMILES IDX 4 1 3 2 2 3 1 4 13 5 12 6 11 7 9 8 7 9 6 10 5 11 8 12 10 14
REMARK H PARENT 8 13 10 15
REMARK Flexibility Score: inf
ROOT
ATOM      1  C   UNL     1       7.982  -5.623  -7.545  1.00  0.00     0.019 A 
ATOM      2  C   UNL     1       8.051  -6.700  -6.661  1.00  0.00     0.094 A 
ATOM      3  C   UNL     1       8.144  -7.996  -7.178  1.00  0.00     0.336 A 
ATOM      4  O   UNL     1       8.207  -8.981  -6.397  1.00  0.00    -0.246 OA
ATOM      5  O   UNL     1       8.168  -8.197  -8.493  1.00  0.00    -0.423 OA
ATOM      6  C   UNL     1       8.105  -7.198  -9.371  1.00  0.00     0.142 A 
ATOM      7  C   UNL     1       8.134  -7.470 -10.743  1.00  0.00     0.098 A 
ATOM      8  C   UNL     1       8.067  -6.425 -11.672  1.00  0.00     0.161 A 
ATOM      9  C   UNL     1       7.972  -5.094 -11.227  1.00  0.00     0.158 A 
ATOM     10  C   UNL     1       7.943  -4.817  -9.851  1.00  0.00     0.062 A 
ATOM     11  C   UNL     1       8.009  -5.864  -8.922  1.00  0.00     0.022 A 
ENDROOT
BRANCH   9  12
ATOM     12  O   UNL     1       7.906  -4.053 -12.152  1.00  0.00    -0.504 OA
ATOM     13  H   UNL     1       7.211  -3.319 -12.075  1.00  0.00     0.293 HD
ENDBRANCH   9  12
BRANCH   8  14
ATOM     14  O   UNL     1       8.099  -6.730 -13.033  1.00  0.00    -0.504 OA
ATOM     15  H   UNL     1       7.944  -6.026 -13.745  1.00  0.00     0.293 HD
ENDBRANCH   8  14
TORSDOF 2
ENDMDL
