MODEL 1
REMARK VINA RESULT:    -8.793      0.000      0.000
REMARK INTER + INTRA:         -13.678
REMARK INTER:                 -12.905
REMARK INTRA:                  -0.773
REMARK UNBOUND:                -0.773
REMARK SMILES O=c1c(O[C@H]2O[C@H](CO)[C@@H](O)[C@H](O)[C@H]2O)c(-c2ccc(O)c(O)c2)oc2cc(O)cc(O)c12
REMARK SMILES IDX 4 1 3 2 16 3 25 4 2 5 26 6 1 7 33 8 27 9 31 10 28 11 30 12
REMARK SMILES IDX 17 13 18 14 19 15 20 16 24 17 22 18 21 19 23 21 32 23 29 25
REMARK SMILES IDX 5 27 14 28 6 29 12 30 7 31 10 32 15 33 13 35 8 37 9 38 11 40
REMARK H PARENT 21 20 23 22 32 24 29 26 15 34 13 36 9 39 11 41
REMARK Flexibility Score: inf
ROOT
ATOM      1  O   UNL     1     -65.959 -37.322 -34.992  1.00  0.00    -0.454 OA
ENDROOT
BRANCH   1   2
ATOM      2  C   UNL     1     -66.190 -38.136 -36.113  1.00  0.00     0.214 A 
ATOM      3  C   UNL     1     -66.928 -37.686 -37.227  1.00  0.00     0.180 A 
ATOM      4  O   UNL     1     -67.208 -38.529 -38.214  1.00  0.00    -0.452 OA
ATOM      5  C   UNL     1     -65.674 -39.438 -36.129  1.00  0.00     0.239 A 
ATOM      6  C   UNL     1     -66.804 -39.794 -38.234  1.00  0.00     0.146 A 
ATOM      7  O   UNL     1     -64.882 -39.782 -35.214  1.00  0.00    -0.285 OA
ATOM      8  C   UNL     1     -66.027 -40.326 -37.172  1.00  0.00     0.111 A 
ATOM      9  C   UNL     1     -67.143 -40.587 -39.332  1.00  0.00     0.094 A 
ATOM     10  C   UNL     1     -65.639 -41.698 -37.235  1.00  0.00     0.134 A 
ATOM     11  C   UNL     1     -66.712 -41.909 -39.409  1.00  0.00     0.123 A 
ATOM     12  C   UNL     1     -65.958 -42.456 -38.368  1.00  0.00     0.093 A 
BRANCH   3  13
ATOM     13  C   UNL     1     -67.379 -36.285 -37.372  1.00  0.00     0.025 A 
ATOM     14  C   UNL     1     -68.646 -36.012 -37.907  1.00  0.00     0.016 A 
ATOM     15  C   UNL     1     -69.080 -34.692 -38.056  1.00  0.00     0.051 A 
ATOM     16  C   UNL     1     -68.248 -33.628 -37.686  1.00  0.00     0.157 A 
ATOM     17  C   UNL     1     -66.536 -35.215 -37.026  1.00  0.00     0.062 A 
ATOM     18  C   UNL     1     -66.968 -33.893 -37.170  1.00  0.00     0.158 A 
BRANCH  16  19
ATOM     19  O   UNL     1     -68.683 -32.313 -37.831  1.00  0.00    -0.504 OA
ATOM     20  H   UNL     1     -68.189 -31.651 -38.419  1.00  0.00     0.293 HD
ENDBRANCH  16  19
BRANCH  18  21
ATOM     21  O   UNL     1     -66.113 -32.856 -36.795  1.00  0.00    -0.504 OA
ATOM     22  H   UNL     1     -65.185 -33.031 -36.428  1.00  0.00     0.293 HD
ENDBRANCH  18  21
ENDBRANCH   3  13
BRANCH  10  23
ATOM     23  O   UNL     1     -64.976 -42.367 -36.203  1.00  0.00    -0.507 OA
ATOM     24  H   UNL     1     -64.600 -43.300 -36.270  1.00  0.00     0.293 HD
ENDBRANCH  10  23
BRANCH  11  25
ATOM     25  O   UNL     1     -67.045 -42.677 -40.523  1.00  0.00    -0.508 OA
ATOM     26  H   UNL     1     -67.816 -42.426 -41.130  1.00  0.00     0.293 HD
ENDBRANCH  11  25
ENDBRANCH   1   2
BRANCH   1  27
ATOM     27  C   UNL     1     -66.970 -37.063 -34.007  1.00  0.00     0.339 C 
ATOM     28  C   UNL     1     -66.689 -35.756 -33.231  1.00  0.00     0.214 C 
ATOM     29  O   UNL     1     -67.119 -38.167 -33.126  1.00  0.00    -0.332 OA
ATOM     30  C   UNL     1     -65.480 -35.914 -32.289  1.00  0.00     0.180 C 
ATOM     31  C   UNL     1     -65.945 -38.390 -32.361  1.00  0.00     0.179 C 
ATOM     32  C   UNL     1     -65.659 -37.182 -31.438  1.00  0.00     0.177 C 
BRANCH  28  33
ATOM     33  O   UNL     1     -66.517 -34.674 -34.112  1.00  0.00    -0.384 OA
ATOM     34  H   UNL     1     -66.134 -35.027 -34.958  1.00  0.00     0.211 HD
ENDBRANCH  28  33
BRANCH  30  35
ATOM     35  O   UNL     1     -65.379 -34.799 -31.442  1.00  0.00    -0.387 OA
ATOM     36  H   UNL     1     -64.780 -35.061 -30.694  1.00  0.00     0.211 HD
ENDBRANCH  30  35
BRANCH  31  37
ATOM     37  C   UNL     1     -66.131 -39.678 -31.545  1.00  0.00     0.191 C 
BRANCH  37  38
ATOM     38  O   UNL     1     -66.371 -39.373 -30.196  1.00  0.00    -0.394 OA
ATOM     39  H   UNL     1     -65.533 -39.579 -29.706  1.00  0.00     0.210 HD
ENDBRANCH  37  38
ENDBRANCH  31  37
BRANCH  32  40
ATOM     40  O   UNL     1     -64.522 -37.402 -30.638  1.00  0.00    -0.387 OA
ATOM     41  H   UNL     1     -63.764 -36.913 -31.053  1.00  0.00     0.211 HD
ENDBRANCH  32  40
ENDBRANCH   1  27
TORSDOF 12
ENDMDL
MODEL 2
REMARK VINA RESULT:    -8.627      1.189      2.370
REMARK INTER + INTRA:         -13.434
REMARK INTER:                 -12.345
REMARK INTRA:                  -1.089
REMARK UNBOUND:                -0.773
REMARK SMILES O=c1c(O[C@H]2O[C@H](CO)[C@@H](O)[C@H](O)[C@H]2O)c(-c2ccc(O)c(O)c2)oc2cc(O)cc(O)c12
REMARK SMILES IDX 4 1 3 2 16 3 25 4 2 5 26 6 1 7 33 8 27 9 31 10 28 11 30 12
REMARK SMILES IDX 17 13 18 14 19 15 20 16 24 17 22 18 21 19 23 21 32 23 29 25
REMARK SMILES IDX 5 27 14 28 6 29 12 30 7 31 10 32 15 33 13 35 8 37 9 38 11 40
REMARK H PARENT 21 20 23 22 32 24 29 26 15 34 13 36 9 39 11 41
REMARK Flexibility Score: inf
ROOT
ATOM      1  O   UNL     1     -66.825 -38.036 -34.863  1.00  0.00    -0.454 OA
ENDROOT
BRANCH   1   2
ATOM      2  C   UNL     1     -66.981 -38.735 -36.071  1.00  0.00     0.214 A 
ATOM      3  C   UNL     1     -67.373 -38.093 -37.264  1.00  0.00     0.180 A 
ATOM      4  O   UNL     1     -67.609 -38.816 -38.352  1.00  0.00    -0.452 OA
ATOM      5  C   UNL     1     -66.744 -40.116 -36.096  1.00  0.00     0.239 A 
ATOM      6  C   UNL     1     -67.471 -40.136 -38.399  1.00  0.00     0.146 A 
ATOM      7  O   UNL     1     -66.239 -40.657 -35.079  1.00  0.00    -0.285 OA
ATOM      8  C   UNL     1     -67.049 -40.864 -37.256  1.00  0.00     0.111 A 
ATOM      9  C   UNL     1     -67.732 -40.793 -39.603  1.00  0.00     0.094 A 
ATOM     10  C   UNL     1     -66.939 -42.283 -37.357  1.00  0.00     0.134 A 
ATOM     11  C   UNL     1     -67.568 -42.173 -39.706  1.00  0.00     0.123 A 
ATOM     12  C   UNL     1     -67.166 -42.909 -38.589  1.00  0.00     0.093 A 
BRANCH   3  13
ATOM     13  C   UNL     1     -67.494 -36.623 -37.376  1.00  0.00     0.025 A 
ATOM     14  C   UNL     1     -68.749 -36.044 -37.614  1.00  0.00     0.016 A 
ATOM     15  C   UNL     1     -68.876 -34.658 -37.730  1.00  0.00     0.051 A 
ATOM     16  C   UNL     1     -67.749 -33.833 -37.622  1.00  0.00     0.157 A 
ATOM     17  C   UNL     1     -66.361 -35.796 -37.294  1.00  0.00     0.062 A 
ATOM     18  C   UNL     1     -66.485 -34.407 -37.405  1.00  0.00     0.158 A 
BRANCH  16  19
ATOM     19  O   UNL     1     -67.877 -32.450 -37.733  1.00  0.00    -0.504 OA
ATOM     20  H   UNL     1     -68.744 -31.977 -37.504  1.00  0.00     0.293 HD
ENDBRANCH  16  19
BRANCH  18  21
ATOM     21  O   UNL     1     -65.342 -33.615 -37.296  1.00  0.00    -0.504 OA
ATOM     22  H   UNL     1     -64.434 -33.936 -37.610  1.00  0.00     0.293 HD
ENDBRANCH  18  21
ENDBRANCH   3  13
BRANCH  10  23
ATOM     23  O   UNL     1     -66.646 -43.120 -36.277  1.00  0.00    -0.507 OA
ATOM     24  H   UNL     1     -65.720 -43.428 -36.022  1.00  0.00     0.293 HD
ENDBRANCH  10  23
BRANCH  11  25
ATOM     25  O   UNL     1     -67.815 -42.806 -40.922  1.00  0.00    -0.508 OA
ATOM     26  H   UNL     1     -67.574 -42.373 -41.805  1.00  0.00     0.293 HD
ENDBRANCH  11  25
ENDBRANCH   1   2
BRANCH   1  27
ATOM     27  C   UNL     1     -65.539 -37.648 -34.359  1.00  0.00     0.339 C 
ATOM     28  C   UNL     1     -65.339 -38.102 -32.895  1.00  0.00     0.214 C 
ATOM     29  O   UNL     1     -65.335 -36.250 -34.501  1.00  0.00    -0.332 OA
ATOM     30  C   UNL     1     -66.222 -37.287 -31.931  1.00  0.00     0.180 C 
ATOM     31  C   UNL     1     -66.250 -35.504 -33.713  1.00  0.00     0.179 C 
ATOM     32  C   UNL     1     -66.029 -35.787 -32.208  1.00  0.00     0.177 C 
BRANCH  28  33
ATOM     33  O   UNL     1     -65.568 -39.483 -32.760  1.00  0.00    -0.384 OA
ATOM     34  H   UNL     1     -64.789 -39.960 -33.148  1.00  0.00     0.211 HD
ENDBRANCH  28  33
BRANCH  30  35
ATOM     35  O   UNL     1     -65.867 -37.561 -30.601  1.00  0.00    -0.387 OA
ATOM     36  H   UNL     1     -66.348 -38.391 -30.342  1.00  0.00     0.211 HD
ENDBRANCH  30  35
BRANCH  31  37
ATOM     37  C   UNL     1     -66.064 -34.013 -34.029  1.00  0.00     0.191 C 
BRANCH  37  38
ATOM     38  O   UNL     1     -65.513 -33.343 -32.925  1.00  0.00    -0.394 OA
ATOM     39  H   UNL     1     -66.239 -33.263 -32.252  1.00  0.00     0.210 HD
ENDBRANCH  37  38
ENDBRANCH  31  37
BRANCH  32  40
ATOM     40  O   UNL     1     -66.898 -35.023 -31.407  1.00  0.00    -0.387 OA
ATOM     41  H   UNL     1     -67.350 -34.364 -31.998  1.00  0.00     0.211 HD
ENDBRANCH  32  40
ENDBRANCH   1  27
TORSDOF 12
ENDMDL
MODEL 3
REMARK VINA RESULT:    -8.094      1.505      5.070
REMARK INTER + INTRA:         -12.652
REMARK INTER:                 -10.976
REMARK INTRA:                  -1.676
REMARK UNBOUND:                -0.773
REMARK SMILES O=c1c(O[C@H]2O[C@H](CO)[C@@H](O)[C@H](O)[C@H]2O)c(-c2ccc(O)c(O)c2)oc2cc(O)cc(O)c12
REMARK SMILES IDX 4 1 3 2 16 3 25 4 2 5 26 6 1 7 33 8 27 9 31 10 28 11 30 12
REMARK SMILES IDX 17 13 18 14 19 15 20 16 24 17 22 18 21 19 23 21 32 23 29 25
REMARK SMILES IDX 5 27 14 28 6 29 12 30 7 31 10 32 15 33 13 35 8 37 9 38 11 40
REMARK H PARENT 21 20 23 22 32 24 29 26 15 34 13 36 9 39 11 41
REMARK Flexibility Score: inf
ROOT
ATOM      1  O   UNL     1     -66.654 -37.364 -36.993  1.00  0.00    -0.454 OA
ENDROOT
BRANCH   1   2
ATOM      2  C   UNL     1     -66.598 -38.733 -37.302  1.00  0.00     0.214 A 
ATOM      3  C   UNL     1     -66.064 -39.682 -36.406  1.00  0.00     0.180 A 
ATOM      4  O   UNL     1     -65.937 -40.947 -36.789  1.00  0.00    -0.452 OA
ATOM      5  C   UNL     1     -67.087 -39.174 -38.538  1.00  0.00     0.239 A 
ATOM      6  C   UNL     1     -66.316 -41.394 -37.980  1.00  0.00     0.146 A 
ATOM      7  O   UNL     1     -67.709 -38.357 -39.265  1.00  0.00    -0.285 OA
ATOM      8  C   UNL     1     -66.896 -40.518 -38.935  1.00  0.00     0.111 A 
ATOM      9  C   UNL     1     -66.150 -42.750 -38.270  1.00  0.00     0.094 A 
ATOM     10  C   UNL     1     -67.265 -41.047 -40.208  1.00  0.00     0.134 A 
ATOM     11  C   UNL     1     -66.564 -43.267 -39.496  1.00  0.00     0.123 A 
ATOM     12  C   UNL     1     -67.125 -42.419 -40.453  1.00  0.00     0.093 A 
BRANCH   3  13
ATOM     13  C   UNL     1     -65.669 -39.340 -35.023  1.00  0.00     0.025 A 
ATOM     14  C   UNL     1     -64.513 -38.577 -34.796  1.00  0.00     0.016 A 
ATOM     15  C   UNL     1     -64.125 -38.255 -33.494  1.00  0.00     0.051 A 
ATOM     16  C   UNL     1     -64.879 -38.700 -32.400  1.00  0.00     0.157 A 
ATOM     17  C   UNL     1     -66.408 -39.808 -33.924  1.00  0.00     0.062 A 
ATOM     18  C   UNL     1     -66.025 -39.482 -32.618  1.00  0.00     0.158 A 
BRANCH  16  19
ATOM     19  O   UNL     1     -64.493 -38.373 -31.102  1.00  0.00    -0.504 OA
ATOM     20  H   UNL     1     -65.168 -38.308 -30.348  1.00  0.00     0.293 HD
ENDBRANCH  16  19
BRANCH  18  21
ATOM     21  O   UNL     1     -66.796 -39.946 -31.551  1.00  0.00    -0.504 OA
ATOM     22  H   UNL     1     -66.494 -39.850 -30.589  1.00  0.00     0.293 HD
ENDBRANCH  18  21
ENDBRANCH   3  13
BRANCH  10  23
ATOM     23  O   UNL     1     -67.735 -40.268 -41.268  1.00  0.00    -0.507 OA
ATOM     24  H   UNL     1     -67.365 -39.367 -41.528  1.00  0.00     0.293 HD
ENDBRANCH  10  23
BRANCH  11  25
ATOM     25  O   UNL     1     -66.408 -44.626 -39.756  1.00  0.00    -0.508 OA
ATOM     26  H   UNL     1     -66.508 -45.003 -40.691  1.00  0.00     0.293 HD
ENDBRANCH  11  25
ENDBRANCH   1   2
BRANCH   1  27
ATOM     27  C   UNL     1     -67.680 -36.803 -36.163  1.00  0.00     0.339 C 
ATOM     28  C   UNL     1     -68.419 -35.646 -36.873  1.00  0.00     0.214 C 
ATOM     29  O   UNL     1     -67.155 -36.391 -34.909  1.00  0.00    -0.332 OA
ATOM     30  C   UNL     1     -67.519 -34.402 -37.001  1.00  0.00     0.180 C 
ATOM     31  C   UNL     1     -66.218 -35.336 -35.054  1.00  0.00     0.179 C 
ATOM     32  C   UNL     1     -66.904 -34.074 -35.631  1.00  0.00     0.177 C 
BRANCH  28  33
ATOM     33  O   UNL     1     -68.914 -36.055 -38.124  1.00  0.00    -0.384 OA
ATOM     34  H   UNL     1     -68.875 -37.047 -38.157  1.00  0.00     0.211 HD
ENDBRANCH  28  33
BRANCH  30  35
ATOM     35  O   UNL     1     -68.272 -33.304 -37.445  1.00  0.00    -0.387 OA
ATOM     36  H   UNL     1     -68.555 -32.805 -36.635  1.00  0.00     0.211 HD
ENDBRANCH  30  35
BRANCH  31  37
ATOM     37  C   UNL     1     -65.591 -35.047 -33.683  1.00  0.00     0.191 C 
BRANCH  37  38
ATOM     38  O   UNL     1     -66.375 -34.125 -32.970  1.00  0.00    -0.394 OA
ATOM     39  H   UNL     1     -67.320 -34.314 -33.209  1.00  0.00     0.210 HD
ENDBRANCH  37  38
ENDBRANCH  31  37
BRANCH  32  40
ATOM     40  O   UNL     1     -66.000 -33.001 -35.741  1.00  0.00    -0.387 OA
ATOM     41  H   UNL     1     -66.467 -32.181 -35.429  1.00  0.00     0.211 HD
ENDBRANCH  32  40
ENDBRANCH   1  27
TORSDOF 12
ENDMDL
MODEL 4
REMARK VINA RESULT:    -8.032      2.014      6.534
REMARK INTER + INTRA:         -12.561
REMARK INTER:                 -11.683
REMARK INTRA:                  -0.878
REMARK UNBOUND:                -0.773
REMARK SMILES O=c1c(O[C@H]2O[C@H](CO)[C@@H](O)[C@H](O)[C@H]2O)c(-c2ccc(O)c(O)c2)oc2cc(O)cc(O)c12
REMARK SMILES IDX 4 1 3 2 16 3 25 4 2 5 26 6 1 7 33 8 27 9 31 10 28 11 30 12
REMARK SMILES IDX 17 13 18 14 19 15 20 16 24 17 22 18 21 19 23 21 32 23 29 25
REMARK SMILES IDX 5 27 14 28 6 29 12 30 7 31 10 32 15 33 13 35 8 37 9 38 11 40
REMARK H PARENT 21 20 23 22 32 24 29 26 15 34 13 36 9 39 11 41
REMARK Flexibility Score: inf
ROOT
ATOM      1  O   UNL     1     -66.772 -39.623 -34.289  1.00  0.00    -0.454 OA
ENDROOT
BRANCH   1   2
ATOM      2  C   UNL     1     -66.287 -38.945 -33.160  1.00  0.00     0.214 A 
ATOM      3  C   UNL     1     -66.014 -37.561 -33.176  1.00  0.00     0.180 A 
ATOM      4  O   UNL     1     -65.457 -36.989 -32.115  1.00  0.00    -0.452 OA
ATOM      5  C   UNL     1     -66.065 -39.661 -31.976  1.00  0.00     0.239 A 
ATOM      6  C   UNL     1     -65.158 -37.646 -31.000  1.00  0.00     0.146 A 
ATOM      7  O   UNL     1     -66.461 -40.853 -31.912  1.00  0.00    -0.285 OA
ATOM      8  C   UNL     1     -65.429 -39.034 -30.879  1.00  0.00     0.111 A 
ATOM      9  C   UNL     1     -64.589 -36.939 -29.939  1.00  0.00     0.094 A 
ATOM     10  C   UNL     1     -65.067 -39.695 -29.667  1.00  0.00     0.134 A 
ATOM     11  C   UNL     1     -64.290 -37.582 -28.740  1.00  0.00     0.123 A 
ATOM     12  C   UNL     1     -64.537 -38.951 -28.606  1.00  0.00     0.093 A 
BRANCH   3  13
ATOM     13  C   UNL     1     -66.361 -36.693 -34.321  1.00  0.00     0.025 A 
ATOM     14  C   UNL     1     -67.700 -36.343 -34.550  1.00  0.00     0.016 A 
ATOM     15  C   UNL     1     -68.042 -35.530 -35.633  1.00  0.00     0.051 A 
ATOM     16  C   UNL     1     -67.053 -35.068 -36.510  1.00  0.00     0.157 A 
ATOM     17  C   UNL     1     -65.374 -36.250 -35.218  1.00  0.00     0.062 A 
ATOM     18  C   UNL     1     -65.712 -35.432 -36.301  1.00  0.00     0.158 A 
BRANCH  16  19
ATOM     19  O   UNL     1     -67.395 -34.253 -37.588  1.00  0.00    -0.504 OA
ATOM     20  H   UNL     1     -67.814 -34.633 -38.429  1.00  0.00     0.293 HD
ENDBRANCH  16  19
BRANCH  18  21
ATOM     21  O   UNL     1     -64.703 -34.992 -37.158  1.00  0.00    -0.504 OA
ATOM     22  H   UNL     1     -63.748 -35.319 -37.076  1.00  0.00     0.293 HD
ENDBRANCH  18  21
ENDBRANCH   3  13
BRANCH  10  23
ATOM     23  O   UNL     1     -65.174 -41.074 -29.471  1.00  0.00    -0.507 OA
ATOM     24  H   UNL     1     -65.857 -41.519 -28.877  1.00  0.00     0.293 HD
ENDBRANCH  10  23
BRANCH  11  25
ATOM     25  O   UNL     1     -63.741 -36.854 -27.688  1.00  0.00    -0.508 OA
ATOM     26  H   UNL     1     -63.191 -37.300 -26.963  1.00  0.00     0.293 HD
ENDBRANCH  11  25
ENDBRANCH   1   2
BRANCH   1  27
ATOM     27  C   UNL     1     -66.049 -40.692 -34.915  1.00  0.00     0.339 C 
ATOM     28  C   UNL     1     -65.022 -40.163 -35.941  1.00  0.00     0.214 C 
ATOM     29  O   UNL     1     -66.936 -41.631 -35.506  1.00  0.00    -0.332 OA
ATOM     30  C   UNL     1     -65.721 -39.593 -37.190  1.00  0.00     0.180 C 
ATOM     31  C   UNL     1     -67.679 -41.054 -36.568  1.00  0.00     0.179 C 
ATOM     32  C   UNL     1     -66.738 -40.618 -37.717  1.00  0.00     0.177 C 
BRANCH  28  33
ATOM     33  O   UNL     1     -64.165 -39.216 -35.354  1.00  0.00    -0.384 OA
ATOM     34  H   UNL     1     -63.247 -39.596 -35.350  1.00  0.00     0.211 HD
ENDBRANCH  28  33
BRANCH  30  35
ATOM     35  O   UNL     1     -64.776 -39.322 -38.192  1.00  0.00    -0.387 OA
ATOM     36  H   UNL     1     -65.205 -39.548 -39.059  1.00  0.00     0.211 HD
ENDBRANCH  30  35
BRANCH  31  37
ATOM     37  C   UNL     1     -68.711 -42.080 -37.057  1.00  0.00     0.191 C 
BRANCH  37  38
ATOM     38  O   UNL     1     -69.912 -41.440 -37.403  1.00  0.00    -0.394 OA
ATOM     39  H   UNL     1     -69.808 -41.132 -38.341  1.00  0.00     0.210 HD
ENDBRANCH  37  38
ENDBRANCH  31  37
BRANCH  32  40
ATOM     40  O   UNL     1     -67.461 -40.082 -38.800  1.00  0.00    -0.387 OA
ATOM     41  H   UNL     1     -67.009 -39.242 -39.076  1.00  0.00     0.211 HD
ENDBRANCH  32  40
ENDBRANCH   1  27
TORSDOF 12
ENDMDL
MODEL 5
REMARK VINA RESULT:    -7.582      1.799      6.318
REMARK INTER + INTRA:         -11.901
REMARK INTER:                 -11.335
REMARK INTRA:                  -0.566
REMARK UNBOUND:                -0.773
REMARK SMILES O=c1c(O[C@H]2O[C@H](CO)[C@@H](O)[C@H](O)[C@H]2O)c(-c2ccc(O)c(O)c2)oc2cc(O)cc(O)c12
REMARK SMILES IDX 4 1 3 2 16 3 25 4 2 5 26 6 1 7 33 8 27 9 31 10 28 11 30 12
REMARK SMILES IDX 17 13 18 14 19 15 20 16 24 17 22 18 21 19 23 21 32 23 29 25
REMARK SMILES IDX 5 27 14 28 6 29 12 30 7 31 10 32 15 33 13 35 8 37 9 38 11 40
REMARK H PARENT 21 20 23 22 32 24 29 26 15 34 13 36 9 39 11 41
REMARK Flexibility Score: inf
ROOT
ATOM      1  O   UNL     1     -66.678 -38.557 -36.801  1.00  0.00    -0.454 OA
ENDROOT
BRANCH   1   2
ATOM      2  C   UNL     1     -66.568 -38.171 -35.455  1.00  0.00     0.214 A 
ATOM      3  C   UNL     1     -66.513 -36.817 -35.065  1.00  0.00     0.180 A 
ATOM      4  O   UNL     1     -66.302 -36.508 -33.791  1.00  0.00    -0.452 OA
ATOM      5  C   UNL     1     -66.509 -39.160 -34.464  1.00  0.00     0.239 A 
ATOM      6  C   UNL     1     -66.164 -37.415 -32.831  1.00  0.00     0.146 A 
ATOM      7  O   UNL     1     -66.721 -40.355 -34.794  1.00  0.00    -0.285 OA
ATOM      8  C   UNL     1     -66.238 -38.802 -33.123  1.00  0.00     0.111 A 
ATOM      9  C   UNL     1     -65.962 -36.976 -31.521  1.00  0.00     0.094 A 
ATOM     10  C   UNL     1     -66.060 -39.732 -32.056  1.00  0.00     0.134 A 
ATOM     11  C   UNL     1     -65.844 -37.892 -30.478  1.00  0.00     0.123 A 
ATOM     12  C   UNL     1     -65.901 -39.261 -30.747  1.00  0.00     0.093 A 
BRANCH   3  13
ATOM     13  C   UNL     1     -66.724 -35.704 -36.016  1.00  0.00     0.025 A 
ATOM     14  C   UNL     1     -65.622 -34.992 -36.511  1.00  0.00     0.016 A 
ATOM     15  C   UNL     1     -65.809 -33.933 -37.404  1.00  0.00     0.051 A 
ATOM     16  C   UNL     1     -67.100 -33.564 -37.802  1.00  0.00     0.157 A 
ATOM     17  C   UNL     1     -68.020 -35.315 -36.397  1.00  0.00     0.062 A 
ATOM     18  C   UNL     1     -68.210 -34.259 -37.294  1.00  0.00     0.158 A 
BRANCH  16  19
ATOM     19  O   UNL     1     -67.285 -32.512 -38.697  1.00  0.00    -0.504 OA
ATOM     20  H   UNL     1     -66.630 -32.333 -39.449  1.00  0.00     0.293 HD
ENDBRANCH  16  19
BRANCH  18  21
ATOM     21  O   UNL     1     -69.510 -33.914 -37.668  1.00  0.00    -0.504 OA
ATOM     22  H   UNL     1     -69.966 -33.079 -37.320  1.00  0.00     0.293 HD
ENDBRANCH  18  21
ENDBRANCH   3  13
BRANCH  10  23
ATOM     23  O   UNL     1     -65.996 -41.117 -32.234  1.00  0.00    -0.507 OA
ATOM     24  H   UNL     1     -65.878 -41.577 -33.123  1.00  0.00     0.293 HD
ENDBRANCH  10  23
BRANCH  11  25
ATOM     25  O   UNL     1     -65.662 -37.431 -29.176  1.00  0.00    -0.508 OA
ATOM     26  H   UNL     1     -64.927 -37.794 -28.582  1.00  0.00     0.293 HD
ENDBRANCH  11  25
ENDBRANCH   1   2
BRANCH   1  27
ATOM     27  C   UNL     1     -67.843 -38.277 -37.590  1.00  0.00     0.339 C 
ATOM     28  C   UNL     1     -69.062 -39.100 -37.118  1.00  0.00     0.214 C 
ATOM     29  O   UNL     1     -67.585 -38.478 -38.971  1.00  0.00    -0.332 OA
ATOM     30  C   UNL     1     -68.899 -40.592 -37.466  1.00  0.00     0.180 C 
ATOM     31  C   UNL     1     -67.296 -39.837 -39.259  1.00  0.00     0.179 C 
ATOM     32  C   UNL     1     -68.521 -40.731 -38.949  1.00  0.00     0.177 C 
BRANCH  28  33
ATOM     33  O   UNL     1     -69.295 -38.915 -35.743  1.00  0.00    -0.384 OA
ATOM     34  H   UNL     1     -68.750 -38.141 -35.444  1.00  0.00     0.211 HD
ENDBRANCH  28  33
BRANCH  30  35
ATOM     35  O   UNL     1     -70.101 -41.279 -37.229  1.00  0.00    -0.387 OA
ATOM     36  H   UNL     1     -70.036 -41.661 -36.315  1.00  0.00     0.211 HD
ENDBRANCH  30  35
BRANCH  31  37
ATOM     37  C   UNL     1     -66.888 -39.949 -40.735  1.00  0.00     0.191 C 
BRANCH  37  38
ATOM     38  O   UNL     1     -67.979 -40.366 -41.515  1.00  0.00    -0.394 OA
ATOM     39  H   UNL     1     -68.752 -40.448 -40.898  1.00  0.00     0.210 HD
ENDBRANCH  37  38
ENDBRANCH  31  37
BRANCH  32  40
ATOM     40  O   UNL     1     -68.270 -42.078 -39.269  1.00  0.00    -0.387 OA
ATOM     41  H   UNL     1     -68.772 -42.289 -40.100  1.00  0.00     0.211 HD
ENDBRANCH  32  40
ENDBRANCH   1  27
TORSDOF 12
ENDMDL
MODEL 6
REMARK VINA RESULT:    -7.437      1.881      6.649
REMARK INTER + INTRA:         -11.688
REMARK INTER:                 -10.031
REMARK INTRA:                  -1.657
REMARK UNBOUND:                -0.773
REMARK SMILES O=c1c(O[C@H]2O[C@H](CO)[C@@H](O)[C@H](O)[C@H]2O)c(-c2ccc(O)c(O)c2)oc2cc(O)cc(O)c12
REMARK SMILES IDX 4 1 3 2 16 3 25 4 2 5 26 6 1 7 33 8 27 9 31 10 28 11 30 12
REMARK SMILES IDX 17 13 18 14 19 15 20 16 24 17 22 18 21 19 23 21 32 23 29 25
REMARK SMILES IDX 5 27 14 28 6 29 12 30 7 31 10 32 15 33 13 35 8 37 9 38 11 40
REMARK H PARENT 21 20 23 22 32 24 29 26 15 34 13 36 9 39 11 41
REMARK Flexibility Score: inf
ROOT
ATOM      1  O   UNL     1     -66.058 -39.435 -34.804  1.00  0.00    -0.454 OA
ENDROOT
BRANCH   1   2
ATOM      2  C   UNL     1     -65.984 -38.884 -33.515  1.00  0.00     0.214 A 
ATOM      3  C   UNL     1     -65.895 -37.493 -33.299  1.00  0.00     0.180 A 
ATOM      4  O   UNL     1     -65.720 -37.029 -32.067  1.00  0.00    -0.452 OA
ATOM      5  C   UNL     1     -65.998 -39.738 -32.405  1.00  0.00     0.239 A 
ATOM      6  C   UNL     1     -65.650 -37.808 -30.994  1.00  0.00     0.146 A 
ATOM      7  O   UNL     1     -66.241 -40.958 -32.588  1.00  0.00    -0.285 OA
ATOM      8  C   UNL     1     -65.764 -39.218 -31.110  1.00  0.00     0.111 A 
ATOM      9  C   UNL     1     -65.481 -37.211 -29.743  1.00  0.00     0.094 A 
ATOM     10  C   UNL     1     -65.659 -40.009 -29.927  1.00  0.00     0.134 A 
ATOM     11  C   UNL     1     -65.435 -37.988 -28.589  1.00  0.00     0.123 A 
ATOM     12  C   UNL     1     -65.532 -39.378 -28.683  1.00  0.00     0.093 A 
BRANCH   3  13
ATOM     13  C   UNL     1     -66.030 -36.506 -34.392  1.00  0.00     0.025 A 
ATOM     14  C   UNL     1     -67.192 -35.726 -34.487  1.00  0.00     0.016 A 
ATOM     15  C   UNL     1     -67.336 -34.796 -35.520  1.00  0.00     0.051 A 
ATOM     16  C   UNL     1     -66.325 -34.642 -36.478  1.00  0.00     0.157 A 
ATOM     17  C   UNL     1     -65.030 -36.368 -35.369  1.00  0.00     0.062 A 
ATOM     18  C   UNL     1     -65.168 -35.434 -36.402  1.00  0.00     0.158 A 
BRANCH  16  19
ATOM     19  O   UNL     1     -66.467 -33.710 -37.504  1.00  0.00    -0.504 OA
ATOM     20  H   UNL     1     -66.487 -32.714 -37.318  1.00  0.00     0.293 HD
ENDBRANCH  16  19
BRANCH  18  21
ATOM     21  O   UNL     1     -64.145 -35.309 -37.342  1.00  0.00    -0.504 OA
ATOM     22  H   UNL     1     -63.168 -35.280 -37.074  1.00  0.00     0.293 HD
ENDBRANCH  18  21
ENDBRANCH   3  13
BRANCH  10  23
ATOM     23  O   UNL     1     -65.639 -41.406 -29.924  1.00  0.00    -0.507 OA
ATOM     24  H   UNL     1     -65.036 -41.974 -30.498  1.00  0.00     0.293 HD
ENDBRANCH  10  23
BRANCH  11  25
ATOM     25  O   UNL     1     -65.285 -37.370 -27.349  1.00  0.00    -0.508 OA
ATOM     26  H   UNL     1     -64.461 -36.827 -27.122  1.00  0.00     0.293 HD
ENDBRANCH  11  25
ENDBRANCH   1   2
BRANCH   1  27
ATOM     27  C   UNL     1     -67.269 -39.991 -35.335  1.00  0.00     0.339 C 
ATOM     28  C   UNL     1     -67.006 -41.314 -36.091  1.00  0.00     0.214 C 
ATOM     29  O   UNL     1     -67.945 -39.051 -36.157  1.00  0.00    -0.332 OA
ATOM     30  C   UNL     1     -66.264 -41.063 -37.417  1.00  0.00     0.180 C 
ATOM     31  C   UNL     1     -67.186 -38.720 -37.310  1.00  0.00     0.179 C 
ATOM     32  C   UNL     1     -66.991 -39.964 -38.209  1.00  0.00     0.177 C 
BRANCH  28  33
ATOM     33  O   UNL     1     -66.314 -42.230 -35.278  1.00  0.00    -0.384 OA
ATOM     34  H   UNL     1     -66.567 -42.052 -34.335  1.00  0.00     0.211 HD
ENDBRANCH  28  33
BRANCH  30  35
ATOM     35  O   UNL     1     -66.231 -42.240 -38.183  1.00  0.00    -0.387 OA
ATOM     36  H   UNL     1     -65.326 -42.291 -38.589  1.00  0.00     0.211 HD
ENDBRANCH  30  35
BRANCH  31  37
ATOM     37  C   UNL     1     -67.912 -37.598 -38.067  1.00  0.00     0.191 C 
BRANCH  37  38
ATOM     38  O   UNL     1     -69.047 -37.181 -37.355  1.00  0.00    -0.394 OA
ATOM     39  H   UNL     1     -69.655 -36.758 -38.016  1.00  0.00     0.210 HD
ENDBRANCH  37  38
ENDBRANCH  31  37
BRANCH  32  40
ATOM     40  O   UNL     1     -66.278 -39.647 -39.380  1.00  0.00    -0.387 OA
ATOM     41  H   UNL     1     -65.323 -39.535 -39.129  1.00  0.00     0.211 HD
ENDBRANCH  32  40
ENDBRANCH   1  27
TORSDOF 12
ENDMDL
MODEL 7
REMARK VINA RESULT:    -7.312      2.042      6.554
REMARK INTER + INTRA:         -11.505
REMARK INTER:                 -11.617
REMARK INTRA:                   0.112
REMARK UNBOUND:                -0.773
REMARK SMILES O=c1c(O[C@H]2O[C@H](CO)[C@@H](O)[C@H](O)[C@H]2O)c(-c2ccc(O)c(O)c2)oc2cc(O)cc(O)c12
REMARK SMILES IDX 4 1 3 2 16 3 25 4 2 5 26 6 1 7 33 8 27 9 31 10 28 11 30 12
REMARK SMILES IDX 17 13 18 14 19 15 20 16 24 17 22 18 21 19 23 21 32 23 29 25
REMARK SMILES IDX 5 27 14 28 6 29 12 30 7 31 10 32 15 33 13 35 8 37 9 38 11 40
REMARK H PARENT 21 20 23 22 32 24 29 26 15 34 13 36 9 39 11 41
REMARK Flexibility Score: inf
ROOT
ATOM      1  O   UNL     1     -67.037 -38.975 -33.924  1.00  0.00    -0.454 OA
ENDROOT
BRANCH   1   2
ATOM      2  C   UNL     1     -66.371 -38.578 -32.753  1.00  0.00     0.214 A 
ATOM      3  C   UNL     1     -65.710 -37.336 -32.651  1.00  0.00     0.180 A 
ATOM      4  O   UNL     1     -65.006 -37.054 -31.561  1.00  0.00    -0.452 OA
ATOM      5  C   UNL     1     -66.359 -39.439 -31.648  1.00  0.00     0.239 A 
ATOM      6  C   UNL     1     -64.904 -37.875 -30.523  1.00  0.00     0.146 A 
ATOM      7  O   UNL     1     -67.082 -40.468 -31.680  1.00  0.00    -0.285 OA
ATOM      8  C   UNL     1     -65.563 -39.132 -30.520  1.00  0.00     0.111 A 
ATOM      9  C   UNL     1     -64.149 -37.468 -29.420  1.00  0.00     0.094 A 
ATOM     10  C   UNL     1     -65.401 -39.983 -29.386  1.00  0.00     0.134 A 
ATOM     11  C   UNL     1     -64.042 -38.283 -28.296  1.00  0.00     0.123 A 
ATOM     12  C   UNL     1     -64.673 -39.529 -28.280  1.00  0.00     0.093 A 
BRANCH   3  13
ATOM     13  C   UNL     1     -65.797 -36.298 -33.701  1.00  0.00     0.025 A 
ATOM     14  C   UNL     1     -66.715 -35.246 -33.565  1.00  0.00     0.016 A 
ATOM     15  C   UNL     1     -66.814 -34.263 -34.553  1.00  0.00     0.051 A 
ATOM     16  C   UNL     1     -66.006 -34.326 -35.695  1.00  0.00     0.157 A 
ATOM     17  C   UNL     1     -65.007 -36.373 -34.860  1.00  0.00     0.062 A 
ATOM     18  C   UNL     1     -65.100 -35.388 -35.849  1.00  0.00     0.158 A 
BRANCH  16  19
ATOM     19  O   UNL     1     -66.101 -33.343 -36.678  1.00  0.00    -0.504 OA
ATOM     20  H   UNL     1     -66.448 -32.413 -36.467  1.00  0.00     0.293 HD
ENDBRANCH  16  19
BRANCH  18  21
ATOM     21  O   UNL     1     -64.283 -35.483 -36.977  1.00  0.00    -0.504 OA
ATOM     22  H   UNL     1     -63.805 -36.341 -37.224  1.00  0.00     0.293 HD
ENDBRANCH  18  21
ENDBRANCH   3  13
BRANCH  10  23
ATOM     23  O   UNL     1     -65.901 -41.285 -29.314  1.00  0.00    -0.507 OA
ATOM     24  H   UNL     1     -65.368 -42.091 -29.025  1.00  0.00     0.293 HD
ENDBRANCH  10  23
BRANCH  11  25
ATOM     25  O   UNL     1     -63.300 -37.849 -27.200  1.00  0.00    -0.508 OA
ATOM     26  H   UNL     1     -62.404 -37.391 -27.313  1.00  0.00     0.293 HD
ENDBRANCH  11  25
ENDBRANCH   1   2
BRANCH   1  27
ATOM     27  C   UNL     1     -66.548 -38.657 -35.234  1.00  0.00     0.339 C 
ATOM     28  C   UNL     1     -67.693 -38.238 -36.184  1.00  0.00     0.214 C 
ATOM     29  O   UNL     1     -65.795 -39.733 -35.773  1.00  0.00    -0.332 OA
ATOM     30  C   UNL     1     -68.582 -39.440 -36.554  1.00  0.00     0.180 C 
ATOM     31  C   UNL     1     -66.598 -40.885 -35.979  1.00  0.00     0.179 C 
ATOM     32  C   UNL     1     -67.696 -40.602 -37.032  1.00  0.00     0.177 C 
BRANCH  28  33
ATOM     33  O   UNL     1     -68.448 -37.189 -35.631  1.00  0.00    -0.384 OA
ATOM     34  H   UNL     1     -67.974 -36.865 -34.821  1.00  0.00     0.211 HD
ENDBRANCH  28  33
BRANCH  30  35
ATOM     35  O   UNL     1     -69.473 -39.086 -37.579  1.00  0.00    -0.387 OA
ATOM     36  H   UNL     1     -68.937 -38.625 -38.277  1.00  0.00     0.211 HD
ENDBRANCH  30  35
BRANCH  31  37
ATOM     37  C   UNL     1     -65.691 -42.042 -36.422  1.00  0.00     0.191 C 
BRANCH  37  38
ATOM     38  O   UNL     1     -64.463 -41.989 -35.742  1.00  0.00    -0.394 OA
ATOM     39  H   UNL     1     -64.183 -42.930 -35.593  1.00  0.00     0.210 HD
ENDBRANCH  37  38
ENDBRANCH  31  37
BRANCH  32  40
ATOM     40  O   UNL     1     -68.477 -41.746 -37.282  1.00  0.00    -0.387 OA
ATOM     41  H   UNL     1     -67.867 -42.530 -37.292  1.00  0.00     0.211 HD
ENDBRANCH  32  40
ENDBRANCH   1  27
TORSDOF 12
ENDMDL
MODEL 8
REMARK VINA RESULT:    -6.864      2.037      5.873
REMARK INTER + INTRA:         -10.847
REMARK INTER:                 -10.115
REMARK INTRA:                  -0.732
REMARK UNBOUND:                -0.773
REMARK SMILES O=c1c(O[C@H]2O[C@H](CO)[C@@H](O)[C@H](O)[C@H]2O)c(-c2ccc(O)c(O)c2)oc2cc(O)cc(O)c12
REMARK SMILES IDX 4 1 3 2 16 3 25 4 2 5 26 6 1 7 33 8 27 9 31 10 28 11 30 12
REMARK SMILES IDX 17 13 18 14 19 15 20 16 24 17 22 18 21 19 23 21 32 23 29 25
REMARK SMILES IDX 5 27 14 28 6 29 12 30 7 31 10 32 15 33 13 35 8 37 9 38 11 40
REMARK H PARENT 21 20 23 22 32 24 29 26 15 34 13 36 9 39 11 41
REMARK Flexibility Score: inf
ROOT
ATOM      1  O   UNL     1     -66.556 -37.301 -34.071  1.00  0.00    -0.454 OA
ENDROOT
BRANCH   1   2
ATOM      2  C   UNL     1     -66.746 -38.589 -34.597  1.00  0.00     0.214 A 
ATOM      3  C   UNL     1     -66.407 -39.751 -33.874  1.00  0.00     0.180 A 
ATOM      4  O   UNL     1     -66.507 -40.940 -34.458  1.00  0.00    -0.452 OA
ATOM      5  C   UNL     1     -67.288 -38.728 -35.881  1.00  0.00     0.239 A 
ATOM      6  C   UNL     1     -66.943 -41.112 -35.700  1.00  0.00     0.146 A 
ATOM      7  O   UNL     1     -67.740 -37.706 -36.457  1.00  0.00    -0.285 OA
ATOM      8  C   UNL     1     -67.339 -40.003 -36.492  1.00  0.00     0.111 A 
ATOM      9  C   UNL     1     -67.023 -42.411 -36.207  1.00  0.00     0.094 A 
ATOM     10  C   UNL     1     -67.778 -40.244 -37.829  1.00  0.00     0.134 A 
ATOM     11  C   UNL     1     -67.505 -42.639 -37.494  1.00  0.00     0.123 A 
ATOM     12  C   UNL     1     -67.887 -41.560 -38.294  1.00  0.00     0.093 A 
BRANCH   3  13
ATOM     13  C   UNL     1     -65.977 -39.714 -32.460  1.00  0.00     0.025 A 
ATOM     14  C   UNL     1     -64.788 -39.058 -32.109  1.00  0.00     0.016 A 
ATOM     15  C   UNL     1     -64.367 -39.024 -30.778  1.00  0.00     0.051 A 
ATOM     16  C   UNL     1     -65.122 -39.655 -29.781  1.00  0.00     0.157 A 
ATOM     17  C   UNL     1     -66.719 -40.369 -31.462  1.00  0.00     0.062 A 
ATOM     18  C   UNL     1     -66.303 -40.332 -30.127  1.00  0.00     0.158 A 
BRANCH  16  19
ATOM     19  O   UNL     1     -64.704 -39.615 -28.452  1.00  0.00    -0.504 OA
ATOM     20  H   UNL     1     -65.346 -39.391 -27.700  1.00  0.00     0.293 HD
ENDBRANCH  16  19
BRANCH  18  21
ATOM     21  O   UNL     1     -67.076 -40.975 -29.159  1.00  0.00    -0.504 OA
ATOM     22  H   UNL     1     -68.013 -40.666 -28.927  1.00  0.00     0.293 HD
ENDBRANCH  18  21
ENDBRANCH   3  13
BRANCH  10  23
ATOM     23  O   UNL     1     -68.083 -39.231 -38.742  1.00  0.00    -0.507 OA
ATOM     24  H   UNL     1     -68.361 -39.385 -39.699  1.00  0.00     0.293 HD
ENDBRANCH  10  23
BRANCH  11  25
ATOM     25  O   UNL     1     -67.595 -43.944 -37.973  1.00  0.00    -0.508 OA
ATOM     26  H   UNL     1     -66.961 -44.295 -38.680  1.00  0.00     0.293 HD
ENDBRANCH  11  25
ENDBRANCH   1   2
BRANCH   1  27
ATOM     27  C   UNL     1     -65.279 -36.646 -34.079  1.00  0.00     0.339 C 
ATOM     28  C   UNL     1     -65.285 -35.374 -33.201  1.00  0.00     0.214 C 
ATOM     29  O   UNL     1     -64.862 -36.359 -35.405  1.00  0.00    -0.332 OA
ATOM     30  C   UNL     1     -66.125 -34.254 -33.844  1.00  0.00     0.180 C 
ATOM     31  C   UNL     1     -65.727 -35.429 -36.038  1.00  0.00     0.179 C 
ATOM     32  C   UNL     1     -65.690 -34.066 -35.306  1.00  0.00     0.177 C 
BRANCH  28  33
ATOM     33  O   UNL     1     -65.724 -35.663 -31.897  1.00  0.00    -0.384 OA
ATOM     34  H   UNL     1     -65.369 -36.556 -31.647  1.00  0.00     0.211 HD
ENDBRANCH  28  33
BRANCH  30  35
ATOM     35  O   UNL     1     -65.939 -33.049 -33.148  1.00  0.00    -0.387 OA
ATOM     36  H   UNL     1     -66.461 -32.356 -33.631  1.00  0.00     0.211 HD
ENDBRANCH  30  35
BRANCH  31  37
ATOM     37  C   UNL     1     -65.297 -35.281 -37.505  1.00  0.00     0.191 C 
BRANCH  37  38
ATOM     38  O   UNL     1     -64.537 -34.113 -37.678  1.00  0.00    -0.394 OA
ATOM     39  H   UNL     1     -63.586 -34.380 -37.585  1.00  0.00     0.210 HD
ENDBRANCH  37  38
ENDBRANCH  31  37
BRANCH  32  40
ATOM     40  O   UNL     1     -66.509 -33.116 -35.945  1.00  0.00    -0.387 OA
ATOM     41  H   UNL     1     -66.656 -33.425 -36.878  1.00  0.00     0.211 HD
ENDBRANCH  32  40
ENDBRANCH   1  27
TORSDOF 12
ENDMDL
MODEL 9
REMARK VINA RESULT:    -6.855      1.610      6.099
REMARK INTER + INTRA:         -10.834
REMARK INTER:                  -9.739
REMARK INTRA:                  -1.096
REMARK UNBOUND:                -0.773
REMARK SMILES O=c1c(O[C@H]2O[C@H](CO)[C@@H](O)[C@H](O)[C@H]2O)c(-c2ccc(O)c(O)c2)oc2cc(O)cc(O)c12
REMARK SMILES IDX 4 1 3 2 16 3 25 4 2 5 26 6 1 7 33 8 27 9 31 10 28 11 30 12
REMARK SMILES IDX 17 13 18 14 19 15 20 16 24 17 22 18 21 19 23 21 32 23 29 25
REMARK SMILES IDX 5 27 14 28 6 29 12 30 7 31 10 32 15 33 13 35 8 37 9 38 11 40
REMARK H PARENT 21 20 23 22 32 24 29 26 15 34 13 36 9 39 11 41
REMARK Flexibility Score: inf
ROOT
ATOM      1  O   UNL     1     -67.399 -38.350 -35.746  1.00  0.00    -0.454 OA
ENDROOT
BRANCH   1   2
ATOM      2  C   UNL     1     -66.838 -37.837 -34.565  1.00  0.00     0.214 A 
ATOM      3  C   UNL     1     -66.428 -36.492 -34.452  1.00  0.00     0.180 A 
ATOM      4  O   UNL     1     -65.806 -36.085 -33.352  1.00  0.00    -0.452 OA
ATOM      5  C   UNL     1     -66.678 -38.684 -33.461  1.00  0.00     0.239 A 
ATOM      6  C   UNL     1     -65.565 -36.875 -32.312  1.00  0.00     0.146 A 
ATOM      7  O   UNL     1     -67.191 -39.832 -33.504  1.00  0.00    -0.285 OA
ATOM      8  C   UNL     1     -65.972 -38.234 -32.321  1.00  0.00     0.111 A 
ATOM      9  C   UNL     1     -64.918 -36.335 -31.198  1.00  0.00     0.094 A 
ATOM     10  C   UNL     1     -65.667 -39.043 -31.185  1.00  0.00     0.134 A 
ATOM     11  C   UNL     1     -64.674 -37.119 -30.073  1.00  0.00     0.123 A 
ATOM     12  C   UNL     1     -65.055 -38.463 -30.067  1.00  0.00     0.093 A 
BRANCH   3  13
ATOM     13  C   UNL     1     -66.697 -35.486 -35.502  1.00  0.00     0.025 A 
ATOM     14  C   UNL     1     -65.685 -34.596 -35.890  1.00  0.00     0.016 A 
ATOM     15  C   UNL     1     -65.929 -33.635 -36.874  1.00  0.00     0.051 A 
ATOM     16  C   UNL     1     -67.191 -33.543 -37.474  1.00  0.00     0.157 A 
ATOM     17  C   UNL     1     -67.970 -35.374 -36.086  1.00  0.00     0.062 A 
ATOM     18  C   UNL     1     -68.217 -34.417 -37.076  1.00  0.00     0.158 A 
BRANCH  16  19
ATOM     19  O   UNL     1     -67.432 -32.588 -38.460  1.00  0.00    -0.504 OA
ATOM     20  H   UNL     1     -67.919 -31.722 -38.253  1.00  0.00     0.293 HD
ENDBRANCH  16  19
BRANCH  18  21
ATOM     21  O   UNL     1     -69.486 -34.349 -37.651  1.00  0.00    -0.504 OA
ATOM     22  H   UNL     1     -70.076 -33.530 -37.557  1.00  0.00     0.293 HD
ENDBRANCH  18  21
ENDBRANCH   3  13
BRANCH  10  23
ATOM     23  O   UNL     1     -65.910 -40.417 -31.121  1.00  0.00    -0.507 OA
ATOM     24  H   UNL     1     -65.416 -41.061 -30.522  1.00  0.00     0.293 HD
ENDBRANCH  10  23
BRANCH  11  25
ATOM     25  O   UNL     1     -64.045 -36.555 -28.966  1.00  0.00    -0.508 OA
ATOM     26  H   UNL     1     -64.204 -36.904 -28.028  1.00  0.00     0.293 HD
ENDBRANCH  11  25
ENDBRANCH   1   2
BRANCH   1  27
ATOM     27  C   UNL     1     -66.600 -38.746 -36.869  1.00  0.00     0.339 C 
ATOM     28  C   UNL     1     -67.451 -38.896 -38.150  1.00  0.00     0.214 C 
ATOM     29  O   UNL     1     -65.874 -39.933 -36.587  1.00  0.00    -0.332 OA
ATOM     30  C   UNL     1     -68.368 -40.131 -38.071  1.00  0.00     0.180 C 
ATOM     31  C   UNL     1     -66.738 -41.039 -36.376  1.00  0.00     0.179 C 
ATOM     32  C   UNL     1     -67.537 -41.358 -37.662  1.00  0.00     0.177 C 
BRANCH  28  33
ATOM     33  O   UNL     1     -68.186 -37.725 -38.408  1.00  0.00    -0.384 OA
ATOM     34  H   UNL     1     -67.605 -37.110 -38.928  1.00  0.00     0.211 HD
ENDBRANCH  28  33
BRANCH  30  35
ATOM     35  O   UNL     1     -68.965 -40.372 -39.319  1.00  0.00    -0.387 OA
ATOM     36  H   UNL     1     -69.611 -41.116 -39.188  1.00  0.00     0.211 HD
ENDBRANCH  30  35
BRANCH  31  37
ATOM     37  C   UNL     1     -65.893 -42.243 -35.935  1.00  0.00     0.191 C 
BRANCH  37  38
ATOM     38  O   UNL     1     -66.618 -43.050 -35.043  1.00  0.00    -0.394 OA
ATOM     39  H   UNL     1     -67.296 -43.531 -35.585  1.00  0.00     0.210 HD
ENDBRANCH  37  38
ENDBRANCH  31  37
BRANCH  32  40
ATOM     40  O   UNL     1     -68.369 -42.480 -37.486  1.00  0.00    -0.387 OA
ATOM     41  H   UNL     1     -69.303 -42.152 -37.404  1.00  0.00     0.211 HD
ENDBRANCH  32  40
ENDBRANCH   1  27
TORSDOF 12
ENDMDL
