MODEL 1
REMARK VINA RESULT:    -3.513      0.000      0.000
REMARK INTER + INTRA:         -14.996
REMARK INTER:                  -8.854
REMARK INTRA:                  -6.143
REMARK UNBOUND:                -6.143
REMARK SMILES CCCCCCCCCCCCCCCCCCCCCCCCCCCC(=O)[O-]
REMARK SMILES IDX 15 1 16 2 17 3 18 4 19 5 20 6 21 7 22 8 23 9 24 10 25 11
REMARK SMILES IDX 26 12 27 13 28 14 29 15 30 16 14 17 13 18 12 19 11 20 10 21
REMARK SMILES IDX 9 22 8 23 7 24 6 25 5 26 4 27 3 28 2 29 1 30
REMARK H PARENT
REMARK Flexibility Score: inf
ROOT
ATOM      1  C   UNL     1       2.372   7.742 -21.067  1.00  0.00     0.000 C 
ENDROOT
BRANCH   1   2
ATOM      2  C   UNL     1       3.059   6.584 -20.318  1.00  0.00     0.000 C 
BRANCH   2   3
ATOM      3  C   UNL     1       4.050   5.818 -21.207  1.00  0.00     0.000 C 
BRANCH   3   4
ATOM      4  C   UNL     1       4.036   4.317 -20.883  1.00  0.00     0.000 C 
BRANCH   4   5
ATOM      5  C   UNL     1       3.068   3.957 -19.740  1.00  0.00     0.000 C 
BRANCH   5   6
ATOM      6  C   UNL     1       2.531   2.514 -19.774  1.00  0.00     0.000 C 
BRANCH   6   7
ATOM      7  C   UNL     1       1.141   2.379 -19.136  1.00  0.00     0.000 C 
BRANCH   7   8
ATOM      8  C   UNL     1       0.499   3.758 -18.925  1.00  0.00     0.000 C 
BRANCH   8   9
ATOM      9  C   UNL     1      -0.604   4.063 -19.956  1.00  0.00     0.000 C 
BRANCH   9  10
ATOM     10  C   UNL     1      -0.174   5.011 -21.091  1.00  0.00     0.000 C 
BRANCH  10  11
ATOM     11  C   UNL     1      -0.220   4.343 -22.473  1.00  0.00     0.000 C 
BRANCH  11  12
ATOM     12  C   UNL     1       1.119   4.508 -23.208  1.00  0.00     0.006 C 
BRANCH  12  13
ATOM     13  C   UNL     1       1.741   3.159 -23.598  1.00  0.00     0.053 C 
BRANCH  13  14
ATOM     14  C   UNL     1       3.123   3.325 -24.154  1.00  0.00     0.041 C 
ATOM     15  O   UNL     1       3.880   2.326 -24.279  1.00  0.00    -0.550 OA
ATOM     16  O   UNL     1       3.556   4.573 -24.581  1.00  0.00    -0.550 OA
ENDBRANCH  13  14
ENDBRANCH  12  13
ENDBRANCH  11  12
ENDBRANCH  10  11
ENDBRANCH   9  10
ENDBRANCH   8   9
ENDBRANCH   7   8
ENDBRANCH   6   7
ENDBRANCH   5   6
ENDBRANCH   4   5
ENDBRANCH   3   4
ENDBRANCH   2   3
ENDBRANCH   1   2
BRANCH   1  17
ATOM     17  C   UNL     1       2.469   9.098 -20.343  1.00  0.00     0.000 C 
BRANCH  17  18
ATOM     18  C   UNL     1       3.601   9.124 -19.301  1.00  0.00     0.000 C 
BRANCH  18  19
ATOM     19  C   UNL     1       3.265  10.021 -18.096  1.00  0.00     0.000 C 
BRANCH  19  20
ATOM     20  C   UNL     1       1.837  10.602 -18.145  1.00  0.00     0.000 C 
BRANCH  20  21
ATOM     21  C   UNL     1       1.212  10.816 -16.752  1.00  0.00     0.000 C 
BRANCH  21  22
ATOM     22  C   UNL     1       1.966  10.054 -15.649  1.00  0.00    -0.000 C 
BRANCH  22  23
ATOM     23  C   UNL     1       1.248   8.759 -15.223  1.00  0.00    -0.000 C 
BRANCH  23  24
ATOM     24  C   UNL     1       1.916   7.454 -15.708  1.00  0.00    -0.000 C 
BRANCH  24  25
ATOM     25  C   UNL     1       1.448   6.955 -17.090  1.00  0.00    -0.000 C 
BRANCH  25  26
ATOM     26  C   UNL     1      -0.075   7.014 -17.318  1.00  0.00    -0.000 C 
BRANCH  26  27
ATOM     27  C   UNL     1      -0.514   7.692 -18.631  1.00  0.00    -0.000 C 
BRANCH  27  28
ATOM     28  C   UNL     1      -1.418   8.924 -18.454  1.00  0.00    -0.000 C 
BRANCH  28  29
ATOM     29  C   UNL     1      -2.058   8.997 -17.063  1.00  0.00    -0.003 C 
ATOM     30  C   UNL     1      -2.528  10.414 -16.748  1.00  0.00     0.004 C 
ENDBRANCH  28  29
ENDBRANCH  27  28
ENDBRANCH  26  27
ENDBRANCH  25  26
ENDBRANCH  24  25
ENDBRANCH  23  24
ENDBRANCH  22  23
ENDBRANCH  21  22
ENDBRANCH  20  21
ENDBRANCH  19  20
ENDBRANCH  18  19
ENDBRANCH  17  18
ENDBRANCH   1  17
TORSDOF 26
ENDMDL
MODEL 2
REMARK VINA RESULT:    -3.440     19.108     21.720
REMARK INTER + INTRA:         -14.810
REMARK INTER:                  -9.993
REMARK INTRA:                  -4.818
REMARK UNBOUND:                -6.143
REMARK SMILES CCCCCCCCCCCCCCCCCCCCCCCCCCCC(=O)[O-]
REMARK SMILES IDX 15 1 16 2 17 3 18 4 19 5 20 6 21 7 22 8 23 9 24 10 25 11
REMARK SMILES IDX 26 12 27 13 28 14 29 15 30 16 14 17 13 18 12 19 11 20 10 21
REMARK SMILES IDX 9 22 8 23 7 24 6 25 5 26 4 27 3 28 2 29 1 30
REMARK H PARENT
REMARK Flexibility Score: inf
ROOT
ATOM      1  C   UNL     1     -11.273  -7.161 -27.993  1.00  0.00     0.000 C 
ENDROOT
BRANCH   1   2
ATOM      2  C   UNL     1     -12.485  -6.937 -28.918  1.00  0.00     0.000 C 
BRANCH   2   3
ATOM      3  C   UNL     1     -13.226  -8.244 -29.238  1.00  0.00     0.000 C 
BRANCH   3   4
ATOM      4  C   UNL     1     -14.328  -8.013 -30.283  1.00  0.00     0.000 C 
BRANCH   4   5
ATOM      5  C   UNL     1     -14.464  -6.536 -30.697  1.00  0.00     0.000 C 
BRANCH   5   6
ATOM      6  C   UNL     1     -15.885  -6.104 -31.106  1.00  0.00     0.000 C 
BRANCH   6   7
ATOM      7  C   UNL     1     -15.891  -5.072 -32.243  1.00  0.00     0.000 C 
BRANCH   7   8
ATOM      8  C   UNL     1     -14.460  -4.673 -32.629  1.00  0.00     0.000 C 
BRANCH   8   9
ATOM      9  C   UNL     1     -14.293  -3.151 -32.797  1.00  0.00     0.000 C 
BRANCH   9  10
ATOM     10  C   UNL     1     -15.457  -2.457 -33.527  1.00  0.00     0.000 C 
BRANCH  10  11
ATOM     11  C   UNL     1     -15.449  -0.932 -33.341  1.00  0.00     0.000 C 
BRANCH  11  12
ATOM     12  C   UNL     1     -14.533  -0.524 -32.178  1.00  0.00     0.006 C 
BRANCH  12  13
ATOM     13  C   UNL     1     -15.201   0.486 -31.234  1.00  0.00     0.053 C 
BRANCH  13  14
ATOM     14  C   UNL     1     -14.217   1.087 -30.277  1.00  0.00     0.041 C 
ATOM     15  O   UNL     1     -14.544   1.295 -29.079  1.00  0.00    -0.550 OA
ATOM     16  O   UNL     1     -12.923   1.369 -30.695  1.00  0.00    -0.550 OA
ENDBRANCH  13  14
ENDBRANCH  12  13
ENDBRANCH  11  12
ENDBRANCH  10  11
ENDBRANCH   9  10
ENDBRANCH   8   9
ENDBRANCH   7   8
ENDBRANCH   6   7
ENDBRANCH   5   6
ENDBRANCH   4   5
ENDBRANCH   3   4
ENDBRANCH   2   3
ENDBRANCH   1   2
BRANCH   1  17
ATOM     17  C   UNL     1     -10.843  -8.634 -27.875  1.00  0.00     0.000 C 
BRANCH  17  18
ATOM     18  C   UNL     1      -9.470  -8.896 -28.517  1.00  0.00     0.000 C 
BRANCH  18  19
ATOM     19  C   UNL     1      -8.314  -8.316 -27.683  1.00  0.00     0.000 C 
BRANCH  19  20
ATOM     20  C   UNL     1      -7.301  -7.507 -28.518  1.00  0.00     0.000 C 
BRANCH  20  21
ATOM     21  C   UNL     1      -7.623  -7.486 -30.025  1.00  0.00     0.000 C 
BRANCH  21  22
ATOM     22  C   UNL     1      -7.855  -6.061 -30.555  1.00  0.00    -0.000 C 
BRANCH  22  23
ATOM     23  C   UNL     1      -9.326  -5.798 -30.930  1.00  0.00    -0.000 C 
BRANCH  23  24
ATOM     24  C   UNL     1      -9.966  -4.573 -30.241  1.00  0.00    -0.000 C 
BRANCH  24  25
ATOM     25  C   UNL     1     -11.268  -4.063 -30.892  1.00  0.00    -0.000 C 
BRANCH  25  26
ATOM     26  C   UNL     1     -11.476  -2.537 -30.815  1.00  0.00    -0.000 C 
BRANCH  26  27
ATOM     27  C   UNL     1     -12.366  -2.057 -29.651  1.00  0.00    -0.000 C 
BRANCH  27  28
ATOM     28  C   UNL     1     -13.515  -3.009 -29.278  1.00  0.00    -0.000 C 
BRANCH  28  29
ATOM     29  C   UNL     1     -14.747  -2.272 -28.739  1.00  0.00    -0.003 C 
ATOM     30  C   UNL     1     -16.028  -2.805 -29.375  1.00  0.00     0.004 C 
ENDBRANCH  28  29
ENDBRANCH  27  28
ENDBRANCH  26  27
ENDBRANCH  25  26
ENDBRANCH  24  25
ENDBRANCH  23  24
ENDBRANCH  22  23
ENDBRANCH  21  22
ENDBRANCH  20  21
ENDBRANCH  19  20
ENDBRANCH  18  19
ENDBRANCH  17  18
ENDBRANCH   1  17
TORSDOF 26
ENDMDL
MODEL 3
REMARK VINA RESULT:    -3.411     17.430     21.486
REMARK INTER + INTRA:         -14.738
REMARK INTER:                  -9.994
REMARK INTRA:                  -4.744
REMARK UNBOUND:                -6.143
REMARK SMILES CCCCCCCCCCCCCCCCCCCCCCCCCCCC(=O)[O-]
REMARK SMILES IDX 15 1 16 2 17 3 18 4 19 5 20 6 21 7 22 8 23 9 24 10 25 11
REMARK SMILES IDX 26 12 27 13 28 14 29 15 30 16 14 17 13 18 12 19 11 20 10 21
REMARK SMILES IDX 9 22 8 23 7 24 6 25 5 26 4 27 3 28 2 29 1 30
REMARK H PARENT
REMARK Flexibility Score: inf
ROOT
ATOM      1  C   UNL     1     -12.687  -8.022 -28.792  1.00  0.00     0.000 C 
ENDROOT
BRANCH   1   2
ATOM      2  C   UNL     1     -11.878  -8.593 -27.612  1.00  0.00     0.000 C 
BRANCH   2   3
ATOM      3  C   UNL     1     -10.479  -9.064 -28.034  1.00  0.00     0.000 C 
BRANCH   3   4
ATOM      4  C   UNL     1      -9.905  -8.167 -29.142  1.00  0.00     0.000 C 
BRANCH   4   5
ATOM      5  C   UNL     1      -9.187  -6.919 -28.595  1.00  0.00     0.000 C 
BRANCH   5   6
ATOM      6  C   UNL     1      -9.103  -5.735 -29.576  1.00  0.00     0.000 C 
BRANCH   6   7
ATOM      7  C   UNL     1     -10.154  -5.809 -30.693  1.00  0.00     0.000 C 
BRANCH   7   8
ATOM      8  C   UNL     1     -11.113  -4.612 -30.621  1.00  0.00     0.000 C 
BRANCH   8   9
ATOM      9  C   UNL     1     -11.917  -4.573 -29.308  1.00  0.00     0.000 C 
BRANCH   9  10
ATOM     10  C   UNL     1     -11.519  -3.437 -28.348  1.00  0.00     0.000 C 
BRANCH  10  11
ATOM     11  C   UNL     1     -10.715  -2.327 -29.042  1.00  0.00     0.000 C 
BRANCH  11  12
ATOM     12  C   UNL     1      -9.308  -2.209 -28.437  1.00  0.00     0.006 C 
BRANCH  12  13
ATOM     13  C   UNL     1      -8.376  -1.336 -29.291  1.00  0.00     0.053 C 
BRANCH  13  14
ATOM     14  C   UNL     1      -9.110  -0.189 -29.917  1.00  0.00     0.041 C 
ATOM     15  O   UNL     1      -9.353  -0.190 -31.152  1.00  0.00    -0.550 OA
ATOM     16  O   UNL     1      -9.568   0.857 -29.127  1.00  0.00    -0.550 OA
ENDBRANCH  13  14
ENDBRANCH  12  13
ENDBRANCH  11  12
ENDBRANCH  10  11
ENDBRANCH   9  10
ENDBRANCH   8   9
ENDBRANCH   7   8
ENDBRANCH   6   7
ENDBRANCH   5   6
ENDBRANCH   4   5
ENDBRANCH   3   4
ENDBRANCH   2   3
ENDBRANCH   1   2
BRANCH   1  17
ATOM     17  C   UNL     1     -13.492  -9.083 -29.566  1.00  0.00     0.000 C 
BRANCH  17  18
ATOM     18  C   UNL     1     -14.610  -8.460 -30.420  1.00  0.00     0.000 C 
BRANCH  18  19
ATOM     19  C   UNL     1     -14.426  -6.944 -30.607  1.00  0.00     0.000 C 
BRANCH  19  20
ATOM     20  C   UNL     1     -15.752  -6.191 -30.843  1.00  0.00     0.000 C 
BRANCH  20  21
ATOM     21  C   UNL     1     -15.710  -5.233 -32.050  1.00  0.00     0.000 C 
BRANCH  21  22
ATOM     22  C   UNL     1     -14.286  -4.737 -32.354  1.00  0.00    -0.000 C 
BRANCH  22  23
ATOM     23  C   UNL     1     -14.247  -3.704 -33.497  1.00  0.00    -0.000 C 
BRANCH  23  24
ATOM     24  C   UNL     1     -15.531  -2.862 -33.661  1.00  0.00    -0.000 C 
BRANCH  24  25
ATOM     25  C   UNL     1     -15.309  -1.338 -33.733  1.00  0.00    -0.000 C 
BRANCH  25  26
ATOM     26  C   UNL     1     -15.447  -0.599 -32.387  1.00  0.00    -0.000 C 
BRANCH  26  27
ATOM     27  C   UNL     1     -14.156  -0.521 -31.549  1.00  0.00    -0.000 C 
BRANCH  27  28
ATOM     28  C   UNL     1     -14.051  -1.563 -30.421  1.00  0.00    -0.000 C 
BRANCH  28  29
ATOM     29  C   UNL     1     -15.417  -2.110 -29.989  1.00  0.00    -0.003 C 
ATOM     30  C   UNL     1     -15.276  -3.066 -28.808  1.00  0.00     0.004 C 
ENDBRANCH  28  29
ENDBRANCH  27  28
ENDBRANCH  26  27
ENDBRANCH  25  26
ENDBRANCH  24  25
ENDBRANCH  23  24
ENDBRANCH  22  23
ENDBRANCH  21  22
ENDBRANCH  20  21
ENDBRANCH  19  20
ENDBRANCH  18  19
ENDBRANCH  17  18
ENDBRANCH   1  17
TORSDOF 26
ENDMDL
MODEL 4
REMARK VINA RESULT:    -3.404     17.461     21.188
REMARK INTER + INTRA:         -14.720
REMARK INTER:                  -9.747
REMARK INTRA:                  -4.973
REMARK UNBOUND:                -6.143
REMARK SMILES CCCCCCCCCCCCCCCCCCCCCCCCCCCC(=O)[O-]
REMARK SMILES IDX 15 1 16 2 17 3 18 4 19 5 20 6 21 7 22 8 23 9 24 10 25 11
REMARK SMILES IDX 26 12 27 13 28 14 29 15 30 16 14 17 13 18 12 19 11 20 10 21
REMARK SMILES IDX 9 22 8 23 7 24 6 25 5 26 4 27 3 28 2 29 1 30
REMARK H PARENT
REMARK Flexibility Score: inf
ROOT
ATOM      1  C   UNL     1     -14.255  -4.722 -31.920  1.00  0.00     0.000 C 
ENDROOT
BRANCH   1   2
ATOM      2  C   UNL     1     -15.662  -5.131 -31.442  1.00  0.00     0.000 C 
BRANCH   2   3
ATOM      3  C   UNL     1     -15.672  -6.509 -30.762  1.00  0.00     0.000 C 
BRANCH   3   4
ATOM      4  C   UNL     1     -14.242  -7.010 -30.507  1.00  0.00     0.000 C 
BRANCH   4   5
ATOM      5  C   UNL     1     -14.186  -8.501 -30.125  1.00  0.00     0.000 C 
BRANCH   5   6
ATOM      6  C   UNL     1     -12.895  -8.940 -29.410  1.00  0.00     0.000 C 
BRANCH   6   7
ATOM      7  C   UNL     1     -12.805  -8.422 -27.967  1.00  0.00     0.000 C 
BRANCH   7   8
ATOM      8  C   UNL     1     -11.419  -7.825 -27.685  1.00  0.00     0.000 C 
BRANCH   8   9
ATOM      9  C   UNL     1     -10.392  -8.169 -28.780  1.00  0.00     0.000 C 
BRANCH   9  10
ATOM     10  C   UNL     1      -9.712  -6.947 -29.426  1.00  0.00     0.000 C 
BRANCH  10  11
ATOM     11  C   UNL     1     -10.721  -5.928 -29.976  1.00  0.00     0.000 C 
BRANCH  11  12
ATOM     12  C   UNL     1     -10.089  -5.072 -31.084  1.00  0.00     0.006 C 
BRANCH  12  13
ATOM     13  C   UNL     1     -10.560  -3.612 -31.034  1.00  0.00     0.053 C 
BRANCH  13  14
ATOM     14  C   UNL     1      -9.459  -2.687 -30.614  1.00  0.00     0.041 C 
ATOM     15  O   UNL     1      -9.378  -1.532 -31.107  1.00  0.00    -0.550 OA
ATOM     16  O   UNL     1      -8.552  -3.083 -29.639  1.00  0.00    -0.550 OA
ENDBRANCH  13  14
ENDBRANCH  12  13
ENDBRANCH  11  12
ENDBRANCH  10  11
ENDBRANCH   9  10
ENDBRANCH   8   9
ENDBRANCH   7   8
ENDBRANCH   6   7
ENDBRANCH   5   6
ENDBRANCH   4   5
ENDBRANCH   3   4
ENDBRANCH   2   3
ENDBRANCH   1   2
BRANCH   1  17
ATOM     17  C   UNL     1     -14.256  -3.882 -33.210  1.00  0.00     0.000 C 
BRANCH  17  18
ATOM     18  C   UNL     1     -15.501  -2.986 -33.323  1.00  0.00     0.000 C 
BRANCH  18  19
ATOM     19  C   UNL     1     -15.225  -1.702 -34.126  1.00  0.00     0.000 C 
BRANCH  19  20
ATOM     20  C   UNL     1     -15.199  -0.429 -33.255  1.00  0.00     0.000 C 
BRANCH  20  21
ATOM     21  C   UNL     1     -15.179  -0.719 -31.741  1.00  0.00     0.000 C 
BRANCH  21  22
ATOM     22  C   UNL     1     -13.773  -0.573 -31.136  1.00  0.00    -0.000 C 
BRANCH  22  23
ATOM     23  C   UNL     1     -13.461  -1.657 -30.086  1.00  0.00    -0.000 C 
BRANCH  23  24
ATOM     24  C   UNL     1     -14.484  -1.762 -28.933  1.00  0.00    -0.000 C 
BRANCH  24  25
ATOM     25  C   UNL     1     -14.697  -3.183 -28.375  1.00  0.00    -0.000 C 
BRANCH  25  26
ATOM     26  C   UNL     1     -13.496  -4.134 -28.549  1.00  0.00    -0.000 C 
BRANCH  26  27
ATOM     27  C   UNL     1     -12.562  -4.237 -27.326  1.00  0.00    -0.000 C 
BRANCH  27  28
ATOM     28  C   UNL     1     -11.328  -3.319 -27.374  1.00  0.00    -0.000 C 
BRANCH  28  29
ATOM     29  C   UNL     1     -10.594  -3.240 -26.030  1.00  0.00    -0.003 C 
ATOM     30  C   UNL     1     -11.243  -2.209 -25.110  1.00  0.00     0.004 C 
ENDBRANCH  28  29
ENDBRANCH  27  28
ENDBRANCH  26  27
ENDBRANCH  25  26
ENDBRANCH  24  25
ENDBRANCH  23  24
ENDBRANCH  22  23
ENDBRANCH  21  22
ENDBRANCH  20  21
ENDBRANCH  19  20
ENDBRANCH  18  19
ENDBRANCH  17  18
ENDBRANCH   1  17
TORSDOF 26
ENDMDL
MODEL 5
REMARK VINA RESULT:    -3.372     17.596     21.376
REMARK INTER + INTRA:         -14.639
REMARK INTER:                  -9.759
REMARK INTRA:                  -4.880
REMARK UNBOUND:                -6.143
REMARK SMILES CCCCCCCCCCCCCCCCCCCCCCCCCCCC(=O)[O-]
REMARK SMILES IDX 15 1 16 2 17 3 18 4 19 5 20 6 21 7 22 8 23 9 24 10 25 11
REMARK SMILES IDX 26 12 27 13 28 14 29 15 30 16 14 17 13 18 12 19 11 20 10 21
REMARK SMILES IDX 9 22 8 23 7 24 6 25 5 26 4 27 3 28 2 29 1 30
REMARK H PARENT
REMARK Flexibility Score: inf
ROOT
ATOM      1  C   UNL     1     -15.531  -5.723 -30.589  1.00  0.00     0.000 C 
ENDROOT
BRANCH   1   2
ATOM      2  C   UNL     1     -14.306  -6.646 -30.444  1.00  0.00     0.000 C 
BRANCH   2   3
ATOM      3  C   UNL     1     -14.683  -8.134 -30.505  1.00  0.00     0.000 C 
BRANCH   3   4
ATOM      4  C   UNL     1     -13.654  -8.996 -29.759  1.00  0.00     0.000 C 
BRANCH   4   5
ATOM      5  C   UNL     1     -12.783  -8.184 -28.783  1.00  0.00     0.000 C 
BRANCH   5   6
ATOM      6  C   UNL     1     -11.700  -8.996 -28.047  1.00  0.00     0.000 C 
BRANCH   6   7
ATOM      7  C   UNL     1     -10.284  -8.717 -28.572  1.00  0.00     0.000 C 
BRANCH   7   8
ATOM      8  C   UNL     1      -9.771  -7.361 -28.067  1.00  0.00     0.000 C 
BRANCH   8   9
ATOM      9  C   UNL     1      -9.141  -6.511 -29.186  1.00  0.00     0.000 C 
BRANCH   9  10
ATOM     10  C   UNL     1      -9.926  -6.515 -30.511  1.00  0.00     0.000 C 
BRANCH  10  11
ATOM     11  C   UNL     1     -10.437  -5.120 -30.902  1.00  0.00     0.000 C 
BRANCH  11  12
ATOM     12  C   UNL     1      -9.349  -4.057 -30.688  1.00  0.00     0.006 C 
BRANCH  12  13
ATOM     13  C   UNL     1      -9.871  -2.632 -30.924  1.00  0.00     0.053 C 
BRANCH  13  14
ATOM     14  C   UNL     1      -9.573  -1.732 -29.763  1.00  0.00     0.041 C 
ATOM     15  O   UNL     1      -9.356  -2.220 -28.622  1.00  0.00    -0.550 OA
ATOM     16  O   UNL     1      -9.485  -0.359 -29.951  1.00  0.00    -0.550 OA
ENDBRANCH  13  14
ENDBRANCH  12  13
ENDBRANCH  11  12
ENDBRANCH  10  11
ENDBRANCH   9  10
ENDBRANCH   8   9
ENDBRANCH   7   8
ENDBRANCH   6   7
ENDBRANCH   5   6
ENDBRANCH   4   5
ENDBRANCH   3   4
ENDBRANCH   2   3
ENDBRANCH   1   2
BRANCH   1  17
ATOM     17  C   UNL     1     -15.197  -4.329 -31.153  1.00  0.00     0.000 C 
BRANCH  17  18
ATOM     18  C   UNL     1     -13.977  -4.355 -32.091  1.00  0.00     0.000 C 
BRANCH  18  19
ATOM     19  C   UNL     1     -14.263  -3.672 -33.440  1.00  0.00     0.000 C 
BRANCH  19  20
ATOM     20  C   UNL     1     -15.683  -3.076 -33.536  1.00  0.00     0.000 C 
BRANCH  20  21
ATOM     21  C   UNL     1     -15.713  -1.653 -34.129  1.00  0.00     0.000 C 
BRANCH  21  22
ATOM     22  C   UNL     1     -14.783  -0.686 -33.379  1.00  0.00    -0.000 C 
BRANCH  22  23
ATOM     23  C   UNL     1     -15.297  -0.339 -31.968  1.00  0.00    -0.000 C 
BRANCH  23  24
ATOM     24  C   UNL     1     -14.390   0.612 -31.158  1.00  0.00    -0.000 C 
BRANCH  24  25
ATOM     25  C   UNL     1     -13.064  -0.007 -30.670  1.00  0.00    -0.000 C 
BRANCH  25  26
ATOM     26  C   UNL     1     -13.195  -1.414 -30.053  1.00  0.00    -0.000 C 
BRANCH  26  27
ATOM     27  C   UNL     1     -14.106  -1.501 -28.812  1.00  0.00    -0.000 C 
BRANCH  27  28
ATOM     28  C   UNL     1     -13.895  -2.751 -27.940  1.00  0.00    -0.000 C 
BRANCH  28  29
ATOM     29  C   UNL     1     -12.819  -3.690 -28.497  1.00  0.00    -0.003 C 
ATOM     30  C   UNL     1     -12.549  -4.846 -27.538  1.00  0.00     0.004 C 
ENDBRANCH  28  29
ENDBRANCH  27  28
ENDBRANCH  26  27
ENDBRANCH  25  26
ENDBRANCH  24  25
ENDBRANCH  23  24
ENDBRANCH  22  23
ENDBRANCH  21  22
ENDBRANCH  20  21
ENDBRANCH  19  20
ENDBRANCH  18  19
ENDBRANCH  17  18
ENDBRANCH   1  17
TORSDOF 26
ENDMDL
MODEL 6
REMARK VINA RESULT:    -3.349     17.308     21.573
REMARK INTER + INTRA:         -14.583
REMARK INTER:                  -9.882
REMARK INTRA:                  -4.701
REMARK UNBOUND:                -6.143
REMARK SMILES CCCCCCCCCCCCCCCCCCCCCCCCCCCC(=O)[O-]
REMARK SMILES IDX 15 1 16 2 17 3 18 4 19 5 20 6 21 7 22 8 23 9 24 10 25 11
REMARK SMILES IDX 26 12 27 13 28 14 29 15 30 16 14 17 13 18 12 19 11 20 10 21
REMARK SMILES IDX 9 22 8 23 7 24 6 25 5 26 4 27 3 28 2 29 1 30
REMARK H PARENT
REMARK Flexibility Score: inf
ROOT
ATOM      1  C   UNL     1     -14.400  -4.454 -32.651  1.00  0.00     0.000 C 
ENDROOT
BRANCH   1   2
ATOM      2  C   UNL     1     -14.397  -3.285 -33.654  1.00  0.00     0.000 C 
BRANCH   2   3
ATOM      3  C   UNL     1     -15.616  -2.365 -33.485  1.00  0.00     0.000 C 
BRANCH   3   4
ATOM      4  C   UNL     1     -15.184  -0.897 -33.345  1.00  0.00     0.000 C 
BRANCH   4   5
ATOM      5  C   UNL     1     -15.051  -0.446 -31.878  1.00  0.00     0.000 C 
BRANCH   5   6
ATOM      6  C   UNL     1     -15.702  -1.387 -30.847  1.00  0.00     0.000 C 
BRANCH   6   7
ATOM      7  C   UNL     1     -14.801  -1.661 -29.635  1.00  0.00     0.000 C 
BRANCH   7   8
ATOM      8  C   UNL     1     -13.472  -2.294 -30.074  1.00  0.00     0.000 C 
BRANCH   8   9
ATOM      9  C   UNL     1     -12.695  -2.916 -28.898  1.00  0.00     0.000 C 
BRANCH   9  10
ATOM     10  C   UNL     1     -12.019  -4.261 -29.218  1.00  0.00     0.000 C 
BRANCH  10  11
ATOM     11  C   UNL     1     -11.357  -4.279 -30.604  1.00  0.00     0.000 C 
BRANCH  11  12
ATOM     12  C   UNL     1      -9.832  -4.137 -30.486  1.00  0.00     0.006 C 
BRANCH  12  13
ATOM     13  C   UNL     1      -9.291  -2.954 -31.302  1.00  0.00     0.053 C 
BRANCH  13  14
ATOM     14  C   UNL     1      -8.947  -1.787 -30.427  1.00  0.00     0.041 C 
ATOM     15  O   UNL     1      -8.793  -0.643 -30.928  1.00  0.00    -0.550 OA
ATOM     16  O   UNL     1      -8.849  -1.954 -29.052  1.00  0.00    -0.550 OA
ENDBRANCH  13  14
ENDBRANCH  12  13
ENDBRANCH  11  12
ENDBRANCH  10  11
ENDBRANCH   9  10
ENDBRANCH   8   9
ENDBRANCH   7   8
ENDBRANCH   6   7
ENDBRANCH   5   6
ENDBRANCH   4   5
ENDBRANCH   3   4
ENDBRANCH   2   3
ENDBRANCH   1   2
BRANCH   1  17
ATOM     17  C   UNL     1     -15.801  -4.829 -32.135  1.00  0.00     0.000 C 
BRANCH  17  18
ATOM     18  C   UNL     1     -15.754  -5.498 -30.750  1.00  0.00     0.000 C 
BRANCH  18  19
ATOM     19  C   UNL     1     -14.494  -6.361 -30.561  1.00  0.00     0.000 C 
BRANCH  19  20
ATOM     20  C   UNL     1     -14.778  -7.877 -30.604  1.00  0.00     0.000 C 
BRANCH  20  21
ATOM     21  C   UNL     1     -13.880  -8.699 -29.659  1.00  0.00     0.000 C 
BRANCH  21  22
ATOM     22  C   UNL     1     -12.723  -7.867 -29.081  1.00  0.00    -0.000 C 
BRANCH  22  23
ATOM     23  C   UNL     1     -11.900  -8.640 -28.032  1.00  0.00    -0.000 C 
BRANCH  23  24
ATOM     24  C   UNL     1     -10.370  -8.592 -28.238  1.00  0.00    -0.000 C 
BRANCH  24  25
ATOM     25  C   UNL     1      -9.896  -7.706 -29.407  1.00  0.00    -0.000 C 
BRANCH  25  26
ATOM     26  C   UNL     1      -8.449  -7.967 -29.872  1.00  0.00    -0.000 C 
BRANCH  26  27
ATOM     27  C   UNL     1      -7.484  -6.777 -29.706  1.00  0.00    -0.000 C 
BRANCH  27  28
ATOM     28  C   UNL     1      -7.125  -6.431 -28.250  1.00  0.00    -0.000 C 
BRANCH  28  29
ATOM     29  C   UNL     1      -7.633  -5.048 -27.825  1.00  0.00    -0.003 C 
ATOM     30  C   UNL     1      -8.887  -5.165 -26.964  1.00  0.00     0.004 C 
ENDBRANCH  28  29
ENDBRANCH  27  28
ENDBRANCH  26  27
ENDBRANCH  25  26
ENDBRANCH  24  25
ENDBRANCH  23  24
ENDBRANCH  22  23
ENDBRANCH  21  22
ENDBRANCH  20  21
ENDBRANCH  19  20
ENDBRANCH  18  19
ENDBRANCH  17  18
ENDBRANCH   1  17
TORSDOF 26
ENDMDL
MODEL 7
REMARK VINA RESULT:    -3.339     18.629     22.003
REMARK INTER + INTRA:         -14.557
REMARK INTER:                 -10.166
REMARK INTRA:                  -4.391
REMARK UNBOUND:                -6.143
REMARK SMILES CCCCCCCCCCCCCCCCCCCCCCCCCCCC(=O)[O-]
REMARK SMILES IDX 15 1 16 2 17 3 18 4 19 5 20 6 21 7 22 8 23 9 24 10 25 11
REMARK SMILES IDX 26 12 27 13 28 14 29 15 30 16 14 17 13 18 12 19 11 20 10 21
REMARK SMILES IDX 9 22 8 23 7 24 6 25 5 26 4 27 3 28 2 29 1 30
REMARK H PARENT
REMARK Flexibility Score: inf
ROOT
ATOM      1  C   UNL     1     -12.680  -7.863 -28.738  1.00  0.00     0.000 C 
ENDROOT
BRANCH   1   2
ATOM      2  C   UNL     1     -11.501  -8.408 -27.910  1.00  0.00     0.000 C 
BRANCH   2   3
ATOM      3  C   UNL     1     -10.235  -8.610 -28.756  1.00  0.00     0.000 C 
BRANCH   3   4
ATOM      4  C   UNL     1      -9.428  -7.307 -28.864  1.00  0.00     0.000 C 
BRANCH   4   5
ATOM      5  C   UNL     1      -8.821  -7.089 -30.263  1.00  0.00     0.000 C 
BRANCH   5   6
ATOM      6  C   UNL     1      -9.200  -5.757 -30.936  1.00  0.00     0.000 C 
BRANCH   6   7
ATOM      7  C   UNL     1     -10.664  -5.362 -30.697  1.00  0.00     0.000 C 
BRANCH   7   8
ATOM      8  C   UNL     1     -10.869  -3.857 -30.920  1.00  0.00     0.000 C 
BRANCH   8   9
ATOM      9  C   UNL     1     -11.976  -3.270 -30.025  1.00  0.00     0.000 C 
BRANCH   9  10
ATOM     10  C   UNL     1     -12.457  -4.210 -28.904  1.00  0.00     0.000 C 
BRANCH  10  11
ATOM     11  C   UNL     1     -13.658  -3.645 -28.130  1.00  0.00     0.000 C 
BRANCH  11  12
ATOM     12  C   UNL     1     -14.815  -3.306 -29.082  1.00  0.00     0.006 C 
BRANCH  12  13
ATOM     13  C   UNL     1     -16.006  -2.671 -28.350  1.00  0.00     0.053 C 
BRANCH  13  14
ATOM     14  C   UNL     1     -15.559  -1.721 -27.281  1.00  0.00     0.041 C 
ATOM     15  O   UNL     1     -15.610  -2.060 -26.070  1.00  0.00    -0.550 OA
ATOM     16  O   UNL     1     -15.038  -0.481 -27.626  1.00  0.00    -0.550 OA
ENDBRANCH  13  14
ENDBRANCH  12  13
ENDBRANCH  11  12
ENDBRANCH  10  11
ENDBRANCH   9  10
ENDBRANCH   8   9
ENDBRANCH   7   8
ENDBRANCH   6   7
ENDBRANCH   5   6
ENDBRANCH   4   5
ENDBRANCH   3   4
ENDBRANCH   2   3
ENDBRANCH   1   2
BRANCH   1  17
ATOM     17  C   UNL     1     -13.455  -8.947 -29.508  1.00  0.00     0.000 C 
BRANCH  17  18
ATOM     18  C   UNL     1     -14.627  -8.366 -30.318  1.00  0.00     0.000 C 
BRANCH  18  19
ATOM     19  C   UNL     1     -14.446  -6.866 -30.613  1.00  0.00     0.000 C 
BRANCH  19  20
ATOM     20  C   UNL     1     -15.771  -6.137 -30.917  1.00  0.00     0.000 C 
BRANCH  20  21
ATOM     21  C   UNL     1     -15.680  -5.167 -32.111  1.00  0.00     0.000 C 
BRANCH  21  22
ATOM     22  C   UNL     1     -14.245  -4.672 -32.355  1.00  0.00    -0.000 C 
BRANCH  22  23
ATOM     23  C   UNL     1     -14.168  -3.577 -33.436  1.00  0.00    -0.000 C 
BRANCH  23  24
ATOM     24  C   UNL     1     -15.410  -2.663 -33.528  1.00  0.00    -0.000 C 
BRANCH  24  25
ATOM     25  C   UNL     1     -15.110  -1.151 -33.535  1.00  0.00    -0.000 C 
BRANCH  25  26
ATOM     26  C   UNL     1     -15.410  -0.425 -32.209  1.00  0.00    -0.000 C 
BRANCH  26  27
ATOM     27  C   UNL     1     -14.315  -0.554 -31.131  1.00  0.00    -0.000 C 
BRANCH  27  28
ATOM     28  C   UNL     1     -13.427   0.691 -30.957  1.00  0.00    -0.000 C 
BRANCH  28  29
ATOM     29  C   UNL     1     -12.190   0.422 -30.092  1.00  0.00    -0.003 C 
ATOM     30  C   UNL     1     -10.945   0.241 -30.956  1.00  0.00     0.004 C 
ENDBRANCH  28  29
ENDBRANCH  27  28
ENDBRANCH  26  27
ENDBRANCH  25  26
ENDBRANCH  24  25
ENDBRANCH  23  24
ENDBRANCH  22  23
ENDBRANCH  21  22
ENDBRANCH  20  21
ENDBRANCH  19  20
ENDBRANCH  18  19
ENDBRANCH  17  18
ENDBRANCH   1  17
TORSDOF 26
ENDMDL
MODEL 8
REMARK VINA RESULT:    -3.332     18.588     21.986
REMARK INTER + INTRA:         -14.540
REMARK INTER:                  -9.629
REMARK INTRA:                  -4.911
REMARK UNBOUND:                -6.143
REMARK SMILES CCCCCCCCCCCCCCCCCCCCCCCCCCCC(=O)[O-]
REMARK SMILES IDX 15 1 16 2 17 3 18 4 19 5 20 6 21 7 22 8 23 9 24 10 25 11
REMARK SMILES IDX 26 12 27 13 28 14 29 15 30 16 14 17 13 18 12 19 11 20 10 21
REMARK SMILES IDX 9 22 8 23 7 24 6 25 5 26 4 27 3 28 2 29 1 30
REMARK H PARENT
REMARK Flexibility Score: inf
ROOT
ATOM      1  C   UNL     1     -14.672  -5.095 -30.442  1.00  0.00     0.000 C 
ENDROOT
BRANCH   1   2
ATOM      2  C   UNL     1     -13.991  -6.477 -30.410  1.00  0.00     0.000 C 
BRANCH   2   3
ATOM      3  C   UNL     1     -14.988  -7.625 -30.630  1.00  0.00     0.000 C 
BRANCH   3   4
ATOM      4  C   UNL     1     -14.398  -8.965 -30.165  1.00  0.00     0.000 C 
BRANCH   4   5
ATOM      5  C   UNL     1     -12.955  -8.838 -29.642  1.00  0.00     0.000 C 
BRANCH   5   6
ATOM      6  C   UNL     1     -12.801  -8.987 -28.117  1.00  0.00     0.000 C 
BRANCH   6   7
ATOM      7  C   UNL     1     -11.410  -8.575 -27.613  1.00  0.00     0.000 C 
BRANCH   7   8
ATOM      8  C   UNL     1     -10.811  -7.473 -28.498  1.00  0.00     0.000 C 
BRANCH   8   9
ATOM      9  C   UNL     1     -10.811  -6.095 -27.810  1.00  0.00     0.000 C 
BRANCH   9  10
ATOM     10  C   UNL     1     -12.189  -5.410 -27.750  1.00  0.00     0.000 C 
BRANCH  10  11
ATOM     11  C   UNL     1     -12.216  -4.211 -26.790  1.00  0.00     0.000 C 
BRANCH  11  12
ATOM     12  C   UNL     1     -13.553  -3.462 -26.884  1.00  0.00     0.006 C 
BRANCH  12  13
ATOM     13  C   UNL     1     -13.574  -2.193 -26.019  1.00  0.00     0.053 C 
BRANCH  13  14
ATOM     14  C   UNL     1     -14.949  -1.605 -25.928  1.00  0.00     0.041 C 
ATOM     15  O   UNL     1     -15.190  -0.681 -25.109  1.00  0.00    -0.550 OA
ATOM     16  O   UNL     1     -15.952  -2.044 -26.783  1.00  0.00    -0.550 OA
ENDBRANCH  13  14
ENDBRANCH  12  13
ENDBRANCH  11  12
ENDBRANCH  10  11
ENDBRANCH   9  10
ENDBRANCH   8   9
ENDBRANCH   7   8
ENDBRANCH   6   7
ENDBRANCH   5   6
ENDBRANCH   4   5
ENDBRANCH   3   4
ENDBRANCH   2   3
ENDBRANCH   1   2
BRANCH   1  17
ATOM     17  C   UNL     1     -16.057  -5.098 -31.114  1.00  0.00     0.000 C 
BRANCH  17  18
ATOM     18  C   UNL     1     -16.107  -4.187 -32.353  1.00  0.00     0.000 C 
BRANCH  18  19
ATOM     19  C   UNL     1     -14.708  -3.904 -32.928  1.00  0.00     0.000 C 
BRANCH  19  20
ATOM     20  C   UNL     1     -14.661  -2.664 -33.844  1.00  0.00     0.000 C 
BRANCH  20  21
ATOM     21  C   UNL     1     -15.681  -1.575 -33.458  1.00  0.00     0.000 C 
BRANCH  21  22
ATOM     22  C   UNL     1     -15.023  -0.199 -33.263  1.00  0.00    -0.000 C 
BRANCH  22  23
ATOM     23  C   UNL     1     -15.053   0.273 -31.797  1.00  0.00    -0.000 C 
BRANCH  23  24
ATOM     24  C   UNL     1     -15.592  -0.764 -30.788  1.00  0.00    -0.000 C 
BRANCH  24  25
ATOM     25  C   UNL     1     -14.511  -1.543 -30.010  1.00  0.00    -0.000 C 
BRANCH  25  26
ATOM     26  C   UNL     1     -13.080  -1.390 -30.562  1.00  0.00    -0.000 C 
BRANCH  26  27
ATOM     27  C   UNL     1     -12.056  -2.403 -30.013  1.00  0.00    -0.000 C 
BRANCH  27  28
ATOM     28  C   UNL     1     -11.537  -3.423 -31.041  1.00  0.00    -0.000 C 
BRANCH  28  29
ATOM     29  C   UNL     1     -10.101  -3.877 -30.756  1.00  0.00    -0.003 C 
ATOM     30  C   UNL     1      -9.102  -2.765 -31.064  1.00  0.00     0.004 C 
ENDBRANCH  28  29
ENDBRANCH  27  28
ENDBRANCH  26  27
ENDBRANCH  25  26
ENDBRANCH  24  25
ENDBRANCH  23  24
ENDBRANCH  22  23
ENDBRANCH  21  22
ENDBRANCH  20  21
ENDBRANCH  19  20
ENDBRANCH  18  19
ENDBRANCH  17  18
ENDBRANCH   1  17
TORSDOF 26
ENDMDL
MODEL 9
REMARK VINA RESULT:    -3.330     18.409     21.698
REMARK INTER + INTRA:         -14.535
REMARK INTER:                 -10.363
REMARK INTRA:                  -4.173
REMARK UNBOUND:                -6.143
REMARK SMILES CCCCCCCCCCCCCCCCCCCCCCCCCCCC(=O)[O-]
REMARK SMILES IDX 15 1 16 2 17 3 18 4 19 5 20 6 21 7 22 8 23 9 24 10 25 11
REMARK SMILES IDX 26 12 27 13 28 14 29 15 30 16 14 17 13 18 12 19 11 20 10 21
REMARK SMILES IDX 9 22 8 23 7 24 6 25 5 26 4 27 3 28 2 29 1 30
REMARK H PARENT
REMARK Flexibility Score: inf
ROOT
ATOM      1  C   UNL     1     -13.630  -7.465 -29.854  1.00  0.00     0.000 C 
ENDROOT
BRANCH   1   2
ATOM      2  C   UNL     1     -14.926  -7.687 -30.658  1.00  0.00     0.000 C 
BRANCH   2   3
ATOM      3  C   UNL     1     -15.584  -6.367 -31.085  1.00  0.00     0.000 C 
BRANCH   3   4
ATOM      4  C   UNL     1     -15.106  -5.201 -30.206  1.00  0.00     0.000 C 
BRANCH   4   5
ATOM      5  C   UNL     1     -14.705  -3.958 -31.021  1.00  0.00     0.000 C 
BRANCH   5   6
ATOM      6  C   UNL     1     -13.803  -4.241 -32.237  1.00  0.00     0.000 C 
BRANCH   6   7
ATOM      7  C   UNL     1     -14.426  -3.781 -33.563  1.00  0.00     0.000 C 
BRANCH   7   8
ATOM      8  C   UNL     1     -15.652  -2.892 -33.312  1.00  0.00     0.000 C 
BRANCH   8   9
ATOM      9  C   UNL     1     -15.571  -1.546 -34.056  1.00  0.00     0.000 C 
BRANCH   9  10
ATOM     10  C   UNL     1     -14.997  -0.387 -33.220  1.00  0.00     0.000 C 
BRANCH  10  11
ATOM     11  C   UNL     1     -15.252  -0.557 -31.715  1.00  0.00     0.000 C 
BRANCH  11  12
ATOM     12  C   UNL     1     -13.977  -0.275 -30.907  1.00  0.00     0.006 C 
BRANCH  12  13
ATOM     13  C   UNL     1     -14.265   0.501 -29.613  1.00  0.00     0.053 C 
BRANCH  13  14
ATOM     14  C   UNL     1     -13.128   1.403 -29.241  1.00  0.00     0.041 C 
ATOM     15  O   UNL     1     -12.767   2.323 -30.021  1.00  0.00    -0.550 OA
ATOM     16  O   UNL     1     -12.500   1.259 -28.011  1.00  0.00    -0.550 OA
ENDBRANCH  13  14
ENDBRANCH  12  13
ENDBRANCH  11  12
ENDBRANCH  10  11
ENDBRANCH   9  10
ENDBRANCH   8   9
ENDBRANCH   7   8
ENDBRANCH   6   7
ENDBRANCH   5   6
ENDBRANCH   4   5
ENDBRANCH   3   4
ENDBRANCH   2   3
ENDBRANCH   1   2
BRANCH   1  17
ATOM     17  C   UNL     1     -13.088  -8.739 -29.180  1.00  0.00     0.000 C 
BRANCH  17  18
ATOM     18  C   UNL     1     -12.370  -8.438 -27.853  1.00  0.00     0.000 C 
BRANCH  18  19
ATOM     19  C   UNL     1     -10.849  -8.650 -27.951  1.00  0.00     0.000 C 
BRANCH  19  20
ATOM     20  C   UNL     1     -10.112  -7.492 -28.654  1.00  0.00     0.000 C 
BRANCH  20  21
ATOM     21  C   UNL     1      -9.067  -7.963 -29.684  1.00  0.00     0.000 C 
BRANCH  21  22
ATOM     22  C   UNL     1      -8.579  -6.819 -30.588  1.00  0.00    -0.000 C 
BRANCH  22  23
ATOM     23  C   UNL     1      -9.656  -5.739 -30.815  1.00  0.00    -0.000 C 
BRANCH  23  24
ATOM     24  C   UNL     1      -9.230  -4.304 -30.437  1.00  0.00    -0.000 C 
BRANCH  24  25
ATOM     25  C   UNL     1     -10.136  -3.186 -30.992  1.00  0.00    -0.000 C 
BRANCH  25  26
ATOM     26  C   UNL     1     -11.345  -2.831 -30.103  1.00  0.00    -0.000 C 
BRANCH  26  27
ATOM     27  C   UNL     1     -11.178  -3.169 -28.608  1.00  0.00    -0.000 C 
BRANCH  27  28
ATOM     28  C   UNL     1     -12.193  -4.185 -28.056  1.00  0.00    -0.000 C 
BRANCH  28  29
ATOM     29  C   UNL     1     -13.460  -3.520 -27.504  1.00  0.00    -0.003 C 
ATOM     30  C   UNL     1     -13.163  -2.114 -26.993  1.00  0.00     0.004 C 
ENDBRANCH  28  29
ENDBRANCH  27  28
ENDBRANCH  26  27
ENDBRANCH  25  26
ENDBRANCH  24  25
ENDBRANCH  23  24
ENDBRANCH  22  23
ENDBRANCH  21  22
ENDBRANCH  20  21
ENDBRANCH  19  20
ENDBRANCH  18  19
ENDBRANCH  17  18
ENDBRANCH   1  17
TORSDOF 26
ENDMDL
