MODEL 1
REMARK VINA RESULT:    -3.799      0.000      0.000
REMARK INTER + INTRA:          -8.474
REMARK INTER:                  -6.907
REMARK INTRA:                  -1.567
REMARK UNBOUND:                -1.567
REMARK SMILES CCCCCCCCCCCCCCCC(=O)[O-]
REMARK SMILES IDX 9 1 10 2 11 3 12 4 13 5 14 6 15 7 16 8 17 9 18 10 8 11 7 12
REMARK SMILES IDX 6 13 5 14 4 15 3 16 2 17 1 18
REMARK H PARENT
REMARK Flexibility Score: inf
ROOT
ATOM      1  C   UNL     1      43.725  27.103   2.130  1.00  0.00     0.000 C 
ENDROOT
BRANCH   1   2
ATOM      2  C   UNL     1      42.762  28.260   2.456  1.00  0.00     0.000 C 
BRANCH   2   3
ATOM      3  C   UNL     1      43.469  29.624   2.535  1.00  0.00     0.000 C 
BRANCH   3   4
ATOM      4  C   UNL     1      44.394  29.893   1.334  1.00  0.00     0.000 C 
BRANCH   4   5
ATOM      5  C   UNL     1      45.887  30.052   1.676  1.00  0.00     0.000 C 
BRANCH   5   6
ATOM      6  C   UNL     1      46.816  29.450   0.611  1.00  0.00     0.006 C 
BRANCH   6   7
ATOM      7  C   UNL     1      46.041  28.533  -0.340  1.00  0.00     0.053 C 
BRANCH   7   8
ATOM      8  C   UNL     1      46.703  28.488  -1.680  1.00  0.00     0.041 C 
ATOM      9  O   UNL     1      47.043  27.384  -2.183  1.00  0.00    -0.550 OA
ATOM     10  O   UNL     1      46.897  29.661  -2.399  1.00  0.00    -0.550 OA
ENDBRANCH   7   8
ENDBRANCH   6   7
ENDBRANCH   5   6
ENDBRANCH   4   5
ENDBRANCH   3   4
ENDBRANCH   2   3
ENDBRANCH   1   2
BRANCH   1  11
ATOM     11  C   UNL     1      44.456  26.497   3.343  1.00  0.00     0.000 C 
BRANCH  11  12
ATOM     12  C   UNL     1      45.965  26.783   3.339  1.00  0.00    -0.000 C 
BRANCH  12  13
ATOM     13  C   UNL     1      46.382  27.542   4.608  1.00  0.00    -0.000 C 
BRANCH  13  14
ATOM     14  C   UNL     1      46.101  26.749   5.893  1.00  0.00    -0.000 C 
BRANCH  14  15
ATOM     15  C   UNL     1      46.703  27.412   7.144  1.00  0.00    -0.000 C 
BRANCH  15  16
ATOM     16  C   UNL     1      45.806  28.539   7.697  1.00  0.00    -0.000 C 
BRANCH  16  17
ATOM     17  C   UNL     1      45.223  28.234   9.088  1.00  0.00    -0.003 C 
ATOM     18  C   UNL     1      45.461  26.793   9.535  1.00  0.00     0.004 C 
ENDBRANCH  16  17
ENDBRANCH  15  16
ENDBRANCH  14  15
ENDBRANCH  13  14
ENDBRANCH  12  13
ENDBRANCH  11  12
ENDBRANCH   1  11
TORSDOF 14
ENDMDL
MODEL 2
REMARK VINA RESULT:    -3.677      3.943      7.639
REMARK INTER + INTRA:          -8.253
REMARK INTER:                  -6.515
REMARK INTRA:                  -1.738
REMARK UNBOUND:                -1.567
REMARK SMILES CCCCCCCCCCCCCCCC(=O)[O-]
REMARK SMILES IDX 9 1 10 2 11 3 12 4 13 5 14 6 15 7 16 8 17 9 18 10 8 11 7 12
REMARK SMILES IDX 6 13 5 14 4 15 3 16 2 17 1 18
REMARK H PARENT
REMARK Flexibility Score: inf
ROOT
ATOM      1  C   UNL     1      43.784  27.102   2.186  1.00  0.00     0.000 C 
ENDROOT
BRANCH   1   2
ATOM      2  C   UNL     1      44.581  26.694   3.440  1.00  0.00     0.000 C 
BRANCH   2   3
ATOM      3  C   UNL     1      46.094  26.597   3.184  1.00  0.00     0.000 C 
BRANCH   3   4
ATOM      4  C   UNL     1      46.928  27.403   4.197  1.00  0.00     0.000 C 
BRANCH   4   5
ATOM      5  C   UNL     1      46.115  28.193   5.239  1.00  0.00     0.000 C 
BRANCH   5   6
ATOM      6  C   UNL     1      46.666  28.051   6.666  1.00  0.00     0.006 C 
BRANCH   6   7
ATOM      7  C   UNL     1      46.225  26.727   7.296  1.00  0.00     0.053 C 
BRANCH   7   8
ATOM      8  C   UNL     1      45.536  26.971   8.601  1.00  0.00     0.041 C 
ATOM      9  O   UNL     1      45.315  26.016   9.391  1.00  0.00    -0.550 OA
ATOM     10  O   UNL     1      45.186  28.264   8.969  1.00  0.00    -0.550 OA
ENDBRANCH   7   8
ENDBRANCH   6   7
ENDBRANCH   5   6
ENDBRANCH   4   5
ENDBRANCH   3   4
ENDBRANCH   2   3
ENDBRANCH   1   2
BRANCH   1  11
ATOM     11  C   UNL     1      43.088  28.474   2.270  1.00  0.00     0.000 C 
BRANCH  11  12
ATOM     12  C   UNL     1      44.071  29.635   2.480  1.00  0.00    -0.000 C 
BRANCH  12  13
ATOM     13  C   UNL     1      44.768  30.007   1.163  1.00  0.00    -0.000 C 
BRANCH  13  14
ATOM     14  C   UNL     1      46.272  29.690   1.177  1.00  0.00    -0.000 C 
BRANCH  14  15
ATOM     15  C   UNL     1      46.665  28.630   0.134  1.00  0.00    -0.000 C 
BRANCH  15  16
ATOM     16  C   UNL     1      45.992  28.877  -1.232  1.00  0.00    -0.000 C 
BRANCH  16  17
ATOM     17  C   UNL     1      46.514  27.958  -2.350  1.00  0.00    -0.003 C 
ATOM     18  C   UNL     1      45.631  27.967  -3.595  1.00  0.00     0.004 C 
ENDBRANCH  16  17
ENDBRANCH  15  16
ENDBRANCH  14  15
ENDBRANCH  13  14
ENDBRANCH  12  13
ENDBRANCH  11  12
ENDBRANCH   1  11
TORSDOF 14
ENDMDL
MODEL 3
REMARK VINA RESULT:    -3.666      1.152      1.601
REMARK INTER + INTRA:          -8.232
REMARK INTER:                  -7.128
REMARK INTRA:                  -1.104
REMARK UNBOUND:                -1.567
REMARK SMILES CCCCCCCCCCCCCCCC(=O)[O-]
REMARK SMILES IDX 9 1 10 2 11 3 12 4 13 5 14 6 15 7 16 8 17 9 18 10 8 11 7 12
REMARK SMILES IDX 6 13 5 14 4 15 3 16 2 17 1 18
REMARK H PARENT
REMARK Flexibility Score: inf
ROOT
ATOM      1  C   UNL     1      44.257  27.245   2.073  1.00  0.00     0.000 C 
ENDROOT
BRANCH   1   2
ATOM      2  C   UNL     1      43.342  28.472   2.244  1.00  0.00     0.000 C 
BRANCH   2   3
ATOM      3  C   UNL     1      44.030  29.792   1.857  1.00  0.00     0.000 C 
BRANCH   3   4
ATOM      4  C   UNL     1      45.447  29.588   1.290  1.00  0.00     0.000 C 
BRANCH   4   5
ATOM      5  C   UNL     1      45.617  29.937  -0.200  1.00  0.00     0.000 C 
BRANCH   5   6
ATOM      6  C   UNL     1      46.347  28.844  -0.995  1.00  0.00     0.006 C 
BRANCH   6   7
ATOM      7  C   UNL     1      46.009  28.930  -2.487  1.00  0.00     0.053 C 
BRANCH   7   8
ATOM      8  C   UNL     1      46.060  27.573  -3.114  1.00  0.00     0.041 C 
ATOM      9  O   UNL     1      45.166  27.216  -3.926  1.00  0.00    -0.550 OA
ATOM     10  O   UNL     1      47.125  26.723  -2.844  1.00  0.00    -0.550 OA
ENDBRANCH   7   8
ENDBRANCH   6   7
ENDBRANCH   5   6
ENDBRANCH   4   5
ENDBRANCH   3   4
ENDBRANCH   2   3
ENDBRANCH   1   2
BRANCH   1  11
ATOM     11  C   UNL     1      44.473  26.406   3.346  1.00  0.00     0.000 C 
BRANCH  11  12
ATOM     12  C   UNL     1      45.955  26.251   3.719  1.00  0.00    -0.000 C 
BRANCH  12  13
ATOM     13  C   UNL     1      46.544  27.589   4.189  1.00  0.00    -0.000 C 
BRANCH  13  14
ATOM     14  C   UNL     1      46.430  27.788   5.708  1.00  0.00    -0.000 C 
BRANCH  14  15
ATOM     15  C   UNL     1      46.416  26.458   6.481  1.00  0.00    -0.000 C 
BRANCH  15  16
ATOM     16  C   UNL     1      46.951  26.613   7.920  1.00  0.00    -0.000 C 
BRANCH  16  17
ATOM     17  C   UNL     1      45.882  26.380   9.002  1.00  0.00    -0.003 C 
ATOM     18  C   UNL     1      45.250  27.673   9.510  1.00  0.00     0.004 C 
ENDBRANCH  16  17
ENDBRANCH  15  16
ENDBRANCH  14  15
ENDBRANCH  13  14
ENDBRANCH  12  13
ENDBRANCH  11  12
ENDBRANCH   1  11
TORSDOF 14
ENDMDL
MODEL 4
REMARK VINA RESULT:    -3.637      4.322      8.545
REMARK INTER + INTRA:          -8.181
REMARK INTER:                  -7.346
REMARK INTRA:                  -0.835
REMARK UNBOUND:                -1.567
REMARK SMILES CCCCCCCCCCCCCCCC(=O)[O-]
REMARK SMILES IDX 9 1 10 2 11 3 12 4 13 5 14 6 15 7 16 8 17 9 18 10 8 11 7 12
REMARK SMILES IDX 6 13 5 14 4 15 3 16 2 17 1 18
REMARK H PARENT
REMARK Flexibility Score: inf
ROOT
ATOM      1  C   UNL     1      43.872  27.285   2.256  1.00  0.00     0.000 C 
ENDROOT
BRANCH   1   2
ATOM      2  C   UNL     1      44.481  26.385   3.348  1.00  0.00     0.000 C 
BRANCH   2   3
ATOM      3  C   UNL     1      45.986  26.626   3.555  1.00  0.00     0.000 C 
BRANCH   3   4
ATOM      4  C   UNL     1      46.391  26.661   5.040  1.00  0.00     0.000 C 
BRANCH   4   5
ATOM      5  C   UNL     1      46.353  28.052   5.700  1.00  0.00     0.000 C 
BRANCH   5   6
ATOM      6  C   UNL     1      46.355  27.990   7.234  1.00  0.00     0.006 C 
BRANCH   6   7
ATOM      7  C   UNL     1      46.005  26.583   7.728  1.00  0.00     0.053 C 
BRANCH   7   8
ATOM      8  C   UNL     1      45.637  26.613   9.178  1.00  0.00     0.041 C 
ATOM      9  O   UNL     1      45.994  25.678   9.942  1.00  0.00    -0.550 OA
ATOM     10  O   UNL     1      44.947  27.701   9.697  1.00  0.00    -0.550 OA
ENDBRANCH   7   8
ENDBRANCH   6   7
ENDBRANCH   5   6
ENDBRANCH   4   5
ENDBRANCH   3   4
ENDBRANCH   2   3
ENDBRANCH   1   2
BRANCH   1  11
ATOM     11  C   UNL     1      44.858  27.755   1.170  1.00  0.00     0.000 C 
BRANCH  11  12
ATOM     12  C   UNL     1      44.990  29.284   1.100  1.00  0.00    -0.000 C 
BRANCH  12  13
ATOM     13  C   UNL     1      45.655  29.717  -0.214  1.00  0.00    -0.000 C 
BRANCH  13  14
ATOM     14  C   UNL     1      46.486  28.595  -0.857  1.00  0.00    -0.000 C 
BRANCH  14  15
ATOM     15  C   UNL     1      46.449  28.636  -2.395  1.00  0.00    -0.000 C 
BRANCH  15  16
ATOM     16  C   UNL     1      45.854  27.346  -2.999  1.00  0.00    -0.000 C 
BRANCH  16  17
ATOM     17  C   UNL     1      45.533  27.461  -4.498  1.00  0.00    -0.003 C 
ATOM     18  C   UNL     1      44.452  28.495  -4.803  1.00  0.00     0.004 C 
ENDBRANCH  16  17
ENDBRANCH  15  16
ENDBRANCH  14  15
ENDBRANCH  13  14
ENDBRANCH  12  13
ENDBRANCH  11  12
ENDBRANCH   1  11
TORSDOF 14
ENDMDL
MODEL 5
REMARK VINA RESULT:    -3.559      3.911      8.851
REMARK INTER + INTRA:          -8.038
REMARK INTER:                  -6.569
REMARK INTRA:                  -1.468
REMARK UNBOUND:                -1.567
REMARK SMILES CCCCCCCCCCCCCCCC(=O)[O-]
REMARK SMILES IDX 9 1 10 2 11 3 12 4 13 5 14 6 15 7 16 8 17 9 18 10 8 11 7 12
REMARK SMILES IDX 6 13 5 14 4 15 3 16 2 17 1 18
REMARK H PARENT
REMARK Flexibility Score: inf
ROOT
ATOM      1  C   UNL     1      45.739  29.260  -2.971  1.00  0.00     0.000 C 
ENDROOT
BRANCH   1   2
ATOM      2  C   UNL     1      46.291  30.060  -1.775  1.00  0.00     0.000 C 
BRANCH   2   3
ATOM      3  C   UNL     1      46.752  29.162  -0.615  1.00  0.00     0.000 C 
BRANCH   3   4
ATOM      4  C   UNL     1      46.310  29.685   0.764  1.00  0.00     0.000 C 
BRANCH   4   5
ATOM      5  C   UNL     1      44.790  29.848   0.950  1.00  0.00     0.000 C 
BRANCH   5   6
ATOM      6  C   UNL     1      44.318  29.509   2.372  1.00  0.00     0.006 C 
BRANCH   6   7
ATOM      7  C   UNL     1      43.169  28.497   2.343  1.00  0.00     0.053 C 
BRANCH   7   8
ATOM      8  C   UNL     1      43.695  27.112   2.135  1.00  0.00     0.041 C 
ATOM      9  O   UNL     1      43.465  26.502   1.057  1.00  0.00    -0.550 OA
ATOM     10  O   UNL     1      44.484  26.515   3.110  1.00  0.00    -0.550 OA
ENDBRANCH   7   8
ENDBRANCH   6   7
ENDBRANCH   5   6
ENDBRANCH   4   5
ENDBRANCH   3   4
ENDBRANCH   2   3
ENDBRANCH   1   2
BRANCH   1  11
ATOM     11  C   UNL     1      45.907  27.732  -2.872  1.00  0.00     0.000 C 
BRANCH  11  12
ATOM     12  C   UNL     1      46.549  27.117  -4.125  1.00  0.00    -0.000 C 
BRANCH  12  13
ATOM     13  C   UNL     1      46.553  28.120  -5.288  1.00  0.00    -0.000 C 
BRANCH  13  14
ATOM     14  C   UNL     1      45.845  27.581  -6.541  1.00  0.00    -0.000 C 
BRANCH  14  15
ATOM     15  C   UNL     1      44.457  28.209  -6.754  1.00  0.00    -0.000 C 
BRANCH  15  16
ATOM     16  C   UNL     1      43.358  27.482  -5.951  1.00  0.00    -0.000 C 
BRANCH  16  17
ATOM     17  C   UNL     1      42.257  28.420  -5.427  1.00  0.00    -0.003 C 
ATOM     18  C   UNL     1      42.768  29.821  -5.103  1.00  0.00     0.004 C 
ENDBRANCH  16  17
ENDBRANCH  15  16
ENDBRANCH  14  15
ENDBRANCH  13  14
ENDBRANCH  12  13
ENDBRANCH  11  12
ENDBRANCH   1  11
TORSDOF 14
ENDMDL
MODEL 6
REMARK VINA RESULT:    -3.459      2.394      3.270
REMARK INTER + INTRA:          -7.857
REMARK INTER:                  -7.027
REMARK INTRA:                  -0.830
REMARK UNBOUND:                -1.567
REMARK SMILES CCCCCCCCCCCCCCCC(=O)[O-]
REMARK SMILES IDX 9 1 10 2 11 3 12 4 13 5 14 6 15 7 16 8 17 9 18 10 8 11 7 12
REMARK SMILES IDX 6 13 5 14 4 15 3 16 2 17 1 18
REMARK H PARENT
REMARK Flexibility Score: inf
ROOT
ATOM      1  C   UNL     1      44.770  27.499   1.493  1.00  0.00     0.000 C 
ENDROOT
BRANCH   1   2
ATOM      2  C   UNL     1      45.563  28.787   1.200  1.00  0.00     0.000 C 
BRANCH   2   3
ATOM      3  C   UNL     1      46.645  28.594   0.125  1.00  0.00     0.000 C 
BRANCH   3   4
ATOM      4  C   UNL     1      46.187  29.040  -1.276  1.00  0.00     0.000 C 
BRANCH   4   5
ATOM      5  C   UNL     1      45.990  27.905  -2.297  1.00  0.00     0.000 C 
BRANCH   5   6
ATOM      6  C   UNL     1      45.662  28.415  -3.709  1.00  0.00     0.006 C 
BRANCH   6   7
ATOM      7  C   UNL     1      45.636  27.264  -4.718  1.00  0.00     0.053 C 
BRANCH   7   8
ATOM      8  C   UNL     1      44.568  27.488  -5.741  1.00  0.00     0.041 C 
ATOM      9  O   UNL     1      43.357  27.515  -5.397  1.00  0.00    -0.550 OA
ATOM     10  O   UNL     1      44.913  27.719  -7.066  1.00  0.00    -0.550 OA
ENDBRANCH   7   8
ENDBRANCH   6   7
ENDBRANCH   5   6
ENDBRANCH   4   5
ENDBRANCH   3   4
ENDBRANCH   2   3
ENDBRANCH   1   2
BRANCH   1  11
ATOM     11  C   UNL     1      44.328  27.319   2.957  1.00  0.00     0.000 C 
BRANCH  11  12
ATOM     12  C   UNL     1      44.931  26.071   3.618  1.00  0.00    -0.000 C 
BRANCH  12  13
ATOM     13  C   UNL     1      46.164  26.436   4.457  1.00  0.00    -0.000 C 
BRANCH  13  14
ATOM     14  C   UNL     1      46.091  27.859   5.033  1.00  0.00    -0.000 C 
BRANCH  14  15
ATOM     15  C   UNL     1      46.457  27.916   6.526  1.00  0.00    -0.000 C 
BRANCH  15  16
ATOM     16  C   UNL     1      46.213  26.569   7.238  1.00  0.00    -0.000 C 
BRANCH  16  17
ATOM     17  C   UNL     1      45.633  26.719   8.655  1.00  0.00    -0.003 C 
ATOM     18  C   UNL     1      45.284  28.161   9.010  1.00  0.00     0.004 C 
ENDBRANCH  16  17
ENDBRANCH  15  16
ENDBRANCH  14  15
ENDBRANCH  13  14
ENDBRANCH  12  13
ENDBRANCH  11  12
ENDBRANCH   1  11
TORSDOF 14
ENDMDL
MODEL 7
REMARK VINA RESULT:    -3.277      4.120      8.414
REMARK INTER + INTRA:          -7.526
REMARK INTER:                  -6.592
REMARK INTRA:                  -0.933
REMARK UNBOUND:                -1.567
REMARK SMILES CCCCCCCCCCCCCCCC(=O)[O-]
REMARK SMILES IDX 9 1 10 2 11 3 12 4 13 5 14 6 15 7 16 8 17 9 18 10 8 11 7 12
REMARK SMILES IDX 6 13 5 14 4 15 3 16 2 17 1 18
REMARK H PARENT
REMARK Flexibility Score: inf
ROOT
ATOM      1  C   UNL     1      44.125  28.427   2.498  1.00  0.00     0.000 C 
ENDROOT
BRANCH   1   2
ATOM      2  C   UNL     1      44.208  26.891   2.413  1.00  0.00     0.000 C 
BRANCH   2   3
ATOM      3  C   UNL     1      44.802  26.252   3.679  1.00  0.00     0.000 C 
BRANCH   3   4
ATOM      4  C   UNL     1      46.341  26.201   3.663  1.00  0.00     0.000 C 
BRANCH   4   5
ATOM      5  C   UNL     1      47.035  26.884   4.857  1.00  0.00     0.000 C 
BRANCH   5   6
ATOM      6  C   UNL     1      46.314  26.640   6.191  1.00  0.00     0.006 C 
BRANCH   6   7
ATOM      7  C   UNL     1      46.292  27.911   7.045  1.00  0.00     0.053 C 
BRANCH   7   8
ATOM      8  C   UNL     1      45.692  27.631   8.386  1.00  0.00     0.041 C 
ATOM      9  O   UNL     1      45.082  28.539   9.011  1.00  0.00    -0.550 OA
ATOM     10  O   UNL     1      45.760  26.351   8.924  1.00  0.00    -0.550 OA
ENDBRANCH   7   8
ENDBRANCH   6   7
ENDBRANCH   5   6
ENDBRANCH   4   5
ENDBRANCH   3   4
ENDBRANCH   2   3
ENDBRANCH   1   2
BRANCH   1  11
ATOM     11  C   UNL     1      44.875  29.187   1.388  1.00  0.00     0.000 C 
BRANCH  11  12
ATOM     12  C   UNL     1      45.586  28.255   0.397  1.00  0.00    -0.000 C 
BRANCH  12  13
ATOM     13  C   UNL     1      46.808  28.946  -0.226  1.00  0.00    -0.000 C 
BRANCH  13  14
ATOM     14  C   UNL     1      47.041  28.535  -1.689  1.00  0.00    -0.000 C 
BRANCH  14  15
ATOM     15  C   UNL     1      45.911  27.653  -2.245  1.00  0.00    -0.000 C 
BRANCH  15  16
ATOM     16  C   UNL     1      45.944  27.565  -3.785  1.00  0.00    -0.000 C 
BRANCH  16  17
ATOM     17  C   UNL     1      44.861  28.414  -4.473  1.00  0.00    -0.003 C 
ATOM     18  C   UNL     1      43.970  27.604  -5.412  1.00  0.00     0.004 C 
ENDBRANCH  16  17
ENDBRANCH  15  16
ENDBRANCH  14  15
ENDBRANCH  13  14
ENDBRANCH  12  13
ENDBRANCH  11  12
ENDBRANCH   1  11
TORSDOF 14
ENDMDL
MODEL 8
REMARK VINA RESULT:    -3.182      3.974      8.698
REMARK INTER + INTRA:          -7.354
REMARK INTER:                  -6.459
REMARK INTRA:                  -0.895
REMARK UNBOUND:                -1.567
REMARK SMILES CCCCCCCCCCCCCCCC(=O)[O-]
REMARK SMILES IDX 9 1 10 2 11 3 12 4 13 5 14 6 15 7 16 8 17 9 18 10 8 11 7 12
REMARK SMILES IDX 6 13 5 14 4 15 3 16 2 17 1 18
REMARK H PARENT
REMARK Flexibility Score: inf
ROOT
ATOM      1  C   UNL     1      45.709  28.430   0.437  1.00  0.00     0.000 C 
ENDROOT
BRANCH   1   2
ATOM      2  C   UNL     1      44.622  28.751   1.480  1.00  0.00     0.000 C 
BRANCH   2   3
ATOM      3  C   UNL     1      44.947  28.193   2.876  1.00  0.00     0.000 C 
BRANCH   3   4
ATOM      4  C   UNL     1      44.473  26.741   3.069  1.00  0.00     0.000 C 
BRANCH   4   5
ATOM      5  C   UNL     1      45.423  25.840   3.880  1.00  0.00     0.000 C 
BRANCH   5   6
ATOM      6  C   UNL     1      46.524  26.627   4.607  1.00  0.00     0.006 C 
BRANCH   6   7
ATOM      7  C   UNL     1      46.359  26.529   6.126  1.00  0.00     0.053 C 
BRANCH   7   8
ATOM      8  C   UNL     1      46.502  27.877   6.758  1.00  0.00     0.041 C 
ATOM      9  O   UNL     1      46.018  28.895   6.196  1.00  0.00    -0.550 OA
ATOM     10  O   UNL     1      47.125  28.002   7.993  1.00  0.00    -0.550 OA
ENDBRANCH   7   8
ENDBRANCH   6   7
ENDBRANCH   5   6
ENDBRANCH   4   5
ENDBRANCH   3   4
ENDBRANCH   2   3
ENDBRANCH   1   2
BRANCH   1  11
ATOM     11  C   UNL     1      46.035  29.572  -0.543  1.00  0.00     0.000 C 
BRANCH  11  12
ATOM     12  C   UNL     1      45.754  29.205  -2.008  1.00  0.00    -0.000 C 
BRANCH  12  13
ATOM     13  C   UNL     1      46.373  27.845  -2.360  1.00  0.00    -0.000 C 
BRANCH  13  14
ATOM     14  C   UNL     1      45.698  27.181  -3.570  1.00  0.00    -0.000 C 
BRANCH  14  15
ATOM     15  C   UNL     1      45.721  28.070  -4.825  1.00  0.00    -0.000 C 
BRANCH  15  16
ATOM     16  C   UNL     1      44.777  27.547  -5.929  1.00  0.00    -0.000 C 
BRANCH  16  17
ATOM     17  C   UNL     1      43.286  27.758  -5.614  1.00  0.00    -0.003 C 
ATOM     18  C   UNL     1      42.953  29.197  -5.227  1.00  0.00     0.004 C 
ENDBRANCH  16  17
ENDBRANCH  15  16
ENDBRANCH  14  15
ENDBRANCH  13  14
ENDBRANCH  12  13
ENDBRANCH  11  12
ENDBRANCH   1  11
TORSDOF 14
ENDMDL
