MODEL 1
REMARK VINA RESULT:     2.736      0.000      0.000
REMARK INTER + INTRA:           6.227
REMARK INTER:                   7.216
REMARK INTRA:                  -0.989
REMARK UNBOUND:                -0.989
REMARK SMILES CCCCCCCCCCCCCCCCCCCCCCCCCCCCCC(=O)[O-]
REMARK SMILES IDX 16 1 17 2 18 3 19 4 20 5 21 6 22 7 23 8 24 9 25 10 26 11
REMARK SMILES IDX 27 12 28 13 29 14 30 15 31 16 32 17 15 18 14 19 13 20 12 21
REMARK SMILES IDX 11 22 10 23 9 24 8 25 7 26 6 27 5 28 4 29 3 30 2 31 1 32
REMARK H PARENT
REMARK Flexibility Score: inf
ROOT
ATOM      1  C   UNL     1       5.266   3.444   6.316  1.00  0.00     0.000 C 
ENDROOT
BRANCH   1   2
ATOM      2  C   UNL     1       4.382   3.128   7.534  1.00  0.00     0.000 C 
BRANCH   2   3
ATOM      3  C   UNL     1       4.581   4.126   8.686  1.00  0.00     0.000 C 
BRANCH   3   4
ATOM      4  C   UNL     1       6.017   4.670   8.686  1.00  0.00     0.000 C 
BRANCH   4   5
ATOM      5  C   UNL     1       6.081   6.208   8.704  1.00  0.00     0.000 C 
BRANCH   5   6
ATOM      6  C   UNL     1       6.896   6.817   9.861  1.00  0.00     0.000 C 
BRANCH   6   7
ATOM      7  C   UNL     1       6.587   8.306  10.096  1.00  0.00     0.000 C 
BRANCH   7   8
ATOM      8  C   UNL     1       7.387   9.226   9.158  1.00  0.00     0.000 C 
BRANCH   8   9
ATOM      9  C   UNL     1       7.080  10.715   9.395  1.00  0.00     0.000 C 
BRANCH   9  10
ATOM     10  C   UNL     1       5.703  11.124   8.838  1.00  0.00     0.000 C 
BRANCH  10  11
ATOM     11  C   UNL     1       5.463  10.714   7.370  1.00  0.00     0.000 C 
BRANCH  11  12
ATOM     12  C   UNL     1       6.584  11.125   6.394  1.00  0.00     0.000 C 
BRANCH  12  13
ATOM     13  C   UNL     1       6.263  10.774   4.932  1.00  0.00     0.006 C 
BRANCH  13  14
ATOM     14  C   UNL     1       7.123   9.606   4.439  1.00  0.00     0.053 C 
BRANCH  14  15
ATOM     15  C   UNL     1       6.639   8.321   5.035  1.00  0.00     0.041 C 
ATOM     16  O   UNL     1       5.742   7.649   4.456  1.00  0.00    -0.550 OA
ATOM     17  O   UNL     1       7.237   7.822   6.183  1.00  0.00    -0.550 OA
ENDBRANCH  14  15
ENDBRANCH  13  14
ENDBRANCH  12  13
ENDBRANCH  11  12
ENDBRANCH  10  11
ENDBRANCH   9  10
ENDBRANCH   8   9
ENDBRANCH   7   8
ENDBRANCH   6   7
ENDBRANCH   5   6
ENDBRANCH   4   5
ENDBRANCH   3   4
ENDBRANCH   2   3
ENDBRANCH   1   2
BRANCH   1  18
ATOM     18  C   UNL     1       4.493   3.352   4.988  1.00  0.00     0.000 C 
BRANCH  18  19
ATOM     19  C   UNL     1       4.226   4.738   4.359  1.00  0.00     0.000 C 
BRANCH  19  20
ATOM     20  C   UNL     1       3.435   4.688   3.038  1.00  0.00     0.000 C 
BRANCH  20  21
ATOM     21  C   UNL     1       3.799   5.779   2.011  1.00  0.00     0.000 C 
BRANCH  21  22
ATOM     22  C   UNL     1       5.056   5.487   1.163  1.00  0.00     0.000 C 
BRANCH  22  23
ATOM     23  C   UNL     1       4.900   5.752  -0.348  1.00  0.00     0.000 C 
BRANCH  23  24
ATOM     24  C   UNL     1       3.485   6.176  -0.785  1.00  0.00    -0.000 C 
BRANCH  24  25
ATOM     25  C   UNL     1       2.462   5.036  -0.656  1.00  0.00    -0.000 C 
BRANCH  25  26
ATOM     26  C   UNL     1       1.006   5.543  -0.591  1.00  0.00    -0.000 C 
BRANCH  26  27
ATOM     27  C   UNL     1       0.292   5.217   0.737  1.00  0.00    -0.000 C 
BRANCH  27  28
ATOM     28  C   UNL     1      -1.244   5.288   0.683  1.00  0.00    -0.000 C 
BRANCH  28  29
ATOM     29  C   UNL     1      -1.926   4.157  -0.115  1.00  0.00    -0.000 C 
BRANCH  29  30
ATOM     30  C   UNL     1      -1.006   2.981  -0.493  1.00  0.00    -0.000 C 
BRANCH  30  31
ATOM     31  C   UNL     1      -0.400   3.121  -1.897  1.00  0.00    -0.003 C 
ATOM     32  C   UNL     1      -1.439   2.815  -2.973  1.00  0.00     0.004 C 
ENDBRANCH  30  31
ENDBRANCH  29  30
ENDBRANCH  28  29
ENDBRANCH  27  28
ENDBRANCH  26  27
ENDBRANCH  25  26
ENDBRANCH  24  25
ENDBRANCH  23  24
ENDBRANCH  22  23
ENDBRANCH  21  22
ENDBRANCH  20  21
ENDBRANCH  19  20
ENDBRANCH  18  19
ENDBRANCH   1  18
TORSDOF 28
ENDMDL
MODEL 2
REMARK VINA RESULT:     2.822      3.312     10.583
REMARK INTER + INTRA:           6.454
REMARK INTER:                   6.301
REMARK INTRA:                   0.153
REMARK UNBOUND:                -0.989
REMARK SMILES CCCCCCCCCCCCCCCCCCCCCCCCCCCCCC(=O)[O-]
REMARK SMILES IDX 16 1 17 2 18 3 19 4 20 5 21 6 22 7 23 8 24 9 25 10 26 11
REMARK SMILES IDX 27 12 28 13 29 14 30 15 31 16 32 17 15 18 14 19 13 20 12 21
REMARK SMILES IDX 11 22 10 23 9 24 8 25 7 26 6 27 5 28 4 29 3 30 2 31 1 32
REMARK H PARENT
REMARK Flexibility Score: inf
ROOT
ATOM      1  C   UNL     1       5.735   6.199   5.018  1.00  0.00     0.000 C 
ENDROOT
BRANCH   1   2
ATOM      2  C   UNL     1       6.249   4.862   5.575  1.00  0.00     0.000 C 
BRANCH   2   3
ATOM      3  C   UNL     1       5.115   3.949   6.069  1.00  0.00     0.000 C 
BRANCH   3   4
ATOM      4  C   UNL     1       4.253   3.476   4.889  1.00  0.00     0.000 C 
BRANCH   4   5
ATOM      5  C   UNL     1       3.912   4.604   3.899  1.00  0.00     0.000 C 
BRANCH   5   6
ATOM      6  C   UNL     1       2.842   4.254   2.847  1.00  0.00     0.000 C 
BRANCH   6   7
ATOM      7  C   UNL     1       2.647   5.360   1.795  1.00  0.00     0.000 C 
BRANCH   7   8
ATOM      8  C   UNL     1       1.945   4.843   0.527  1.00  0.00     0.000 C 
BRANCH   8   9
ATOM      9  C   UNL     1       0.449   5.200   0.499  1.00  0.00     0.000 C 
BRANCH   9  10
ATOM     10  C   UNL     1      -0.363   4.248  -0.399  1.00  0.00     0.000 C 
BRANCH  10  11
ATOM     11  C   UNL     1      -1.808   3.997   0.080  1.00  0.00     0.000 C 
BRANCH  11  12
ATOM     12  C   UNL     1      -2.473   5.200   0.781  1.00  0.00     0.000 C 
BRANCH  12  13
ATOM     13  C   UNL     1      -3.877   4.879   1.316  1.00  0.00     0.006 C 
BRANCH  13  14
ATOM     14  C   UNL     1      -3.882   3.572   2.116  1.00  0.00     0.053 C 
BRANCH  14  15
ATOM     15  C   UNL     1      -4.803   3.690   3.291  1.00  0.00     0.041 C 
ATOM     16  O   UNL     1      -5.924   4.251   3.166  1.00  0.00    -0.550 OA
ATOM     17  O   UNL     1      -4.459   3.103   4.500  1.00  0.00    -0.550 OA
ENDBRANCH  14  15
ENDBRANCH  13  14
ENDBRANCH  12  13
ENDBRANCH  11  12
ENDBRANCH  10  11
ENDBRANCH   9  10
ENDBRANCH   8   9
ENDBRANCH   7   8
ENDBRANCH   6   7
ENDBRANCH   5   6
ENDBRANCH   4   5
ENDBRANCH   3   4
ENDBRANCH   2   3
ENDBRANCH   1   2
BRANCH   1  18
ATOM     18  C   UNL     1       6.178   7.402   5.869  1.00  0.00     0.000 C 
BRANCH  18  19
ATOM     19  C   UNL     1       7.337   8.193   5.223  1.00  0.00     0.000 C 
BRANCH  19  20
ATOM     20  C   UNL     1       6.901   9.121   4.072  1.00  0.00     0.000 C 
BRANCH  20  21
ATOM     21  C   UNL     1       7.063  10.629   4.344  1.00  0.00     0.000 C 
BRANCH  21  22
ATOM     22  C   UNL     1       7.084  11.027   5.836  1.00  0.00     0.000 C 
BRANCH  22  23
ATOM     23  C   UNL     1       5.846  10.592   6.646  1.00  0.00     0.000 C 
BRANCH  23  24
ATOM     24  C   UNL     1       6.038  10.609   8.175  1.00  0.00    -0.000 C 
BRANCH  24  25
ATOM     25  C   UNL     1       7.431  11.114   8.588  1.00  0.00    -0.000 C 
BRANCH  25  26
ATOM     26  C   UNL     1       7.819  10.693  10.021  1.00  0.00    -0.000 C 
BRANCH  26  27
ATOM     27  C   UNL     1       8.944   9.639  10.076  1.00  0.00    -0.000 C 
BRANCH  27  28
ATOM     28  C   UNL     1       8.466   8.177  10.048  1.00  0.00    -0.000 C 
BRANCH  28  29
ATOM     29  C   UNL     1       6.935   7.988  10.013  1.00  0.00    -0.000 C 
BRANCH  29  30
ATOM     30  C   UNL     1       6.385   7.366   8.716  1.00  0.00    -0.000 C 
BRANCH  30  31
ATOM     31  C   UNL     1       5.915   5.916   8.898  1.00  0.00    -0.003 C 
ATOM     32  C   UNL     1       6.567   5.282  10.125  1.00  0.00     0.004 C 
ENDBRANCH  30  31
ENDBRANCH  29  30
ENDBRANCH  28  29
ENDBRANCH  27  28
ENDBRANCH  26  27
ENDBRANCH  25  26
ENDBRANCH  24  25
ENDBRANCH  23  24
ENDBRANCH  22  23
ENDBRANCH  21  22
ENDBRANCH  20  21
ENDBRANCH  19  20
ENDBRANCH  18  19
ENDBRANCH   1  18
TORSDOF 28
ENDMDL
MODEL 3
REMARK VINA RESULT:     3.107      1.038      2.019
REMARK INTER + INTRA:           7.205
REMARK INTER:                   9.209
REMARK INTRA:                  -2.004
REMARK UNBOUND:                -0.989
REMARK SMILES CCCCCCCCCCCCCCCCCCCCCCCCCCCCCC(=O)[O-]
REMARK SMILES IDX 16 1 17 2 18 3 19 4 20 5 21 6 22 7 23 8 24 9 25 10 26 11
REMARK SMILES IDX 27 12 28 13 29 14 30 15 31 16 32 17 15 18 14 19 13 20 12 21
REMARK SMILES IDX 11 22 10 23 9 24 8 25 7 26 6 27 5 28 4 29 3 30 2 31 1 32
REMARK H PARENT
REMARK Flexibility Score: inf
ROOT
ATOM      1  C   UNL     1       3.611   3.358   4.163  1.00  0.00     0.000 C 
ENDROOT
BRANCH   1   2
ATOM      2  C   UNL     1       4.459   4.166   5.160  1.00  0.00     0.000 C 
BRANCH   2   3
ATOM      3  C   UNL     1       5.290   3.271   6.093  1.00  0.00     0.000 C 
BRANCH   3   4
ATOM      4  C   UNL     1       4.617   3.154   7.468  1.00  0.00     0.000 C 
BRANCH   4   5
ATOM      5  C   UNL     1       4.828   4.397   8.352  1.00  0.00     0.000 C 
BRANCH   5   6
ATOM      6  C   UNL     1       6.053   5.259   7.992  1.00  0.00     0.000 C 
BRANCH   6   7
ATOM      7  C   UNL     1       6.395   6.300   9.073  1.00  0.00     0.000 C 
BRANCH   7   8
ATOM      8  C   UNL     1       6.232   7.744   8.568  1.00  0.00     0.000 C 
BRANCH   8   9
ATOM      9  C   UNL     1       6.696   8.783   9.604  1.00  0.00     0.000 C 
BRANCH   9  10
ATOM     10  C   UNL     1       5.815  10.046   9.600  1.00  0.00     0.000 C 
BRANCH  10  11
ATOM     11  C   UNL     1       6.253  11.125   8.587  1.00  0.00     0.000 C 
BRANCH  11  12
ATOM     12  C   UNL     1       7.720  11.015   8.123  1.00  0.00     0.000 C 
BRANCH  12  13
ATOM     13  C   UNL     1       7.864  11.011   6.592  1.00  0.00     0.006 C 
BRANCH  13  14
ATOM     14  C   UNL     1       6.651  10.357   5.922  1.00  0.00     0.053 C 
BRANCH  14  15
ATOM     15  C   UNL     1       7.055   9.726   4.626  1.00  0.00     0.041 C 
ATOM     16  O   UNL     1       7.250  10.438   3.605  1.00  0.00    -0.550 OA
ATOM     17  O   UNL     1       7.302   8.362   4.570  1.00  0.00    -0.550 OA
ENDBRANCH  14  15
ENDBRANCH  13  14
ENDBRANCH  12  13
ENDBRANCH  11  12
ENDBRANCH  10  11
ENDBRANCH   9  10
ENDBRANCH   8   9
ENDBRANCH   7   8
ENDBRANCH   6   7
ENDBRANCH   5   6
ENDBRANCH   4   5
ENDBRANCH   3   4
ENDBRANCH   2   3
ENDBRANCH   1   2
BRANCH   1  18
ATOM     18  C   UNL     1       3.478   4.059   2.800  1.00  0.00     0.000 C 
BRANCH  18  19
ATOM     19  C   UNL     1       3.843   5.559   2.864  1.00  0.00     0.000 C 
BRANCH  19  20
ATOM     20  C   UNL     1       4.889   5.998   1.821  1.00  0.00     0.000 C 
BRANCH  20  21
ATOM     21  C   UNL     1       5.000   5.093   0.579  1.00  0.00     0.000 C 
BRANCH  21  22
ATOM     22  C   UNL     1       4.685   5.783  -0.766  1.00  0.00     0.000 C 
BRANCH  22  23
ATOM     23  C   UNL     1       3.200   6.129  -0.991  1.00  0.00     0.000 C 
BRANCH  23  24
ATOM     24  C   UNL     1       2.213   5.327  -0.122  1.00  0.00    -0.000 C 
BRANCH  24  25
ATOM     25  C   UNL     1       0.923   6.108   0.178  1.00  0.00    -0.000 C 
BRANCH  25  26
ATOM     26  C   UNL     1       0.004   5.381   1.182  1.00  0.00    -0.000 C 
BRANCH  26  27
ATOM     27  C   UNL     1      -1.500   5.567   0.895  1.00  0.00    -0.000 C 
BRANCH  27  28
ATOM     28  C   UNL     1      -2.223   4.310   0.381  1.00  0.00    -0.000 C 
BRANCH  28  29
ATOM     29  C   UNL     1      -1.880   3.901  -1.067  1.00  0.00    -0.000 C 
BRANCH  29  30
ATOM     30  C   UNL     1      -0.518   3.204  -1.242  1.00  0.00    -0.000 C 
BRANCH  30  31
ATOM     31  C   UNL     1      -0.308   2.646  -2.657  1.00  0.00    -0.003 C 
ATOM     32  C   UNL     1      -1.628   2.594  -3.424  1.00  0.00     0.004 C 
ENDBRANCH  30  31
ENDBRANCH  29  30
ENDBRANCH  28  29
ENDBRANCH  27  28
ENDBRANCH  26  27
ENDBRANCH  25  26
ENDBRANCH  24  25
ENDBRANCH  23  24
ENDBRANCH  22  23
ENDBRANCH  21  22
ENDBRANCH  20  21
ENDBRANCH  19  20
ENDBRANCH  18  19
ENDBRANCH   1  18
TORSDOF 28
ENDMDL
MODEL 4
REMARK VINA RESULT:     3.149      1.334      2.307
REMARK INTER + INTRA:           7.315
REMARK INTER:                   8.981
REMARK INTRA:                  -1.665
REMARK UNBOUND:                -0.989
REMARK SMILES CCCCCCCCCCCCCCCCCCCCCCCCCCCCCC(=O)[O-]
REMARK SMILES IDX 16 1 17 2 18 3 19 4 20 5 21 6 22 7 23 8 24 9 25 10 26 11
REMARK SMILES IDX 27 12 28 13 29 14 30 15 31 16 32 17 15 18 14 19 13 20 12 21
REMARK SMILES IDX 11 22 10 23 9 24 8 25 7 26 6 27 5 28 4 29 3 30 2 31 1 32
REMARK H PARENT
REMARK Flexibility Score: inf
ROOT
ATOM      1  C   UNL     1       4.066   3.158   4.416  1.00  0.00     0.000 C 
ENDROOT
BRANCH   1   2
ATOM      2  C   UNL     1       5.101   3.782   5.366  1.00  0.00     0.000 C 
BRANCH   2   3
ATOM      3  C   UNL     1       4.783   3.518   6.847  1.00  0.00     0.000 C 
BRANCH   3   4
ATOM      4  C   UNL     1       4.683   4.841   7.620  1.00  0.00     0.000 C 
BRANCH   4   5
ATOM      5  C   UNL     1       5.764   4.989   8.706  1.00  0.00     0.000 C 
BRANCH   5   6
ATOM      6  C   UNL     1       6.507   6.339   8.714  1.00  0.00     0.000 C 
BRANCH   6   7
ATOM      7  C   UNL     1       6.540   7.000  10.104  1.00  0.00     0.000 C 
BRANCH   7   8
ATOM      8  C   UNL     1       6.437   8.533  10.025  1.00  0.00     0.000 C 
BRANCH   8   9
ATOM      9  C   UNL     1       7.639   9.164   9.300  1.00  0.00     0.000 C 
BRANCH   9  10
ATOM     10  C   UNL     1       7.358  10.611   8.852  1.00  0.00     0.000 C 
BRANCH  10  11
ATOM     11  C   UNL     1       8.291  11.125   7.736  1.00  0.00     0.000 C 
BRANCH  11  12
ATOM     12  C   UNL     1       8.003  10.545   6.336  1.00  0.00     0.000 C 
BRANCH  12  13
ATOM     13  C   UNL     1       6.500  10.411   6.042  1.00  0.00     0.006 C 
BRANCH  13  14
ATOM     14  C   UNL     1       6.251   9.539   4.806  1.00  0.00     0.053 C 
BRANCH  14  15
ATOM     15  C   UNL     1       6.415   8.093   5.155  1.00  0.00     0.041 C 
ATOM     16  O   UNL     1       5.459   7.450   5.667  1.00  0.00    -0.550 OA
ATOM     17  O   UNL     1       7.592   7.433   4.834  1.00  0.00    -0.550 OA
ENDBRANCH  14  15
ENDBRANCH  13  14
ENDBRANCH  12  13
ENDBRANCH  11  12
ENDBRANCH  10  11
ENDBRANCH   9  10
ENDBRANCH   8   9
ENDBRANCH   7   8
ENDBRANCH   6   7
ENDBRANCH   5   6
ENDBRANCH   4   5
ENDBRANCH   3   4
ENDBRANCH   2   3
ENDBRANCH   1   2
BRANCH   1  18
ATOM     18  C   UNL     1       3.360   4.210   3.542  1.00  0.00     0.000 C 
BRANCH  18  19
ATOM     19  C   UNL     1       4.265   5.419   3.219  1.00  0.00     0.000 C 
BRANCH  19  20
ATOM     20  C   UNL     1       4.178   5.898   1.757  1.00  0.00     0.000 C 
BRANCH  20  21
ATOM     21  C   UNL     1       5.301   5.391   0.831  1.00  0.00     0.000 C 
BRANCH  21  22
ATOM     22  C   UNL     1       4.995   5.479  -0.680  1.00  0.00     0.000 C 
BRANCH  22  23
ATOM     23  C   UNL     1       3.660   6.162  -1.038  1.00  0.00     0.000 C 
BRANCH  23  24
ATOM     24  C   UNL     1       2.406   5.312  -0.759  1.00  0.00    -0.000 C 
BRANCH  24  25
ATOM     25  C   UNL     1       1.442   5.991   0.228  1.00  0.00    -0.000 C 
BRANCH  25  26
ATOM     26  C   UNL     1       0.351   5.034   0.753  1.00  0.00    -0.000 C 
BRANCH  26  27
ATOM     27  C   UNL     1      -0.355   4.228  -0.357  1.00  0.00    -0.000 C 
BRANCH  27  28
ATOM     28  C   UNL     1      -1.812   3.838  -0.049  1.00  0.00    -0.000 C 
BRANCH  28  29
ATOM     29  C   UNL     1      -2.790   5.021   0.105  1.00  0.00    -0.000 C 
BRANCH  29  30
ATOM     30  C   UNL     1      -3.913   4.809   1.136  1.00  0.00    -0.000 C 
BRANCH  30  31
ATOM     31  C   UNL     1      -3.578   3.727   2.173  1.00  0.00    -0.003 C 
ATOM     32  C   UNL     1      -4.757   3.491   3.115  1.00  0.00     0.004 C 
ENDBRANCH  30  31
ENDBRANCH  29  30
ENDBRANCH  28  29
ENDBRANCH  27  28
ENDBRANCH  26  27
ENDBRANCH  25  26
ENDBRANCH  24  25
ENDBRANCH  23  24
ENDBRANCH  22  23
ENDBRANCH  21  22
ENDBRANCH  20  21
ENDBRANCH  19  20
ENDBRANCH  18  19
ENDBRANCH   1  18
TORSDOF 28
ENDMDL
MODEL 5
REMARK VINA RESULT:     3.368      2.241      4.762
REMARK INTER + INTRA:           7.892
REMARK INTER:                  10.227
REMARK INTRA:                  -2.335
REMARK UNBOUND:                -0.989
REMARK SMILES CCCCCCCCCCCCCCCCCCCCCCCCCCCCCC(=O)[O-]
REMARK SMILES IDX 16 1 17 2 18 3 19 4 20 5 21 6 22 7 23 8 24 9 25 10 26 11
REMARK SMILES IDX 27 12 28 13 29 14 30 15 31 16 32 17 15 18 14 19 13 20 12 21
REMARK SMILES IDX 11 22 10 23 9 24 8 25 7 26 6 27 5 28 4 29 3 30 2 31 1 32
REMARK H PARENT
REMARK Flexibility Score: inf
ROOT
ATOM      1  C   UNL     1       6.516   7.956   5.544  1.00  0.00     0.000 C 
ENDROOT
BRANCH   1   2
ATOM      2  C   UNL     1       7.215   8.873   4.526  1.00  0.00     0.000 C 
BRANCH   2   3
ATOM      3  C   UNL     1       6.694  10.318   4.573  1.00  0.00     0.000 C 
BRANCH   3   4
ATOM      4  C   UNL     1       5.855  10.547   5.839  1.00  0.00     0.000 C 
BRANCH   4   5
ATOM      5  C   UNL     1       6.683  11.072   7.026  1.00  0.00     0.000 C 
BRANCH   5   6
ATOM      6  C   UNL     1       5.939  11.124   8.374  1.00  0.00     0.000 C 
BRANCH   6   7
ATOM      7  C   UNL     1       6.847  10.808   9.576  1.00  0.00     0.000 C 
BRANCH   7   8
ATOM      8  C   UNL     1       8.107  10.025   9.167  1.00  0.00     0.000 C 
BRANCH   8   9
ATOM      9  C   UNL     1       8.315   8.763  10.023  1.00  0.00     0.000 C 
BRANCH   9  10
ATOM     10  C   UNL     1       8.290   7.474   9.180  1.00  0.00     0.000 C 
BRANCH  10  11
ATOM     11  C   UNL     1       7.666   6.257   9.896  1.00  0.00     0.000 C 
BRANCH  11  12
ATOM     12  C   UNL     1       6.128   6.181   9.817  1.00  0.00     0.000 C 
BRANCH  12  13
ATOM     13  C   UNL     1       5.627   5.497   8.535  1.00  0.00     0.006 C 
BRANCH  13  14
ATOM     14  C   UNL     1       4.983   4.141   8.843  1.00  0.00     0.053 C 
BRANCH  14  15
ATOM     15  C   UNL     1       4.741   3.385   7.574  1.00  0.00     0.041 C 
ATOM     16  O   UNL     1       4.930   3.938   6.458  1.00  0.00    -0.550 OA
ATOM     17  O   UNL     1       4.392   2.043   7.626  1.00  0.00    -0.550 OA
ENDBRANCH  14  15
ENDBRANCH  13  14
ENDBRANCH  12  13
ENDBRANCH  11  12
ENDBRANCH  10  11
ENDBRANCH   9  10
ENDBRANCH   8   9
ENDBRANCH   7   8
ENDBRANCH   6   7
ENDBRANCH   5   6
ENDBRANCH   4   5
ENDBRANCH   3   4
ENDBRANCH   2   3
ENDBRANCH   1   2
BRANCH   1  18
ATOM     18  C   UNL     1       5.949   6.681   4.896  1.00  0.00     0.000 C 
BRANCH  18  19
ATOM     19  C   UNL     1       4.807   6.977   3.899  1.00  0.00     0.000 C 
BRANCH  19  20
ATOM     20  C   UNL     1       4.572   5.862   2.861  1.00  0.00     0.000 C 
BRANCH  20  21
ATOM     21  C   UNL     1       3.568   4.772   3.283  1.00  0.00     0.000 C 
BRANCH  21  22
ATOM     22  C   UNL     1       2.449   4.480   2.260  1.00  0.00     0.000 C 
BRANCH  22  23
ATOM     23  C   UNL     1       2.180   5.609   1.245  1.00  0.00     0.000 C 
BRANCH  23  24
ATOM     24  C   UNL     1       0.911   5.419   0.392  1.00  0.00    -0.000 C 
BRANCH  24  25
ATOM     25  C   UNL     1       0.513   3.941   0.250  1.00  0.00    -0.000 C 
BRANCH  25  26
ATOM     26  C   UNL     1      -0.915   3.757  -0.305  1.00  0.00    -0.000 C 
BRANCH  26  27
ATOM     27  C   UNL     1      -1.695   5.078  -0.463  1.00  0.00    -0.000 C 
BRANCH  27  28
ATOM     28  C   UNL     1      -3.127   5.058   0.103  1.00  0.00    -0.000 C 
BRANCH  28  29
ATOM     29  C   UNL     1      -3.231   4.771   1.615  1.00  0.00    -0.000 C 
BRANCH  29  30
ATOM     30  C   UNL     1      -4.169   3.610   1.995  1.00  0.00    -0.000 C 
BRANCH  30  31
ATOM     31  C   UNL     1      -5.131   3.967   3.138  1.00  0.00    -0.003 C 
ATOM     32  C   UNL     1      -4.817   3.151   4.389  1.00  0.00     0.004 C 
ENDBRANCH  30  31
ENDBRANCH  29  30
ENDBRANCH  28  29
ENDBRANCH  27  28
ENDBRANCH  26  27
ENDBRANCH  25  26
ENDBRANCH  24  25
ENDBRANCH  23  24
ENDBRANCH  22  23
ENDBRANCH  21  22
ENDBRANCH  20  21
ENDBRANCH  19  20
ENDBRANCH  18  19
ENDBRANCH   1  18
TORSDOF 28
ENDMDL
MODEL 6
REMARK VINA RESULT:     3.384      1.851      3.342
REMARK INTER + INTRA:           7.933
REMARK INTER:                   8.060
REMARK INTRA:                  -0.127
REMARK UNBOUND:                -0.989
REMARK SMILES CCCCCCCCCCCCCCCCCCCCCCCCCCCCCC(=O)[O-]
REMARK SMILES IDX 16 1 17 2 18 3 19 4 20 5 21 6 22 7 23 8 24 9 25 10 26 11
REMARK SMILES IDX 27 12 28 13 29 14 30 15 31 16 32 17 15 18 14 19 13 20 12 21
REMARK SMILES IDX 11 22 10 23 9 24 8 25 7 26 6 27 5 28 4 29 3 30 2 31 1 32
REMARK H PARENT
REMARK Flexibility Score: inf
ROOT
ATOM      1  C   UNL     1       3.224   4.406   3.352  1.00  0.00     0.000 C 
ENDROOT
BRANCH   1   2
ATOM      2  C   UNL     1       4.174   3.729   4.353  1.00  0.00     0.000 C 
BRANCH   2   3
ATOM      3  C   UNL     1       4.641   4.682   5.465  1.00  0.00     0.000 C 
BRANCH   3   4
ATOM      4  C   UNL     1       4.979   3.896   6.741  1.00  0.00     0.000 C 
BRANCH   4   5
ATOM      5  C   UNL     1       4.960   4.767   8.010  1.00  0.00     0.000 C 
BRANCH   5   6
ATOM      6  C   UNL     1       5.803   6.054   7.937  1.00  0.00     0.000 C 
BRANCH   6   7
ATOM      7  C   UNL     1       6.877   6.134   9.036  1.00  0.00     0.000 C 
BRANCH   7   8
ATOM      8  C   UNL     1       6.668   7.338   9.972  1.00  0.00     0.000 C 
BRANCH   8   9
ATOM      9  C   UNL     1       6.106   8.564   9.230  1.00  0.00     0.000 C 
BRANCH   9  10
ATOM     10  C   UNL     1       6.471   9.888   9.929  1.00  0.00     0.000 C 
BRANCH  10  11
ATOM     11  C   UNL     1       6.774  11.054   8.965  1.00  0.00     0.000 C 
BRANCH  11  12
ATOM     12  C   UNL     1       7.920  10.786   7.969  1.00  0.00     0.000 C 
BRANCH  12  13
ATOM     13  C   UNL     1       7.437  10.686   6.514  1.00  0.00     0.006 C 
BRANCH  13  14
ATOM     14  C   UNL     1       6.626   9.407   6.284  1.00  0.00     0.053 C 
BRANCH  14  15
ATOM     15  C   UNL     1       6.894   8.865   4.914  1.00  0.00     0.041 C 
ATOM     16  O   UNL     1       6.414   7.753   4.565  1.00  0.00    -0.550 OA
ATOM     17  O   UNL     1       7.601   9.628   3.995  1.00  0.00    -0.550 OA
ENDBRANCH  14  15
ENDBRANCH  13  14
ENDBRANCH  12  13
ENDBRANCH  11  12
ENDBRANCH  10  11
ENDBRANCH   9  10
ENDBRANCH   8   9
ENDBRANCH   7   8
ENDBRANCH   6   7
ENDBRANCH   5   6
ENDBRANCH   4   5
ENDBRANCH   3   4
ENDBRANCH   2   3
ENDBRANCH   1   2
BRANCH   1  18
ATOM     18  C   UNL     1       3.896   5.563   2.592  1.00  0.00     0.000 C 
BRANCH  18  19
ATOM     19  C   UNL     1       4.681   5.084   1.351  1.00  0.00     0.000 C 
BRANCH  19  20
ATOM     20  C   UNL     1       4.346   5.852   0.058  1.00  0.00     0.000 C 
BRANCH  20  21
ATOM     21  C   UNL     1       2.858   5.847  -0.344  1.00  0.00     0.000 C 
BRANCH  21  22
ATOM     22  C   UNL     1       1.861   5.790   0.834  1.00  0.00     0.000 C 
BRANCH  22  23
ATOM     23  C   UNL     1       0.506   5.127   0.512  1.00  0.00     0.000 C 
BRANCH  23  24
ATOM     24  C   UNL     1       0.424   4.472  -0.880  1.00  0.00    -0.000 C 
BRANCH  24  25
ATOM     25  C   UNL     1      -0.341   3.139  -0.859  1.00  0.00    -0.000 C 
BRANCH  25  26
ATOM     26  C   UNL     1      -1.660   3.218  -0.063  1.00  0.00    -0.000 C 
BRANCH  26  27
ATOM     27  C   UNL     1      -2.438   4.533  -0.279  1.00  0.00    -0.000 C 
BRANCH  27  28
ATOM     28  C   UNL     1      -2.989   5.179   1.004  1.00  0.00    -0.000 C 
BRANCH  28  29
ATOM     29  C   UNL     1      -4.237   4.493   1.600  1.00  0.00    -0.000 C 
BRANCH  29  30
ATOM     30  C   UNL     1      -3.944   3.304   2.533  1.00  0.00    -0.000 C 
BRANCH  30  31
ATOM     31  C   UNL     1      -4.794   3.321   3.812  1.00  0.00    -0.003 C 
ATOM     32  C   UNL     1      -5.952   4.308   3.682  1.00  0.00     0.004 C 
ENDBRANCH  30  31
ENDBRANCH  29  30
ENDBRANCH  28  29
ENDBRANCH  27  28
ENDBRANCH  26  27
ENDBRANCH  25  26
ENDBRANCH  24  25
ENDBRANCH  23  24
ENDBRANCH  22  23
ENDBRANCH  21  22
ENDBRANCH  20  21
ENDBRANCH  19  20
ENDBRANCH  18  19
ENDBRANCH   1  18
TORSDOF 28
ENDMDL
MODEL 7
REMARK VINA RESULT:     3.404      2.681      8.152
REMARK INTER + INTRA:           7.986
REMARK INTER:                   9.398
REMARK INTRA:                  -1.412
REMARK UNBOUND:                -0.989
REMARK SMILES CCCCCCCCCCCCCCCCCCCCCCCCCCCCCC(=O)[O-]
REMARK SMILES IDX 16 1 17 2 18 3 19 4 20 5 21 6 22 7 23 8 24 9 25 10 26 11
REMARK SMILES IDX 27 12 28 13 29 14 30 15 31 16 32 17 15 18 14 19 13 20 12 21
REMARK SMILES IDX 11 22 10 23 9 24 8 25 7 26 6 27 5 28 4 29 3 30 2 31 1 32
REMARK H PARENT
REMARK Flexibility Score: inf
ROOT
ATOM      1  C   UNL     1       6.674   6.299   8.764  1.00  0.00     0.000 C 
ENDROOT
BRANCH   1   2
ATOM      2  C   UNL     1       5.637   5.276   9.256  1.00  0.00     0.000 C 
BRANCH   2   3
ATOM      3  C   UNL     1       4.684   4.815   8.142  1.00  0.00     0.000 C 
BRANCH   3   4
ATOM      4  C   UNL     1       4.662   3.282   8.052  1.00  0.00     0.000 C 
BRANCH   4   5
ATOM      5  C   UNL     1       4.537   2.763   6.608  1.00  0.00     0.000 C 
BRANCH   5   6
ATOM      6  C   UNL     1       5.042   3.726   5.517  1.00  0.00     0.000 C 
BRANCH   6   7
ATOM      7  C   UNL     1       3.915   4.256   4.613  1.00  0.00     0.000 C 
BRANCH   7   8
ATOM      8  C   UNL     1       3.462   3.217   3.573  1.00  0.00     0.000 C 
BRANCH   8   9
ATOM      9  C   UNL     1       2.852   3.871   2.320  1.00  0.00     0.000 C 
BRANCH   9  10
ATOM     10  C   UNL     1       1.754   4.893   2.670  1.00  0.00     0.000 C 
BRANCH  10  11
ATOM     11  C   UNL     1       1.003   5.465   1.449  1.00  0.00     0.000 C 
BRANCH  11  12
ATOM     12  C   UNL     1       0.906   4.506   0.245  1.00  0.00     0.000 C 
BRANCH  12  13
ATOM     13  C   UNL     1      -0.420   4.639  -0.520  1.00  0.00     0.006 C 
BRANCH  13  14
ATOM     14  C   UNL     1      -1.574   3.987   0.251  1.00  0.00     0.053 C 
BRANCH  14  15
ATOM     15  C   UNL     1      -2.519   5.037   0.748  1.00  0.00     0.041 C 
ATOM     16  O   UNL     1      -2.086   6.027   1.396  1.00  0.00    -0.550 OA
ATOM     17  O   UNL     1      -3.865   4.965   0.420  1.00  0.00    -0.550 OA
ENDBRANCH  14  15
ENDBRANCH  13  14
ENDBRANCH  12  13
ENDBRANCH  11  12
ENDBRANCH  10  11
ENDBRANCH   9  10
ENDBRANCH   8   9
ENDBRANCH   7   8
ENDBRANCH   6   7
ENDBRANCH   5   6
ENDBRANCH   4   5
ENDBRANCH   3   4
ENDBRANCH   2   3
ENDBRANCH   1   2
BRANCH   1  18
ATOM     18  C   UNL     1       7.251   7.149   9.909  1.00  0.00     0.000 C 
BRANCH  18  19
ATOM     19  C   UNL     1       6.479   8.471  10.116  1.00  0.00     0.000 C 
BRANCH  19  20
ATOM     20  C   UNL     1       7.238   9.726   9.642  1.00  0.00     0.000 C 
BRANCH  20  21
ATOM     21  C   UNL     1       6.350  10.910   9.214  1.00  0.00     0.000 C 
BRANCH  21  22
ATOM     22  C   UNL     1       5.784  10.820   7.780  1.00  0.00     0.000 C 
BRANCH  22  23
ATOM     23  C   UNL     1       6.836  10.888   6.656  1.00  0.00     0.000 C 
BRANCH  23  24
ATOM     24  C   UNL     1       6.985   9.594   5.833  1.00  0.00    -0.000 C 
BRANCH  24  25
ATOM     25  C   UNL     1       6.213   8.414   6.447  1.00  0.00    -0.000 C 
BRANCH  25  26
ATOM     26  C   UNL     1       6.098   7.212   5.487  1.00  0.00    -0.000 C 
BRANCH  26  27
ATOM     27  C   UNL     1       5.928   7.612   4.007  1.00  0.00    -0.000 C 
BRANCH  27  28
ATOM     28  C   UNL     1       4.832   6.843   3.248  1.00  0.00    -0.000 C 
BRANCH  28  29
ATOM     29  C   UNL     1       5.305   6.110   1.976  1.00  0.00    -0.000 C 
BRANCH  29  30
ATOM     30  C   UNL     1       4.220   5.899   0.904  1.00  0.00    -0.000 C 
BRANCH  30  31
ATOM     31  C   UNL     1       4.783   5.884  -0.525  1.00  0.00    -0.003 C 
ATOM     32  C   UNL     1       5.816   4.772  -0.691  1.00  0.00     0.004 C 
ENDBRANCH  30  31
ENDBRANCH  29  30
ENDBRANCH  28  29
ENDBRANCH  27  28
ENDBRANCH  26  27
ENDBRANCH  25  26
ENDBRANCH  24  25
ENDBRANCH  23  24
ENDBRANCH  22  23
ENDBRANCH  21  22
ENDBRANCH  20  21
ENDBRANCH  19  20
ENDBRANCH  18  19
ENDBRANCH   1  18
TORSDOF 28
ENDMDL
MODEL 8
REMARK VINA RESULT:     4.652      4.408      7.886
REMARK INTER + INTRA:          11.278
REMARK INTER:                  12.290
REMARK INTRA:                  -1.012
REMARK UNBOUND:                -0.989
REMARK SMILES CCCCCCCCCCCCCCCCCCCCCCCCCCCCCC(=O)[O-]
REMARK SMILES IDX 16 1 17 2 18 3 19 4 20 5 21 6 22 7 23 8 24 9 25 10 26 11
REMARK SMILES IDX 27 12 28 13 29 14 30 15 31 16 32 17 15 18 14 19 13 20 12 21
REMARK SMILES IDX 11 22 10 23 9 24 8 25 7 26 6 27 5 28 4 29 3 30 2 31 1 32
REMARK H PARENT
REMARK Flexibility Score: inf
ROOT
ATOM      1  C   UNL     1       5.900  10.092   8.607  1.00  0.00     0.000 C 
ENDROOT
BRANCH   1   2
ATOM      2  C   UNL     1       7.049  10.202   9.624  1.00  0.00     0.000 C 
BRANCH   2   3
ATOM      3  C   UNL     1       7.648   8.835   9.993  1.00  0.00     0.000 C 
BRANCH   3   4
ATOM      4  C   UNL     1       6.542   7.777  10.112  1.00  0.00     0.000 C 
BRANCH   4   5
ATOM      5  C   UNL     1       6.630   6.686   9.030  1.00  0.00     0.000 C 
BRANCH   5   6
ATOM      6  C   UNL     1       6.391   5.247   9.526  1.00  0.00     0.000 C 
BRANCH   6   7
ATOM      7  C   UNL     1       5.125   4.607   8.930  1.00  0.00     0.000 C 
BRANCH   7   8
ATOM      8  C   UNL     1       5.420   3.269   8.229  1.00  0.00     0.000 C 
BRANCH   8   9
ATOM      9  C   UNL     1       4.576   2.113   8.794  1.00  0.00     0.000 C 
BRANCH   9  10
ATOM     10  C   UNL     1       5.102   0.734   8.352  1.00  0.00     0.000 C 
BRANCH  10  11
ATOM     11  C   UNL     1       4.177  -0.447   8.716  1.00  0.00     0.000 C 
BRANCH  11  12
ATOM     12  C   UNL     1       4.454  -1.083  10.093  1.00  0.00     0.000 C 
BRANCH  12  13
ATOM     13  C   UNL     1       4.183  -2.595  10.119  1.00  0.00     0.006 C 
BRANCH  13  14
ATOM     14  C   UNL     1       2.811  -2.924   9.519  1.00  0.00     0.053 C 
BRANCH  14  15
ATOM     15  C   UNL     1       2.522  -4.385   9.663  1.00  0.00     0.041 C 
ATOM     16  O   UNL     1       1.364  -4.778   9.970  1.00  0.00    -0.550 OA
ATOM     17  O   UNL     1       3.508  -5.317   9.373  1.00  0.00    -0.550 OA
ENDBRANCH  14  15
ENDBRANCH  13  14
ENDBRANCH  12  13
ENDBRANCH  11  12
ENDBRANCH  10  11
ENDBRANCH   9  10
ENDBRANCH   8   9
ENDBRANCH   7   8
ENDBRANCH   6   7
ENDBRANCH   5   6
ENDBRANCH   4   5
ENDBRANCH   3   4
ENDBRANCH   2   3
ENDBRANCH   1   2
BRANCH   1  18
ATOM     18  C   UNL     1       6.191  10.859   7.305  1.00  0.00     0.000 C 
BRANCH  18  19
ATOM     19  C   UNL     1       5.375  10.326   6.106  1.00  0.00     0.000 C 
BRANCH  19  20
ATOM     20  C   UNL     1       6.202  10.124   4.821  1.00  0.00     0.000 C 
BRANCH  20  21
ATOM     21  C   UNL     1       7.078   8.857   4.795  1.00  0.00     0.000 C 
BRANCH  21  22
ATOM     22  C   UNL     1       6.301   7.524   4.727  1.00  0.00     0.000 C 
BRANCH  22  23
ATOM     23  C   UNL     1       5.319   7.399   3.545  1.00  0.00     0.000 C 
BRANCH  23  24
ATOM     24  C   UNL     1       4.576   6.052   3.464  1.00  0.00    -0.000 C 
BRANCH  24  25
ATOM     25  C   UNL     1       3.966   5.799   2.076  1.00  0.00    -0.000 C 
BRANCH  25  26
ATOM     26  C   UNL     1       2.489   5.355   2.144  1.00  0.00    -0.000 C 
BRANCH  26  27
ATOM     27  C   UNL     1       2.054   4.460   0.965  1.00  0.00    -0.000 C 
BRANCH  27  28
ATOM     28  C   UNL     1       1.037   5.100   0.005  1.00  0.00    -0.000 C 
BRANCH  28  29
ATOM     29  C   UNL     1      -0.370   5.329   0.596  1.00  0.00    -0.000 C 
BRANCH  29  30
ATOM     30  C   UNL     1      -1.525   5.242  -0.419  1.00  0.00    -0.000 C 
BRANCH  30  31
ATOM     31  C   UNL     1      -2.147   3.840  -0.501  1.00  0.00    -0.003 C 
ATOM     32  C   UNL     1      -1.091   2.762  -0.270  1.00  0.00     0.004 C 
ENDBRANCH  30  31
ENDBRANCH  29  30
ENDBRANCH  28  29
ENDBRANCH  27  28
ENDBRANCH  26  27
ENDBRANCH  25  26
ENDBRANCH  24  25
ENDBRANCH  23  24
ENDBRANCH  22  23
ENDBRANCH  21  22
ENDBRANCH  20  21
ENDBRANCH  19  20
ENDBRANCH  18  19
ENDBRANCH   1  18
TORSDOF 28
ENDMDL
