MODEL 1
REMARK VINA RESULT:    -4.631      0.000      0.000
REMARK INTER + INTRA:          -9.706
REMARK INTER:                  -8.962
REMARK INTRA:                  -0.744
REMARK UNBOUND:                -0.744
REMARK SMILES CCCCCCCCCCCCCCCCCC(=O)[O-]
REMARK SMILES IDX 10 1 11 2 12 3 13 4 14 5 15 6 16 7 17 8 18 9 19 10 20 11
REMARK SMILES IDX 9 12 8 13 7 14 6 15 5 16 4 17 3 18 2 19 1 20
REMARK H PARENT
REMARK Flexibility Score: inf
ROOT
ATOM      1  C   UNL     1       0.305  -6.654  -1.986  1.00  0.00     0.000 C 
ENDROOT
BRANCH   1   2
ATOM      2  C   UNL     1      -0.816  -7.711  -1.901  1.00  0.00     0.000 C 
BRANCH   2   3
ATOM      3  C   UNL     1      -0.501  -8.931  -1.014  1.00  0.00     0.000 C 
BRANCH   3   4
ATOM      4  C   UNL     1      -1.731  -9.709  -0.511  1.00  0.00     0.000 C 
BRANCH   4   5
ATOM      5  C   UNL     1      -1.403 -10.642   0.668  1.00  0.00     0.000 C 
BRANCH   5   6
ATOM      6  C   UNL     1      -2.651 -11.026   1.479  1.00  0.00     0.000 C 
BRANCH   6   7
ATOM      7  C   UNL     1      -2.576 -10.558   2.943  1.00  0.00     0.006 C 
BRANCH   7   8
ATOM      8  C   UNL     1      -2.115  -9.100   3.061  1.00  0.00     0.053 C 
BRANCH   8   9
ATOM      9  C   UNL     1      -2.633  -8.453   4.310  1.00  0.00     0.041 C 
ATOM     10  O   UNL     1      -3.387  -9.093   5.088  1.00  0.00    -0.550 OA
ATOM     11  O   UNL     1      -2.310  -7.133   4.594  1.00  0.00    -0.550 OA
ENDBRANCH   8   9
ENDBRANCH   7   8
ENDBRANCH   6   7
ENDBRANCH   5   6
ENDBRANCH   4   5
ENDBRANCH   3   4
ENDBRANCH   2   3
ENDBRANCH   1   2
BRANCH   1  12
ATOM     12  C   UNL     1       0.006  -5.331  -1.258  1.00  0.00     0.000 C 
BRANCH  12  13
ATOM     13  C   UNL     1       0.905  -4.177  -1.724  1.00  0.00    -0.000 C 
BRANCH  13  14
ATOM     14  C   UNL     1       0.371  -2.828  -1.218  1.00  0.00    -0.000 C 
BRANCH  14  15
ATOM     15  C   UNL     1       0.713  -1.662  -2.159  1.00  0.00    -0.000 C 
BRANCH  15  16
ATOM     16  C   UNL     1       1.689  -2.072  -3.276  1.00  0.00    -0.000 C 
BRANCH  16  17
ATOM     17  C   UNL     1       2.952  -1.191  -3.319  1.00  0.00    -0.000 C 
BRANCH  17  18
ATOM     18  C   UNL     1       3.389  -0.603  -1.962  1.00  0.00    -0.000 C 
BRANCH  18  19
ATOM     19  C   UNL     1       4.908  -0.588  -1.719  1.00  0.00    -0.003 C 
ATOM     20  C   UNL     1       5.294   0.056  -0.389  1.00  0.00     0.004 C 
ENDBRANCH  18  19
ENDBRANCH  17  18
ENDBRANCH  16  17
ENDBRANCH  15  16
ENDBRANCH  14  15
ENDBRANCH  13  14
ENDBRANCH  12  13
ENDBRANCH   1  12
TORSDOF 16
ENDMDL
MODEL 2
REMARK VINA RESULT:    -4.552      1.238      2.114
REMARK INTER + INTRA:          -9.553
REMARK INTER:                  -8.796
REMARK INTRA:                  -0.757
REMARK UNBOUND:                -0.744
REMARK SMILES CCCCCCCCCCCCCCCCCC(=O)[O-]
REMARK SMILES IDX 10 1 11 2 12 3 13 4 14 5 15 6 16 7 17 8 18 9 19 10 20 11
REMARK SMILES IDX 9 12 8 13 7 14 6 15 5 16 4 17 3 18 2 19 1 20
REMARK H PARENT
REMARK Flexibility Score: inf
ROOT
ATOM      1  C   UNL     1      -0.932  -8.203  -2.266  1.00  0.00     0.000 C 
ENDROOT
BRANCH   1   2
ATOM      2  C   UNL     1      -0.741  -8.692  -0.816  1.00  0.00     0.000 C 
BRANCH   2   3
ATOM      3  C   UNL     1      -1.703  -9.809  -0.366  1.00  0.00     0.000 C 
BRANCH   3   4
ATOM      4  C   UNL     1      -1.141 -10.769   0.698  1.00  0.00     0.000 C 
BRANCH   4   5
ATOM      5  C   UNL     1      -1.935 -10.728   2.015  1.00  0.00     0.000 C 
BRANCH   5   6
ATOM      6  C   UNL     1      -2.223  -9.293   2.485  1.00  0.00     0.000 C 
BRANCH   6   7
ATOM      7  C   UNL     1      -2.654  -9.226   3.961  1.00  0.00     0.006 C 
BRANCH   7   8
ATOM      8  C   UNL     1      -3.795 -10.202   4.274  1.00  0.00     0.053 C 
BRANCH   8   9
ATOM      9  C   UNL     1      -4.598  -9.753   5.458  1.00  0.00     0.041 C 
ATOM     10  O   UNL     1      -5.687  -9.144   5.290  1.00  0.00    -0.550 OA
ATOM     11  O   UNL     1      -4.126  -9.977   6.744  1.00  0.00    -0.550 OA
ENDBRANCH   8   9
ENDBRANCH   7   8
ENDBRANCH   6   7
ENDBRANCH   5   6
ENDBRANCH   4   5
ENDBRANCH   3   4
ENDBRANCH   2   3
ENDBRANCH   1   2
BRANCH   1  12
ATOM     12  C   UNL     1      -0.724  -6.692  -2.475  1.00  0.00     0.000 C 
BRANCH  12  13
ATOM     13  C   UNL     1       0.407  -6.120  -1.608  1.00  0.00    -0.000 C 
BRANCH  13  14
ATOM     14  C   UNL     1       0.786  -4.704  -2.067  1.00  0.00    -0.000 C 
BRANCH  14  15
ATOM     15  C   UNL     1       0.423  -3.627  -1.032  1.00  0.00    -0.000 C 
BRANCH  15  16
ATOM     16  C   UNL     1       0.697  -2.201  -1.544  1.00  0.00    -0.000 C 
BRANCH  16  17
ATOM     17  C   UNL     1       1.236  -2.178  -2.986  1.00  0.00    -0.000 C 
BRANCH  17  18
ATOM     18  C   UNL     1       2.626  -1.531  -3.158  1.00  0.00    -0.000 C 
BRANCH  18  19
ATOM     19  C   UNL     1       3.050  -0.589  -2.018  1.00  0.00    -0.003 C 
ATOM     20  C   UNL     1       4.558  -0.591  -1.772  1.00  0.00     0.004 C 
ENDBRANCH  18  19
ENDBRANCH  17  18
ENDBRANCH  16  17
ENDBRANCH  15  16
ENDBRANCH  14  15
ENDBRANCH  13  14
ENDBRANCH  12  13
ENDBRANCH   1  12
TORSDOF 16
ENDMDL
MODEL 3
REMARK VINA RESULT:    -4.333      8.128     11.639
REMARK INTER + INTRA:          -9.130
REMARK INTER:                  -7.056
REMARK INTRA:                  -2.074
REMARK UNBOUND:                -0.744
REMARK SMILES CCCCCCCCCCCCCCCCCC(=O)[O-]
REMARK SMILES IDX 10 1 11 2 12 3 13 4 14 5 15 6 16 7 17 8 18 9 19 10 20 11
REMARK SMILES IDX 9 12 8 13 7 14 6 15 5 16 4 17 3 18 2 19 1 20
REMARK H PARENT
REMARK Flexibility Score: inf
ROOT
ATOM      1  C   UNL     1      -6.746  -4.751   7.073  1.00  0.00     0.000 C 
ENDROOT
BRANCH   1   2
ATOM      2  C   UNL     1      -5.330  -5.350   7.198  1.00  0.00     0.000 C 
BRANCH   2   3
ATOM      3  C   UNL     1      -4.482  -5.305   5.912  1.00  0.00     0.000 C 
BRANCH   3   4
ATOM      4  C   UNL     1      -3.054  -4.758   6.089  1.00  0.00     0.000 C 
BRANCH   4   5
ATOM      5  C   UNL     1      -3.012  -3.460   6.914  1.00  0.00     0.000 C 
BRANCH   5   6
ATOM      6  C   UNL     1      -3.720  -2.291   6.209  1.00  0.00     0.000 C 
BRANCH   6   7
ATOM      7  C   UNL     1      -4.734  -1.575   7.118  1.00  0.00     0.006 C 
BRANCH   7   8
ATOM      8  C   UNL     1      -5.554  -0.527   6.356  1.00  0.00     0.053 C 
BRANCH   8   9
ATOM      9  C   UNL     1      -5.701   0.741   7.142  1.00  0.00     0.041 C 
ATOM     10  O   UNL     1      -4.681   1.380   7.509  1.00  0.00    -0.550 OA
ATOM     11  O   UNL     1      -6.964   1.196   7.498  1.00  0.00    -0.550 OA
ENDBRANCH   8   9
ENDBRANCH   7   8
ENDBRANCH   6   7
ENDBRANCH   5   6
ENDBRANCH   4   5
ENDBRANCH   3   4
ENDBRANCH   2   3
ENDBRANCH   1   2
BRANCH   1  12
ATOM     12  C   UNL     1      -7.306  -4.705   5.639  1.00  0.00     0.000 C 
BRANCH  12  13
ATOM     13  C   UNL     1      -8.570  -5.559   5.464  1.00  0.00    -0.000 C 
BRANCH  13  14
ATOM     14  C   UNL     1      -8.208  -7.000   5.075  1.00  0.00    -0.000 C 
BRANCH  14  15
ATOM     15  C   UNL     1      -8.421  -7.999   6.224  1.00  0.00    -0.000 C 
BRANCH  15  16
ATOM     16  C   UNL     1      -7.105  -8.635   6.704  1.00  0.00    -0.000 C 
BRANCH  16  17
ATOM     17  C   UNL     1      -5.997  -8.595   5.635  1.00  0.00    -0.000 C 
BRANCH  17  18
ATOM     18  C   UNL     1      -4.769  -9.482   5.928  1.00  0.00    -0.000 C 
BRANCH  18  19
ATOM     19  C   UNL     1      -4.185 -10.207   4.705  1.00  0.00    -0.003 C 
ATOM     20  C   UNL     1      -3.062  -9.424   4.027  1.00  0.00     0.004 C 
ENDBRANCH  18  19
ENDBRANCH  17  18
ENDBRANCH  16  17
ENDBRANCH  15  16
ENDBRANCH  14  15
ENDBRANCH  13  14
ENDBRANCH  12  13
ENDBRANCH   1  12
TORSDOF 16
ENDMDL
MODEL 4
REMARK VINA RESULT:    -4.325      7.325     10.155
REMARK INTER + INTRA:          -9.114
REMARK INTER:                  -7.055
REMARK INTRA:                  -2.059
REMARK UNBOUND:                -0.744
REMARK SMILES CCCCCCCCCCCCCCCCCC(=O)[O-]
REMARK SMILES IDX 10 1 11 2 12 3 13 4 14 5 15 6 16 7 17 8 18 9 19 10 20 11
REMARK SMILES IDX 9 12 8 13 7 14 6 15 5 16 4 17 3 18 2 19 1 20
REMARK H PARENT
REMARK Flexibility Score: inf
ROOT
ATOM      1  C   UNL     1      -3.994  -4.698   5.515  1.00  0.00     0.000 C 
ENDROOT
BRANCH   1   2
ATOM      2  C   UNL     1      -4.355  -4.879   7.004  1.00  0.00     0.000 C 
BRANCH   2   3
ATOM      3  C   UNL     1      -5.309  -6.049   7.311  1.00  0.00     0.000 C 
BRANCH   3   4
ATOM      4  C   UNL     1      -5.234  -7.231   6.327  1.00  0.00     0.000 C 
BRANCH   4   5
ATOM      5  C   UNL     1      -5.598  -8.575   6.981  1.00  0.00     0.000 C 
BRANCH   5   6
ATOM      6  C   UNL     1      -4.844  -9.758   6.355  1.00  0.00     0.000 C 
BRANCH   6   7
ATOM      7  C   UNL     1      -4.785  -9.680   4.818  1.00  0.00     0.006 C 
BRANCH   7   8
ATOM      8  C   UNL     1      -3.500 -10.301   4.257  1.00  0.00     0.053 C 
BRANCH   8   9
ATOM      9  C   UNL     1      -2.564  -9.255   3.731  1.00  0.00     0.041 C 
ATOM     10  O   UNL     1      -2.190  -8.309   4.473  1.00  0.00    -0.550 OA
ATOM     11  O   UNL     1      -2.132  -9.308   2.412  1.00  0.00    -0.550 OA
ENDBRANCH   8   9
ENDBRANCH   7   8
ENDBRANCH   6   7
ENDBRANCH   5   6
ENDBRANCH   4   5
ENDBRANCH   3   4
ENDBRANCH   2   3
ENDBRANCH   1   2
BRANCH   1  12
ATOM     12  C   UNL     1      -4.835  -3.648   4.767  1.00  0.00     0.000 C 
BRANCH  12  13
ATOM     13  C   UNL     1      -4.943  -2.318   5.527  1.00  0.00    -0.000 C 
BRANCH  13  14
ATOM     14  C   UNL     1      -6.387  -1.795   5.512  1.00  0.00    -0.000 C 
BRANCH  14  15
ATOM     15  C   UNL     1      -7.104  -1.990   6.857  1.00  0.00    -0.000 C 
BRANCH  15  16
ATOM     16  C   UNL     1      -8.637  -1.951   6.720  1.00  0.00    -0.000 C 
BRANCH  16  17
ATOM     17  C   UNL     1      -9.230  -3.299   6.271  1.00  0.00    -0.000 C 
BRANCH  17  18
ATOM     18  C   UNL     1      -8.573  -4.547   6.896  1.00  0.00    -0.000 C 
BRANCH  18  19
ATOM     19  C   UNL     1      -8.832  -5.864   6.144  1.00  0.00    -0.003 C 
ATOM     20  C   UNL     1      -8.272  -5.860   4.723  1.00  0.00     0.004 C 
ENDBRANCH  18  19
ENDBRANCH  17  18
ENDBRANCH  16  17
ENDBRANCH  15  16
ENDBRANCH  14  15
ENDBRANCH  13  14
ENDBRANCH  12  13
ENDBRANCH   1  12
TORSDOF 16
ENDMDL
MODEL 5
REMARK VINA RESULT:    -4.279      7.089     11.187
REMARK INTER + INTRA:          -9.024
REMARK INTER:                  -7.551
REMARK INTRA:                  -1.474
REMARK UNBOUND:                -0.744
REMARK SMILES CCCCCCCCCCCCCCCCCC(=O)[O-]
REMARK SMILES IDX 10 1 11 2 12 3 13 4 14 5 15 6 16 7 17 8 18 9 19 10 20 11
REMARK SMILES IDX 9 12 8 13 7 14 6 15 5 16 4 17 3 18 2 19 1 20
REMARK H PARENT
REMARK Flexibility Score: inf
ROOT
ATOM      1  C   UNL     1      -7.921  -4.119   6.353  1.00  0.00     0.000 C 
ENDROOT
BRANCH   1   2
ATOM      2  C   UNL     1      -8.563  -2.857   6.965  1.00  0.00     0.000 C 
BRANCH   2   3
ATOM      3  C   UNL     1      -7.704  -1.579   6.887  1.00  0.00     0.000 C 
BRANCH   3   4
ATOM      4  C   UNL     1      -6.873  -1.427   5.600  1.00  0.00     0.000 C 
BRANCH   4   5
ATOM      5  C   UNL     1      -5.430  -0.971   5.874  1.00  0.00     0.000 C 
BRANCH   5   6
ATOM      6  C   UNL     1      -4.580  -2.069   6.533  1.00  0.00     0.000 C 
BRANCH   6   7
ATOM      7  C   UNL     1      -3.693  -2.820   5.525  1.00  0.00     0.006 C 
BRANCH   7   8
ATOM      8  C   UNL     1      -4.295  -4.171   5.121  1.00  0.00     0.053 C 
BRANCH   8   9
ATOM      9  C   UNL     1      -3.572  -5.315   5.765  1.00  0.00     0.041 C 
ATOM     10  O   UNL     1      -2.513  -5.764   5.254  1.00  0.00    -0.550 OA
ATOM     11  O   UNL     1      -4.088  -5.906   6.911  1.00  0.00    -0.550 OA
ENDBRANCH   8   9
ENDBRANCH   7   8
ENDBRANCH   6   7
ENDBRANCH   5   6
ENDBRANCH   4   5
ENDBRANCH   3   4
ENDBRANCH   2   3
ENDBRANCH   1   2
BRANCH   1  12
ATOM     12  C   UNL     1      -8.880  -5.004   5.537  1.00  0.00     0.000 C 
BRANCH  12  13
ATOM     13  C   UNL     1      -8.161  -6.145   4.803  1.00  0.00    -0.000 C 
BRANCH  13  14
ATOM     14  C   UNL     1      -8.910  -7.473   4.987  1.00  0.00    -0.000 C 
BRANCH  14  15
ATOM     15  C   UNL     1      -7.966  -8.684   5.057  1.00  0.00    -0.000 C 
BRANCH  15  16
ATOM     16  C   UNL     1      -6.568  -8.313   5.583  1.00  0.00    -0.000 C 
BRANCH  16  17
ATOM     17  C   UNL     1      -5.595  -9.507   5.587  1.00  0.00    -0.000 C 
BRANCH  17  18
ATOM     18  C   UNL     1      -4.123  -9.155   5.291  1.00  0.00    -0.000 C 
BRANCH  18  19
ATOM     19  C   UNL     1      -3.531  -9.830   4.042  1.00  0.00    -0.003 C 
ATOM     20  C   UNL     1      -2.204  -9.214   3.603  1.00  0.00     0.004 C 
ENDBRANCH  18  19
ENDBRANCH  17  18
ENDBRANCH  16  17
ENDBRANCH  15  16
ENDBRANCH  14  15
ENDBRANCH  13  14
ENDBRANCH  12  13
ENDBRANCH   1  12
TORSDOF 16
ENDMDL
MODEL 6
REMARK VINA RESULT:    -4.175      8.156     11.674
REMARK INTER + INTRA:          -8.824
REMARK INTER:                  -7.225
REMARK INTRA:                  -1.599
REMARK UNBOUND:                -0.744
REMARK SMILES CCCCCCCCCCCCCCCCCC(=O)[O-]
REMARK SMILES IDX 10 1 11 2 12 3 13 4 14 5 15 6 16 7 17 8 18 9 19 10 20 11
REMARK SMILES IDX 9 12 8 13 7 14 6 15 5 16 4 17 3 18 2 19 1 20
REMARK H PARENT
REMARK Flexibility Score: inf
ROOT
ATOM      1  C   UNL     1      -8.864  -5.452   5.689  1.00  0.00     0.000 C 
ENDROOT
BRANCH   1   2
ATOM      2  C   UNL     1      -7.458  -5.124   5.146  1.00  0.00     0.000 C 
BRANCH   2   3
ATOM      3  C   UNL     1      -6.464  -4.572   6.187  1.00  0.00     0.000 C 
BRANCH   3   4
ATOM      4  C   UNL     1      -4.982  -4.876   5.903  1.00  0.00     0.000 C 
BRANCH   4   5
ATOM      5  C   UNL     1      -4.129  -3.604   5.766  1.00  0.00     0.000 C 
BRANCH   5   6
ATOM      6  C   UNL     1      -4.975  -2.321   5.795  1.00  0.00     0.000 C 
BRANCH   6   7
ATOM      7  C   UNL     1      -4.749  -1.489   7.070  1.00  0.00     0.006 C 
BRANCH   7   8
ATOM      8  C   UNL     1      -6.047  -0.850   7.581  1.00  0.00     0.053 C 
BRANCH   8   9
ATOM      9  C   UNL     1      -6.041   0.638   7.399  1.00  0.00     0.041 C 
ATOM     10  O   UNL     1      -4.973   1.235   7.103  1.00  0.00    -0.550 OA
ATOM     11  O   UNL     1      -7.208   1.366   7.590  1.00  0.00    -0.550 OA
ENDBRANCH   8   9
ENDBRANCH   7   8
ENDBRANCH   6   7
ENDBRANCH   5   6
ENDBRANCH   4   5
ENDBRANCH   3   4
ENDBRANCH   2   3
ENDBRANCH   1   2
BRANCH   1  12
ATOM     12  C   UNL     1      -9.686  -6.420   4.819  1.00  0.00     0.000 C 
BRANCH  12  13
ATOM     13  C   UNL     1      -8.923  -6.898   3.575  1.00  0.00    -0.000 C 
BRANCH  13  14
ATOM     14  C   UNL     1      -8.919  -8.432   3.491  1.00  0.00    -0.000 C 
BRANCH  14  15
ATOM     15  C   UNL     1      -8.544  -9.100   4.824  1.00  0.00    -0.000 C 
BRANCH  15  16
ATOM     16  C   UNL     1      -7.070  -9.538   4.871  1.00  0.00    -0.000 C 
BRANCH  16  17
ATOM     17  C   UNL     1      -6.181  -8.561   5.662  1.00  0.00    -0.000 C 
BRANCH  17  18
ATOM     18  C   UNL     1      -4.709  -8.994   5.822  1.00  0.00    -0.000 C 
BRANCH  18  19
ATOM     19  C   UNL     1      -4.134  -9.794   4.640  1.00  0.00    -0.003 C 
ATOM     20  C   UNL     1      -2.845  -9.193   4.085  1.00  0.00     0.004 C 
ENDBRANCH  18  19
ENDBRANCH  17  18
ENDBRANCH  16  17
ENDBRANCH  15  16
ENDBRANCH  14  15
ENDBRANCH  13  14
ENDBRANCH  12  13
ENDBRANCH   1  12
TORSDOF 16
ENDMDL
MODEL 7
REMARK VINA RESULT:    -4.156      6.594     10.909
REMARK INTER + INTRA:          -8.787
REMARK INTER:                  -7.416
REMARK INTRA:                  -1.371
REMARK UNBOUND:                -0.744
REMARK SMILES CCCCCCCCCCCCCCCCCC(=O)[O-]
REMARK SMILES IDX 10 1 11 2 12 3 13 4 14 5 15 6 16 7 17 8 18 9 19 10 20 11
REMARK SMILES IDX 9 12 8 13 7 14 6 15 5 16 4 17 3 18 2 19 1 20
REMARK H PARENT
REMARK Flexibility Score: inf
ROOT
ATOM      1  C   UNL     1      -7.303  -5.961   6.191  1.00  0.00     0.000 C 
ENDROOT
BRANCH   1   2
ATOM      2  C   UNL     1      -7.656  -4.641   5.475  1.00  0.00     0.000 C 
BRANCH   2   3
ATOM      3  C   UNL     1      -8.575  -3.690   6.267  1.00  0.00     0.000 C 
BRANCH   3   4
ATOM      4  C   UNL     1      -8.030  -2.263   6.459  1.00  0.00     0.000 C 
BRANCH   4   5
ATOM      5  C   UNL     1      -6.843  -1.949   5.532  1.00  0.00     0.000 C 
BRANCH   5   6
ATOM      6  C   UNL     1      -5.830  -0.989   6.176  1.00  0.00     0.000 C 
BRANCH   6   7
ATOM      7  C   UNL     1      -4.503  -1.680   6.539  1.00  0.00     0.006 C 
BRANCH   7   8
ATOM      8  C   UNL     1      -4.197  -2.864   5.614  1.00  0.00     0.053 C 
BRANCH   8   9
ATOM      9  C   UNL     1      -2.824  -3.416   5.856  1.00  0.00     0.041 C 
ATOM     10  O   UNL     1      -2.606  -4.649   5.733  1.00  0.00    -0.550 OA
ATOM     11  O   UNL     1      -1.795  -2.570   6.249  1.00  0.00    -0.550 OA
ENDBRANCH   8   9
ENDBRANCH   7   8
ENDBRANCH   6   7
ENDBRANCH   5   6
ENDBRANCH   4   5
ENDBRANCH   3   4
ENDBRANCH   2   3
ENDBRANCH   1   2
BRANCH   1  12
ATOM     12  C   UNL     1      -5.868  -6.035   6.743  1.00  0.00     0.000 C 
BRANCH  12  13
ATOM     13  C   UNL     1      -5.238  -7.426   6.586  1.00  0.00    -0.000 C 
BRANCH  13  14
ATOM     14  C   UNL     1      -6.322  -8.501   6.412  1.00  0.00    -0.000 C 
BRANCH  14  15
ATOM     15  C   UNL     1      -5.754  -9.847   5.934  1.00  0.00    -0.000 C 
BRANCH  15  16
ATOM     16  C   UNL     1      -4.744  -9.687   4.785  1.00  0.00    -0.000 C 
BRANCH  16  17
ATOM     17  C   UNL     1      -3.737 -10.850   4.707  1.00  0.00    -0.000 C 
BRANCH  17  18
ATOM     18  C   UNL     1      -2.972 -10.969   3.373  1.00  0.00    -0.000 C 
BRANCH  18  19
ATOM     19  C   UNL     1      -2.266  -9.682   2.911  1.00  0.00    -0.003 C 
ATOM     20  C   UNL     1      -2.074  -9.618   1.397  1.00  0.00     0.004 C 
ENDBRANCH  18  19
ENDBRANCH  17  18
ENDBRANCH  16  17
ENDBRANCH  15  16
ENDBRANCH  14  15
ENDBRANCH  13  14
ENDBRANCH  12  13
ENDBRANCH   1  12
TORSDOF 16
ENDMDL
MODEL 8
REMARK VINA RESULT:    -4.150      7.342     10.277
REMARK INTER + INTRA:          -8.775
REMARK INTER:                  -6.661
REMARK INTRA:                  -2.114
REMARK UNBOUND:                -0.744
REMARK SMILES CCCCCCCCCCCCCCCCCC(=O)[O-]
REMARK SMILES IDX 10 1 11 2 12 3 13 4 14 5 15 6 16 7 17 8 18 9 19 10 20 11
REMARK SMILES IDX 9 12 8 13 7 14 6 15 5 16 4 17 3 18 2 19 1 20
REMARK H PARENT
REMARK Flexibility Score: inf
ROOT
ATOM      1  C   UNL     1      -3.880  -3.459   5.470  1.00  0.00     0.000 C 
ENDROOT
BRANCH   1   2
ATOM      2  C   UNL     1      -3.363  -4.705   6.217  1.00  0.00     0.000 C 
BRANCH   2   3
ATOM      3  C   UNL     1      -4.434  -5.497   6.992  1.00  0.00     0.000 C 
BRANCH   3   4
ATOM      4  C   UNL     1      -5.406  -6.311   6.119  1.00  0.00     0.000 C 
BRANCH   4   5
ATOM      5  C   UNL     1      -5.902  -7.591   6.814  1.00  0.00     0.000 C 
BRANCH   5   6
ATOM      6  C   UNL     1      -5.884  -8.812   5.881  1.00  0.00     0.000 C 
BRANCH   6   7
ATOM      7  C   UNL     1      -4.565  -9.602   5.959  1.00  0.00     0.006 C 
BRANCH   7   8
ATOM      8  C   UNL     1      -4.128 -10.132   4.588  1.00  0.00     0.053 C 
BRANCH   8   9
ATOM      9  C   UNL     1      -3.054  -9.280   3.981  1.00  0.00     0.041 C 
ATOM     10  O   UNL     1      -2.608  -9.545   2.834  1.00  0.00    -0.550 OA
ATOM     11  O   UNL     1      -2.525  -8.214   4.697  1.00  0.00    -0.550 OA
ENDBRANCH   8   9
ENDBRANCH   7   8
ENDBRANCH   6   7
ENDBRANCH   5   6
ENDBRANCH   4   5
ENDBRANCH   3   4
ENDBRANCH   2   3
ENDBRANCH   1   2
BRANCH   1  12
ATOM     12  C   UNL     1      -4.040  -2.200   6.342  1.00  0.00     0.000 C 
BRANCH  12  13
ATOM     13  C   UNL     1      -5.475  -1.653   6.342  1.00  0.00    -0.000 C 
BRANCH  13  14
ATOM     14  C   UNL     1      -6.404  -2.553   5.515  1.00  0.00    -0.000 C 
BRANCH  14  15
ATOM     15  C   UNL     1      -7.826  -2.632   6.093  1.00  0.00    -0.000 C 
BRANCH  15  16
ATOM     16  C   UNL     1      -8.130  -4.001   6.728  1.00  0.00    -0.000 C 
BRANCH  16  17
ATOM     17  C   UNL     1      -9.337  -4.704   6.081  1.00  0.00    -0.000 C 
BRANCH  17  18
ATOM     18  C   UNL     1      -9.066  -6.133   5.565  1.00  0.00    -0.000 C 
BRANCH  18  19
ATOM     19  C   UNL     1      -8.979  -6.267   4.035  1.00  0.00    -0.003 C 
ATOM     20  C   UNL     1      -8.777  -7.709   3.573  1.00  0.00     0.004 C 
ENDBRANCH  18  19
ENDBRANCH  17  18
ENDBRANCH  16  17
ENDBRANCH  15  16
ENDBRANCH  14  15
ENDBRANCH  13  14
ENDBRANCH  12  13
ENDBRANCH   1  12
TORSDOF 16
ENDMDL
MODEL 9
REMARK VINA RESULT:    -4.113      8.385     12.030
REMARK INTER + INTRA:          -8.704
REMARK INTER:                  -6.037
REMARK INTRA:                  -2.667
REMARK UNBOUND:                -0.744
REMARK SMILES CCCCCCCCCCCCCCCCCC(=O)[O-]
REMARK SMILES IDX 10 1 11 2 12 3 13 4 14 5 15 6 16 7 17 8 18 9 19 10 20 11
REMARK SMILES IDX 9 12 8 13 7 14 6 15 5 16 4 17 3 18 2 19 1 20
REMARK H PARENT
REMARK Flexibility Score: inf
ROOT
ATOM      1  C   UNL     1      -5.969  -5.334   5.894  1.00  0.00     0.000 C 
ENDROOT
BRANCH   1   2
ATOM      2  C   UNL     1      -7.218  -4.517   5.506  1.00  0.00     0.000 C 
BRANCH   2   3
ATOM      3  C   UNL     1      -7.913  -3.786   6.672  1.00  0.00     0.000 C 
BRANCH   3   4
ATOM      4  C   UNL     1      -7.796  -2.251   6.644  1.00  0.00     0.000 C 
BRANCH   4   5
ATOM      5  C   UNL     1      -6.842  -1.746   5.548  1.00  0.00     0.000 C 
BRANCH   5   6
ATOM      6  C   UNL     1      -5.699  -0.887   6.112  1.00  0.00     0.000 C 
BRANCH   6   7
ATOM      7  C   UNL     1      -4.532  -1.731   6.654  1.00  0.00     0.006 C 
BRANCH   7   8
ATOM      8  C   UNL     1      -3.867  -2.571   5.556  1.00  0.00     0.053 C 
BRANCH   8   9
ATOM      9  C   UNL     1      -2.612  -3.229   6.045  1.00  0.00     0.041 C 
ATOM     10  O   UNL     1      -2.415  -4.453   5.833  1.00  0.00    -0.550 OA
ATOM     11  O   UNL     1      -1.678  -2.495   6.765  1.00  0.00    -0.550 OA
ENDBRANCH   8   9
ENDBRANCH   7   8
ENDBRANCH   6   7
ENDBRANCH   5   6
ENDBRANCH   4   5
ENDBRANCH   3   4
ENDBRANCH   2   3
ENDBRANCH   1   2
BRANCH   1  12
ATOM     12  C   UNL     1      -5.718  -5.456   7.408  1.00  0.00     0.000 C 
BRANCH  12  13
ATOM     13  C   UNL     1      -5.646  -6.914   7.885  1.00  0.00    -0.000 C 
BRANCH  13  14
ATOM     14  C   UNL     1      -5.838  -7.885   6.711  1.00  0.00    -0.000 C 
BRANCH  14  15
ATOM     15  C   UNL     1      -7.116  -8.730   6.841  1.00  0.00    -0.000 C 
BRANCH  15  16
ATOM     16  C   UNL     1      -8.329  -7.900   7.294  1.00  0.00    -0.000 C 
BRANCH  16  17
ATOM     17  C   UNL     1      -9.345  -7.659   6.162  1.00  0.00    -0.000 C 
BRANCH  17  18
ATOM     18  C   UNL     1      -9.012  -8.350   4.823  1.00  0.00    -0.000 C 
BRANCH  18  19
ATOM     19  C   UNL     1      -8.816  -7.398   3.631  1.00  0.00    -0.003 C 
ATOM     20  C   UNL     1      -9.866  -6.290   3.574  1.00  0.00     0.004 C 
ENDBRANCH  18  19
ENDBRANCH  17  18
ENDBRANCH  16  17
ENDBRANCH  15  16
ENDBRANCH  14  15
ENDBRANCH  13  14
ENDBRANCH  12  13
ENDBRANCH   1  12
TORSDOF 16
ENDMDL
