MODEL 1
REMARK VINA RESULT:    -3.791      0.000      0.000
REMARK INTER + INTRA:          -6.711
REMARK INTER:                  -6.007
REMARK INTRA:                  -0.705
REMARK UNBOUND:                -0.705
REMARK SMILES CCCCCCCCCCCC(=O)[O-]
REMARK SMILES IDX 7 1 8 2 9 3 10 4 11 5 12 6 13 7 14 8 6 9 5 10 4 11 3 12 2 13
REMARK SMILES IDX 1 14
REMARK H PARENT
REMARK Flexibility Score: inf
ROOT
ATOM      1  C   UNL     1      -4.397   7.649  -4.045  1.00  0.00     0.000 C 
ENDROOT
BRANCH   1   2
ATOM      2  C   UNL     1      -4.882   8.433  -2.814  1.00  0.00     0.000 C 
BRANCH   2   3
ATOM      3  C   UNL     1      -4.140   9.769  -2.635  1.00  0.00     0.000 C 
BRANCH   3   4
ATOM      4  C   UNL     1      -3.773  10.054  -1.167  1.00  0.00     0.006 C 
BRANCH   4   5
ATOM      5  C   UNL     1      -3.662   8.799  -0.286  1.00  0.00     0.053 C 
BRANCH   5   6
ATOM      6  C   UNL     1      -2.244   8.342  -0.136  1.00  0.00     0.041 C 
ATOM      7  O   UNL     1      -1.699   7.656  -1.040  1.00  0.00    -0.550 OA
ATOM      8  O   UNL     1      -1.534   8.647   1.018  1.00  0.00    -0.550 OA
ENDBRANCH   5   6
ENDBRANCH   4   5
ENDBRANCH   3   4
ENDBRANCH   2   3
ENDBRANCH   1   2
BRANCH   1   9
ATOM      9  C   UNL     1      -3.030   8.138  -4.555  1.00  0.00     0.000 C 
BRANCH   9  10
ATOM     10  C   UNL     1      -1.962   7.031  -4.537  1.00  0.00    -0.000 C 
BRANCH  10  11
ATOM     11  C   UNL     1      -2.211   5.953  -5.605  1.00  0.00    -0.000 C 
BRANCH  11  12
ATOM     12  C   UNL     1      -1.118   4.871  -5.617  1.00  0.00    -0.000 C 
BRANCH  12  13
ATOM     13  C   UNL     1      -1.669   3.475  -5.943  1.00  0.00    -0.003 C 
ATOM     14  C   UNL     1      -1.269   2.464  -4.873  1.00  0.00     0.004 C 
ENDBRANCH  12  13
ENDBRANCH  11  12
ENDBRANCH  10  11
ENDBRANCH   9  10
ENDBRANCH   1   9
TORSDOF 10
ENDMDL
MODEL 2
REMARK VINA RESULT:    -3.671      3.014      6.060
REMARK INTER + INTRA:          -6.521
REMARK INTER:                  -5.278
REMARK INTRA:                  -1.243
REMARK UNBOUND:                -0.705
REMARK SMILES CCCCCCCCCCCC(=O)[O-]
REMARK SMILES IDX 7 1 8 2 9 3 10 4 11 5 12 6 13 7 14 8 6 9 5 10 4 11 3 12 2 13
REMARK SMILES IDX 1 14
REMARK H PARENT
REMARK Flexibility Score: inf
ROOT
ATOM      1  C   UNL     1      -1.181   7.612  -1.333  1.00  0.00     0.000 C 
ENDROOT
BRANCH   1   2
ATOM      2  C   UNL     1      -1.135   8.836  -2.263  1.00  0.00     0.000 C 
BRANCH   2   3
ATOM      3  C   UNL     1      -1.025   8.446  -3.747  1.00  0.00     0.000 C 
BRANCH   3   4
ATOM      4  C   UNL     1      -1.210   6.936  -3.981  1.00  0.00     0.006 C 
BRANCH   4   5
ATOM      5  C   UNL     1      -2.239   6.583  -5.067  1.00  0.00     0.053 C 
BRANCH   5   6
ATOM      6  C   UNL     1      -1.744   5.505  -5.980  1.00  0.00     0.041 C 
ATOM      7  O   UNL     1      -1.093   5.801  -7.017  1.00  0.00    -0.550 OA
ATOM      8  O   UNL     1      -2.028   4.174  -5.704  1.00  0.00    -0.550 OA
ENDBRANCH   5   6
ENDBRANCH   4   5
ENDBRANCH   3   4
ENDBRANCH   2   3
ENDBRANCH   1   2
BRANCH   1   9
ATOM      9  C   UNL     1      -1.432   7.996   0.136  1.00  0.00     0.000 C 
BRANCH   9  10
ATOM     10  C   UNL     1      -2.041   9.400   0.284  1.00  0.00    -0.000 C 
BRANCH  10  11
ATOM     11  C   UNL     1      -3.547   9.363   0.592  1.00  0.00    -0.000 C 
BRANCH  11  12
ATOM     12  C   UNL     1      -4.412   9.569  -0.663  1.00  0.00    -0.000 C 
BRANCH  12  13
ATOM     13  C   UNL     1      -4.879   8.244  -1.285  1.00  0.00    -0.003 C 
ATOM     14  C   UNL     1      -4.756   8.279  -2.806  1.00  0.00     0.004 C 
ENDBRANCH  12  13
ENDBRANCH  11  12
ENDBRANCH  10  11
ENDBRANCH   9  10
ENDBRANCH   1   9
TORSDOF 10
ENDMDL
MODEL 3
REMARK VINA RESULT:    -3.626      3.010      6.508
REMARK INTER + INTRA:          -6.451
REMARK INTER:                  -5.825
REMARK INTRA:                  -0.625
REMARK UNBOUND:                -0.705
REMARK SMILES CCCCCCCCCCCC(=O)[O-]
REMARK SMILES IDX 7 1 8 2 9 3 10 4 11 5 12 6 13 7 14 8 6 9 5 10 4 11 3 12 2 13
REMARK SMILES IDX 1 14
REMARK H PARENT
REMARK Flexibility Score: inf
ROOT
ATOM      1  C   UNL     1      -3.357   8.064  -2.272  1.00  0.00     0.000 C 
ENDROOT
BRANCH   1   2
ATOM      2  C   UNL     1      -4.409   7.846  -3.373  1.00  0.00     0.000 C 
BRANCH   2   3
ATOM      3  C   UNL     1      -3.798   7.288  -4.670  1.00  0.00     0.000 C 
BRANCH   3   4
ATOM      4  C   UNL     1      -2.282   7.535  -4.768  1.00  0.00     0.006 C 
BRANCH   4   5
ATOM      5  C   UNL     1      -1.423   6.263  -4.664  1.00  0.00     0.053 C 
BRANCH   5   6
ATOM      6  C   UNL     1      -1.561   5.393  -5.874  1.00  0.00     0.041 C 
ATOM      7  O   UNL     1      -1.278   5.844  -7.015  1.00  0.00    -0.550 OA
ATOM      8  O   UNL     1      -2.033   4.094  -5.746  1.00  0.00    -0.550 OA
ENDBRANCH   5   6
ENDBRANCH   4   5
ENDBRANCH   3   4
ENDBRANCH   2   3
ENDBRANCH   1   2
BRANCH   1   9
ATOM      9  C   UNL     1      -3.983   8.517  -0.940  1.00  0.00     0.000 C 
BRANCH   9  10
ATOM     10  C   UNL     1      -4.324  10.017  -0.928  1.00  0.00    -0.000 C 
BRANCH  10  11
ATOM     11  C   UNL     1      -3.542  10.793   0.145  1.00  0.00    -0.000 C 
BRANCH  11  12
ATOM     12  C   UNL     1      -3.543  10.081   1.507  1.00  0.00    -0.000 C 
BRANCH  12  13
ATOM     13  C   UNL     1      -2.157  10.064   2.169  1.00  0.00    -0.003 C 
ATOM     14  C   UNL     1      -1.234   9.060   1.485  1.00  0.00     0.004 C 
ENDBRANCH  12  13
ENDBRANCH  11  12
ENDBRANCH  10  11
ENDBRANCH   9  10
ENDBRANCH   1   9
TORSDOF 10
ENDMDL
MODEL 4
REMARK VINA RESULT:    -3.623      2.947      5.547
REMARK INTER + INTRA:          -6.445
REMARK INTER:                  -5.356
REMARK INTRA:                  -1.089
REMARK UNBOUND:                -0.705
REMARK SMILES CCCCCCCCCCCC(=O)[O-]
REMARK SMILES IDX 7 1 8 2 9 3 10 4 11 5 12 6 13 7 14 8 6 9 5 10 4 11 3 12 2 13
REMARK SMILES IDX 1 14
REMARK H PARENT
REMARK Flexibility Score: inf
ROOT
ATOM      1  C   UNL     1      -4.454   8.691  -2.802  1.00  0.00     0.000 C 
ENDROOT
BRANCH   1   2
ATOM      2  C   UNL     1      -4.652   7.487  -3.738  1.00  0.00     0.000 C 
BRANCH   2   3
ATOM      3  C   UNL     1      -3.700   7.515  -4.947  1.00  0.00     0.000 C 
BRANCH   3   4
ATOM      4  C   UNL     1      -2.244   7.821  -4.550  1.00  0.00     0.006 C 
BRANCH   4   5
ATOM      5  C   UNL     1      -1.320   6.592  -4.533  1.00  0.00     0.053 C 
BRANCH   5   6
ATOM      6  C   UNL     1      -1.378   5.828  -5.819  1.00  0.00     0.041 C 
ATOM      7  O   UNL     1      -0.950   6.345  -6.884  1.00  0.00    -0.550 OA
ATOM      8  O   UNL     1      -1.936   4.557  -5.847  1.00  0.00    -0.550 OA
ENDBRANCH   5   6
ENDBRANCH   4   5
ENDBRANCH   3   4
ENDBRANCH   2   3
ENDBRANCH   1   2
BRANCH   1   9
ATOM      9  C   UNL     1      -4.940   8.412  -1.369  1.00  0.00     0.000 C 
BRANCH   9  10
ATOM     10  C   UNL     1      -4.093   9.131  -0.307  1.00  0.00    -0.000 C 
BRANCH  10  11
ATOM     11  C   UNL     1      -2.871   9.845  -0.909  1.00  0.00    -0.000 C 
BRANCH  11  12
ATOM     12  C   UNL     1      -1.578   9.563  -0.127  1.00  0.00    -0.000 C 
BRANCH  12  13
ATOM     13  C   UNL     1      -1.422   8.081   0.246  1.00  0.00    -0.003 C 
ATOM     14  C   UNL     1      -0.974   7.256  -0.957  1.00  0.00     0.004 C 
ENDBRANCH  12  13
ENDBRANCH  11  12
ENDBRANCH  10  11
ENDBRANCH   9  10
ENDBRANCH   1   9
TORSDOF 10
ENDMDL
MODEL 5
REMARK VINA RESULT:    -3.484      2.807      6.284
REMARK INTER + INTRA:          -6.226
REMARK INTER:                  -5.339
REMARK INTRA:                  -0.887
REMARK UNBOUND:                -0.705
REMARK SMILES CCCCCCCCCCCC(=O)[O-]
REMARK SMILES IDX 7 1 8 2 9 3 10 4 11 5 12 6 13 7 14 8 6 9 5 10 4 11 3 12 2 13
REMARK SMILES IDX 1 14
REMARK H PARENT
REMARK Flexibility Score: inf
ROOT
ATOM      1  C   UNL     1      -4.748   9.110  -0.844  1.00  0.00     0.000 C 
ENDROOT
BRANCH   1   2
ATOM      2  C   UNL     1      -3.881   8.020  -1.497  1.00  0.00     0.000 C 
BRANCH   2   3
ATOM      3  C   UNL     1      -2.844   8.599  -2.476  1.00  0.00     0.000 C 
BRANCH   3   4
ATOM      4  C   UNL     1      -3.367   8.673  -3.922  1.00  0.00     0.006 C 
BRANCH   4   5
ATOM      5  C   UNL     1      -3.519   7.307  -4.612  1.00  0.00     0.053 C 
BRANCH   5   6
ATOM      6  C   UNL     1      -2.221   6.812  -5.169  1.00  0.00     0.041 C 
ATOM      7  O   UNL     1      -1.246   7.598  -5.302  1.00  0.00    -0.550 OA
ATOM      8  O   UNL     1      -2.097   5.490  -5.573  1.00  0.00    -0.550 OA
ENDBRANCH   5   6
ENDBRANCH   4   5
ENDBRANCH   3   4
ENDBRANCH   2   3
ENDBRANCH   1   2
BRANCH   1   9
ATOM      9  C   UNL     1      -4.115  10.509  -0.948  1.00  0.00     0.000 C 
BRANCH   9  10
ATOM     10  C   UNL     1      -3.803  11.119   0.429  1.00  0.00    -0.000 C 
BRANCH  10  11
ATOM     11  C   UNL     1      -3.541  10.051   1.504  1.00  0.00    -0.000 C 
BRANCH  11  12
ATOM     12  C   UNL     1      -2.342  10.399   2.402  1.00  0.00    -0.000 C 
BRANCH  12  13
ATOM     13  C   UNL     1      -1.020   9.818   1.878  1.00  0.00    -0.003 C 
ATOM     14  C   UNL     1      -1.268   8.589   1.009  1.00  0.00     0.004 C 
ENDBRANCH  12  13
ENDBRANCH  11  12
ENDBRANCH  10  11
ENDBRANCH   9  10
ENDBRANCH   1   9
TORSDOF 10
ENDMDL
MODEL 6
REMARK VINA RESULT:    -3.458      2.599      6.268
REMARK INTER + INTRA:          -6.184
REMARK INTER:                  -5.505
REMARK INTRA:                  -0.678
REMARK UNBOUND:                -0.705
REMARK SMILES CCCCCCCCCCCC(=O)[O-]
REMARK SMILES IDX 7 1 8 2 9 3 10 4 11 5 12 6 13 7 14 8 6 9 5 10 4 11 3 12 2 13
REMARK SMILES IDX 1 14
REMARK H PARENT
REMARK Flexibility Score: inf
ROOT
ATOM      1  C   UNL     1      -4.573   7.844  -3.277  1.00  0.00     0.000 C 
ENDROOT
BRANCH   1   2
ATOM      2  C   UNL     1      -3.848   7.254  -4.498  1.00  0.00     0.000 C 
BRANCH   2   3
ATOM      3  C   UNL     1      -2.458   7.878  -4.718  1.00  0.00     0.000 C 
BRANCH   3   4
ATOM      4  C   UNL     1      -1.364   6.822  -4.959  1.00  0.00     0.006 C 
BRANCH   4   5
ATOM      5  C   UNL     1      -1.634   5.889  -6.151  1.00  0.00     0.053 C 
BRANCH   5   6
ATOM      6  C   UNL     1      -1.488   4.446  -5.778  1.00  0.00     0.041 C 
ATOM      7  O   UNL     1      -1.944   3.546  -6.531  1.00  0.00    -0.550 OA
ATOM      8  O   UNL     1      -0.876   4.097  -4.582  1.00  0.00    -0.550 OA
ENDBRANCH   5   6
ENDBRANCH   4   5
ENDBRANCH   3   4
ENDBRANCH   2   3
ENDBRANCH   1   2
BRANCH   1   9
ATOM      9  C   UNL     1      -3.664   8.758  -2.436  1.00  0.00     0.000 C 
BRANCH   9  10
ATOM     10  C   UNL     1      -3.339   8.161  -1.056  1.00  0.00    -0.000 C 
BRANCH  10  11
ATOM     11  C   UNL     1      -1.835   8.193  -0.737  1.00  0.00    -0.000 C 
BRANCH  11  12
ATOM     12  C   UNL     1      -1.552   8.536   0.735  1.00  0.00    -0.000 C 
BRANCH  12  13
ATOM     13  C   UNL     1      -1.636  10.044   1.019  1.00  0.00    -0.003 C 
ATOM     14  C   UNL     1      -2.567  10.330   2.193  1.00  0.00     0.004 C 
ENDBRANCH  12  13
ENDBRANCH  11  12
ENDBRANCH  10  11
ENDBRANCH   9  10
ENDBRANCH   1   9
TORSDOF 10
ENDMDL
MODEL 7
REMARK VINA RESULT:    -3.415      1.485      1.910
REMARK INTER + INTRA:          -6.116
REMARK INTER:                  -5.638
REMARK INTRA:                  -0.477
REMARK UNBOUND:                -0.705
REMARK SMILES CCCCCCCCCCCC(=O)[O-]
REMARK SMILES IDX 7 1 8 2 9 3 10 4 11 5 12 6 13 7 14 8 6 9 5 10 4 11 3 12 2 13
REMARK SMILES IDX 1 14
REMARK H PARENT
REMARK Flexibility Score: inf
ROOT
ATOM      1  C   UNL     1      -4.055   7.875  -3.602  1.00  0.00     0.000 C 
ENDROOT
BRANCH   1   2
ATOM      2  C   UNL     1      -3.740   9.042  -2.652  1.00  0.00     0.000 C 
BRANCH   2   3
ATOM      3  C   UNL     1      -2.517   8.763  -1.760  1.00  0.00     0.000 C 
BRANCH   3   4
ATOM      4  C   UNL     1      -2.903   8.456  -0.301  1.00  0.00     0.006 C 
BRANCH   4   5
ATOM      5  C   UNL     1      -3.860   9.480   0.332  1.00  0.00     0.053 C 
BRANCH   5   6
ATOM      6  C   UNL     1      -3.298  10.071   1.587  1.00  0.00     0.041 C 
ATOM      7  O   UNL     1      -2.098   9.861   1.906  1.00  0.00    -0.550 OA
ATOM      8  O   UNL     1      -4.109  10.827   2.423  1.00  0.00    -0.550 OA
ENDBRANCH   5   6
ENDBRANCH   4   5
ENDBRANCH   3   4
ENDBRANCH   2   3
ENDBRANCH   1   2
BRANCH   1   9
ATOM      9  C   UNL     1      -3.096   7.817  -4.804  1.00  0.00     0.000 C 
BRANCH   9  10
ATOM     10  C   UNL     1      -2.074   6.673  -4.690  1.00  0.00    -0.000 C 
BRANCH  10  11
ATOM     11  C   UNL     1      -1.148   6.582  -5.914  1.00  0.00    -0.000 C 
BRANCH  11  12
ATOM     12  C   UNL     1      -1.283   5.243  -6.659  1.00  0.00    -0.000 C 
BRANCH  12  13
ATOM     13  C   UNL     1      -1.850   4.126  -5.770  1.00  0.00    -0.003 C 
ATOM     14  C   UNL     1      -1.310   2.763  -6.191  1.00  0.00     0.004 C 
ENDBRANCH  12  13
ENDBRANCH  11  12
ENDBRANCH  10  11
ENDBRANCH   9  10
ENDBRANCH   1   9
TORSDOF 10
ENDMDL
MODEL 8
REMARK VINA RESULT:    -3.391      2.474      4.103
REMARK INTER + INTRA:          -6.078
REMARK INTER:                  -5.150
REMARK INTRA:                  -0.927
REMARK UNBOUND:                -0.705
REMARK SMILES CCCCCCCCCCCC(=O)[O-]
REMARK SMILES IDX 7 1 8 2 9 3 10 4 11 5 12 6 13 7 14 8 6 9 5 10 4 11 3 12 2 13
REMARK SMILES IDX 1 14
REMARK H PARENT
REMARK Flexibility Score: inf
ROOT
ATOM      1  C   UNL     1      -1.156   8.305  -2.236  1.00  0.00     0.000 C 
ENDROOT
BRANCH   1   2
ATOM      2  C   UNL     1      -1.873   8.031  -0.903  1.00  0.00     0.000 C 
BRANCH   2   3
ATOM      3  C   UNL     1      -0.890   7.832   0.265  1.00  0.00     0.000 C 
BRANCH   3   4
ATOM      4  C   UNL     1      -1.048   8.898   1.364  1.00  0.00     0.006 C 
BRANCH   4   5
ATOM      5  C   UNL     1      -1.866  10.130   0.941  1.00  0.00     0.053 C 
BRANCH   5   6
ATOM      6  C   UNL     1      -3.149  10.240   1.703  1.00  0.00     0.041 C 
ATOM      7  O   UNL     1      -4.246   9.980   1.141  1.00  0.00    -0.550 OA
ATOM      8  O   UNL     1      -3.138  10.663   3.026  1.00  0.00    -0.550 OA
ENDBRANCH   5   6
ENDBRANCH   4   5
ENDBRANCH   3   4
ENDBRANCH   2   3
ENDBRANCH   1   2
BRANCH   1   9
ATOM      9  C   UNL     1      -0.971   7.031  -3.079  1.00  0.00     0.000 C 
BRANCH   9  10
ATOM     10  C   UNL     1      -1.570   7.164  -4.490  1.00  0.00    -0.000 C 
BRANCH  10  11
ATOM     11  C   UNL     1      -2.644   8.261  -4.575  1.00  0.00    -0.000 C 
BRANCH  11  12
ATOM     12  C   UNL     1      -4.072   7.692  -4.550  1.00  0.00    -0.000 C 
BRANCH  12  13
ATOM     13  C   UNL     1      -4.672   7.659  -3.136  1.00  0.00    -0.003 C 
ATOM     14  C   UNL     1      -4.994   9.067  -2.643  1.00  0.00     0.004 C 
ENDBRANCH  12  13
ENDBRANCH  11  12
ENDBRANCH  10  11
ENDBRANCH   9  10
ENDBRANCH   1   9
TORSDOF 10
ENDMDL
MODEL 9
REMARK VINA RESULT:    -3.270      2.701      5.704
REMARK INTER + INTRA:          -5.886
REMARK INTER:                  -4.827
REMARK INTRA:                  -1.059
REMARK UNBOUND:                -0.705
REMARK SMILES CCCCCCCCCCCC(=O)[O-]
REMARK SMILES IDX 7 1 8 2 9 3 10 4 11 5 12 6 13 7 14 8 6 9 5 10 4 11 3 12 2 13
REMARK SMILES IDX 1 14
REMARK H PARENT
REMARK Flexibility Score: inf
ROOT
ATOM      1  C   UNL     1      -1.316   8.679  -3.180  1.00  0.00     0.000 C 
ENDROOT
BRANCH   1   2
ATOM      2  C   UNL     1      -2.135   8.646  -4.482  1.00  0.00     0.000 C 
BRANCH   2   3
ATOM      3  C   UNL     1      -3.102   7.451  -4.540  1.00  0.00     0.000 C 
BRANCH   3   4
ATOM      4  C   UNL     1      -4.511   7.799  -4.027  1.00  0.00     0.006 C 
BRANCH   4   5
ATOM      5  C   UNL     1      -4.687   7.654  -2.506  1.00  0.00     0.053 C 
BRANCH   5   6
ATOM      6  C   UNL     1      -4.811   8.981  -1.827  1.00  0.00     0.041 C 
ATOM      7  O   UNL     1      -4.873   9.048  -0.570  1.00  0.00    -0.550 OA
ATOM      8  O   UNL     1      -4.892  10.144  -2.581  1.00  0.00    -0.550 OA
ENDBRANCH   5   6
ENDBRANCH   4   5
ENDBRANCH   3   4
ENDBRANCH   2   3
ENDBRANCH   1   2
BRANCH   1   9
ATOM      9  C   UNL     1      -1.204  10.096  -2.590  1.00  0.00     0.000 C 
BRANCH   9  10
ATOM     10  C   UNL     1      -1.487  10.130  -1.078  1.00  0.00    -0.000 C 
BRANCH  10  11
ATOM     11  C   UNL     1      -1.284   8.760  -0.408  1.00  0.00    -0.000 C 
BRANCH  11  12
ATOM     12  C   UNL     1      -1.479   8.815   1.116  1.00  0.00    -0.000 C 
BRANCH  12  13
ATOM     13  C   UNL     1      -2.452   9.921   1.551  1.00  0.00    -0.003 C 
ATOM     14  C   UNL     1      -1.850  10.776   2.662  1.00  0.00     0.004 C 
ENDBRANCH  12  13
ENDBRANCH  11  12
ENDBRANCH  10  11
ENDBRANCH   9  10
ENDBRANCH   1   9
TORSDOF 10
ENDMDL
