MODEL 1
REMARK VINA RESULT:    -8.287      0.000      0.000
REMARK INTER + INTRA:         -15.820
REMARK INTER:                 -13.617
REMARK INTRA:                  -2.203
REMARK UNBOUND:                -2.203
REMARK SMILES C[C@@H]1O[C@@H](OC[C@H]2O[C@@H](Oc3c(-c4ccc(O)c(O)c4)oc4cc(O)cc(O)c4c3=O)[C@H](O)[C@H](O)[C@H]2O)[C@@H](O)[C@H](O)[C@H]1O
REMARK SMILES IDX 7 1 36 2 34 3 32 4 9 5 8 6 6 7 5 8 4 9 1 10 2 11 42 12 3 13
REMARK SMILES IDX 40 14 38 15 43 16 41 18 39 20 37 22 35 24 10 26 11 27 12 28
REMARK SMILES IDX 30 29 21 30 29 31 31 32 22 33 27 34 23 35 26 36 24 37 13 38
REMARK SMILES IDX 20 39 14 40 18 41 15 42 16 43 19 44 17 46 28 48 25 50 33 52
REMARK H PARENT 43 17 41 19 39 21 37 23 35 25 19 45 17 47 28 49 25 51 33 53
REMARK Flexibility Score: inf
ROOT
ATOM      1  C   UNL     1     -17.330  -7.847  46.674  1.00  0.00     0.180 C 
ATOM      2  C   UNL     1     -16.852  -9.299  46.857  1.00  0.00     0.177 C 
ATOM      3  C   UNL     1     -15.851  -9.716  45.711  1.00  0.00     0.180 C 
ATOM      4  C   UNL     1     -16.455  -9.473  44.341  1.00  0.00     0.214 C 
ATOM      5  C   UNL     1     -17.090  -8.050  44.284  1.00  0.00     0.339 C 
ATOM      6  O   UNL     1     -17.938  -7.709  45.395  1.00  0.00    -0.332 OA
ENDROOT
BRANCH   1   7
ATOM      7  C   UNL     1     -16.248  -6.764  46.998  1.00  0.00     0.198 C 
BRANCH   7   8
ATOM      8  O   UNL     1     -15.071  -7.399  47.459  1.00  0.00    -0.347 OA
BRANCH   8   9
ATOM      9  C   UNL     1     -14.880  -7.090  48.843  1.00  0.00     0.281 C 
ATOM     10  C   UNL     1     -13.981  -3.506  48.697  1.00  0.00     0.041 C 
ATOM     11  C   UNL     1     -13.795  -5.021  48.529  1.00  0.00     0.150 C 
ATOM     12  C   UNL     1     -12.536  -5.515  49.273  1.00  0.00     0.174 C 
ATOM     13  O   UNL     1     -14.931  -5.674  49.053  1.00  0.00    -0.344 OA
ATOM     14  C   UNL     1     -12.333  -7.001  48.915  1.00  0.00     0.179 C 
ATOM     15  C   UNL     1     -13.604  -7.779  49.352  1.00  0.00     0.202 C 
BRANCH  12  16
ATOM     16  O   UNL     1     -11.391  -4.781  48.947  1.00  0.00    -0.388 OA
ATOM     17  H   UNL     1     -10.733  -4.912  49.674  1.00  0.00     0.211 HD
ENDBRANCH  12  16
BRANCH  14  18
ATOM     18  O   UNL     1     -11.210  -7.533  49.576  1.00  0.00    -0.387 OA
ATOM     19  H   UNL     1     -10.989  -6.919  50.315  1.00  0.00     0.211 HD
ENDBRANCH  14  18
BRANCH  15  20
ATOM     20  O   UNL     1     -13.585  -9.086  48.828  1.00  0.00    -0.385 OA
ATOM     21  H   UNL     1     -14.061  -9.065  47.962  1.00  0.00     0.211 HD
ENDBRANCH  15  20
ENDBRANCH   8   9
ENDBRANCH   7   8
ENDBRANCH   1   7
BRANCH   2  22
ATOM     22  O   UNL     1     -16.405  -9.623  48.150  1.00  0.00    -0.387 OA
ATOM     23  H   UNL     1     -17.070  -9.271  48.842  1.00  0.00     0.211 HD
ENDBRANCH   2  22
BRANCH   3  24
ATOM     24  O   UNL     1     -15.445 -11.044  45.828  1.00  0.00    -0.387 OA
ATOM     25  H   UNL     1     -15.065 -11.180  46.742  1.00  0.00     0.211 HD
ENDBRANCH   3  24
BRANCH   5  26
ATOM     26  O   UNL     1     -16.067  -7.082  44.163  1.00  0.00    -0.454 OA
BRANCH  26  27
ATOM     27  C   UNL     1     -15.663  -6.504  42.959  1.00  0.00     0.214 A 
ATOM     28  C   UNL     1     -14.324  -6.091  42.792  1.00  0.00     0.180 A 
ATOM     29  C   UNL     1     -16.544  -6.363  41.875  1.00  0.00     0.239 A 
ATOM     30  O   UNL     1     -13.911  -5.804  41.554  1.00  0.00    -0.452 OA
ATOM     31  C   UNL     1     -16.021  -6.206  40.582  1.00  0.00     0.111 A 
ATOM     32  O   UNL     1     -17.797  -6.380  42.076  1.00  0.00    -0.285 OA
ATOM     33  C   UNL     1     -14.651  -5.912  40.467  1.00  0.00     0.146 A 
ATOM     34  C   UNL     1     -16.800  -6.373  39.410  1.00  0.00     0.134 A 
ATOM     35  C   UNL     1     -14.064  -5.762  39.224  1.00  0.00     0.094 A 
ATOM     36  C   UNL     1     -16.170  -6.265  38.153  1.00  0.00     0.093 A 
ATOM     37  C   UNL     1     -14.806  -5.973  38.062  1.00  0.00     0.123 A 
BRANCH  28  38
ATOM     38  C   UNL     1     -13.312  -6.018  43.902  1.00  0.00     0.025 A 
ATOM     39  C   UNL     1     -12.558  -7.110  44.414  1.00  0.00     0.062 A 
ATOM     40  C   UNL     1     -13.046  -4.752  44.464  1.00  0.00     0.016 A 
ATOM     41  C   UNL     1     -11.469  -6.898  45.271  1.00  0.00     0.158 A 
ATOM     42  C   UNL     1     -11.926  -4.528  45.283  1.00  0.00     0.051 A 
ATOM     43  C   UNL     1     -11.127  -5.592  45.672  1.00  0.00     0.157 A 
BRANCH  41  44
ATOM     44  O   UNL     1     -10.732  -8.006  45.721  1.00  0.00    -0.504 OA
ATOM     45  H   UNL     1     -11.117  -8.716  46.331  1.00  0.00     0.293 HD
ENDBRANCH  41  44
BRANCH  43  46
ATOM     46  O   UNL     1      -9.972  -5.359  46.419  1.00  0.00    -0.504 OA
ATOM     47  H   UNL     1      -9.989  -5.259  47.447  1.00  0.00     0.293 HD
ENDBRANCH  43  46
ENDBRANCH  28  38
BRANCH  34  48
ATOM     48  O   UNL     1     -18.124  -6.782  39.483  1.00  0.00    -0.507 OA
ATOM     49  H   UNL     1     -18.833  -6.365  38.884  1.00  0.00     0.293 HD
ENDBRANCH  34  48
BRANCH  37  50
ATOM     50  O   UNL     1     -14.166  -5.916  36.821  1.00  0.00    -0.508 OA
ATOM     51  H   UNL     1     -13.160  -6.038  36.725  1.00  0.00     0.293 HD
ENDBRANCH  37  50
ENDBRANCH  26  27
ENDBRANCH   5  26
BRANCH   4  52
ATOM     52  O   UNL     1     -17.396 -10.470  44.013  1.00  0.00    -0.384 OA
ATOM     53  H   UNL     1     -17.538 -10.412  43.032  1.00  0.00     0.211 HD
ENDBRANCH   4  52
TORSDOF 16
ENDMDL
MODEL 2
REMARK VINA RESULT:    -8.213      2.416      3.660
REMARK INTER + INTRA:         -15.697
REMARK INTER:                 -13.111
REMARK INTRA:                  -2.586
REMARK UNBOUND:                -2.203
REMARK SMILES C[C@@H]1O[C@@H](OC[C@H]2O[C@@H](Oc3c(-c4ccc(O)c(O)c4)oc4cc(O)cc(O)c4c3=O)[C@H](O)[C@H](O)[C@H]2O)[C@@H](O)[C@H](O)[C@H]1O
REMARK SMILES IDX 7 1 36 2 34 3 32 4 9 5 8 6 6 7 5 8 4 9 1 10 2 11 42 12 3 13
REMARK SMILES IDX 40 14 38 15 43 16 41 18 39 20 37 22 35 24 10 26 11 27 12 28
REMARK SMILES IDX 30 29 21 30 29 31 31 32 22 33 27 34 23 35 26 36 24 37 13 38
REMARK SMILES IDX 20 39 14 40 18 41 15 42 16 43 19 44 17 46 28 48 25 50 33 52
REMARK H PARENT 43 17 41 19 39 21 37 23 35 25 19 45 17 47 28 49 25 51 33 53
REMARK Flexibility Score: inf
ROOT
ATOM      1  C   UNL     1     -14.181  -6.468  46.483  1.00  0.00     0.180 C 
ATOM      2  C   UNL     1     -13.756  -7.783  47.162  1.00  0.00     0.177 C 
ATOM      3  C   UNL     1     -12.889  -8.671  46.187  1.00  0.00     0.180 C 
ATOM      4  C   UNL     1     -13.609  -8.903  44.873  1.00  0.00     0.214 C 
ATOM      5  C   UNL     1     -14.181  -7.557  44.333  1.00  0.00     0.339 C 
ATOM      6  O   UNL     1     -14.902  -6.765  45.292  1.00  0.00    -0.332 OA
ENDROOT
BRANCH   1   7
ATOM      7  C   UNL     1     -13.025  -5.431  46.299  1.00  0.00     0.198 C 
BRANCH   7   8
ATOM      8  O   UNL     1     -11.930  -5.799  47.115  1.00  0.00    -0.347 OA
BRANCH   8   9
ATOM      9  C   UNL     1     -11.440  -4.642  47.799  1.00  0.00     0.281 C 
ATOM     10  C   UNL     1      -8.902  -3.382  45.424  1.00  0.00     0.041 C 
ATOM     11  C   UNL     1      -9.518  -4.317  46.475  1.00  0.00     0.150 C 
ATOM     12  C   UNL     1      -8.591  -4.466  47.701  1.00  0.00     0.174 C 
ATOM     13  O   UNL     1     -10.752  -3.775  46.889  1.00  0.00    -0.344 OA
ATOM     14  C   UNL     1      -9.201  -5.543  48.621  1.00  0.00     0.179 C 
ATOM     15  C   UNL     1     -10.626  -5.076  49.027  1.00  0.00     0.202 C 
BRANCH  12  16
ATOM     16  O   UNL     1      -7.283  -4.818  47.352  1.00  0.00    -0.388 OA
ATOM     17  H   UNL     1      -7.154  -4.587  46.399  1.00  0.00     0.211 HD
ENDBRANCH  12  16
BRANCH  14  18
ATOM     18  O   UNL     1      -8.421  -5.723  49.778  1.00  0.00    -0.387 OA
ATOM     19  H   UNL     1      -7.610  -6.214  49.508  1.00  0.00     0.211 HD
ENDBRANCH  14  18
BRANCH  15  20
ATOM     20  O   UNL     1     -11.325  -6.124  49.657  1.00  0.00    -0.385 OA
ATOM     21  H   UNL     1     -11.640  -5.785  50.531  1.00  0.00     0.211 HD
ENDBRANCH  15  20
ENDBRANCH   8   9
ENDBRANCH   7   8
ENDBRANCH   1   7
BRANCH   2  22
ATOM     22  O   UNL     1     -13.203  -7.641  48.447  1.00  0.00    -0.387 OA
ATOM     23  H   UNL     1     -12.372  -8.229  48.531  1.00  0.00     0.211 HD
ENDBRANCH   2  22
BRANCH   3  24
ATOM     24  O   UNL     1     -12.536  -9.889  46.764  1.00  0.00    -0.387 OA
ATOM     25  H   UNL     1     -12.250  -9.723  47.707  1.00  0.00     0.211 HD
ENDBRANCH   3  24
BRANCH   5  26
ATOM     26  O   UNL     1     -13.130  -6.786  43.785  1.00  0.00    -0.454 OA
BRANCH  26  27
ATOM     27  C   UNL     1     -12.861  -6.670  42.421  1.00  0.00     0.214 A 
ATOM     28  C   UNL     1     -11.772  -7.368  41.857  1.00  0.00     0.180 A 
ATOM     29  C   UNL     1     -13.678  -5.911  41.569  1.00  0.00     0.239 A 
ATOM     30  O   UNL     1     -11.712  -7.456  40.525  1.00  0.00    -0.452 OA
ATOM     31  C   UNL     1     -13.656  -6.166  40.189  1.00  0.00     0.111 A 
ATOM     32  O   UNL     1     -14.426  -5.006  42.054  1.00  0.00    -0.285 OA
ATOM     33  C   UNL     1     -12.614  -6.969  39.694  1.00  0.00     0.146 A 
ATOM     34  C   UNL     1     -14.652  -5.690  39.300  1.00  0.00     0.134 A 
ATOM     35  C   UNL     1     -12.539  -7.278  38.348  1.00  0.00     0.094 A 
ATOM     36  C   UNL     1     -14.584  -6.058  37.941  1.00  0.00     0.093 A 
ATOM     37  C   UNL     1     -13.539  -6.859  37.471  1.00  0.00     0.123 A 
BRANCH  28  38
ATOM     38  C   UNL     1     -10.714  -8.079  42.654  1.00  0.00     0.025 A 
ATOM     39  C   UNL     1     -10.119  -7.608  43.857  1.00  0.00     0.062 A 
ATOM     40  C   UNL     1     -10.296  -9.349  42.202  1.00  0.00     0.016 A 
ATOM     41  C   UNL     1      -9.330  -8.449  44.653  1.00  0.00     0.158 A 
ATOM     42  C   UNL     1      -9.547 -10.214  43.019  1.00  0.00     0.051 A 
ATOM     43  C   UNL     1      -9.079  -9.775  44.248  1.00  0.00     0.157 A 
BRANCH  41  44
ATOM     44  O   UNL     1      -8.796  -7.949  45.851  1.00  0.00    -0.504 OA
ATOM     45  H   UNL     1      -9.238  -8.082  46.752  1.00  0.00     0.293 HD
ENDBRANCH  41  44
BRANCH  43  46
ATOM     46  O   UNL     1      -8.405 -10.658  45.092  1.00  0.00    -0.504 OA
ATOM     47  H   UNL     1      -8.302 -11.663  44.872  1.00  0.00     0.293 HD
ENDBRANCH  43  46
ENDBRANCH  28  38
BRANCH  34  48
ATOM     48  O   UNL     1     -15.760  -4.998  39.771  1.00  0.00    -0.507 OA
ATOM     49  H   UNL     1     -16.483  -4.674  39.133  1.00  0.00     0.293 HD
ENDBRANCH  34  48
BRANCH  37  50
ATOM     50  O   UNL     1     -13.494  -7.269  36.135  1.00  0.00    -0.508 OA
ATOM     51  H   UNL     1     -12.962  -8.084  35.837  1.00  0.00     0.293 HD
ENDBRANCH  37  50
ENDBRANCH  26  27
ENDBRANCH   5  26
BRANCH   4  52
ATOM     52  O   UNL     1     -14.623  -9.875  45.010  1.00  0.00    -0.384 OA
ATOM     53  H   UNL     1     -14.384 -10.619  44.398  1.00  0.00     0.211 HD
ENDBRANCH   4  52
TORSDOF 16
ENDMDL
MODEL 3
REMARK VINA RESULT:    -8.025      3.008      5.487
REMARK INTER + INTRA:         -15.388
REMARK INTER:                 -12.978
REMARK INTRA:                  -2.411
REMARK UNBOUND:                -2.203
REMARK SMILES C[C@@H]1O[C@@H](OC[C@H]2O[C@@H](Oc3c(-c4ccc(O)c(O)c4)oc4cc(O)cc(O)c4c3=O)[C@H](O)[C@H](O)[C@H]2O)[C@@H](O)[C@H](O)[C@H]1O
REMARK SMILES IDX 7 1 36 2 34 3 32 4 9 5 8 6 6 7 5 8 4 9 1 10 2 11 42 12 3 13
REMARK SMILES IDX 40 14 38 15 43 16 41 18 39 20 37 22 35 24 10 26 11 27 12 28
REMARK SMILES IDX 30 29 21 30 29 31 31 32 22 33 27 34 23 35 26 36 24 37 13 38
REMARK SMILES IDX 20 39 14 40 18 41 15 42 16 43 19 44 17 46 28 48 25 50 33 52
REMARK H PARENT 43 17 41 19 39 21 37 23 35 25 19 45 17 47 28 49 25 51 33 53
REMARK Flexibility Score: inf
ROOT
ATOM      1  C   UNL     1     -10.783  -8.762  45.627  1.00  0.00     0.180 C 
ATOM      2  C   UNL     1     -11.136  -7.637  46.618  1.00  0.00     0.177 C 
ATOM      3  C   UNL     1     -11.803  -6.414  45.876  1.00  0.00     0.180 C 
ATOM      4  C   UNL     1     -10.934  -5.929  44.732  1.00  0.00     0.214 C 
ATOM      5  C   UNL     1     -10.454  -7.139  43.875  1.00  0.00     0.339 C 
ATOM      6  O   UNL     1      -9.920  -8.248  44.619  1.00  0.00    -0.332 OA
ENDROOT
BRANCH   1   7
ATOM      7  C   UNL     1     -12.017  -9.553  45.081  1.00  0.00     0.198 C 
BRANCH   7   8
ATOM      8  O   UNL     1     -13.175  -9.173  45.799  1.00  0.00    -0.347 OA
BRANCH   8   9
ATOM      9  C   UNL     1     -14.090 -10.272  45.836  1.00  0.00     0.281 C 
ATOM     10  C   UNL     1     -17.038  -8.855  44.112  1.00  0.00     0.041 C 
ATOM     11  C   UNL     1     -16.022  -9.058  45.245  1.00  0.00     0.150 C 
ATOM     12  C   UNL     1     -16.726  -9.447  46.563  1.00  0.00     0.174 C 
ATOM     13  O   UNL     1     -15.134 -10.089  44.872  1.00  0.00    -0.344 OA
ATOM     14  C   UNL     1     -15.658  -9.465  47.676  1.00  0.00     0.179 C 
ATOM     15  C   UNL     1     -14.567 -10.496  47.278  1.00  0.00     0.202 C 
BRANCH  12  16
ATOM     16  O   UNL     1     -17.761  -8.569  46.904  1.00  0.00    -0.388 OA
ATOM     17  H   UNL     1     -17.574  -7.701  46.469  1.00  0.00     0.211 HD
ENDBRANCH  12  16
BRANCH  14  18
ATOM     18  O   UNL     1     -16.221  -9.834  48.912  1.00  0.00    -0.387 OA
ATOM     19  H   UNL     1     -16.172 -10.816  48.973  1.00  0.00     0.211 HD
ENDBRANCH  14  18
BRANCH  15  20
ATOM     20  O   UNL     1     -13.447 -10.378  48.124  1.00  0.00    -0.385 OA
ATOM     21  H   UNL     1     -12.992  -9.531  47.895  1.00  0.00     0.211 HD
ENDBRANCH  15  20
ENDBRANCH   8   9
ENDBRANCH   7   8
ENDBRANCH   1   7
BRANCH   2  22
ATOM     22  O   UNL     1     -11.827  -8.050  47.770  1.00  0.00    -0.387 OA
ATOM     23  H   UNL     1     -12.725  -7.566  47.825  1.00  0.00     0.211 HD
ENDBRANCH   2  22
BRANCH   3  24
ATOM     24  O   UNL     1     -12.084  -5.364  46.747  1.00  0.00    -0.387 OA
ATOM     25  H   UNL     1     -12.073  -5.715  47.682  1.00  0.00     0.211 HD
ENDBRANCH   3  24
BRANCH   5  26
ATOM     26  O   UNL     1     -11.519  -7.592  43.062  1.00  0.00    -0.454 OA
BRANCH  26  27
ATOM     27  C   UNL     1     -11.606  -7.387  41.685  1.00  0.00     0.214 A 
ATOM     28  C   UNL     1     -10.832  -8.174  40.806  1.00  0.00     0.180 A 
ATOM     29  C   UNL     1     -12.488  -6.444  41.133  1.00  0.00     0.239 A 
ATOM     30  O   UNL     1     -11.141  -8.144  39.507  1.00  0.00    -0.452 OA
ATOM     31  C   UNL     1     -12.873  -6.569  39.790  1.00  0.00     0.111 A 
ATOM     32  O   UNL     1     -12.925  -5.494  41.853  1.00  0.00    -0.285 OA
ATOM     33  C   UNL     1     -12.141  -7.460  38.985  1.00  0.00     0.146 A 
ATOM     34  C   UNL     1     -13.980  -5.877  39.237  1.00  0.00     0.134 A 
ATOM     35  C   UNL     1     -12.476  -7.648  37.656  1.00  0.00     0.094 A 
ATOM     36  C   UNL     1     -14.334  -6.122  37.894  1.00  0.00     0.093 A 
ATOM     37  C   UNL     1     -13.593  -7.012  37.112  1.00  0.00     0.123 A 
BRANCH  28  38
ATOM     38  C   UNL     1      -9.728  -9.097  41.242  1.00  0.00     0.025 A 
ATOM     39  C   UNL     1      -8.351  -8.758  41.349  1.00  0.00     0.062 A 
ATOM     40  C   UNL     1     -10.084 -10.408  41.625  1.00  0.00     0.016 A 
ATOM     41  C   UNL     1      -7.444  -9.608  41.997  1.00  0.00     0.158 A 
ATOM     42  C   UNL     1      -9.191 -11.243  42.319  1.00  0.00     0.051 A 
ATOM     43  C   UNL     1      -7.880 -10.840  42.522  1.00  0.00     0.157 A 
BRANCH  41  44
ATOM     44  O   UNL     1      -6.102  -9.212  42.109  1.00  0.00    -0.504 OA
ATOM     45  H   UNL     1      -5.524  -8.981  41.311  1.00  0.00     0.293 HD
ENDBRANCH  41  44
BRANCH  43  46
ATOM     46  O   UNL     1      -7.018 -11.633  43.280  1.00  0.00    -0.504 OA
ATOM     47  H   UNL     1      -7.219 -11.886  44.261  1.00  0.00     0.293 HD
ENDBRANCH  43  46
ENDBRANCH  28  38
BRANCH  34  48
ATOM     48  O   UNL     1     -14.797  -5.085  40.031  1.00  0.00    -0.507 OA
ATOM     49  H   UNL     1     -14.757  -5.147  41.046  1.00  0.00     0.293 HD
ENDBRANCH  34  48
BRANCH  37  50
ATOM     50  O   UNL     1     -13.970  -7.297  35.797  1.00  0.00    -0.508 OA
ATOM     51  H   UNL     1     -13.721  -8.172  35.340  1.00  0.00     0.293 HD
ENDBRANCH  37  50
ENDBRANCH  26  27
ENDBRANCH   5  26
BRANCH   4  52
ATOM     52  O   UNL     1      -9.844  -5.169  45.205  1.00  0.00    -0.384 OA
ATOM     53  H   UNL     1     -10.226  -4.336  45.587  1.00  0.00     0.211 HD
ENDBRANCH   4  52
TORSDOF 16
ENDMDL
MODEL 4
REMARK VINA RESULT:    -7.838      2.414      4.797
REMARK INTER + INTRA:         -15.081
REMARK INTER:                 -12.640
REMARK INTRA:                  -2.441
REMARK UNBOUND:                -2.203
REMARK SMILES C[C@@H]1O[C@@H](OC[C@H]2O[C@@H](Oc3c(-c4ccc(O)c(O)c4)oc4cc(O)cc(O)c4c3=O)[C@H](O)[C@H](O)[C@H]2O)[C@@H](O)[C@H](O)[C@H]1O
REMARK SMILES IDX 7 1 36 2 34 3 32 4 9 5 8 6 6 7 5 8 4 9 1 10 2 11 42 12 3 13
REMARK SMILES IDX 40 14 38 15 43 16 41 18 39 20 37 22 35 24 10 26 11 27 12 28
REMARK SMILES IDX 30 29 21 30 29 31 31 32 22 33 27 34 23 35 26 36 24 37 13 38
REMARK SMILES IDX 20 39 14 40 18 41 15 42 16 43 19 44 17 46 28 48 25 50 33 52
REMARK H PARENT 43 17 41 19 39 21 37 23 35 25 19 45 17 47 28 49 25 51 33 53
REMARK Flexibility Score: inf
ROOT
ATOM      1  C   UNL     1     -11.670  -6.357  46.050  1.00  0.00     0.180 C 
ATOM      2  C   UNL     1     -12.810  -5.643  46.800  1.00  0.00     0.177 C 
ATOM      3  C   UNL     1     -13.984  -5.259  45.818  1.00  0.00     0.180 C 
ATOM      4  C   UNL     1     -13.470  -4.454  44.640  1.00  0.00     0.214 C 
ATOM      5  C   UNL     1     -12.200  -5.132  44.043  1.00  0.00     0.339 C 
ATOM      6  O   UNL     1     -11.199  -5.519  45.001  1.00  0.00    -0.332 OA
ENDROOT
BRANCH   1   7
ATOM      7  C   UNL     1     -12.002  -7.820  45.610  1.00  0.00     0.198 C 
BRANCH   7   8
ATOM      8  O   UNL     1     -13.223  -8.224  46.201  1.00  0.00    -0.347 OA
BRANCH   8   9
ATOM      9  C   UNL     1     -13.224  -9.646  46.358  1.00  0.00     0.281 C 
ATOM     10  C   UNL     1     -16.358 -10.589  44.637  1.00  0.00     0.041 C 
ATOM     11  C   UNL     1     -15.472 -10.000  45.744  1.00  0.00     0.150 C 
ATOM     12  C   UNL     1     -15.795 -10.636  47.114  1.00  0.00     0.174 C 
ATOM     13  O   UNL     1     -14.122 -10.253  45.421  1.00  0.00    -0.344 OA
ATOM     14  C   UNL     1     -14.987  -9.875  48.185  1.00  0.00     0.179 C 
ATOM     15  C   UNL     1     -13.481 -10.001  47.830  1.00  0.00     0.202 C 
BRANCH  12  16
ATOM     16  O   UNL     1     -17.159 -10.597  47.422  1.00  0.00    -0.388 OA
ATOM     17  H   UNL     1     -17.465 -11.529  47.546  1.00  0.00     0.211 HD
ENDBRANCH  12  16
BRANCH  14  18
ATOM     18  O   UNL     1     -15.212 -10.412  49.466  1.00  0.00    -0.387 OA
ATOM     19  H   UNL     1     -15.207 -11.394  49.375  1.00  0.00     0.211 HD
ENDBRANCH  14  18
BRANCH  15  20
ATOM     20  O   UNL     1     -12.714  -9.124  48.623  1.00  0.00    -0.385 OA
ATOM     21  H   UNL     1     -13.344  -8.522  49.090  1.00  0.00     0.211 HD
ENDBRANCH  15  20
ENDBRANCH   8   9
ENDBRANCH   7   8
ENDBRANCH   1   7
BRANCH   2  22
ATOM     22  O   UNL     1     -13.238  -6.277  47.980  1.00  0.00    -0.387 OA
ATOM     23  H   UNL     1     -12.465  -6.319  48.647  1.00  0.00     0.211 HD
ENDBRANCH   2  22
BRANCH   3  24
ATOM     24  O   UNL     1     -15.004  -4.567  46.467  1.00  0.00    -0.387 OA
ATOM     25  H   UNL     1     -15.787  -4.505  45.851  1.00  0.00     0.211 HD
ENDBRANCH   3  24
BRANCH   5  26
ATOM     26  O   UNL     1     -12.583  -6.263  43.285  1.00  0.00    -0.454 OA
BRANCH  26  27
ATOM     27  C   UNL     1     -12.413  -6.386  41.906  1.00  0.00     0.214 A 
ATOM     28  C   UNL     1     -11.431  -7.261  41.394  1.00  0.00     0.180 A 
ATOM     29  C   UNL     1     -13.231  -5.697  40.996  1.00  0.00     0.239 A 
ATOM     30  O   UNL     1     -11.482  -7.560  40.093  1.00  0.00    -0.452 OA
ATOM     31  C   UNL     1     -13.337  -6.166  39.678  1.00  0.00     0.111 A 
ATOM     32  O   UNL     1     -13.863  -4.663  41.375  1.00  0.00    -0.285 OA
ATOM     33  C   UNL     1     -12.405  -7.128  39.254  1.00  0.00     0.146 A 
ATOM     34  C   UNL     1     -14.358  -5.744  38.789  1.00  0.00     0.134 A 
ATOM     35  C   UNL     1     -12.460  -7.649  37.974  1.00  0.00     0.094 A 
ATOM     36  C   UNL     1     -14.426  -6.325  37.506  1.00  0.00     0.093 A 
ATOM     37  C   UNL     1     -13.489  -7.281  37.106  1.00  0.00     0.123 A 
BRANCH  28  38
ATOM     38  C   UNL     1     -10.374  -7.933  42.226  1.00  0.00     0.025 A 
ATOM     39  C   UNL     1      -9.265  -7.290  42.842  1.00  0.00     0.062 A 
ATOM     40  C   UNL     1     -10.509  -9.317  42.462  1.00  0.00     0.016 A 
ATOM     41  C   UNL     1      -8.482  -7.954  43.795  1.00  0.00     0.158 A 
ATOM     42  C   UNL     1      -9.759  -9.974  43.453  1.00  0.00     0.051 A 
ATOM     43  C   UNL     1      -8.760  -9.293  44.132  1.00  0.00     0.157 A 
BRANCH  41  44
ATOM     44  O   UNL     1      -7.419  -7.265  44.402  1.00  0.00    -0.504 OA
ATOM     45  H   UNL     1      -6.684  -6.808  43.877  1.00  0.00     0.293 HD
ENDBRANCH  41  44
BRANCH  43  46
ATOM     46  O   UNL     1      -8.071  -9.922  45.170  1.00  0.00    -0.504 OA
ATOM     47  H   UNL     1      -8.217  -9.670  46.161  1.00  0.00     0.293 HD
ENDBRANCH  43  46
ENDBRANCH  28  38
BRANCH  34  48
ATOM     48  O   UNL     1     -15.366  -4.889  39.212  1.00  0.00    -0.507 OA
ATOM     49  H   UNL     1     -15.608  -4.814  40.198  1.00  0.00     0.293 HD
ENDBRANCH  34  48
BRANCH  37  50
ATOM     50  O   UNL     1     -13.581  -7.898  35.855  1.00  0.00    -0.508 OA
ATOM     51  H   UNL     1     -14.265  -7.608  35.159  1.00  0.00     0.293 HD
ENDBRANCH  37  50
ENDBRANCH  26  27
ENDBRANCH   5  26
BRANCH   4  52
ATOM     52  O   UNL     1     -13.214  -3.116  45.009  1.00  0.00    -0.384 OA
ATOM     53  H   UNL     1     -12.289  -2.914  44.710  1.00  0.00     0.211 HD
ENDBRANCH   4  52
TORSDOF 16
ENDMDL
MODEL 5
REMARK VINA RESULT:    -7.834      3.012      4.915
REMARK INTER + INTRA:         -15.075
REMARK INTER:                 -12.365
REMARK INTRA:                  -2.710
REMARK UNBOUND:                -2.203
REMARK SMILES C[C@@H]1O[C@@H](OC[C@H]2O[C@@H](Oc3c(-c4ccc(O)c(O)c4)oc4cc(O)cc(O)c4c3=O)[C@H](O)[C@H](O)[C@H]2O)[C@@H](O)[C@H](O)[C@H]1O
REMARK SMILES IDX 7 1 36 2 34 3 32 4 9 5 8 6 6 7 5 8 4 9 1 10 2 11 42 12 3 13
REMARK SMILES IDX 40 14 38 15 43 16 41 18 39 20 37 22 35 24 10 26 11 27 12 28
REMARK SMILES IDX 30 29 21 30 29 31 31 32 22 33 27 34 23 35 26 36 24 37 13 38
REMARK SMILES IDX 20 39 14 40 18 41 15 42 16 43 19 44 17 46 28 48 25 50 33 52
REMARK H PARENT 43 17 41 19 39 21 37 23 35 25 19 45 17 47 28 49 25 51 33 53
REMARK Flexibility Score: inf
ROOT
ATOM      1  C   UNL     1     -12.701  -6.776  46.601  1.00  0.00     0.180 C 
ATOM      2  C   UNL     1     -12.779  -8.180  47.230  1.00  0.00     0.177 C 
ATOM      3  C   UNL     1     -12.455  -9.298  46.165  1.00  0.00     0.180 C 
ATOM      4  C   UNL     1     -13.340  -9.160  44.941  1.00  0.00     0.214 C 
ATOM      5  C   UNL     1     -13.366  -7.675  44.466  1.00  0.00     0.339 C 
ATOM      6  O   UNL     1     -13.599  -6.702  45.500  1.00  0.00    -0.332 OA
ENDROOT
BRANCH   1   7
ATOM      7  C   UNL     1     -11.249  -6.288  46.287  1.00  0.00     0.198 C 
BRANCH   7   8
ATOM      8  O   UNL     1     -11.236  -4.877  46.196  1.00  0.00    -0.347 OA
BRANCH   8   9
ATOM      9  C   UNL     1     -10.831  -4.492  44.878  1.00  0.00     0.281 C 
ATOM     10  C   UNL     1      -7.628  -2.771  45.546  1.00  0.00     0.041 C 
ATOM     11  C   UNL     1      -9.150  -2.973  45.525  1.00  0.00     0.150 C 
ATOM     12  C   UNL     1      -9.858  -1.808  44.799  1.00  0.00     0.174 C 
ATOM     13  O   UNL     1      -9.433  -4.180  44.853  1.00  0.00    -0.344 OA
ATOM     14  C   UNL     1     -11.378  -2.004  44.971  1.00  0.00     0.179 C 
ATOM     15  C   UNL     1     -11.757  -3.381  44.361  1.00  0.00     0.202 C 
BRANCH  12  16
ATOM     16  O   UNL     1      -9.476  -0.554  45.286  1.00  0.00    -0.388 OA
ATOM     17  H   UNL     1      -8.501  -0.577  45.444  1.00  0.00     0.211 HD
ENDBRANCH  12  16
BRANCH  14  18
ATOM     18  O   UNL     1     -12.097  -0.988  44.314  1.00  0.00    -0.387 OA
ATOM     19  H   UNL     1     -12.924  -0.838  44.828  1.00  0.00     0.211 HD
ENDBRANCH  14  18
BRANCH  15  20
ATOM     20  O   UNL     1     -13.078  -3.726  44.708  1.00  0.00    -0.385 OA
ATOM     21  H   UNL     1     -13.573  -2.883  44.859  1.00  0.00     0.211 HD
ENDBRANCH  15  20
ENDBRANCH   8   9
ENDBRANCH   7   8
ENDBRANCH   1   7
BRANCH   2  22
ATOM     22  O   UNL     1     -12.087  -8.331  48.444  1.00  0.00    -0.387 OA
ATOM     23  H   UNL     1     -11.175  -8.759  48.269  1.00  0.00     0.211 HD
ENDBRANCH   2  22
BRANCH   3  24
ATOM     24  O   UNL     1     -12.571 -10.579  46.700  1.00  0.00    -0.387 OA
ATOM     25  H   UNL     1     -12.146 -11.226  46.068  1.00  0.00     0.211 HD
ENDBRANCH   3  24
BRANCH   5  26
ATOM     26  O   UNL     1     -12.156  -7.371  43.802  1.00  0.00    -0.454 OA
BRANCH  26  27
ATOM     27  C   UNL     1     -12.029  -7.207  42.422  1.00  0.00     0.214 A 
ATOM     28  C   UNL     1     -11.058  -7.944  41.713  1.00  0.00     0.180 A 
ATOM     29  C   UNL     1     -12.881  -6.357  41.699  1.00  0.00     0.239 A 
ATOM     30  O   UNL     1     -11.149  -7.972  40.380  1.00  0.00    -0.452 OA
ATOM     31  C   UNL     1     -13.026  -6.547  40.316  1.00  0.00     0.111 A 
ATOM     32  O   UNL     1     -13.508  -5.432  42.300  1.00  0.00    -0.285 OA
ATOM     33  C   UNL     1     -12.101  -7.390  39.676  1.00  0.00     0.146 A 
ATOM     34  C   UNL     1     -14.078  -5.967  39.564  1.00  0.00     0.134 A 
ATOM     35  C   UNL     1     -12.193  -7.638  38.318  1.00  0.00     0.094 A 
ATOM     36  C   UNL     1     -14.183  -6.274  38.191  1.00  0.00     0.093 A 
ATOM     37  C   UNL     1     -13.252  -7.115  37.576  1.00  0.00     0.123 A 
BRANCH  28  38
ATOM     38  C   UNL     1      -9.970  -8.758  42.358  1.00  0.00     0.025 A 
ATOM     39  C   UNL     1      -8.998  -8.272  43.276  1.00  0.00     0.062 A 
ATOM     40  C   UNL     1      -9.926 -10.139  42.068  1.00  0.00     0.016 A 
ATOM     41  C   UNL     1      -8.189  -9.152  44.007  1.00  0.00     0.158 A 
ATOM     42  C   UNL     1      -9.153 -11.029  42.833  1.00  0.00     0.051 A 
ATOM     43  C   UNL     1      -8.300 -10.542  43.812  1.00  0.00     0.157 A 
BRANCH  41  44
ATOM     44  O   UNL     1      -7.270  -8.625  44.928  1.00  0.00    -0.504 OA
ATOM     45  H   UNL     1      -6.359  -9.033  45.096  1.00  0.00     0.293 HD
ENDBRANCH  41  44
BRANCH  43  46
ATOM     46  O   UNL     1      -7.594 -11.431  44.624  1.00  0.00    -0.504 OA
ATOM     47  H   UNL     1      -6.642 -11.226  44.970  1.00  0.00     0.293 HD
ENDBRANCH  43  46
ENDBRANCH  28  38
BRANCH  34  48
ATOM     48  O   UNL     1     -15.078  -5.231  40.183  1.00  0.00    -0.507 OA
ATOM     49  H   UNL     1     -15.766  -5.684  40.780  1.00  0.00     0.293 HD
ENDBRANCH  34  48
BRANCH  37  50
ATOM     50  O   UNL     1     -13.381  -7.463  36.228  1.00  0.00    -0.508 OA
ATOM     51  H   UNL     1     -14.072  -8.137  35.907  1.00  0.00     0.293 HD
ENDBRANCH  37  50
ENDBRANCH  26  27
ENDBRANCH   5  26
BRANCH   4  52
ATOM     52  O   UNL     1     -14.641  -9.643  45.193  1.00  0.00    -0.384 OA
ATOM     53  H   UNL     1     -14.857  -9.394  46.129  1.00  0.00     0.211 HD
ENDBRANCH   4  52
TORSDOF 16
ENDMDL
MODEL 6
REMARK VINA RESULT:    -7.766      2.673      5.574
REMARK INTER + INTRA:         -14.964
REMARK INTER:                 -13.481
REMARK INTRA:                  -1.482
REMARK UNBOUND:                -2.203
REMARK SMILES C[C@@H]1O[C@@H](OC[C@H]2O[C@@H](Oc3c(-c4ccc(O)c(O)c4)oc4cc(O)cc(O)c4c3=O)[C@H](O)[C@H](O)[C@H]2O)[C@@H](O)[C@H](O)[C@H]1O
REMARK SMILES IDX 7 1 36 2 34 3 32 4 9 5 8 6 6 7 5 8 4 9 1 10 2 11 42 12 3 13
REMARK SMILES IDX 40 14 38 15 43 16 41 18 39 20 37 22 35 24 10 26 11 27 12 28
REMARK SMILES IDX 30 29 21 30 29 31 31 32 22 33 27 34 23 35 26 36 24 37 13 38
REMARK SMILES IDX 20 39 14 40 18 41 15 42 16 43 19 44 17 46 28 48 25 50 33 52
REMARK H PARENT 43 17 41 19 39 21 37 23 35 25 19 45 17 47 28 49 25 51 33 53
REMARK Flexibility Score: inf
ROOT
ATOM      1  C   UNL     1     -12.026  -7.680  46.622  1.00  0.00     0.180 C 
ATOM      2  C   UNL     1     -12.215  -6.214  47.055  1.00  0.00     0.177 C 
ATOM      3  C   UNL     1     -12.316  -5.260  45.803  1.00  0.00     0.180 C 
ATOM      4  C   UNL     1     -11.127  -5.443  44.879  1.00  0.00     0.214 C 
ATOM      5  C   UNL     1     -10.873  -6.960  44.631  1.00  0.00     0.339 C 
ATOM      6  O   UNL     1     -10.861  -7.784  45.810  1.00  0.00    -0.332 OA
ENDROOT
BRANCH   1   7
ATOM      7  C   UNL     1     -13.303  -8.344  46.011  1.00  0.00     0.198 C 
BRANCH   7   8
ATOM      8  O   UNL     1     -14.237  -7.338  45.667  1.00  0.00    -0.347 OA
BRANCH   8   9
ATOM      9  C   UNL     1     -15.512  -7.668  46.226  1.00  0.00     0.281 C 
ATOM     10  C   UNL     1     -16.151 -10.992  44.737  1.00  0.00     0.041 C 
ATOM     11  C   UNL     1     -16.004  -9.464  44.781  1.00  0.00     0.150 C 
ATOM     12  C   UNL     1     -17.284  -8.766  44.273  1.00  0.00     0.174 C 
ATOM     13  O   UNL     1     -15.761  -9.074  46.115  1.00  0.00    -0.344 OA
ATOM     14  C   UNL     1     -16.992  -7.253  44.191  1.00  0.00     0.179 C 
ATOM     15  C   UNL     1     -16.592  -6.765  45.610  1.00  0.00     0.202 C 
BRANCH  12  16
ATOM     16  O   UNL     1     -17.703  -9.242  43.026  1.00  0.00    -0.388 OA
ATOM     17  H   UNL     1     -18.069 -10.151  43.160  1.00  0.00     0.211 HD
ENDBRANCH  12  16
BRANCH  14  18
ATOM     18  O   UNL     1     -18.125  -6.541  43.754  1.00  0.00    -0.387 OA
ATOM     19  H   UNL     1     -18.749  -7.198  43.367  1.00  0.00     0.211 HD
ENDBRANCH  14  18
BRANCH  15  20
ATOM     20  O   UNL     1     -16.074  -5.456  45.552  1.00  0.00    -0.385 OA
ATOM     21  H   UNL     1     -15.151  -5.519  45.205  1.00  0.00     0.211 HD
ENDBRANCH  15  20
ENDBRANCH   8   9
ENDBRANCH   7   8
ENDBRANCH   1   7
BRANCH   2  22
ATOM     22  O   UNL     1     -13.218  -6.000  48.017  1.00  0.00    -0.387 OA
ATOM     23  H   UNL     1     -12.914  -5.281  48.677  1.00  0.00     0.211 HD
ENDBRANCH   2  22
BRANCH   3  24
ATOM     24  O   UNL     1     -12.436  -3.922  46.173  1.00  0.00    -0.387 OA
ATOM     25  H   UNL     1     -12.591  -3.878  47.159  1.00  0.00     0.211 HD
ENDBRANCH   3  24
BRANCH   5  26
ATOM     26  O   UNL     1     -11.836  -7.457  43.724  1.00  0.00    -0.454 OA
BRANCH  26  27
ATOM     27  C   UNL     1     -11.775  -7.298  42.339  1.00  0.00     0.214 A 
ATOM     28  C   UNL     1     -10.860  -8.062  41.583  1.00  0.00     0.180 A 
ATOM     29  C   UNL     1     -12.639  -6.427  41.657  1.00  0.00     0.239 A 
ATOM     30  O   UNL     1     -11.019  -8.088  40.256  1.00  0.00    -0.452 OA
ATOM     31  C   UNL     1     -12.859  -6.615  40.283  1.00  0.00     0.111 A 
ATOM     32  O   UNL     1     -13.211  -5.485  42.287  1.00  0.00    -0.285 OA
ATOM     33  C   UNL     1     -11.990  -7.482  39.600  1.00  0.00     0.146 A 
ATOM     34  C   UNL     1     -13.932  -6.008  39.584  1.00  0.00     0.134 A 
ATOM     35  C   UNL     1     -12.157  -7.730  38.249  1.00  0.00     0.094 A 
ATOM     36  C   UNL     1     -14.114  -6.313  38.219  1.00  0.00     0.093 A 
ATOM     37  C   UNL     1     -13.238  -7.179  37.560  1.00  0.00     0.123 A 
BRANCH  28  38
ATOM     38  C   UNL     1      -9.763  -8.903  42.174  1.00  0.00     0.025 A 
ATOM     39  C   UNL     1      -8.557  -8.415  42.749  1.00  0.00     0.062 A 
ATOM     40  C   UNL     1      -9.955 -10.301  42.207  1.00  0.00     0.016 A 
ATOM     41  C   UNL     1      -7.718  -9.257  43.492  1.00  0.00     0.158 A 
ATOM     42  C   UNL     1      -9.145 -11.139  42.992  1.00  0.00     0.051 A 
ATOM     43  C   UNL     1      -8.040 -10.619  43.648  1.00  0.00     0.157 A 
BRANCH  41  44
ATOM     44  O   UNL     1      -6.557  -8.720  44.072  1.00  0.00    -0.504 OA
ATOM     45  H   UNL     1      -5.916  -8.118  43.570  1.00  0.00     0.293 HD
ENDBRANCH  41  44
BRANCH  43  46
ATOM     46  O   UNL     1      -7.282 -11.435  44.489  1.00  0.00    -0.504 OA
ATOM     47  H   UNL     1      -6.863 -11.085  45.366  1.00  0.00     0.293 HD
ENDBRANCH  43  46
ENDBRANCH  28  38
BRANCH  34  48
ATOM     48  O   UNL     1     -14.880  -5.245  40.251  1.00  0.00    -0.507 OA
ATOM     49  H   UNL     1     -15.566  -4.697  39.736  1.00  0.00     0.293 HD
ENDBRANCH  34  48
BRANCH  37  50
ATOM     50  O   UNL     1     -13.444  -7.525  36.221  1.00  0.00    -0.508 OA
ATOM     51  H   UNL     1     -12.834  -8.177  35.731  1.00  0.00     0.293 HD
ENDBRANCH  37  50
ENDBRANCH  26  27
ENDBRANCH   5  26
BRANCH   4  52
ATOM     52  O   UNL     1      -9.978  -4.805  45.392  1.00  0.00    -0.384 OA
ATOM     53  H   UNL     1     -10.185  -4.565  46.333  1.00  0.00     0.211 HD
ENDBRANCH   4  52
TORSDOF 16
ENDMDL
MODEL 7
REMARK VINA RESULT:    -7.674      4.112      6.884
REMARK INTER + INTRA:         -14.812
REMARK INTER:                 -12.372
REMARK INTRA:                  -2.439
REMARK UNBOUND:                -2.203
REMARK SMILES C[C@@H]1O[C@@H](OC[C@H]2O[C@@H](Oc3c(-c4ccc(O)c(O)c4)oc4cc(O)cc(O)c4c3=O)[C@H](O)[C@H](O)[C@H]2O)[C@@H](O)[C@H](O)[C@H]1O
REMARK SMILES IDX 7 1 36 2 34 3 32 4 9 5 8 6 6 7 5 8 4 9 1 10 2 11 42 12 3 13
REMARK SMILES IDX 40 14 38 15 43 16 41 18 39 20 37 22 35 24 10 26 11 27 12 28
REMARK SMILES IDX 30 29 21 30 29 31 31 32 22 33 27 34 23 35 26 36 24 37 13 38
REMARK SMILES IDX 20 39 14 40 18 41 15 42 16 43 19 44 17 46 28 48 25 50 33 52
REMARK H PARENT 43 17 41 19 39 21 37 23 35 25 19 45 17 47 28 49 25 51 33 53
REMARK Flexibility Score: inf
ROOT
ATOM      1  C   UNL     1     -13.009  -6.447  48.928  1.00  0.00     0.180 C 
ATOM      2  C   UNL     1     -12.042  -5.566  49.740  1.00  0.00     0.177 C 
ATOM      3  C   UNL     1     -10.602  -5.559  49.094  1.00  0.00     0.180 C 
ATOM      4  C   UNL     1     -10.081  -6.970  48.904  1.00  0.00     0.214 C 
ATOM      5  C   UNL     1     -11.180  -7.861  48.248  1.00  0.00     0.339 C 
ATOM      6  O   UNL     1     -12.486  -7.767  48.844  1.00  0.00    -0.332 OA
ENDROOT
BRANCH   1   7
ATOM      7  C   UNL     1     -13.447  -5.834  47.558  1.00  0.00     0.198 C 
BRANCH   7   8
ATOM      8  O   UNL     1     -12.892  -4.540  47.423  1.00  0.00    -0.347 OA
BRANCH   8   9
ATOM      9  C   UNL     1     -12.694  -4.253  46.035  1.00  0.00     0.281 C 
ATOM     10  C   UNL     1      -9.013  -3.964  45.841  1.00  0.00     0.041 C 
ATOM     11  C   UNL     1     -10.449  -3.556  46.201  1.00  0.00     0.150 C 
ATOM     12  C   UNL     1     -10.792  -2.161  45.634  1.00  0.00     0.174 C 
ATOM     13  O   UNL     1     -11.336  -4.508  45.657  1.00  0.00    -0.344 OA
ATOM     14  C   UNL     1     -12.178  -1.761  46.180  1.00  0.00     0.179 C 
ATOM     15  C   UNL     1     -13.201  -2.837  45.725  1.00  0.00     0.202 C 
BRANCH  12  16
ATOM     16  O   UNL     1      -9.843  -1.190  45.973  1.00  0.00    -0.388 OA
ATOM     17  H   UNL     1      -9.196  -1.607  46.593  1.00  0.00     0.211 HD
ENDBRANCH  12  16
BRANCH  14  18
ATOM     18  O   UNL     1     -12.572  -0.503  45.688  1.00  0.00    -0.387 OA
ATOM     19  H   UNL     1     -12.036   0.176  46.160  1.00  0.00     0.211 HD
ENDBRANCH  14  18
BRANCH  15  20
ATOM     20  O   UNL     1     -14.427  -2.663  46.397  1.00  0.00    -0.385 OA
ATOM     21  H   UNL     1     -14.496  -3.379  47.076  1.00  0.00     0.211 HD
ENDBRANCH  15  20
ENDBRANCH   8   9
ENDBRANCH   7   8
ENDBRANCH   1   7
BRANCH   2  22
ATOM     22  O   UNL     1     -12.527  -4.287  50.065  1.00  0.00    -0.387 OA
ATOM     23  H   UNL     1     -13.304  -4.046  49.446  1.00  0.00     0.211 HD
ENDBRANCH   2  22
BRANCH   3  24
ATOM     24  O   UNL     1      -9.697  -4.808  49.842  1.00  0.00    -0.387 OA
ATOM     25  H   UNL     1      -9.930  -3.842  49.745  1.00  0.00     0.211 HD
ENDBRANCH   3  24
BRANCH   5  26
ATOM     26  O   UNL     1     -11.272  -7.556  46.871  1.00  0.00    -0.454 OA
BRANCH  26  27
ATOM     27  C   UNL     1     -10.780  -8.366  45.846  1.00  0.00     0.214 A 
ATOM     28  C   UNL     1     -11.582  -9.403  45.324  1.00  0.00     0.180 A 
ATOM     29  C   UNL     1      -9.516  -8.150  45.276  1.00  0.00     0.239 A 
ATOM     30  O   UNL     1     -11.197  -9.970  44.176  1.00  0.00    -0.452 OA
ATOM     31  C   UNL     1      -9.242  -8.664  43.999  1.00  0.00     0.111 A 
ATOM     32  O   UNL     1      -8.638  -7.494  45.918  1.00  0.00    -0.285 OA
ATOM     33  C   UNL     1     -10.141  -9.608  43.473  1.00  0.00     0.146 A 
ATOM     34  C   UNL     1      -8.138  -8.240  43.218  1.00  0.00     0.134 A 
ATOM     35  C   UNL     1      -9.945 -10.143  42.213  1.00  0.00     0.094 A 
ATOM     36  C   UNL     1      -7.985  -8.761  41.916  1.00  0.00     0.093 A 
ATOM     37  C   UNL     1      -8.892  -9.699  41.413  1.00  0.00     0.123 A 
BRANCH  28  38
ATOM     38  C   UNL     1     -12.876  -9.866  45.934  1.00  0.00     0.025 A 
ATOM     39  C   UNL     1     -13.006 -10.704  47.076  1.00  0.00     0.062 A 
ATOM     40  C   UNL     1     -14.076  -9.399  45.357  1.00  0.00     0.016 A 
ATOM     41  C   UNL     1     -14.244 -10.874  47.711  1.00  0.00     0.158 A 
ATOM     42  C   UNL     1     -15.310  -9.525  46.017  1.00  0.00     0.051 A 
ATOM     43  C   UNL     1     -15.395 -10.244  47.199  1.00  0.00     0.157 A 
BRANCH  41  44
ATOM     44  O   UNL     1     -14.315 -11.682  48.858  1.00  0.00    -0.504 OA
ATOM     45  H   UNL     1     -14.101 -11.342  49.787  1.00  0.00     0.293 HD
ENDBRANCH  41  44
BRANCH  43  46
ATOM     46  O   UNL     1     -16.603 -10.301  47.894  1.00  0.00    -0.504 OA
ATOM     47  H   UNL     1     -16.894  -9.566  48.559  1.00  0.00     0.293 HD
ENDBRANCH  43  46
ENDBRANCH  28  38
BRANCH  34  48
ATOM     48  O   UNL     1      -7.301  -7.222  43.654  1.00  0.00    -0.507 OA
ATOM     49  H   UNL     1      -6.898  -7.242  44.588  1.00  0.00     0.293 HD
ENDBRANCH  34  48
BRANCH  37  50
ATOM     50  O   UNL     1      -8.774 -10.180  40.106  1.00  0.00    -0.508 OA
ATOM     51  H   UNL     1      -9.369  -9.845  39.351  1.00  0.00     0.293 HD
ENDBRANCH  37  50
ENDBRANCH  26  27
ENDBRANCH   5  26
BRANCH   4  52
ATOM     52  O   UNL     1      -9.635  -7.519  50.125  1.00  0.00    -0.384 OA
ATOM     53  H   UNL     1     -10.199  -7.119  50.836  1.00  0.00     0.211 HD
ENDBRANCH   4  52
TORSDOF 16
ENDMDL
MODEL 8
REMARK VINA RESULT:    -7.569      3.135      7.091
REMARK INTER + INTRA:         -14.640
REMARK INTER:                 -12.356
REMARK INTRA:                  -2.284
REMARK UNBOUND:                -2.203
REMARK SMILES C[C@@H]1O[C@@H](OC[C@H]2O[C@@H](Oc3c(-c4ccc(O)c(O)c4)oc4cc(O)cc(O)c4c3=O)[C@H](O)[C@H](O)[C@H]2O)[C@@H](O)[C@H](O)[C@H]1O
REMARK SMILES IDX 7 1 36 2 34 3 32 4 9 5 8 6 6 7 5 8 4 9 1 10 2 11 42 12 3 13
REMARK SMILES IDX 40 14 38 15 43 16 41 18 39 20 37 22 35 24 10 26 11 27 12 28
REMARK SMILES IDX 30 29 21 30 29 31 31 32 22 33 27 34 23 35 26 36 24 37 13 38
REMARK SMILES IDX 20 39 14 40 18 41 15 42 16 43 19 44 17 46 28 48 25 50 33 52
REMARK H PARENT 43 17 41 19 39 21 37 23 35 25 19 45 17 47 28 49 25 51 33 53
REMARK Flexibility Score: inf
ROOT
ATOM      1  C   UNL     1     -12.901  -6.569  48.710  1.00  0.00     0.180 C 
ATOM      2  C   UNL     1     -12.022  -5.685  49.614  1.00  0.00     0.177 C 
ATOM      3  C   UNL     1     -10.617  -5.412  48.949  1.00  0.00     0.180 C 
ATOM      4  C   UNL     1      -9.933  -6.709  48.565  1.00  0.00     0.214 C 
ATOM      5  C   UNL     1     -10.935  -7.640  47.816  1.00  0.00     0.339 C 
ATOM      6  O   UNL     1     -12.221  -7.790  48.442  1.00  0.00    -0.332 OA
ENDROOT
BRANCH   1   7
ATOM      7  C   UNL     1     -13.457  -5.845  47.441  1.00  0.00     0.198 C 
BRANCH   7   8
ATOM      8  O   UNL     1     -14.268  -6.741  46.705  1.00  0.00    -0.347 OA
BRANCH   8   9
ATOM      9  C   UNL     1     -15.645  -6.422  46.926  1.00  0.00     0.281 C 
ATOM     10  C   UNL     1     -17.027  -9.703  47.925  1.00  0.00     0.041 C 
ATOM     11  C   UNL     1     -16.448  -8.637  46.983  1.00  0.00     0.150 C 
ATOM     12  C   UNL     1     -17.391  -8.375  45.789  1.00  0.00     0.174 C 
ATOM     13  O   UNL     1     -16.277  -7.441  47.711  1.00  0.00    -0.344 OA
ATOM     14  C   UNL     1     -16.662  -7.427  44.815  1.00  0.00     0.179 C 
ATOM     15  C   UNL     1     -16.324  -6.119  45.582  1.00  0.00     0.202 C 
BRANCH  12  16
ATOM     16  O   UNL     1     -17.766  -9.549  45.126  1.00  0.00    -0.388 OA
ATOM     17  H   UNL     1     -18.635  -9.839  45.498  1.00  0.00     0.211 HD
ENDBRANCH  12  16
BRANCH  14  18
ATOM     18  O   UNL     1     -17.471  -7.121  43.705  1.00  0.00    -0.387 OA
ATOM     19  H   UNL     1     -18.167  -7.817  43.652  1.00  0.00     0.211 HD
ENDBRANCH  14  18
BRANCH  15  20
ATOM     20  O   UNL     1     -15.444  -5.320  44.827  1.00  0.00    -0.385 OA
ATOM     21  H   UNL     1     -15.688  -5.431  43.875  1.00  0.00     0.211 HD
ENDBRANCH  15  20
ENDBRANCH   8   9
ENDBRANCH   7   8
ENDBRANCH   1   7
BRANCH   2  22
ATOM     22  O   UNL     1     -12.650  -4.530  50.114  1.00  0.00    -0.387 OA
ATOM     23  H   UNL     1     -13.086  -4.739  51.014  1.00  0.00     0.211 HD
ENDBRANCH   2  22
BRANCH   3  24
ATOM     24  O   UNL     1      -9.787  -4.655  49.774  1.00  0.00    -0.387 OA
ATOM     25  H   UNL     1      -8.847  -4.972  49.654  1.00  0.00     0.211 HD
ENDBRANCH   3  24
BRANCH   5  26
ATOM     26  O   UNL     1     -11.111  -7.174  46.493  1.00  0.00    -0.454 OA
BRANCH  26  27
ATOM     27  C   UNL     1     -10.161  -7.296  45.478  1.00  0.00     0.214 A 
ATOM     28  C   UNL     1      -9.670  -6.142  44.832  1.00  0.00     0.180 A 
ATOM     29  C   UNL     1      -9.634  -8.543  45.106  1.00  0.00     0.239 A 
ATOM     30  O   UNL     1      -8.578  -6.271  44.073  1.00  0.00    -0.452 OA
ATOM     31  C   UNL     1      -8.404  -8.595  44.432  1.00  0.00     0.111 A 
ATOM     32  O   UNL     1     -10.271  -9.605  45.384  1.00  0.00    -0.285 OA
ATOM     33  C   UNL     1      -7.900  -7.391  43.910  1.00  0.00     0.146 A 
ATOM     34  C   UNL     1      -7.647  -9.785  44.299  1.00  0.00     0.134 A 
ATOM     35  C   UNL     1      -6.685  -7.362  43.249  1.00  0.00     0.094 A 
ATOM     36  C   UNL     1      -6.388  -9.723  43.666  1.00  0.00     0.093 A 
ATOM     37  C   UNL     1      -5.905  -8.515  43.155  1.00  0.00     0.123 A 
BRANCH  28  38
ATOM     38  C   UNL     1     -10.251  -4.765  44.995  1.00  0.00     0.025 A 
ATOM     39  C   UNL     1     -11.572  -4.370  44.645  1.00  0.00     0.062 A 
ATOM     40  C   UNL     1      -9.436  -3.777  45.589  1.00  0.00     0.016 A 
ATOM     41  C   UNL     1     -12.094  -3.139  45.063  1.00  0.00     0.158 A 
ATOM     42  C   UNL     1      -9.969  -2.562  46.054  1.00  0.00     0.051 A 
ATOM     43  C   UNL     1     -11.298  -2.249  45.809  1.00  0.00     0.157 A 
BRANCH  41  44
ATOM     44  O   UNL     1     -13.416  -2.810  44.723  1.00  0.00    -0.504 OA
ATOM     45  H   UNL     1     -14.219  -3.318  45.072  1.00  0.00     0.293 HD
ENDBRANCH  41  44
BRANCH  43  46
ATOM     46  O   UNL     1     -11.846  -1.080  46.339  1.00  0.00    -0.504 OA
ATOM     47  H   UNL     1     -11.322  -0.468  46.986  1.00  0.00     0.293 HD
ENDBRANCH  43  46
ENDBRANCH  28  38
BRANCH  34  48
ATOM     48  O   UNL     1      -8.055 -10.964  44.906  1.00  0.00    -0.507 OA
ATOM     49  H   UNL     1      -8.446 -10.959  45.846  1.00  0.00     0.293 HD
ENDBRANCH  34  48
BRANCH  37  50
ATOM     50  O   UNL     1      -4.637  -8.439  42.572  1.00  0.00    -0.508 OA
ATOM     51  H   UNL     1      -4.115  -9.269  42.302  1.00  0.00     0.293 HD
ENDBRANCH  37  50
ENDBRANCH  26  27
ENDBRANCH   5  26
BRANCH   4  52
ATOM     52  O   UNL     1      -9.381  -7.350  49.694  1.00  0.00    -0.384 OA
ATOM     53  H   UNL     1      -9.636  -6.802  50.481  1.00  0.00     0.211 HD
ENDBRANCH   4  52
TORSDOF 16
ENDMDL
MODEL 9
REMARK VINA RESULT:    -7.516      1.913      5.340
REMARK INTER + INTRA:         -14.552
REMARK INTER:                 -12.170
REMARK INTRA:                  -2.383
REMARK UNBOUND:                -2.203
REMARK SMILES C[C@@H]1O[C@@H](OC[C@H]2O[C@@H](Oc3c(-c4ccc(O)c(O)c4)oc4cc(O)cc(O)c4c3=O)[C@H](O)[C@H](O)[C@H]2O)[C@@H](O)[C@H](O)[C@H]1O
REMARK SMILES IDX 7 1 36 2 34 3 32 4 9 5 8 6 6 7 5 8 4 9 1 10 2 11 42 12 3 13
REMARK SMILES IDX 40 14 38 15 43 16 41 18 39 20 37 22 35 24 10 26 11 27 12 28
REMARK SMILES IDX 30 29 21 30 29 31 31 32 22 33 27 34 23 35 26 36 24 37 13 38
REMARK SMILES IDX 20 39 14 40 18 41 15 42 16 43 19 44 17 46 28 48 25 50 33 52
REMARK H PARENT 43 17 41 19 39 21 37 23 35 25 19 45 17 47 28 49 25 51 33 53
REMARK Flexibility Score: inf
ROOT
ATOM      1  C   UNL     1     -12.068  -4.989  47.396  1.00  0.00     0.180 C 
ATOM      2  C   UNL     1     -13.093  -4.992  48.546  1.00  0.00     0.177 C 
ATOM      3  C   UNL     1     -14.491  -5.540  48.059  1.00  0.00     0.180 C 
ATOM      4  C   UNL     1     -14.984  -4.779  46.844  1.00  0.00     0.214 C 
ATOM      5  C   UNL     1     -13.838  -4.648  45.795  1.00  0.00     0.339 C 
ATOM      6  O   UNL     1     -12.571  -4.209  46.318  1.00  0.00    -0.332 OA
ENDROOT
BRANCH   1   7
ATOM      7  C   UNL     1     -11.555  -6.408  46.985  1.00  0.00     0.198 C 
BRANCH   7   8
ATOM      8  O   UNL     1     -10.190  -6.326  46.620  1.00  0.00    -0.347 OA
BRANCH   8   9
ATOM      9  C   UNL     1     -10.062  -6.563  45.215  1.00  0.00     0.281 C 
ATOM     10  C   UNL     1     -11.633  -9.893  44.867  1.00  0.00     0.041 C 
ATOM     11  C   UNL     1     -10.562  -8.866  45.265  1.00  0.00     0.150 C 
ATOM     12  C   UNL     1      -9.190  -9.225  44.654  1.00  0.00     0.174 C 
ATOM     13  O   UNL     1     -10.962  -7.597  44.796  1.00  0.00    -0.344 OA
ATOM     14  C   UNL     1      -8.149  -8.248  45.236  1.00  0.00     0.179 C 
ATOM     15  C   UNL     1      -8.586  -6.804  44.867  1.00  0.00     0.202 C 
BRANCH  12  16
ATOM     16  O   UNL     1      -8.810 -10.545  44.915  1.00  0.00    -0.388 OA
ATOM     17  H   UNL     1      -9.626 -11.053  45.148  1.00  0.00     0.211 HD
ENDBRANCH  12  16
BRANCH  14  18
ATOM     18  O   UNL     1      -6.868  -8.498  44.708  1.00  0.00    -0.387 OA
ATOM     19  H   UNL     1      -6.910  -9.367  44.243  1.00  0.00     0.211 HD
ENDBRANCH  14  18
BRANCH  15  20
ATOM     20  O   UNL     1      -7.818  -5.861  45.578  1.00  0.00    -0.385 OA
ATOM     21  H   UNL     1      -7.097  -6.356  46.040  1.00  0.00     0.211 HD
ENDBRANCH  15  20
ENDBRANCH   8   9
ENDBRANCH   7   8
ENDBRANCH   1   7
BRANCH   2  22
ATOM     22  O   UNL     1     -12.643  -5.566  49.747  1.00  0.00    -0.387 OA
ATOM     23  H   UNL     1     -11.686  -5.906  49.629  1.00  0.00     0.211 HD
ENDBRANCH   2  22
BRANCH   3  24
ATOM     24  O   UNL     1     -15.448  -5.503  49.071  1.00  0.00    -0.387 OA
ATOM     25  H   UNL     1     -15.591  -4.552  49.338  1.00  0.00     0.211 HD
ENDBRANCH   3  24
BRANCH   5  26
ATOM     26  O   UNL     1     -13.665  -5.883  45.130  1.00  0.00    -0.454 OA
BRANCH  26  27
ATOM     27  C   UNL     1     -14.277  -6.225  43.923  1.00  0.00     0.214 A 
ATOM     28  C   UNL     1     -15.364  -7.125  43.917  1.00  0.00     0.180 A 
ATOM     29  C   UNL     1     -13.874  -5.658  42.704  1.00  0.00     0.239 A 
ATOM     30  O   UNL     1     -16.092  -7.213  42.800  1.00  0.00    -0.452 OA
ATOM     31  C   UNL     1     -14.761  -5.668  41.616  1.00  0.00     0.111 A 
ATOM     32  O   UNL     1     -12.719  -5.143  42.600  1.00  0.00    -0.285 OA
ATOM     33  C   UNL     1     -15.895  -6.494  41.712  1.00  0.00     0.146 A 
ATOM     34  C   UNL     1     -14.582  -4.859  40.467  1.00  0.00     0.134 A 
ATOM     35  C   UNL     1     -16.822  -6.541  40.686  1.00  0.00     0.094 A 
ATOM     36  C   UNL     1     -15.565  -4.885  39.456  1.00  0.00     0.093 A 
ATOM     37  C   UNL     1     -16.685  -5.713  39.572  1.00  0.00     0.123 A 
BRANCH  28  38
ATOM     38  C   UNL     1     -15.800  -7.940  45.103  1.00  0.00     0.025 A 
ATOM     39  C   UNL     1     -15.122  -9.074  45.630  1.00  0.00     0.062 A 
ATOM     40  C   UNL     1     -16.960  -7.525  45.791  1.00  0.00     0.016 A 
ATOM     41  C   UNL     1     -15.469  -9.609  46.878  1.00  0.00     0.158 A 
ATOM     42  C   UNL     1     -17.281  -8.025  47.065  1.00  0.00     0.051 A 
ATOM     43  C   UNL     1     -16.530  -9.051  47.617  1.00  0.00     0.157 A 
BRANCH  41  44
ATOM     44  O   UNL     1     -14.746 -10.707  47.372  1.00  0.00    -0.504 OA
ATOM     45  H   UNL     1     -13.929 -10.610  47.962  1.00  0.00     0.293 HD
ENDBRANCH  41  44
BRANCH  43  46
ATOM     46  O   UNL     1     -16.801  -9.492  48.913  1.00  0.00    -0.504 OA
ATOM     47  H   UNL     1     -16.831 -10.495  49.160  1.00  0.00     0.293 HD
ENDBRANCH  43  46
ENDBRANCH  28  38
BRANCH  34  48
ATOM     48  O   UNL     1     -13.542  -3.943  40.393  1.00  0.00    -0.507 OA
ATOM     49  H   UNL     1     -12.693  -4.072  40.938  1.00  0.00     0.293 HD
ENDBRANCH  34  48
BRANCH  37  50
ATOM     50  O   UNL     1     -17.687  -5.704  38.597  1.00  0.00    -0.508 OA
ATOM     51  H   UNL     1     -17.626  -6.271  37.754  1.00  0.00     0.293 HD
ENDBRANCH  37  50
ENDBRANCH  26  27
ENDBRANCH   5  26
BRANCH   4  52
ATOM     52  O   UNL     1     -15.498  -3.516  47.205  1.00  0.00    -0.384 OA
ATOM     53  H   UNL     1     -16.315  -3.689  47.743  1.00  0.00     0.211 HD
ENDBRANCH   4  52
TORSDOF 16
ENDMDL
