MODEL 1
REMARK VINA RESULT:    -4.987      0.000      0.000
REMARK INTER + INTRA:          -6.532
REMARK INTER:                  -6.153
REMARK INTRA:                  -0.380
REMARK UNBOUND:                -0.380
REMARK SMILES Oc1cc(O)c2cc(O)c(-c3cc(O)c(O)c(O)c3)[o+]c2c1
REMARK SMILES IDX 10 1 20 2 21 3 22 4 2 5 3 6 4 7 6 8 7 9 8 10 11 11 12 12
REMARK SMILES IDX 13 13 19 14 15 15 17 16 14 17 16 19 18 21 9 23 1 25 5 27
REMARK H PARENT 14 18 16 20 18 22 9 24 1 26 5 28
REMARK Flexibility Score: inf
ROOT
ATOM      1  C   UNL     1       5.606  16.560  -2.470  1.00  0.00     0.402 A 
ATOM      2  O   UNL     1       5.908  17.061  -3.667  1.00  0.00    -0.202 OA
ATOM      3  C   UNL     1       5.158  17.965  -4.288  1.00  0.00     0.368 A 
ATOM      4  C   UNL     1       5.542  18.438  -5.546  1.00  0.00     0.162 A 
ATOM      5  C   UNL     1       4.760  19.387  -6.213  1.00  0.00     0.128 A 
ATOM      6  C   UNL     1       3.585  19.867  -5.617  1.00  0.00     0.093 A 
ATOM      7  C   UNL     1       3.187  19.403  -4.354  1.00  0.00     0.136 A 
ATOM      8  C   UNL     1       3.975  18.448  -3.684  1.00  0.00     0.125 A 
ATOM      9  C   UNL     1       3.633  17.955  -2.421  1.00  0.00     0.078 A 
ATOM     10  C   UNL     1       4.453  17.012  -1.796  1.00  0.00     0.223 A 
ENDROOT
BRANCH   1  11
ATOM     11  C   UNL     1       6.516  15.550  -1.884  1.00  0.00     0.091 A 
ATOM     12  C   UNL     1       7.568  15.922  -1.029  1.00  0.00     0.068 A 
ATOM     13  C   UNL     1       8.406  14.949  -0.466  1.00  0.00     0.162 A 
ATOM     14  C   UNL     1       6.294  14.189  -2.141  1.00  0.00     0.068 A 
ATOM     15  C   UNL     1       8.190  13.590  -0.746  1.00  0.00     0.200 A 
ATOM     16  C   UNL     1       7.126  13.212  -1.585  1.00  0.00     0.162 A 
BRANCH  13  17
ATOM     17  O   UNL     1       9.449  15.330   0.376  1.00  0.00    -0.504 OA
ATOM     18  H   UNL     1      10.053  16.114   0.154  1.00  0.00     0.293 HD
ENDBRANCH  13  17
BRANCH  15  19
ATOM     19  O   UNL     1       9.017  12.609  -0.198  1.00  0.00    -0.502 OA
ATOM     20  H   UNL     1       9.627  12.037  -0.769  1.00  0.00     0.293 HD
ENDBRANCH  15  19
BRANCH  16  21
ATOM     21  O   UNL     1       6.880  11.870  -1.875  1.00  0.00    -0.504 OA
ATOM     22  H   UNL     1       5.941  11.500  -1.960  1.00  0.00     0.293 HD
ENDBRANCH  16  21
ENDBRANCH   1  11
BRANCH  10  23
ATOM     23  O   UNL     1       4.144  16.554  -0.515  1.00  0.00    -0.500 OA
ATOM     24  H   UNL     1       3.449  15.833  -0.362  1.00  0.00     0.294 HD
ENDBRANCH  10  23
BRANCH   5  25
ATOM     25  O   UNL     1       5.158  19.846  -7.466  1.00  0.00    -0.507 OA
ATOM     26  H   UNL     1       5.939  20.483  -7.573  1.00  0.00     0.293 HD
ENDBRANCH   5  25
BRANCH   7  27
ATOM     27  O   UNL     1       2.018  19.889  -3.770  1.00  0.00    -0.507 OA
ATOM     28  H   UNL     1       1.587  19.427  -2.977  1.00  0.00     0.293 HD
ENDBRANCH   7  27
TORSDOF 7
ENDMDL
MODEL 2
REMARK VINA RESULT:    -4.933      1.304      7.255
REMARK INTER + INTRA:          -6.466
REMARK INTER:                  -6.312
REMARK INTRA:                  -0.155
REMARK UNBOUND:                -0.380
REMARK SMILES Oc1cc(O)c2cc(O)c(-c3cc(O)c(O)c(O)c3)[o+]c2c1
REMARK SMILES IDX 10 1 20 2 21 3 22 4 2 5 3 6 4 7 6 8 7 9 8 10 11 11 12 12
REMARK SMILES IDX 13 13 19 14 15 15 17 16 14 17 16 19 18 21 9 23 1 25 5 27
REMARK H PARENT 14 18 16 20 18 22 9 24 1 26 5 28
REMARK Flexibility Score: inf
ROOT
ATOM      1  C   UNL     1       5.281  17.001  -2.860  1.00  0.00     0.402 A 
ATOM      2  O   UNL     1       4.927  15.751  -2.563  1.00  0.00    -0.202 OA
ATOM      3  C   UNL     1       5.740  14.887  -1.963  1.00  0.00     0.368 A 
ATOM      4  C   UNL     1       5.294  13.590  -1.691  1.00  0.00     0.162 A 
ATOM      5  C   UNL     1       6.140  12.670  -1.065  1.00  0.00     0.128 A 
ATOM      6  C   UNL     1       7.442  13.049  -0.707  1.00  0.00     0.093 A 
ATOM      7  C   UNL     1       7.904  14.347  -0.973  1.00  0.00     0.136 A 
ATOM      8  C   UNL     1       7.051  15.272  -1.604  1.00  0.00     0.125 A 
ATOM      9  C   UNL     1       7.454  16.581  -1.887  1.00  0.00     0.078 A 
ATOM     10  C   UNL     1       6.566  17.463  -2.510  1.00  0.00     0.223 A 
ENDROOT
BRANCH   1  11
ATOM     11  C   UNL     1       4.289  17.867  -3.537  1.00  0.00     0.091 A 
ATOM     12  C   UNL     1       4.591  18.518  -4.745  1.00  0.00     0.068 A 
ATOM     13  C   UNL     1       3.631  19.316  -5.383  1.00  0.00     0.162 A 
ATOM     14  C   UNL     1       3.003  17.998  -2.992  1.00  0.00     0.068 A 
ATOM     15  C   UNL     1       2.352  19.460  -4.819  1.00  0.00     0.200 A 
ATOM     16  C   UNL     1       2.039  18.794  -3.621  1.00  0.00     0.162 A 
BRANCH  13  17
ATOM     17  O   UNL     1       3.943  19.963  -6.578  1.00  0.00    -0.504 OA
ATOM     18  H   UNL     1       3.474  20.816  -6.859  1.00  0.00     0.293 HD
ENDBRANCH  13  17
BRANCH  15  19
ATOM     19  O   UNL     1       1.386  20.255  -5.438  1.00  0.00    -0.502 OA
ATOM     20  H   UNL     1       1.281  20.290  -6.445  1.00  0.00     0.293 HD
ENDBRANCH  15  19
BRANCH  16  21
ATOM     21  O   UNL     1       0.777  18.910  -3.041  1.00  0.00    -0.504 OA
ATOM     22  H   UNL     1       0.043  18.230  -3.204  1.00  0.00     0.293 HD
ENDBRANCH  16  21
ENDBRANCH   1  11
BRANCH  10  23
ATOM     23  O   UNL     1       6.944  18.784  -2.748  1.00  0.00    -0.500 OA
ATOM     24  H   UNL     1       6.512  19.336  -3.481  1.00  0.00     0.294 HD
ENDBRANCH  10  23
BRANCH   5  25
ATOM     25  O   UNL     1       5.679  11.383  -0.801  1.00  0.00    -0.507 OA
ATOM     26  H   UNL     1       6.274  10.571  -0.920  1.00  0.00     0.293 HD
ENDBRANCH   5  25
BRANCH   7  27
ATOM     27  O   UNL     1       9.200  14.713  -0.612  1.00  0.00    -0.507 OA
ATOM     28  H   UNL     1       9.999  14.483  -1.192  1.00  0.00     0.293 HD
ENDBRANCH   7  27
TORSDOF 7
ENDMDL
MODEL 3
REMARK VINA RESULT:    -4.916      0.403      1.830
REMARK INTER + INTRA:          -6.446
REMARK INTER:                  -6.064
REMARK INTRA:                  -0.382
REMARK UNBOUND:                -0.380
REMARK SMILES Oc1cc(O)c2cc(O)c(-c3cc(O)c(O)c(O)c3)[o+]c2c1
REMARK SMILES IDX 10 1 20 2 21 3 22 4 2 5 3 6 4 7 6 8 7 9 8 10 11 11 12 12
REMARK SMILES IDX 13 13 19 14 15 15 17 16 14 17 16 19 18 21 9 23 1 25 5 27
REMARK H PARENT 14 18 16 20 18 22 9 24 1 26 5 28
REMARK Flexibility Score: inf
ROOT
ATOM      1  C   UNL     1       5.380  16.640  -2.620  1.00  0.00     0.402 A 
ATOM      2  O   UNL     1       5.675  16.991  -3.871  1.00  0.00    -0.202 OA
ATOM      3  C   UNL     1       5.006  17.923  -4.542  1.00  0.00     0.368 A 
ATOM      4  C   UNL     1       5.375  18.230  -5.855  1.00  0.00     0.162 A 
ATOM      5  C   UNL     1       4.678  19.205  -6.575  1.00  0.00     0.128 A 
ATOM      6  C   UNL     1       3.605  19.880  -5.976  1.00  0.00     0.093 A 
ATOM      7  C   UNL     1       3.224  19.585  -4.659  1.00  0.00     0.136 A 
ATOM      8  C   UNL     1       3.926  18.602  -3.936  1.00  0.00     0.125 A 
ATOM      9  C   UNL     1       3.596  18.271  -2.618  1.00  0.00     0.078 A 
ATOM     10  C   UNL     1       4.330  17.292  -1.942  1.00  0.00     0.223 A 
ENDROOT
BRANCH   1  11
ATOM     11  C   UNL     1       6.193  15.580  -1.980  1.00  0.00     0.091 A 
ATOM     12  C   UNL     1       5.859  14.222  -2.113  1.00  0.00     0.068 A 
ATOM     13  C   UNL     1       6.654  13.232  -1.519  1.00  0.00     0.162 A 
ATOM     14  C   UNL     1       7.352  15.933  -1.272  1.00  0.00     0.068 A 
ATOM     15  C   UNL     1       7.801  13.595  -0.793  1.00  0.00     0.200 A 
ATOM     16  C   UNL     1       8.150  14.952  -0.675  1.00  0.00     0.162 A 
BRANCH  13  17
ATOM     17  O   UNL     1       6.309  11.888  -1.652  1.00  0.00    -0.504 OA
ATOM     18  H   UNL     1       6.339  11.417  -2.549  1.00  0.00     0.293 HD
ENDBRANCH  13  17
BRANCH  15  19
ATOM     19  O   UNL     1       8.600  12.622  -0.191  1.00  0.00    -0.502 OA
ATOM     20  H   UNL     1       9.384  12.197  -0.670  1.00  0.00     0.293 HD
ENDBRANCH  15  19
BRANCH  16  21
ATOM     21  O   UNL     1       9.286  15.343   0.031  1.00  0.00    -0.504 OA
ATOM     22  H   UNL     1       9.901  16.078  -0.299  1.00  0.00     0.293 HD
ENDBRANCH  16  21
ENDBRANCH   1  11
BRANCH  10  23
ATOM     23  O   UNL     1       4.038  16.993  -0.611  1.00  0.00    -0.500 OA
ATOM     24  H   UNL     1       4.265  17.635   0.139  1.00  0.00     0.294 HD
ENDBRANCH  10  23
BRANCH   5  25
ATOM     25  O   UNL     1       5.059  19.498  -7.882  1.00  0.00    -0.507 OA
ATOM     26  H   UNL     1       5.779  20.183  -8.083  1.00  0.00     0.293 HD
ENDBRANCH   5  25
BRANCH   7  27
ATOM     27  O   UNL     1       2.155  20.264  -4.074  1.00  0.00    -0.507 OA
ATOM     28  H   UNL     1       2.302  21.005  -3.398  1.00  0.00     0.293 HD
ENDBRANCH   7  27
TORSDOF 7
ENDMDL
MODEL 4
REMARK VINA RESULT:    -4.735      3.423      7.544
REMARK INTER + INTRA:          -6.222
REMARK INTER:                  -5.869
REMARK INTRA:                  -0.353
REMARK UNBOUND:                -0.380
REMARK SMILES Oc1cc(O)c2cc(O)c(-c3cc(O)c(O)c(O)c3)[o+]c2c1
REMARK SMILES IDX 10 1 20 2 21 3 22 4 2 5 3 6 4 7 6 8 7 9 8 10 11 11 12 12
REMARK SMILES IDX 13 13 19 14 15 15 17 16 14 17 16 19 18 21 9 23 1 25 5 27
REMARK H PARENT 14 18 16 20 18 22 9 24 1 26 5 28
REMARK Flexibility Score: inf
ROOT
ATOM      1  C   UNL     1       3.672  17.559  -5.741  1.00  0.00     0.402 A 
ATOM      2  O   UNL     1       3.983  16.700  -4.770  1.00  0.00    -0.202 OA
ATOM      3  C   UNL     1       4.951  16.920  -3.886  1.00  0.00     0.368 A 
ATOM      4  C   UNL     1       5.219  15.965  -2.901  1.00  0.00     0.162 A 
ATOM      5  C   UNL     1       6.237  16.181  -1.967  1.00  0.00     0.128 A 
ATOM      6  C   UNL     1       6.992  17.361  -2.018  1.00  0.00     0.093 A 
ATOM      7  C   UNL     1       6.734  18.330  -3.000  1.00  0.00     0.136 A 
ATOM      8  C   UNL     1       5.709  18.110  -3.940  1.00  0.00     0.125 A 
ATOM      9  C   UNL     1       5.402  19.043  -4.936  1.00  0.00     0.078 A 
ATOM     10  C   UNL     1       4.371  18.780  -5.841  1.00  0.00     0.223 A 
ENDROOT
BRANCH   1  11
ATOM     11  C   UNL     1       2.579  17.198  -6.672  1.00  0.00     0.091 A 
ATOM     12  C   UNL     1       2.847  16.743  -7.974  1.00  0.00     0.068 A 
ATOM     13  C   UNL     1       1.799  16.384  -8.833  1.00  0.00     0.162 A 
ATOM     14  C   UNL     1       1.249  17.257  -6.229  1.00  0.00     0.068 A 
ATOM     15  C   UNL     1       0.469  16.467  -8.389  1.00  0.00     0.200 A 
ATOM     16  C   UNL     1       0.197  16.902  -7.080  1.00  0.00     0.162 A 
BRANCH  13  17
ATOM     17  O   UNL     1       2.077  15.940 -10.125  1.00  0.00    -0.504 OA
ATOM     18  H   UNL     1       2.629  16.493 -10.770  1.00  0.00     0.293 HD
ENDBRANCH  13  17
BRANCH  15  19
ATOM     19  O   UNL     1      -0.587  16.119  -9.233  1.00  0.00    -0.502 OA
ATOM     20  H   UNL     1      -1.048  16.796  -9.828  1.00  0.00     0.293 HD
ENDBRANCH  15  19
BRANCH  16  21
ATOM     21  O   UNL     1      -1.112  16.987  -6.607  1.00  0.00    -0.504 OA
ATOM     22  H   UNL     1      -1.873  16.469  -7.029  1.00  0.00     0.293 HD
ENDBRANCH  16  21
ENDBRANCH   1  11
BRANCH  10  23
ATOM     23  O   UNL     1       4.026  19.727  -6.805  1.00  0.00    -0.500 OA
ATOM     24  H   UNL     1       4.471  20.637  -6.838  1.00  0.00     0.294 HD
ENDBRANCH  10  23
BRANCH   5  25
ATOM     25  O   UNL     1       6.490  15.219  -0.992  1.00  0.00    -0.507 OA
ATOM     26  H   UNL     1       7.427  15.051  -0.644  1.00  0.00     0.293 HD
ENDBRANCH   5  25
BRANCH   7  27
ATOM     27  O   UNL     1       7.491  19.501  -3.039  1.00  0.00    -0.507 OA
ATOM     28  H   UNL     1       8.470  19.492  -3.300  1.00  0.00     0.293 HD
ENDBRANCH   7  27
TORSDOF 7
ENDMDL
MODEL 5
REMARK VINA RESULT:    -4.636      1.843      2.927
REMARK INTER + INTRA:          -6.100
REMARK INTER:                  -5.741
REMARK INTRA:                  -0.359
REMARK UNBOUND:                -0.380
REMARK SMILES Oc1cc(O)c2cc(O)c(-c3cc(O)c(O)c(O)c3)[o+]c2c1
REMARK SMILES IDX 10 1 20 2 21 3 22 4 2 5 3 6 4 7 6 8 7 9 8 10 11 11 12 12
REMARK SMILES IDX 13 13 19 14 15 15 17 16 14 17 16 19 18 21 9 23 1 25 5 27
REMARK H PARENT 14 18 16 20 18 22 9 24 1 26 5 28
REMARK Flexibility Score: inf
ROOT
ATOM      1  C   UNL     1       5.684  16.904  -2.574  1.00  0.00     0.402 A 
ATOM      2  O   UNL     1       4.434  16.453  -2.458  1.00  0.00    -0.202 OA
ATOM      3  C   UNL     1       3.366  17.194  -2.731  1.00  0.00     0.368 A 
ATOM      4  C   UNL     1       2.087  16.649  -2.578  1.00  0.00     0.162 A 
ATOM      5  C   UNL     1       0.954  17.418  -2.857  1.00  0.00     0.128 A 
ATOM      6  C   UNL     1       1.099  18.742  -3.292  1.00  0.00     0.093 A 
ATOM      7  C   UNL     1       2.375  19.304  -3.451  1.00  0.00     0.136 A 
ATOM      8  C   UNL     1       3.515  18.528  -3.170  1.00  0.00     0.125 A 
ATOM      9  C   UNL     1       4.812  19.032  -3.317  1.00  0.00     0.078 A 
ATOM     10  C   UNL     1       5.911  18.218  -3.030  1.00  0.00     0.223 A 
ENDROOT
BRANCH   1  11
ATOM     11  C   UNL     1       6.794  15.985  -2.232  1.00  0.00     0.091 A 
ATOM     12  C   UNL     1       7.478  16.089  -1.009  1.00  0.00     0.068 A 
ATOM     13  C   UNL     1       8.512  15.195  -0.695  1.00  0.00     0.162 A 
ATOM     14  C   UNL     1       7.134  14.955  -3.121  1.00  0.00     0.068 A 
ATOM     15  C   UNL     1       8.862  14.180  -1.600  1.00  0.00     0.200 A 
ATOM     16  C   UNL     1       8.165  14.060  -2.816  1.00  0.00     0.162 A 
BRANCH  13  17
ATOM     17  O   UNL     1       9.189  15.311   0.519  1.00  0.00    -0.504 OA
ATOM     18  H   UNL     1      10.151  15.625   0.563  1.00  0.00     0.293 HD
ENDBRANCH  13  17
BRANCH  15  19
ATOM     19  O   UNL     1       9.891  13.285  -1.305  1.00  0.00    -0.502 OA
ATOM     20  H   UNL     1       9.789  12.286  -1.431  1.00  0.00     0.293 HD
ENDBRANCH  15  19
BRANCH  16  21
ATOM     21  O   UNL     1       8.483  13.058  -3.732  1.00  0.00    -0.504 OA
ATOM     22  H   UNL     1       7.814  12.350  -4.011  1.00  0.00     0.293 HD
ENDBRANCH  16  21
ENDBRANCH   1  11
BRANCH  10  23
ATOM     23  O   UNL     1       7.206  18.698  -3.223  1.00  0.00    -0.500 OA
ATOM     24  H   UNL     1       7.796  18.964  -2.443  1.00  0.00     0.294 HD
ENDBRANCH  10  23
BRANCH   5  25
ATOM     25  O   UNL     1      -0.312  16.858  -2.700  1.00  0.00    -0.507 OA
ATOM     26  H   UNL     1      -0.530  16.251  -1.918  1.00  0.00     0.293 HD
ENDBRANCH   5  25
BRANCH   7  27
ATOM     27  O   UNL     1       2.506  20.623  -3.886  1.00  0.00    -0.507 OA
ATOM     28  H   UNL     1       3.153  20.877  -4.625  1.00  0.00     0.293 HD
ENDBRANCH   7  27
TORSDOF 7
ENDMDL
MODEL 6
REMARK VINA RESULT:    -4.625      1.633      6.861
REMARK INTER + INTRA:          -6.087
REMARK INTER:                  -6.103
REMARK INTRA:                   0.017
REMARK UNBOUND:                -0.380
REMARK SMILES Oc1cc(O)c2cc(O)c(-c3cc(O)c(O)c(O)c3)[o+]c2c1
REMARK SMILES IDX 10 1 20 2 21 3 22 4 2 5 3 6 4 7 6 8 7 9 8 10 11 11 12 12
REMARK SMILES IDX 13 13 19 14 15 15 17 16 14 17 16 19 18 21 9 23 1 25 5 27
REMARK H PARENT 14 18 16 20 18 22 9 24 1 26 5 28
REMARK Flexibility Score: inf
ROOT
ATOM      1  C   UNL     1       5.334  16.877  -2.941  1.00  0.00     0.402 A 
ATOM      2  O   UNL     1       6.035  16.088  -3.756  1.00  0.00    -0.202 OA
ATOM      3  C   UNL     1       6.974  15.251  -3.327  1.00  0.00     0.368 A 
ATOM      4  C   UNL     1       7.668  14.460  -4.247  1.00  0.00     0.162 A 
ATOM      5  C   UNL     1       8.662  13.578  -3.811  1.00  0.00     0.128 A 
ATOM      6  C   UNL     1       8.963  13.485  -2.445  1.00  0.00     0.093 A 
ATOM      7  C   UNL     1       8.274  14.272  -1.509  1.00  0.00     0.136 A 
ATOM      8  C   UNL     1       7.274  15.160  -1.950  1.00  0.00     0.125 A 
ATOM      9  C   UNL     1       6.550  15.963  -1.063  1.00  0.00     0.078 A 
ATOM     10  C   UNL     1       5.563  16.823  -1.551  1.00  0.00     0.223 A 
ENDROOT
BRANCH   1  11
ATOM     11  C   UNL     1       4.320  17.775  -3.539  1.00  0.00     0.091 A 
ATOM     12  C   UNL     1       4.604  18.542  -4.682  1.00  0.00     0.068 A 
ATOM     13  C   UNL     1       3.623  19.369  -5.246  1.00  0.00     0.162 A 
ATOM     14  C   UNL     1       3.030  17.822  -2.988  1.00  0.00     0.068 A 
ATOM     15  C   UNL     1       2.341  19.427  -4.675  1.00  0.00     0.200 A 
ATOM     16  C   UNL     1       2.046  18.645  -3.544  1.00  0.00     0.162 A 
BRANCH  13  17
ATOM     17  O   UNL     1       3.917  20.130  -6.377  1.00  0.00    -0.504 OA
ATOM     18  H   UNL     1       4.000  21.139  -6.332  1.00  0.00     0.293 HD
ENDBRANCH  13  17
BRANCH  15  19
ATOM     19  O   UNL     1       1.354  20.249  -5.221  1.00  0.00    -0.502 OA
ATOM     20  H   UNL     1       1.426  21.259  -5.210  1.00  0.00     0.293 HD
ENDBRANCH  15  19
BRANCH  16  21
ATOM     21  O   UNL     1       0.781  18.675  -2.959  1.00  0.00    -0.504 OA
ATOM     22  H   UNL     1      -0.063  18.494  -3.489  1.00  0.00     0.293 HD
ENDBRANCH  16  21
ENDBRANCH   1  11
BRANCH  10  23
ATOM     23  O   UNL     1       4.802  17.589  -0.667  1.00  0.00    -0.500 OA
ATOM     24  H   UNL     1       5.165  17.876   0.234  1.00  0.00     0.294 HD
ENDBRANCH  10  23
BRANCH   5  25
ATOM     25  O   UNL     1       9.343  12.797  -4.742  1.00  0.00    -0.507 OA
ATOM     26  H   UNL     1       9.555  11.822  -4.562  1.00  0.00     0.293 HD
ENDBRANCH   5  25
BRANCH   7  27
ATOM     27  O   UNL     1       8.581  14.169  -0.153  1.00  0.00    -0.507 OA
ATOM     28  H   UNL     1       7.935  14.481   0.564  1.00  0.00     0.293 HD
ENDBRANCH   7  27
TORSDOF 7
ENDMDL
MODEL 7
REMARK VINA RESULT:    -4.605      3.325      4.468
REMARK INTER + INTRA:          -6.061
REMARK INTER:                  -5.711
REMARK INTRA:                  -0.350
REMARK UNBOUND:                -0.380
REMARK SMILES Oc1cc(O)c2cc(O)c(-c3cc(O)c(O)c(O)c3)[o+]c2c1
REMARK SMILES IDX 10 1 20 2 21 3 22 4 2 5 3 6 4 7 6 8 7 9 8 10 11 11 12 12
REMARK SMILES IDX 13 13 19 14 15 15 17 16 14 17 16 19 18 21 9 23 1 25 5 27
REMARK H PARENT 14 18 16 20 18 22 9 24 1 26 5 28
REMARK Flexibility Score: inf
ROOT
ATOM      1  C   UNL     1       3.513  17.342  -4.746  1.00  0.00     0.402 A 
ATOM      2  O   UNL     1       3.777  16.582  -5.808  1.00  0.00    -0.202 OA
ATOM      3  C   UNL     1       2.944  16.453  -6.835  1.00  0.00     0.368 A 
ATOM      4  C   UNL     1       3.292  15.630  -7.911  1.00  0.00     0.162 A 
ATOM      5  C   UNL     1       2.423  15.481  -8.996  1.00  0.00     0.128 A 
ATOM      6  C   UNL     1       1.197  16.161  -9.007  1.00  0.00     0.093 A 
ATOM      7  C   UNL     1       0.834  16.991  -7.936  1.00  0.00     0.136 A 
ATOM      8  C   UNL     1       1.709  17.139  -6.843  1.00  0.00     0.125 A 
ATOM      9  C   UNL     1       1.404  17.958  -5.752  1.00  0.00     0.078 A 
ATOM     10  C   UNL     1       2.310  18.076  -4.695  1.00  0.00     0.223 A 
ENDROOT
BRANCH   1  11
ATOM     11  C   UNL     1       4.518  17.399  -3.659  1.00  0.00     0.091 A 
ATOM     12  C   UNL     1       5.655  18.218  -3.757  1.00  0.00     0.068 A 
ATOM     13  C   UNL     1       6.583  18.276  -2.708  1.00  0.00     0.162 A 
ATOM     14  C   UNL     1       4.304  16.663  -2.484  1.00  0.00     0.068 A 
ATOM     15  C   UNL     1       6.373  17.519  -1.543  1.00  0.00     0.200 A 
ATOM     16  C   UNL     1       5.225  16.714  -1.433  1.00  0.00     0.162 A 
BRANCH  13  17
ATOM     17  O   UNL     1       7.711  19.087  -2.818  1.00  0.00    -0.504 OA
ATOM     18  H   UNL     1       7.949  19.767  -2.105  1.00  0.00     0.293 HD
ENDBRANCH  13  17
BRANCH  15  19
ATOM     19  O   UNL     1       7.290  17.561  -0.491  1.00  0.00    -0.502 OA
ATOM     20  H   UNL     1       7.316  16.850   0.229  1.00  0.00     0.293 HD
ENDBRANCH  15  19
BRANCH  16  21
ATOM     21  O   UNL     1       4.984  15.957  -0.286  1.00  0.00    -0.504 OA
ATOM     22  H   UNL     1       5.285  16.260   0.633  1.00  0.00     0.293 HD
ENDBRANCH  16  21
ENDBRANCH   1  11
BRANCH  10  23
ATOM     23  O   UNL     1       2.034  18.930  -3.628  1.00  0.00    -0.500 OA
ATOM     24  H   UNL     1       1.804  18.573  -2.708  1.00  0.00     0.294 HD
ENDBRANCH  10  23
BRANCH   5  25
ATOM     25  O   UNL     1       2.787  14.658 -10.059  1.00  0.00    -0.507 OA
ATOM     26  H   UNL     1       2.107  14.082 -10.540  1.00  0.00     0.293 HD
ENDBRANCH   5  25
BRANCH   7  27
ATOM     27  O   UNL     1      -0.388  17.662  -7.959  1.00  0.00    -0.507 OA
ATOM     28  H   UNL     1      -0.656  18.306  -7.222  1.00  0.00     0.293 HD
ENDBRANCH   7  27
TORSDOF 7
ENDMDL
MODEL 8
REMARK VINA RESULT:    -4.506      8.665     11.595
REMARK INTER + INTRA:          -5.939
REMARK INTER:                  -5.603
REMARK INTRA:                  -0.336
REMARK UNBOUND:                -0.380
REMARK SMILES Oc1cc(O)c2cc(O)c(-c3cc(O)c(O)c(O)c3)[o+]c2c1
REMARK SMILES IDX 10 1 20 2 21 3 22 4 2 5 3 6 4 7 6 8 7 9 8 10 11 11 12 12
REMARK SMILES IDX 13 13 19 14 15 15 17 16 14 17 16 19 18 21 9 23 1 25 5 27
REMARK H PARENT 14 18 16 20 18 22 9 24 1 26 5 28
REMARK Flexibility Score: inf
ROOT
ATOM      1  C   UNL     1       0.337  15.226   5.392  1.00  0.00     0.402 A 
ATOM      2  O   UNL     1       1.664  15.353   5.396  1.00  0.00    -0.202 OA
ATOM      3  C   UNL     1       2.404  15.228   6.493  1.00  0.00     0.368 A 
ATOM      4  C   UNL     1       3.791  15.383   6.415  1.00  0.00     0.162 A 
ATOM      5  C   UNL     1       4.581  15.258   7.562  1.00  0.00     0.128 A 
ATOM      6  C   UNL     1       3.980  14.976   8.796  1.00  0.00     0.093 A 
ATOM      7  C   UNL     1       2.589  14.817   8.891  1.00  0.00     0.136 A 
ATOM      8  C   UNL     1       1.795  14.944   7.736  1.00  0.00     0.125 A 
ATOM      9  C   UNL     1       0.405  14.788   7.768  1.00  0.00     0.078 A 
ATOM     10  C   UNL     1      -0.337  14.917   6.592  1.00  0.00     0.223 A 
ENDROOT
BRANCH   1  11
ATOM     11  C   UNL     1      -0.378  15.396   4.107  1.00  0.00     0.091 A 
ATOM     12  C   UNL     1      -1.134  16.550   3.839  1.00  0.00     0.068 A 
ATOM     13  C   UNL     1      -1.786  16.703   2.607  1.00  0.00     0.162 A 
ATOM     14  C   UNL     1      -0.256  14.413   3.114  1.00  0.00     0.068 A 
ATOM     15  C   UNL     1      -1.677  15.703   1.626  1.00  0.00     0.200 A 
ATOM     16  C   UNL     1      -0.904  14.556   1.883  1.00  0.00     0.162 A 
BRANCH  13  17
ATOM     17  O   UNL     1      -2.539  17.848   2.354  1.00  0.00    -0.504 OA
ATOM     18  H   UNL     1      -2.572  18.619   3.011  1.00  0.00     0.293 HD
ENDBRANCH  13  17
BRANCH  15  19
ATOM     19  O   UNL     1      -2.323  15.837   0.397  1.00  0.00    -0.502 OA
ATOM     20  H   UNL     1      -1.886  15.563  -0.475  1.00  0.00     0.293 HD
ENDBRANCH  15  19
BRANCH  16  21
ATOM     21  O   UNL     1      -0.769  13.550   0.927  1.00  0.00    -0.504 OA
ATOM     22  H   UNL     1      -1.282  13.563   0.054  1.00  0.00     0.293 HD
ENDBRANCH  16  21
ENDBRANCH   1  11
BRANCH  10  23
ATOM     23  O   UNL     1      -1.717  14.714   6.608  1.00  0.00    -0.500 OA
ATOM     24  H   UNL     1      -2.366  15.455   6.372  1.00  0.00     0.294 HD
ENDBRANCH  10  23
BRANCH   5  25
ATOM     25  O   UNL     1       5.962  15.415   7.464  1.00  0.00    -0.507 OA
ATOM     26  H   UNL     1       6.600  14.832   7.994  1.00  0.00     0.293 HD
ENDBRANCH   5  25
BRANCH   7  27
ATOM     27  O   UNL     1       2.003  14.536  10.125  1.00  0.00    -0.507 OA
ATOM     28  H   UNL     1       1.268  15.118  10.510  1.00  0.00     0.293 HD
ENDBRANCH   7  27
TORSDOF 7
ENDMDL
MODEL 9
REMARK VINA RESULT:    -4.481      1.462      7.242
REMARK INTER + INTRA:          -5.909
REMARK INTER:                  -5.524
REMARK INTRA:                  -0.385
REMARK UNBOUND:                -0.380
REMARK SMILES Oc1cc(O)c2cc(O)c(-c3cc(O)c(O)c(O)c3)[o+]c2c1
REMARK SMILES IDX 10 1 20 2 21 3 22 4 2 5 3 6 4 7 6 8 7 9 8 10 11 11 12 12
REMARK SMILES IDX 13 13 19 14 15 15 17 16 14 17 16 19 18 21 9 23 1 25 5 27
REMARK H PARENT 14 18 16 20 18 22 9 24 1 26 5 28
REMARK Flexibility Score: inf
ROOT
ATOM      1  C   UNL     1       4.783  16.070  -3.441  1.00  0.00     0.402 A 
ATOM      2  O   UNL     1       5.715  16.347  -2.528  1.00  0.00    -0.202 OA
ATOM      3  C   UNL     1       6.583  15.447  -2.078  1.00  0.00     0.368 A 
ATOM      4  C   UNL     1       7.527  15.817  -1.116  1.00  0.00     0.162 A 
ATOM      5  C   UNL     1       8.444  14.880  -0.629  1.00  0.00     0.128 A 
ATOM      6  C   UNL     1       8.417  13.563  -1.110  1.00  0.00     0.093 A 
ATOM      7  C   UNL     1       7.477  13.177  -2.077  1.00  0.00     0.136 A 
ATOM      8  C   UNL     1       6.554  14.122  -2.565  1.00  0.00     0.125 A 
ATOM      9  C   UNL     1       5.599  13.796  -3.534  1.00  0.00     0.078 A 
ATOM     10  C   UNL     1       4.710  14.773  -3.990  1.00  0.00     0.223 A 
ENDROOT
BRANCH   1  11
ATOM     11  C   UNL     1       3.866  17.155  -3.857  1.00  0.00     0.091 A 
ATOM     12  C   UNL     1       2.651  17.383  -3.188  1.00  0.00     0.068 A 
ATOM     13  C   UNL     1       1.807  18.430  -3.583  1.00  0.00     0.162 A 
ATOM     14  C   UNL     1       4.241  18.010  -4.905  1.00  0.00     0.068 A 
ATOM     15  C   UNL     1       2.179  19.268  -4.648  1.00  0.00     0.200 A 
ATOM     16  C   UNL     1       3.404  19.056  -5.306  1.00  0.00     0.162 A 
BRANCH  13  17
ATOM     17  O   UNL     1       0.601  18.643  -2.917  1.00  0.00    -0.504 OA
ATOM     18  H   UNL     1       0.216  19.573  -2.799  1.00  0.00     0.293 HD
ENDBRANCH  13  17
BRANCH  15  19
ATOM     19  O   UNL     1       1.348  20.312  -5.057  1.00  0.00    -0.502 OA
ATOM     20  H   UNL     1       1.282  20.600  -6.026  1.00  0.00     0.293 HD
ENDBRANCH  15  19
BRANCH  16  21
ATOM     21  O   UNL     1       3.805  19.875  -6.361  1.00  0.00    -0.504 OA
ATOM     22  H   UNL     1       3.169  20.518  -6.817  1.00  0.00     0.293 HD
ENDBRANCH  16  21
ENDBRANCH   1  11
BRANCH  10  23
ATOM     23  O   UNL     1       3.789  14.469  -4.992  1.00  0.00    -0.500 OA
ATOM     24  H   UNL     1       2.795  14.615  -4.862  1.00  0.00     0.294 HD
ENDBRANCH  10  23
BRANCH   5  25
ATOM     25  O   UNL     1       9.377  15.266   0.329  1.00  0.00    -0.507 OA
ATOM     26  H   UNL     1       9.688  16.227   0.409  1.00  0.00     0.293 HD
ENDBRANCH   5  25
BRANCH   7  27
ATOM     27  O   UNL     1       7.461  11.865  -2.548  1.00  0.00    -0.507 OA
ATOM     28  H   UNL     1       6.863  11.158  -2.135  1.00  0.00     0.293 HD
ENDBRANCH   7  27
TORSDOF 7
ENDMDL
