MODEL 1
REMARK VINA RESULT:    -3.029      0.000      0.000
REMARK INTER + INTRA:          -5.889
REMARK INTER:                  -4.799
REMARK INTRA:                  -1.089
REMARK UNBOUND:                -1.089
REMARK SMILES CCCCCCCCCCCC(=O)[O-]
REMARK SMILES IDX 7 1 8 2 9 3 10 4 11 5 12 6 13 7 14 8 6 9 5 10 4 11 3 12 2 13
REMARK SMILES IDX 1 14
REMARK H PARENT
REMARK Flexibility Score: inf
ROOT
ATOM      1  C   UNL     1       5.643  44.689  12.972  1.00  0.00     0.000 C 
ENDROOT
BRANCH   1   2
ATOM      2  C   UNL     1       4.951  45.124  11.669  1.00  0.00     0.000 C 
BRANCH   2   3
ATOM      3  C   UNL     1       4.675  43.985  10.666  1.00  0.00     0.000 C 
BRANCH   3   4
ATOM      4  C   UNL     1       3.277  44.010  10.013  1.00  0.00     0.006 C 
BRANCH   4   5
ATOM      5  C   UNL     1       2.500  42.689  10.128  1.00  0.00     0.053 C 
BRANCH   5   6
ATOM      6  C   UNL     1       1.300  42.822  11.015  1.00  0.00     0.041 C 
ATOM      7  O   UNL     1       1.308  43.634  11.977  1.00  0.00    -0.550 OA
ATOM      8  O   UNL     1       0.159  42.071  10.757  1.00  0.00    -0.550 OA
ENDBRANCH   5   6
ENDBRANCH   4   5
ENDBRANCH   3   4
ENDBRANCH   2   3
ENDBRANCH   1   2
BRANCH   1   9
ATOM      9  C   UNL     1       5.554  43.176  13.220  1.00  0.00     0.000 C 
BRANCH   9  10
ATOM     10  C   UNL     1       6.939  42.581  13.498  1.00  0.00    -0.000 C 
BRANCH  10  11
ATOM     11  C   UNL     1       7.621  42.143  12.193  1.00  0.00    -0.000 C 
BRANCH  11  12
ATOM     12  C   UNL     1       8.504  43.245  11.587  1.00  0.00    -0.000 C 
BRANCH  12  13
ATOM     13  C   UNL     1       8.104  43.599  10.148  1.00  0.00    -0.003 C 
ATOM     14  C   UNL     1       8.128  45.109   9.926  1.00  0.00     0.004 C 
ENDBRANCH  12  13
ENDBRANCH  11  12
ENDBRANCH  10  11
ENDBRANCH   9  10
ENDBRANCH   1   9
TORSDOF 10
ENDMDL
MODEL 2
REMARK VINA RESULT:    -3.014      2.478      5.639
REMARK INTER + INTRA:          -5.865
REMARK INTER:                  -5.331
REMARK INTRA:                  -0.535
REMARK UNBOUND:                -1.089
REMARK SMILES CCCCCCCCCCCC(=O)[O-]
REMARK SMILES IDX 7 1 8 2 9 3 10 4 11 5 12 6 13 7 14 8 6 9 5 10 4 11 3 12 2 13
REMARK SMILES IDX 1 14
REMARK H PARENT
REMARK Flexibility Score: inf
ROOT
ATOM      1  C   UNL     1       5.368  44.108   9.880  1.00  0.00     0.000 C 
ENDROOT
BRANCH   1   2
ATOM      2  C   UNL     1       6.607  45.011  10.014  1.00  0.00     0.000 C 
BRANCH   2   3
ATOM      3  C   UNL     1       7.948  44.263  10.155  1.00  0.00     0.000 C 
BRANCH   3   4
ATOM      4  C   UNL     1       7.859  42.881  10.835  1.00  0.00     0.006 C 
BRANCH   4   5
ATOM      5  C   UNL     1       8.331  42.863  12.297  1.00  0.00     0.053 C 
BRANCH   5   6
ATOM      6  C   UNL     1       7.227  42.481  13.236  1.00  0.00     0.041 C 
ATOM      7  O   UNL     1       7.357  41.489  13.999  1.00  0.00    -0.550 OA
ATOM      8  O   UNL     1       6.067  43.245  13.291  1.00  0.00    -0.550 OA
ENDBRANCH   5   6
ENDBRANCH   4   5
ENDBRANCH   3   4
ENDBRANCH   2   3
ENDBRANCH   1   2
BRANCH   1   9
ATOM      9  C   UNL     1       4.048  44.877  10.042  1.00  0.00     0.000 C 
BRANCH   9  10
ATOM     10  C   UNL     1       3.587  44.876  11.504  1.00  0.00    -0.000 C 
BRANCH  10  11
ATOM     11  C   UNL     1       2.450  43.866  11.721  1.00  0.00    -0.000 C 
BRANCH  11  12
ATOM     12  C   UNL     1       2.462  42.730  10.686  1.00  0.00    -0.000 C 
BRANCH  12  13
ATOM     13  C   UNL     1       1.114  42.571   9.967  1.00  0.00    -0.003 C 
ATOM     14  C   UNL     1       0.016  42.159  10.943  1.00  0.00     0.004 C 
ENDBRANCH  12  13
ENDBRANCH  11  12
ENDBRANCH  10  11
ENDBRANCH   9  10
ENDBRANCH   1   9
TORSDOF 10
ENDMDL
MODEL 3
REMARK VINA RESULT:    -2.815      2.407      5.489
REMARK INTER + INTRA:          -5.550
REMARK INTER:                  -4.976
REMARK INTRA:                  -0.573
REMARK UNBOUND:                -1.089
REMARK SMILES CCCCCCCCCCCC(=O)[O-]
REMARK SMILES IDX 7 1 8 2 9 3 10 4 11 5 12 6 13 7 14 8 6 9 5 10 4 11 3 12 2 13
REMARK SMILES IDX 1 14
REMARK H PARENT
REMARK Flexibility Score: inf
ROOT
ATOM      1  C   UNL     1       5.579  42.883   9.875  1.00  0.00     0.000 C 
ENDROOT
BRANCH   1   2
ATOM      2  C   UNL     1       6.915  42.184  10.182  1.00  0.00     0.000 C 
BRANCH   2   3
ATOM      3  C   UNL     1       8.061  43.124  10.608  1.00  0.00     0.000 C 
BRANCH   3   4
ATOM      4  C   UNL     1       8.267  43.257  12.131  1.00  0.00     0.006 C 
BRANCH   4   5
ATOM      5  C   UNL     1       7.616  42.139  12.960  1.00  0.00     0.053 C 
BRANCH   5   6
ATOM      6  C   UNL     1       6.444  42.638  13.749  1.00  0.00     0.041 C 
ATOM      7  O   UNL     1       6.143  42.101  14.847  1.00  0.00    -0.550 OA
ATOM      8  O   UNL     1       5.705  43.719  13.285  1.00  0.00    -0.550 OA
ENDBRANCH   5   6
ENDBRANCH   4   5
ENDBRANCH   3   4
ENDBRANCH   2   3
ENDBRANCH   1   2
BRANCH   1   9
ATOM      9  C   UNL     1       5.645  44.406  10.065  1.00  0.00     0.000 C 
BRANCH   9  10
ATOM     10  C   UNL     1       4.243  45.025  10.037  1.00  0.00    -0.000 C 
BRANCH  10  11
ATOM     11  C   UNL     1       3.160  43.938  10.112  1.00  0.00    -0.000 C 
BRANCH  11  12
ATOM     12  C   UNL     1       2.746  43.614  11.556  1.00  0.00    -0.000 C 
BRANCH  12  13
ATOM     13  C   UNL     1       1.231  43.413  11.706  1.00  0.00    -0.003 C 
ATOM     14  C   UNL     1       0.688  42.491  10.618  1.00  0.00     0.004 C 
ENDBRANCH  12  13
ENDBRANCH  11  12
ENDBRANCH  10  11
ENDBRANCH   9  10
ENDBRANCH   1   9
TORSDOF 10
ENDMDL
MODEL 4
REMARK VINA RESULT:    -2.404      1.233      2.138
REMARK INTER + INTRA:          -4.899
REMARK INTER:                  -3.900
REMARK INTRA:                  -0.999
REMARK UNBOUND:                -1.089
REMARK SMILES CCCCCCCCCCCC(=O)[O-]
REMARK SMILES IDX 7 1 8 2 9 3 10 4 11 5 12 6 13 7 14 8 6 9 5 10 4 11 3 12 2 13
REMARK SMILES IDX 1 14
REMARK H PARENT
REMARK Flexibility Score: inf
ROOT
ATOM      1  C   UNL     1       5.714  43.633  13.207  1.00  0.00     0.000 C 
ENDROOT
BRANCH   1   2
ATOM      2  C   UNL     1       5.520  44.973  12.475  1.00  0.00     0.000 C 
BRANCH   2   3
ATOM      3  C   UNL     1       4.377  44.991  11.440  1.00  0.00     0.000 C 
BRANCH   3   4
ATOM      4  C   UNL     1       3.802  43.607  11.074  1.00  0.00     0.006 C 
BRANCH   4   5
ATOM      5  C   UNL     1       2.538  43.656  10.202  1.00  0.00     0.053 C 
BRANCH   5   6
ATOM      6  C   UNL     1       1.317  43.239  10.964  1.00  0.00     0.041 C 
ATOM      7  O   UNL     1       0.473  42.467  10.438  1.00  0.00    -0.550 OA
ATOM      8  O   UNL     1       1.130  43.677  12.270  1.00  0.00    -0.550 OA
ENDBRANCH   5   6
ENDBRANCH   4   5
ENDBRANCH   3   4
ENDBRANCH   2   3
ENDBRANCH   1   2
BRANCH   1   9
ATOM      9  C   UNL     1       7.087  42.999  12.937  1.00  0.00     0.000 C 
BRANCH   9  10
ATOM     10  C   UNL     1       7.897  43.842  11.945  1.00  0.00    -0.000 C 
BRANCH  10  11
ATOM     11  C   UNL     1       8.131  43.075  10.635  1.00  0.00    -0.000 C 
BRANCH  11  12
ATOM     12  C   UNL     1       6.825  42.785   9.878  1.00  0.00    -0.000 C 
BRANCH  12  13
ATOM     13  C   UNL     1       6.461  41.293   9.875  1.00  0.00    -0.003 C 
ATOM     14  C   UNL     1       7.625  40.442  10.375  1.00  0.00     0.004 C 
ENDBRANCH  12  13
ENDBRANCH  11  12
ENDBRANCH  10  11
ENDBRANCH   9  10
ENDBRANCH   1   9
TORSDOF 10
ENDMDL
MODEL 5
REMARK VINA RESULT:    -2.243      3.450      6.764
REMARK INTER + INTRA:          -4.644
REMARK INTER:                  -4.312
REMARK INTRA:                  -0.332
REMARK UNBOUND:                -1.089
REMARK SMILES CCCCCCCCCCCC(=O)[O-]
REMARK SMILES IDX 7 1 8 2 9 3 10 4 11 5 12 6 13 7 14 8 6 9 5 10 4 11 3 12 2 13
REMARK SMILES IDX 1 14
REMARK H PARENT
REMARK Flexibility Score: inf
ROOT
ATOM      1  C   UNL     1       2.565  43.850  10.241  1.00  0.00     0.000 C 
ENDROOT
BRANCH   1   2
ATOM      2  C   UNL     1       4.043  43.806  10.668  1.00  0.00     0.000 C 
BRANCH   2   3
ATOM      3  C   UNL     1       4.546  45.063  11.405  1.00  0.00     0.000 C 
BRANCH   3   4
ATOM      4  C   UNL     1       5.842  44.871  12.220  1.00  0.00     0.006 C 
BRANCH   4   5
ATOM      5  C   UNL     1       6.963  44.139  11.465  1.00  0.00     0.053 C 
BRANCH   5   6
ATOM      6  C   UNL     1       7.251  42.794  12.058  1.00  0.00     0.041 C 
ATOM      7  O   UNL     1       7.061  42.587  13.285  1.00  0.00    -0.550 OA
ATOM      8  O   UNL     1       7.698  41.758  11.247  1.00  0.00    -0.550 OA
ENDBRANCH   5   6
ENDBRANCH   4   5
ENDBRANCH   3   4
ENDBRANCH   2   3
ENDBRANCH   1   2
BRANCH   1   9
ATOM      9  C   UNL     1       1.629  43.185  11.260  1.00  0.00     0.000 C 
BRANCH   9  10
ATOM     10  C   UNL     1       1.438  44.076  12.494  1.00  0.00    -0.000 C 
BRANCH  10  11
ATOM     11  C   UNL     1       0.047  43.868  13.112  1.00  0.00    -0.000 C 
BRANCH  11  12
ATOM     12  C   UNL     1      -0.347  44.999  14.075  1.00  0.00    -0.000 C 
BRANCH  12  13
ATOM     13  C   UNL     1      -1.758  44.819  14.653  1.00  0.00    -0.003 C 
ATOM     14  C   UNL     1      -2.153  43.345  14.692  1.00  0.00     0.004 C 
ENDBRANCH  12  13
ENDBRANCH  11  12
ENDBRANCH  10  11
ENDBRANCH   9  10
ENDBRANCH   1   9
TORSDOF 10
ENDMDL
MODEL 6
REMARK VINA RESULT:    -2.094      2.683      3.859
REMARK INTER + INTRA:          -4.408
REMARK INTER:                  -4.025
REMARK INTRA:                  -0.384
REMARK UNBOUND:                -1.089
REMARK SMILES CCCCCCCCCCCC(=O)[O-]
REMARK SMILES IDX 7 1 8 2 9 3 10 4 11 5 12 6 13 7 14 8 6 9 5 10 4 11 3 12 2 13
REMARK SMILES IDX 1 14
REMARK H PARENT
REMARK Flexibility Score: inf
ROOT
ATOM      1  C   UNL     1       2.833  43.890  10.091  1.00  0.00     0.000 C 
ENDROOT
BRANCH   1   2
ATOM      2  C   UNL     1       1.973  43.230  11.183  1.00  0.00     0.000 C 
BRANCH   2   3
ATOM      3  C   UNL     1       1.465  44.187  12.281  1.00  0.00     0.000 C 
BRANCH   3   4
ATOM      4  C   UNL     1       0.227  43.694  13.059  1.00  0.00     0.006 C 
BRANCH   4   5
ATOM      5  C   UNL     1      -0.406  44.752  13.977  1.00  0.00     0.053 C 
BRANCH   5   6
ATOM      6  C   UNL     1      -1.727  44.299  14.522  1.00  0.00     0.041 C 
ATOM      7  O   UNL     1      -2.506  45.124  15.066  1.00  0.00    -0.550 OA
ATOM      8  O   UNL     1      -2.110  42.969  14.398  1.00  0.00    -0.550 OA
ENDBRANCH   5   6
ENDBRANCH   4   5
ENDBRANCH   3   4
ENDBRANCH   2   3
ENDBRANCH   1   2
BRANCH   1   9
ATOM      9  C   UNL     1       4.328  43.571  10.235  1.00  0.00     0.000 C 
BRANCH   9  10
ATOM     10  C   UNL     1       4.927  44.276  11.458  1.00  0.00    -0.000 C 
BRANCH  10  11
ATOM     11  C   UNL     1       6.456  44.365  11.348  1.00  0.00    -0.000 C 
BRANCH  11  12
ATOM     12  C   UNL     1       7.034  43.379  10.320  1.00  0.00    -0.000 C 
BRANCH  12  13
ATOM     13  C   UNL     1       7.552  42.087  10.968  1.00  0.00    -0.003 C 
ATOM     14  C   UNL     1       7.696  42.247  12.478  1.00  0.00     0.004 C 
ENDBRANCH  12  13
ENDBRANCH  11  12
ENDBRANCH  10  11
ENDBRANCH   9  10
ENDBRANCH   1   9
TORSDOF 10
ENDMDL
