MODEL 1
REMARK VINA RESULT:     4.313      0.000      0.000
REMARK INTER + INTRA:           9.526
REMARK INTER:                  11.372
REMARK INTRA:                  -1.846
REMARK UNBOUND:                -1.846
REMARK SMILES CCCCCCCCCCCCCCCCCCCCCCCCCCCCCC(=O)[O-]
REMARK SMILES IDX 16 1 17 2 18 3 19 4 20 5 21 6 22 7 23 8 24 9 25 10 26 11
REMARK SMILES IDX 27 12 28 13 29 14 30 15 31 16 32 17 15 18 14 19 13 20 12 21
REMARK SMILES IDX 11 22 10 23 9 24 8 25 7 26 6 27 5 28 4 29 3 30 2 31 1 32
REMARK H PARENT
REMARK Flexibility Score: inf
ROOT
ATOM      1  C   UNL     1       7.783  78.696   5.977  1.00  0.00     0.000 C 
ENDROOT
BRANCH   1   2
ATOM      2  C   UNL     1       7.297  78.883   4.531  1.00  0.00     0.000 C 
BRANCH   2   3
ATOM      3  C   UNL     1       8.149  79.899   3.751  1.00  0.00     0.000 C 
BRANCH   3   4
ATOM      4  C   UNL     1       9.662  79.681   3.960  1.00  0.00     0.000 C 
BRANCH   4   5
ATOM      5  C   UNL     1      10.524  80.056   2.740  1.00  0.00     0.000 C 
BRANCH   5   6
ATOM      6  C   UNL     1      11.799  79.205   2.617  1.00  0.00     0.000 C 
BRANCH   6   7
ATOM      7  C   UNL     1      13.049  80.044   2.316  1.00  0.00     0.000 C 
BRANCH   7   8
ATOM      8  C   UNL     1      14.259  79.184   1.916  1.00  0.00     0.000 C 
BRANCH   8   9
ATOM      9  C   UNL     1      15.074  79.812   0.774  1.00  0.00     0.000 C 
BRANCH   9  10
ATOM     10  C   UNL     1      14.330  79.790  -0.574  1.00  0.00     0.000 C 
BRANCH  10  11
ATOM     11  C   UNL     1      14.640  78.515  -1.388  1.00  0.00     0.000 C 
BRANCH  11  12
ATOM     12  C   UNL     1      13.911  78.456  -2.740  1.00  0.00     0.000 C 
BRANCH  12  13
ATOM     13  C   UNL     1      14.731  79.064  -3.886  1.00  0.00     0.006 C 
BRANCH  13  14
ATOM     14  C   UNL     1      13.884  79.183  -5.159  1.00  0.00     0.053 C 
BRANCH  14  15
ATOM     15  C   UNL     1      14.245  78.114  -6.143  1.00  0.00     0.041 C 
ATOM     16  O   UNL     1      13.836  78.185  -7.332  1.00  0.00    -0.550 OA
ATOM     17  O   UNL     1      15.039  77.043  -5.754  1.00  0.00    -0.550 OA
ENDBRANCH  14  15
ENDBRANCH  13  14
ENDBRANCH  12  13
ENDBRANCH  11  12
ENDBRANCH  10  11
ENDBRANCH   9  10
ENDBRANCH   8   9
ENDBRANCH   7   8
ENDBRANCH   6   7
ENDBRANCH   5   6
ENDBRANCH   4   5
ENDBRANCH   3   4
ENDBRANCH   2   3
ENDBRANCH   1   2
BRANCH   1  18
ATOM     18  C   UNL     1       6.839  77.804   6.802  1.00  0.00     0.000 C 
BRANCH  18  19
ATOM     19  C   UNL     1       5.911  78.621   7.716  1.00  0.00     0.000 C 
BRANCH  19  20
ATOM     20  C   UNL     1       4.650  77.842   8.131  1.00  0.00     0.000 C 
BRANCH  20  21
ATOM     21  C   UNL     1       3.843  77.338   6.915  1.00  0.00     0.000 C 
BRANCH  21  22
ATOM     22  C   UNL     1       2.430  76.834   7.263  1.00  0.00     0.000 C 
BRANCH  22  23
ATOM     23  C   UNL     1       1.285  77.519   6.498  1.00  0.00     0.000 C 
BRANCH  23  24
ATOM     24  C   UNL     1       1.292  79.048   6.658  1.00  0.00    -0.000 C 
BRANCH  24  25
ATOM     25  C   UNL     1       0.808  79.460   8.056  1.00  0.00    -0.000 C 
BRANCH  25  26
ATOM     26  C   UNL     1       1.962  79.614   9.060  1.00  0.00    -0.000 C 
BRANCH  26  27
ATOM     27  C   UNL     1       1.493  80.125  10.432  1.00  0.00    -0.000 C 
BRANCH  27  28
ATOM     28  C   UNL     1       2.608  80.106  11.493  1.00  0.00    -0.000 C 
BRANCH  28  29
ATOM     29  C   UNL     1       4.044  80.098  10.931  1.00  0.00    -0.000 C 
BRANCH  29  30
ATOM     30  C   UNL     1       5.062  79.472  11.900  1.00  0.00    -0.000 C 
BRANCH  30  31
ATOM     31  C   UNL     1       5.426  78.028  11.519  1.00  0.00    -0.003 C 
ATOM     32  C   UNL     1       4.391  77.012  11.999  1.00  0.00     0.004 C 
ENDBRANCH  30  31
ENDBRANCH  29  30
ENDBRANCH  28  29
ENDBRANCH  27  28
ENDBRANCH  26  27
ENDBRANCH  25  26
ENDBRANCH  24  25
ENDBRANCH  23  24
ENDBRANCH  22  23
ENDBRANCH  21  22
ENDBRANCH  20  21
ENDBRANCH  19  20
ENDBRANCH  18  19
ENDBRANCH   1  18
TORSDOF 28
ENDMDL
MODEL 2
REMARK VINA RESULT:     5.166      2.125      2.539
REMARK INTER + INTRA:          11.776
REMARK INTER:                  13.497
REMARK INTRA:                  -1.722
REMARK UNBOUND:                -1.846
REMARK SMILES CCCCCCCCCCCCCCCCCCCCCCCCCCCCCC(=O)[O-]
REMARK SMILES IDX 16 1 17 2 18 3 19 4 20 5 21 6 22 7 23 8 24 9 25 10 26 11
REMARK SMILES IDX 27 12 28 13 29 14 30 15 31 16 32 17 15 18 14 19 13 20 12 21
REMARK SMILES IDX 11 22 10 23 9 24 8 25 7 26 6 27 5 28 4 29 3 30 2 31 1 32
REMARK H PARENT
REMARK Flexibility Score: inf
ROOT
ATOM      1  C   UNL     1       7.779  78.663   6.004  1.00  0.00     0.000 C 
ENDROOT
BRANCH   1   2
ATOM      2  C   UNL     1       7.277  79.051   4.604  1.00  0.00     0.000 C 
BRANCH   2   3
ATOM      3  C   UNL     1       8.210  80.054   3.902  1.00  0.00     0.000 C 
BRANCH   3   4
ATOM      4  C   UNL     1       9.695  79.648   4.008  1.00  0.00     0.000 C 
BRANCH   4   5
ATOM      5  C   UNL     1      10.559  80.123   2.825  1.00  0.00     0.000 C 
BRANCH   5   6
ATOM      6  C   UNL     1      11.710  79.158   2.493  1.00  0.00     0.000 C 
BRANCH   6   7
ATOM      7  C   UNL     1      12.936  79.873   1.906  1.00  0.00     0.000 C 
BRANCH   7   8
ATOM      8  C   UNL     1      14.056  78.897   1.505  1.00  0.00     0.000 C 
BRANCH   8   9
ATOM      9  C   UNL     1      15.124  79.561   0.623  1.00  0.00     0.000 C 
BRANCH   9  10
ATOM     10  C   UNL     1      14.550  80.125  -0.690  1.00  0.00     0.000 C 
BRANCH  10  11
ATOM     11  C   UNL     1      15.097  79.385  -1.929  1.00  0.00     0.000 C 
BRANCH  11  12
ATOM     12  C   UNL     1      14.089  78.410  -2.559  1.00  0.00     0.000 C 
BRANCH  12  13
ATOM     13  C   UNL     1      13.990  77.081  -1.799  1.00  0.00     0.006 C 
BRANCH  13  14
ATOM     14  C   UNL     1      12.849  77.121  -0.775  1.00  0.00     0.053 C 
BRANCH  14  15
ATOM     15  C   UNL     1      12.945  75.970   0.179  1.00  0.00     0.041 C 
ATOM     16  O   UNL     1      13.992  75.796   0.856  1.00  0.00    -0.550 OA
ATOM     17  O   UNL     1      11.879  75.093   0.327  1.00  0.00    -0.550 OA
ENDBRANCH  14  15
ENDBRANCH  13  14
ENDBRANCH  12  13
ENDBRANCH  11  12
ENDBRANCH  10  11
ENDBRANCH   9  10
ENDBRANCH   8   9
ENDBRANCH   7   8
ENDBRANCH   6   7
ENDBRANCH   5   6
ENDBRANCH   4   5
ENDBRANCH   3   4
ENDBRANCH   2   3
ENDBRANCH   1   2
BRANCH   1  18
ATOM     18  C   UNL     1       6.850  77.654   6.701  1.00  0.00     0.000 C 
BRANCH  18  19
ATOM     19  C   UNL     1       6.002  78.305   7.807  1.00  0.00     0.000 C 
BRANCH  19  20
ATOM     20  C   UNL     1       4.686  77.550   8.069  1.00  0.00     0.000 C 
BRANCH  20  21
ATOM     21  C   UNL     1       3.814  77.432   6.800  1.00  0.00     0.000 C 
BRANCH  21  22
ATOM     22  C   UNL     1       2.394  76.892   7.062  1.00  0.00     0.000 C 
BRANCH  22  23
ATOM     23  C   UNL     1       1.270  77.617   6.303  1.00  0.00     0.000 C 
BRANCH  23  24
ATOM     24  C   UNL     1       1.267  79.134   6.548  1.00  0.00    -0.000 C 
BRANCH  24  25
ATOM     25  C   UNL     1       0.808  79.463   7.977  1.00  0.00    -0.000 C 
BRANCH  25  26
ATOM     26  C   UNL     1       1.984  79.754   8.923  1.00  0.00    -0.000 C 
BRANCH  26  27
ATOM     27  C   UNL     1       1.528  80.104  10.349  1.00  0.00    -0.000 C 
BRANCH  27  28
ATOM     28  C   UNL     1       2.678  80.073  11.372  1.00  0.00    -0.000 C 
BRANCH  28  29
ATOM     29  C   UNL     1       4.081  79.857  10.771  1.00  0.00    -0.000 C 
BRANCH  29  30
ATOM     30  C   UNL     1       5.173  79.693  11.843  1.00  0.00    -0.000 C 
BRANCH  30  31
ATOM     31  C   UNL     1       5.697  78.251  11.933  1.00  0.00    -0.003 C 
ATOM     32  C   UNL     1       4.574  77.216  11.986  1.00  0.00     0.004 C 
ENDBRANCH  30  31
ENDBRANCH  29  30
ENDBRANCH  28  29
ENDBRANCH  27  28
ENDBRANCH  26  27
ENDBRANCH  25  26
ENDBRANCH  24  25
ENDBRANCH  23  24
ENDBRANCH  22  23
ENDBRANCH  21  22
ENDBRANCH  20  21
ENDBRANCH  19  20
ENDBRANCH  18  19
ENDBRANCH   1  18
TORSDOF 28
ENDMDL
MODEL 3
REMARK VINA RESULT:     5.356      1.417      3.971
REMARK INTER + INTRA:          12.278
REMARK INTER:                  11.415
REMARK INTRA:                   0.862
REMARK UNBOUND:                -1.846
REMARK SMILES CCCCCCCCCCCCCCCCCCCCCCCCCCCCCC(=O)[O-]
REMARK SMILES IDX 16 1 17 2 18 3 19 4 20 5 21 6 22 7 23 8 24 9 25 10 26 11
REMARK SMILES IDX 27 12 28 13 29 14 30 15 31 16 32 17 15 18 14 19 13 20 12 21
REMARK SMILES IDX 11 22 10 23 9 24 8 25 7 26 6 27 5 28 4 29 3 30 2 31 1 32
REMARK H PARENT
REMARK Flexibility Score: inf
ROOT
ATOM      1  C   UNL     1       7.027  78.259   6.819  1.00  0.00     0.000 C 
ENDROOT
BRANCH   1   2
ATOM      2  C   UNL     1       8.057  78.411   5.688  1.00  0.00     0.000 C 
BRANCH   2   3
ATOM      3  C   UNL     1       7.513  79.227   4.503  1.00  0.00     0.000 C 
BRANCH   3   4
ATOM      4  C   UNL     1       8.621  79.627   3.507  1.00  0.00     0.000 C 
BRANCH   4   5
ATOM      5  C   UNL     1       9.929  78.831   3.672  1.00  0.00     0.000 C 
BRANCH   5   6
ATOM      6  C   UNL     1      11.179  79.727   3.715  1.00  0.00     0.000 C 
BRANCH   6   7
ATOM      7  C   UNL     1      11.752  80.017   2.320  1.00  0.00     0.000 C 
BRANCH   7   8
ATOM      8  C   UNL     1      12.962  79.129   1.980  1.00  0.00     0.000 C 
BRANCH   8   9
ATOM      9  C   UNL     1      12.567  77.884   1.171  1.00  0.00     0.000 C 
BRANCH   9  10
ATOM     10  C   UNL     1      12.983  77.975  -0.308  1.00  0.00     0.000 C 
BRANCH  10  11
ATOM     11  C   UNL     1      14.432  78.479  -0.474  1.00  0.00     0.000 C 
BRANCH  11  12
ATOM     12  C   UNL     1      14.527  79.951  -0.904  1.00  0.00     0.000 C 
BRANCH  12  13
ATOM     13  C   UNL     1      15.123  80.125  -2.308  1.00  0.00     0.006 C 
BRANCH  13  14
ATOM     14  C   UNL     1      14.021  80.113  -3.374  1.00  0.00     0.053 C 
BRANCH  14  15
ATOM     15  C   UNL     1      14.132  78.901  -4.246  1.00  0.00     0.041 C 
ATOM     16  O   UNL     1      14.958  78.878  -5.195  1.00  0.00    -0.550 OA
ATOM     17  O   UNL     1      13.330  77.792  -4.008  1.00  0.00    -0.550 OA
ENDBRANCH  14  15
ENDBRANCH  13  14
ENDBRANCH  12  13
ENDBRANCH  11  12
ENDBRANCH  10  11
ENDBRANCH   9  10
ENDBRANCH   8   9
ENDBRANCH   7   8
ENDBRANCH   6   7
ENDBRANCH   5   6
ENDBRANCH   4   5
ENDBRANCH   3   4
ENDBRANCH   2   3
ENDBRANCH   1   2
BRANCH   1  18
ATOM     18  C   UNL     1       5.784  79.140   6.602  1.00  0.00     0.000 C 
BRANCH  18  19
ATOM     19  C   UNL     1       4.747  78.976   7.726  1.00  0.00     0.000 C 
BRANCH  19  20
ATOM     20  C   UNL     1       4.845  80.083   8.791  1.00  0.00     0.000 C 
BRANCH  20  21
ATOM     21  C   UNL     1       3.715  79.992   9.839  1.00  0.00     0.000 C 
BRANCH  21  22
ATOM     22  C   UNL     1       4.201  80.100  11.298  1.00  0.00     0.000 C 
BRANCH  22  23
ATOM     23  C   UNL     1       5.406  79.213  11.651  1.00  0.00     0.000 C 
BRANCH  23  24
ATOM     24  C   UNL     1       5.313  77.807  11.038  1.00  0.00    -0.000 C 
BRANCH  24  25
ATOM     25  C   UNL     1       3.883  77.254  11.138  1.00  0.00    -0.000 C 
BRANCH  25  26
ATOM     26  C   UNL     1       3.115  77.359   9.810  1.00  0.00    -0.000 C 
BRANCH  26  27
ATOM     27  C   UNL     1       3.317  76.130   8.908  1.00  0.00    -0.000 C 
BRANCH  27  28
ATOM     28  C   UNL     1       2.516  76.211   7.596  1.00  0.00    -0.000 C 
BRANCH  28  29
ATOM     29  C   UNL     1       2.465  77.608   6.947  1.00  0.00    -0.000 C 
BRANCH  29  30
ATOM     30  C   UNL     1       1.226  77.811   6.056  1.00  0.00    -0.000 C 
BRANCH  30  31
ATOM     31  C   UNL     1       1.575  77.841   4.561  1.00  0.00    -0.003 C 
ATOM     32  C   UNL     1       1.025  79.077   3.850  1.00  0.00     0.004 C 
ENDBRANCH  30  31
ENDBRANCH  29  30
ENDBRANCH  28  29
ENDBRANCH  27  28
ENDBRANCH  26  27
ENDBRANCH  25  26
ENDBRANCH  24  25
ENDBRANCH  23  24
ENDBRANCH  22  23
ENDBRANCH  21  22
ENDBRANCH  20  21
ENDBRANCH  19  20
ENDBRANCH  18  19
ENDBRANCH   1  18
TORSDOF 28
ENDMDL
MODEL 4
REMARK VINA RESULT:     7.111      2.311      4.469
REMARK INTER + INTRA:          16.904
REMARK INTER:                  13.902
REMARK INTRA:                   3.002
REMARK UNBOUND:                -1.846
REMARK SMILES CCCCCCCCCCCCCCCCCCCCCCCCCCCCCC(=O)[O-]
REMARK SMILES IDX 16 1 17 2 18 3 19 4 20 5 21 6 22 7 23 8 24 9 25 10 26 11
REMARK SMILES IDX 27 12 28 13 29 14 30 15 31 16 32 17 15 18 14 19 13 20 12 21
REMARK SMILES IDX 11 22 10 23 9 24 8 25 7 26 6 27 5 28 4 29 3 30 2 31 1 32
REMARK H PARENT
REMARK Flexibility Score: inf
ROOT
ATOM      1  C   UNL     1       6.759  78.237   6.948  1.00  0.00     0.000 C 
ENDROOT
BRANCH   1   2
ATOM      2  C   UNL     1       7.491  78.145   5.600  1.00  0.00     0.000 C 
BRANCH   2   3
ATOM      3  C   UNL     1       6.868  79.056   4.528  1.00  0.00     0.000 C 
BRANCH   3   4
ATOM      4  C   UNL     1       7.901  79.530   3.485  1.00  0.00     0.000 C 
BRANCH   4   5
ATOM      5  C   UNL     1       9.361  79.461   3.973  1.00  0.00     0.000 C 
BRANCH   5   6
ATOM      6  C   UNL     1      10.357  80.094   2.987  1.00  0.00     0.000 C 
BRANCH   6   7
ATOM      7  C   UNL     1      11.086  79.051   2.127  1.00  0.00     0.000 C 
BRANCH   7   8
ATOM      8  C   UNL     1      12.314  79.633   1.405  1.00  0.00     0.000 C 
BRANCH   8   9
ATOM      9  C   UNL     1      13.392  80.125   2.384  1.00  0.00     0.000 C 
BRANCH   9  10
ATOM     10  C   UNL     1      14.613  79.189   2.448  1.00  0.00     0.000 C 
BRANCH  10  11
ATOM     11  C   UNL     1      15.125  78.805   1.044  1.00  0.00     0.000 C 
BRANCH  11  12
ATOM     12  C   UNL     1      14.359  79.488  -0.100  1.00  0.00     0.000 C 
BRANCH  12  13
ATOM     13  C   UNL     1      14.392  78.683  -1.406  1.00  0.00     0.006 C 
BRANCH  13  14
ATOM     14  C   UNL     1      13.369  77.542  -1.369  1.00  0.00     0.053 C 
BRANCH  14  15
ATOM     15  C   UNL     1      13.597  76.656  -0.184  1.00  0.00     0.041 C 
ATOM     16  O   UNL     1      14.602  75.900  -0.144  1.00  0.00    -0.550 OA
ATOM     17  O   UNL     1      12.705  76.668   0.881  1.00  0.00    -0.550 OA
ENDBRANCH  14  15
ENDBRANCH  13  14
ENDBRANCH  12  13
ENDBRANCH  11  12
ENDBRANCH  10  11
ENDBRANCH   9  10
ENDBRANCH   8   9
ENDBRANCH   7   8
ENDBRANCH   6   7
ENDBRANCH   5   6
ENDBRANCH   4   5
ENDBRANCH   3   4
ENDBRANCH   2   3
ENDBRANCH   1   2
BRANCH   1  18
ATOM     18  C   UNL     1       5.519  79.146   6.881  1.00  0.00     0.000 C 
BRANCH  18  19
ATOM     19  C   UNL     1       4.558  78.913   8.059  1.00  0.00     0.000 C 
BRANCH  19  20
ATOM     20  C   UNL     1       4.496  80.113   9.021  1.00  0.00     0.000 C 
BRANCH  20  21
ATOM     21  C   UNL     1       3.814  79.758  10.360  1.00  0.00     0.000 C 
BRANCH  21  22
ATOM     22  C   UNL     1       4.649  80.116  11.605  1.00  0.00     0.000 C 
BRANCH  22  23
ATOM     23  C   UNL     1       5.723  79.084  11.989  1.00  0.00     0.000 C 
BRANCH  23  24
ATOM     24  C   UNL     1       5.296  77.638  11.688  1.00  0.00    -0.000 C 
BRANCH  24  25
ATOM     25  C   UNL     1       3.818  77.413  12.044  1.00  0.00    -0.000 C 
BRANCH  25  26
ATOM     26  C   UNL     1       2.940  77.185  10.802  1.00  0.00    -0.000 C 
BRANCH  26  27
ATOM     27  C   UNL     1       3.733  76.632   9.607  1.00  0.00    -0.000 C 
BRANCH  27  28
ATOM     28  C   UNL     1       2.852  75.861   8.607  1.00  0.00    -0.000 C 
BRANCH  28  29
ATOM     29  C   UNL     1       1.922  76.737   7.745  1.00  0.00    -0.000 C 
BRANCH  29  30
ATOM     30  C   UNL     1       2.640  77.366   6.538  1.00  0.00    -0.000 C 
BRANCH  30  31
ATOM     31  C   UNL     1       1.676  77.705   5.390  1.00  0.00    -0.003 C 
ATOM     32  C   UNL     1       0.295  78.132   5.886  1.00  0.00     0.004 C 
ENDBRANCH  30  31
ENDBRANCH  29  30
ENDBRANCH  28  29
ENDBRANCH  27  28
ENDBRANCH  26  27
ENDBRANCH  25  26
ENDBRANCH  24  25
ENDBRANCH  23  24
ENDBRANCH  22  23
ENDBRANCH  21  22
ENDBRANCH  20  21
ENDBRANCH  19  20
ENDBRANCH  18  19
ENDBRANCH   1  18
TORSDOF 28
ENDMDL
