MODEL 1
REMARK VINA RESULT:    -3.722      0.000      0.000
REMARK INTER + INTRA:          -7.088
REMARK INTER:                  -6.334
REMARK INTRA:                  -0.754
REMARK UNBOUND:                -0.754
REMARK SMILES CCCCCCCCCCCCCC(=O)[O-]
REMARK SMILES IDX 8 1 9 2 10 3 11 4 12 5 13 6 14 7 15 8 16 9 7 10 6 11 5 12
REMARK SMILES IDX 4 13 3 14 2 15 1 16
REMARK H PARENT
REMARK Flexibility Score: inf
ROOT
ATOM      1  C   UNL     1     -13.097  -2.335 -14.623  1.00  0.00     0.000 C 
ENDROOT
BRANCH   1   2
ATOM      2  C   UNL     1     -14.125  -3.255 -13.946  1.00  0.00     0.000 C 
BRANCH   2   3
ATOM      3  C   UNL     1     -13.510  -4.105 -12.818  1.00  0.00     0.000 C 
BRANCH   3   4
ATOM      4  C   UNL     1     -12.240  -3.455 -12.228  1.00  0.00     0.000 C 
BRANCH   4   5
ATOM      5  C   UNL     1     -12.197  -3.474 -10.691  1.00  0.00     0.006 C 
BRANCH   5   6
ATOM      6  C   UNL     1     -13.523  -3.915 -10.061  1.00  0.00     0.053 C 
BRANCH   6   7
ATOM      7  C   UNL     1     -13.379  -5.261  -9.424  1.00  0.00     0.041 C 
ATOM      8  O   UNL     1     -12.248  -5.666  -9.047  1.00  0.00    -0.550 OA
ATOM      9  O   UNL     1     -14.486  -6.090  -9.291  1.00  0.00    -0.550 OA
ENDBRANCH   6   7
ENDBRANCH   5   6
ENDBRANCH   4   5
ENDBRANCH   3   4
ENDBRANCH   2   3
ENDBRANCH   1   2
BRANCH   1  10
ATOM     10  C   UNL     1     -13.173  -2.388 -16.155  1.00  0.00     0.000 C 
BRANCH  10  11
ATOM     11  C   UNL     1     -14.115  -3.506 -16.620  1.00  0.00    -0.000 C 
BRANCH  11  12
ATOM     12  C   UNL     1     -13.431  -4.404 -17.661  1.00  0.00    -0.000 C 
BRANCH  12  13
ATOM     13  C   UNL     1     -14.205  -5.706 -17.925  1.00  0.00    -0.000 C 
BRANCH  13  14
ATOM     14  C   UNL     1     -13.991  -6.242 -19.351  1.00  0.00    -0.000 C 
BRANCH  14  15
ATOM     15  C   UNL     1     -15.034  -5.707 -20.343  1.00  0.00    -0.003 C 
ATOM     16  C   UNL     1     -16.455  -5.722 -19.777  1.00  0.00     0.004 C 
ENDBRANCH  14  15
ENDBRANCH  13  14
ENDBRANCH  12  13
ENDBRANCH  11  12
ENDBRANCH  10  11
ENDBRANCH   1  10
TORSDOF 12
ENDMDL
MODEL 2
REMARK VINA RESULT:    -3.472      0.652      1.434
REMARK INTER + INTRA:          -6.662
REMARK INTER:                  -5.983
REMARK INTRA:                  -0.679
REMARK UNBOUND:                -0.754
REMARK SMILES CCCCCCCCCCCCCC(=O)[O-]
REMARK SMILES IDX 8 1 9 2 10 3 11 4 12 5 13 6 14 7 15 8 16 9 7 10 6 11 5 12
REMARK SMILES IDX 4 13 3 14 2 15 1 16
REMARK H PARENT
REMARK Flexibility Score: inf
ROOT
ATOM      1  C   UNL     1     -14.199  -3.155 -13.849  1.00  0.00     0.000 C 
ENDROOT
BRANCH   1   2
ATOM      2  C   UNL     1     -13.640  -3.933 -12.647  1.00  0.00     0.000 C 
BRANCH   2   3
ATOM      3  C   UNL     1     -12.223  -3.479 -12.253  1.00  0.00     0.000 C 
BRANCH   3   4
ATOM      4  C   UNL     1     -12.180  -2.876 -10.832  1.00  0.00     0.000 C 
BRANCH   4   5
ATOM      5  C   UNL     1     -13.196  -3.508  -9.866  1.00  0.00     0.006 C 
BRANCH   5   6
ATOM      6  C   UNL     1     -12.557  -4.511  -8.897  1.00  0.00     0.053 C 
BRANCH   6   7
ATOM      7  C   UNL     1     -13.232  -5.841  -9.000  1.00  0.00     0.041 C 
ATOM      8  O   UNL     1     -14.479  -5.908  -9.154  1.00  0.00    -0.550 OA
ATOM      9  O   UNL     1     -12.490  -7.009  -8.876  1.00  0.00    -0.550 OA
ENDBRANCH   6   7
ENDBRANCH   5   6
ENDBRANCH   4   5
ENDBRANCH   3   4
ENDBRANCH   2   3
ENDBRANCH   1   2
BRANCH   1  10
ATOM     10  C   UNL     1     -13.099  -2.670 -14.804  1.00  0.00     0.000 C 
BRANCH  10  11
ATOM     11  C   UNL     1     -13.575  -2.720 -16.261  1.00  0.00    -0.000 C 
BRANCH  11  12
ATOM     12  C   UNL     1     -14.125  -4.111 -16.612  1.00  0.00    -0.000 C 
BRANCH  12  13
ATOM     13  C   UNL     1     -13.560  -4.659 -17.933  1.00  0.00    -0.000 C 
BRANCH  13  14
ATOM     14  C   UNL     1     -14.116  -6.051 -18.281  1.00  0.00    -0.000 C 
BRANCH  14  15
ATOM     15  C   UNL     1     -14.522  -6.169 -19.758  1.00  0.00    -0.003 C 
ATOM     16  C   UNL     1     -15.931  -5.641 -20.031  1.00  0.00     0.004 C 
ENDBRANCH  14  15
ENDBRANCH  13  14
ENDBRANCH  12  13
ENDBRANCH  11  12
ENDBRANCH  10  11
ENDBRANCH   1  10
TORSDOF 12
ENDMDL
MODEL 3
REMARK VINA RESULT:    -3.362      4.113      8.305
REMARK INTER + INTRA:          -6.475
REMARK INTER:                  -5.984
REMARK INTRA:                  -0.491
REMARK UNBOUND:                -0.754
REMARK SMILES CCCCCCCCCCCCCC(=O)[O-]
REMARK SMILES IDX 8 1 9 2 10 3 11 4 12 5 13 6 14 7 15 8 16 9 7 10 6 11 5 12
REMARK SMILES IDX 4 13 3 14 2 15 1 16
REMARK H PARENT
REMARK Flexibility Score: inf
ROOT
ATOM      1  C   UNL     1     -13.389  -2.620 -16.100  1.00  0.00     0.000 C 
ENDROOT
BRANCH   1   2
ATOM      2  C   UNL     1     -14.089  -3.978 -16.262  1.00  0.00     0.000 C 
BRANCH   2   3
ATOM      3  C   UNL     1     -14.134  -4.452 -17.726  1.00  0.00     0.000 C 
BRANCH   3   4
ATOM      4  C   UNL     1     -13.679  -5.920 -17.876  1.00  0.00     0.000 C 
BRANCH   4   5
ATOM      5  C   UNL     1     -14.230  -6.609 -19.135  1.00  0.00     0.006 C 
BRANCH   5   6
ATOM      6  C   UNL     1     -14.748  -5.617 -20.182  1.00  0.00     0.053 C 
BRANCH   6   7
ATOM      7  C   UNL     1     -16.231  -5.744 -20.336  1.00  0.00     0.041 C 
ATOM      8  O   UNL     1     -16.988  -5.563 -19.347  1.00  0.00    -0.550 OA
ATOM      9  O   UNL     1     -16.773  -6.110 -21.561  1.00  0.00    -0.550 OA
ENDBRANCH   6   7
ENDBRANCH   5   6
ENDBRANCH   4   5
ENDBRANCH   3   4
ENDBRANCH   2   3
ENDBRANCH   1   2
BRANCH   1  10
ATOM     10  C   UNL     1     -12.865  -2.389 -14.675  1.00  0.00     0.000 C 
BRANCH  10  11
ATOM     11  C   UNL     1     -13.435  -3.431 -13.705  1.00  0.00    -0.000 C 
BRANCH  11  12
ATOM     12  C   UNL     1     -12.559  -3.551 -12.449  1.00  0.00    -0.000 C 
BRANCH  12  13
ATOM     13  C   UNL     1     -13.323  -4.123 -11.243  1.00  0.00    -0.000 C 
BRANCH  13  14
ATOM     14  C   UNL     1     -12.433  -4.271  -9.997  1.00  0.00    -0.000 C 
BRANCH  14  15
ATOM     15  C   UNL     1     -12.706  -5.574  -9.231  1.00  0.00    -0.003 C 
ATOM     16  C   UNL     1     -14.184  -5.967  -9.235  1.00  0.00     0.004 C 
ENDBRANCH  14  15
ENDBRANCH  13  14
ENDBRANCH  12  13
ENDBRANCH  11  12
ENDBRANCH  10  11
ENDBRANCH   1  10
TORSDOF 12
ENDMDL
MODEL 4
REMARK VINA RESULT:    -3.136      4.051      7.987
REMARK INTER + INTRA:          -6.091
REMARK INTER:                  -5.206
REMARK INTRA:                  -0.885
REMARK UNBOUND:                -0.754
REMARK SMILES CCCCCCCCCCCCCC(=O)[O-]
REMARK SMILES IDX 8 1 9 2 10 3 11 4 12 5 13 6 14 7 15 8 16 9 7 10 6 11 5 12
REMARK SMILES IDX 4 13 3 14 2 15 1 16
REMARK H PARENT
REMARK Flexibility Score: inf
ROOT
ATOM      1  C   UNL     1     -14.374  -2.990 -14.010  1.00  0.00     0.000 C 
ENDROOT
BRANCH   1   2
ATOM      2  C   UNL     1     -13.365  -2.172 -14.832  1.00  0.00     0.000 C 
BRANCH   2   3
ATOM      3  C   UNL     1     -13.361  -2.558 -16.322  1.00  0.00     0.000 C 
BRANCH   3   4
ATOM      4  C   UNL     1     -14.046  -3.919 -16.571  1.00  0.00     0.000 C 
BRANCH   4   5
ATOM      5  C   UNL     1     -13.432  -4.711 -17.738  1.00  0.00     0.006 C 
BRANCH   5   6
ATOM      6  C   UNL     1     -14.328  -5.859 -18.218  1.00  0.00     0.053 C 
BRANCH   6   7
ATOM      7  C   UNL     1     -14.425  -5.859 -19.710  1.00  0.00     0.041 C 
ATOM      8  O   UNL     1     -13.389  -5.730 -20.413  1.00  0.00    -0.550 OA
ATOM      9  O   UNL     1     -15.668  -5.952 -20.325  1.00  0.00    -0.550 OA
ENDBRANCH   6   7
ENDBRANCH   5   6
ENDBRANCH   4   5
ENDBRANCH   3   4
ENDBRANCH   2   3
ENDBRANCH   1   2
BRANCH   1  10
ATOM     10  C   UNL     1     -13.699  -3.867 -12.945  1.00  0.00     0.000 C 
BRANCH  10  11
ATOM     11  C   UNL     1     -12.215  -3.508 -12.799  1.00  0.00    -0.000 C 
BRANCH  11  12
ATOM     12  C   UNL     1     -11.912  -2.987 -11.386  1.00  0.00    -0.000 C 
BRANCH  12  13
ATOM     13  C   UNL     1     -12.229  -4.019 -10.291  1.00  0.00    -0.000 C 
BRANCH  13  14
ATOM     14  C   UNL     1     -13.222  -3.483  -9.245  1.00  0.00    -0.000 C 
BRANCH  14  15
ATOM     15  C   UNL     1     -14.379  -4.458  -8.980  1.00  0.00    -0.003 C 
ATOM     16  C   UNL     1     -14.063  -5.889  -9.418  1.00  0.00     0.004 C 
ENDBRANCH  14  15
ENDBRANCH  13  14
ENDBRANCH  12  13
ENDBRANCH  11  12
ENDBRANCH  10  11
ENDBRANCH   1  10
TORSDOF 12
ENDMDL
MODEL 5
REMARK VINA RESULT:    -1.184      2.474      4.435
REMARK INTER + INTRA:          -2.769
REMARK INTER:                  -2.280
REMARK INTRA:                  -0.489
REMARK UNBOUND:                -0.754
REMARK SMILES CCCCCCCCCCCCCC(=O)[O-]
REMARK SMILES IDX 8 1 9 2 10 3 11 4 12 5 13 6 14 7 15 8 16 9 7 10 6 11 5 12
REMARK SMILES IDX 4 13 3 14 2 15 1 16
REMARK H PARENT
REMARK Flexibility Score: inf
ROOT
ATOM      1  C   UNL     1     -13.478  -5.736 -18.672  1.00  0.00     0.000 C 
ENDROOT
BRANCH   1   2
ATOM      2  C   UNL     1     -14.197  -4.995 -17.534  1.00  0.00     0.000 C 
BRANCH   2   3
ATOM      3  C   UNL     1     -13.499  -3.679 -17.147  1.00  0.00     0.000 C 
BRANCH   3   4
ATOM      4  C   UNL     1     -14.172  -2.998 -15.936  1.00  0.00     0.000 C 
BRANCH   4   5
ATOM      5  C   UNL     1     -13.295  -2.985 -14.672  1.00  0.00     0.006 C 
BRANCH   5   6
ATOM      6  C   UNL     1     -13.788  -3.955 -13.592  1.00  0.00     0.053 C 
BRANCH   6   7
ATOM      7  C   UNL     1     -13.097  -3.687 -12.293  1.00  0.00     0.041 C 
ATOM      8  O   UNL     1     -11.982  -3.103 -12.277  1.00  0.00    -0.550 OA
ATOM      9  O   UNL     1     -13.662  -4.126 -11.102  1.00  0.00    -0.550 OA
ENDBRANCH   6   7
ENDBRANCH   5   6
ENDBRANCH   4   5
ENDBRANCH   3   4
ENDBRANCH   2   3
ENDBRANCH   1   2
BRANCH   1  10
ATOM     10  C   UNL     1     -14.429  -6.148 -19.805  1.00  0.00     0.000 C 
BRANCH  10  11
ATOM     11  C   UNL     1     -15.826  -5.553 -19.592  1.00  0.00    -0.000 C 
BRANCH  11  12
ATOM     12  C   UNL     1     -16.847  -6.192 -20.545  1.00  0.00    -0.000 C 
BRANCH  12  13
ATOM     13  C   UNL     1     -16.650  -5.757 -22.007  1.00  0.00    -0.000 C 
BRANCH  13  14
ATOM     14  C   UNL     1     -17.182  -6.796 -23.009  1.00  0.00    -0.000 C 
BRANCH  14  15
ATOM     15  C   UNL     1     -16.896  -6.406 -24.467  1.00  0.00    -0.003 C 
ATOM     16  C   UNL     1     -16.126  -7.485 -25.231  1.00  0.00     0.004 C 
ENDBRANCH  14  15
ENDBRANCH  13  14
ENDBRANCH  12  13
ENDBRANCH  11  12
ENDBRANCH  10  11
ENDBRANCH   1  10
TORSDOF 12
ENDMDL
MODEL 6
REMARK VINA RESULT:    -0.804      6.356     10.561
REMARK INTER + INTRA:          -2.122
REMARK INTER:                  -1.715
REMARK INTRA:                  -0.407
REMARK UNBOUND:                -0.754
REMARK SMILES CCCCCCCCCCCCCC(=O)[O-]
REMARK SMILES IDX 8 1 9 2 10 3 11 4 12 5 13 6 14 7 15 8 16 9 7 10 6 11 5 12
REMARK SMILES IDX 4 13 3 14 2 15 1 16
REMARK H PARENT
REMARK Flexibility Score: inf
ROOT
ATOM      1  C   UNL     1     -14.308  -6.116 -19.683  1.00  0.00     0.000 C 
ENDROOT
BRANCH   1   2
ATOM      2  C   UNL     1     -15.552  -5.385 -20.211  1.00  0.00     0.000 C 
BRANCH   2   3
ATOM      3  C   UNL     1     -16.530  -6.325 -20.939  1.00  0.00     0.000 C 
BRANCH   3   4
ATOM      4  C   UNL     1     -16.887  -5.812 -22.350  1.00  0.00     0.000 C 
BRANCH   4   5
ATOM      5  C   UNL     1     -17.078  -6.935 -23.383  1.00  0.00     0.006 C 
BRANCH   5   6
ATOM      6  C   UNL     1     -16.671  -6.519 -24.801  1.00  0.00     0.053 C 
BRANCH   6   7
ATOM      7  C   UNL     1     -16.131  -7.691 -25.557  1.00  0.00     0.041 C 
ATOM      8  O   UNL     1     -15.848  -7.582 -26.778  1.00  0.00    -0.550 OA
ATOM      9  O   UNL     1     -15.985  -8.919 -24.923  1.00  0.00    -0.550 OA
ENDBRANCH   6   7
ENDBRANCH   5   6
ENDBRANCH   4   5
ENDBRANCH   3   4
ENDBRANCH   2   3
ENDBRANCH   1   2
BRANCH   1  10
ATOM     10  C   UNL     1     -14.167  -6.020 -18.157  1.00  0.00     0.000 C 
BRANCH  10  11
ATOM     11  C   UNL     1     -13.626  -4.646 -17.741  1.00  0.00    -0.000 C 
BRANCH  11  12
ATOM     12  C   UNL     1     -14.182  -4.228 -16.372  1.00  0.00    -0.000 C 
BRANCH  12  13
ATOM     13  C   UNL     1     -13.860  -2.766 -16.020  1.00  0.00    -0.000 C 
BRANCH  13  14
ATOM     14  C   UNL     1     -12.988  -2.640 -14.759  1.00  0.00    -0.000 C 
BRANCH  14  15
ATOM     15  C   UNL     1     -13.484  -3.532 -13.610  1.00  0.00    -0.003 C 
ATOM     16  C   UNL     1     -12.532  -3.543 -12.413  1.00  0.00     0.004 C 
ENDBRANCH  14  15
ENDBRANCH  13  14
ENDBRANCH  12  13
ENDBRANCH  11  12
ENDBRANCH  10  11
ENDBRANCH   1  10
TORSDOF 12
ENDMDL
