MODEL 1
REMARK VINA RESULT:    -5.049      0.000      0.000
REMARK INTER + INTRA:          -6.196
REMARK INTER:                  -6.082
REMARK INTRA:                  -0.113
REMARK UNBOUND:                -0.113
REMARK SMILES O=c1c(O)c(-c2ccc(O)c(O)c2)oc2cc(O)cc(O)c12
REMARK SMILES IDX 5 1 3 2 2 3 1 4 22 5 20 6 19 7 17 8 16 9 15 10 14 11 6 12
REMARK SMILES IDX 7 13 8 14 9 15 13 16 11 17 10 18 12 20 4 22 21 24 18 26
REMARK H PARENT 10 19 12 21 4 23 21 25 18 27
REMARK Flexibility Score: inf
ROOT
ATOM      1  C   UNL     1       5.541  15.726  52.596  1.00  0.00     0.180 A 
ATOM      2  C   UNL     1       4.898  15.952  51.364  1.00  0.00     0.208 A 
ATOM      3  C   UNL     1       5.321  17.026  50.565  1.00  0.00     0.238 A 
ATOM      4  O   UNL     1       4.746  17.246  49.465  1.00  0.00    -0.285 OA
ATOM      5  C   UNL     1       6.387  17.840  51.000  1.00  0.00     0.111 A 
ATOM      6  C   UNL     1       6.876  18.939  50.253  1.00  0.00     0.134 A 
ATOM      7  C   UNL     1       7.948  19.695  50.751  1.00  0.00     0.093 A 
ATOM      8  C   UNL     1       8.540  19.373  51.977  1.00  0.00     0.123 A 
ATOM      9  C   UNL     1       8.060  18.291  52.717  1.00  0.00     0.094 A 
ATOM     10  C   UNL     1       6.992  17.526  52.240  1.00  0.00     0.146 A 
ATOM     11  O   UNL     1       6.552  16.504  52.966  1.00  0.00    -0.452 OA
ENDROOT
BRANCH   1  12
ATOM     12  C   UNL     1       5.139  14.625  53.501  1.00  0.00     0.025 A 
ATOM     13  C   UNL     1       4.633  14.928  54.773  1.00  0.00     0.016 A 
ATOM     14  C   UNL     1       4.230  13.908  55.636  1.00  0.00     0.051 A 
ATOM     15  C   UNL     1       4.306  12.567  55.240  1.00  0.00     0.157 A 
ATOM     16  C   UNL     1       5.196  13.282  53.093  1.00  0.00     0.062 A 
ATOM     17  C   UNL     1       4.790  12.250  53.949  1.00  0.00     0.158 A 
BRANCH  15  18
ATOM     18  O   UNL     1       3.893  11.594  56.152  1.00  0.00    -0.504 OA
ATOM     19  H   UNL     1       2.931  11.440  56.417  1.00  0.00     0.293 HD
ENDBRANCH  15  18
BRANCH  17  20
ATOM     20  O   UNL     1       4.877  10.939  53.477  1.00  0.00    -0.504 OA
ATOM     21  H   UNL     1       5.713  10.374  53.529  1.00  0.00     0.293 HD
ENDBRANCH  17  20
ENDBRANCH   1  12
BRANCH   2  22
ATOM     22  O   UNL     1       3.876  15.101  50.933  1.00  0.00    -0.502 OA
ATOM     23  H   UNL     1       2.916  15.209  51.237  1.00  0.00     0.293 HD
ENDBRANCH   2  22
BRANCH   6  24
ATOM     24  O   UNL     1       6.308  19.284  49.027  1.00  0.00    -0.507 OA
ATOM     25  H   UNL     1       5.714  20.099  48.925  1.00  0.00     0.293 HD
ENDBRANCH   6  24
BRANCH   8  26
ATOM     26  O   UNL     1       9.605  20.123  52.471  1.00  0.00    -0.508 OA
ATOM     27  H   UNL     1      10.387  20.384  51.882  1.00  0.00     0.293 HD
ENDBRANCH   8  26
TORSDOF 6
ENDMDL
MODEL 2
REMARK VINA RESULT:    -4.636      1.935      2.737
REMARK INTER + INTRA:          -5.698
REMARK INTER:                  -5.953
REMARK INTRA:                   0.255
REMARK UNBOUND:                -0.113
REMARK SMILES O=c1c(O)c(-c2ccc(O)c(O)c2)oc2cc(O)cc(O)c12
REMARK SMILES IDX 5 1 3 2 2 3 1 4 22 5 20 6 19 7 17 8 16 9 15 10 14 11 6 12
REMARK SMILES IDX 7 13 8 14 9 15 13 16 11 17 10 18 12 20 4 22 21 24 18 26
REMARK H PARENT 10 19 12 21 4 23 21 25 18 27
REMARK Flexibility Score: inf
ROOT
ATOM      1  C   UNL     1       5.315  15.084  54.030  1.00  0.00     0.180 A 
ATOM      2  C   UNL     1       4.817  16.164  54.785  1.00  0.00     0.208 A 
ATOM      3  C   UNL     1       5.212  17.468  54.448  1.00  0.00     0.238 A 
ATOM      4  O   UNL     1       4.780  18.441  55.123  1.00  0.00    -0.285 OA
ATOM      5  C   UNL     1       6.077  17.673  53.354  1.00  0.00     0.111 A 
ATOM      6  C   UNL     1       6.519  18.954  52.946  1.00  0.00     0.134 A 
ATOM      7  C   UNL     1       7.374  19.075  51.840  1.00  0.00     0.093 A 
ATOM      8  C   UNL     1       7.794  17.941  51.136  1.00  0.00     0.123 A 
ATOM      9  C   UNL     1       7.361  16.676  51.535  1.00  0.00     0.094 A 
ATOM     10  C   UNL     1       6.511  16.533  52.635  1.00  0.00     0.146 A 
ATOM     11  O   UNL     1       6.118  15.317  52.996  1.00  0.00    -0.452 OA
ENDROOT
BRANCH   1  12
ATOM     12  C   UNL     1       4.960  13.680  54.336  1.00  0.00     0.025 A 
ATOM     13  C   UNL     1       4.745  13.298  55.668  1.00  0.00     0.016 A 
ATOM     14  C   UNL     1       4.390  11.984  55.978  1.00  0.00     0.051 A 
ATOM     15  C   UNL     1       4.225  11.032  54.966  1.00  0.00     0.157 A 
ATOM     16  C   UNL     1       4.773  12.732  53.316  1.00  0.00     0.062 A 
ATOM     17  C   UNL     1       4.413  11.412  53.617  1.00  0.00     0.158 A 
BRANCH  15  18
ATOM     18  O   UNL     1       3.875   9.734  55.344  1.00  0.00    -0.504 OA
ATOM     19  H   UNL     1       4.455   8.923  55.180  1.00  0.00     0.293 HD
ENDBRANCH  15  18
BRANCH  17  20
ATOM     20  O   UNL     1       4.247  10.523  52.553  1.00  0.00    -0.504 OA
ATOM     21  H   UNL     1       4.474   9.540  52.597  1.00  0.00     0.293 HD
ENDBRANCH  17  20
ENDBRANCH   1  12
BRANCH   2  22
ATOM     22  O   UNL     1       3.921  15.938  55.834  1.00  0.00    -0.502 OA
ATOM     23  H   UNL     1       3.532  15.023  56.028  1.00  0.00     0.293 HD
ENDBRANCH   2  22
BRANCH   6  24
ATOM     24  O   UNL     1       6.118  20.103  53.627  1.00  0.00    -0.507 OA
ATOM     25  H   UNL     1       5.600  20.054  54.497  1.00  0.00     0.293 HD
ENDBRANCH   6  24
BRANCH   8  26
ATOM     26  O   UNL     1       8.642  18.061  50.037  1.00  0.00    -0.508 OA
ATOM     27  H   UNL     1       9.618  17.798  50.090  1.00  0.00     0.293 HD
ENDBRANCH   8  26
TORSDOF 6
ENDMDL
MODEL 3
REMARK VINA RESULT:    -3.729      3.715      5.500
REMARK INTER + INTRA:          -4.605
REMARK INTER:                  -4.276
REMARK INTRA:                  -0.329
REMARK UNBOUND:                -0.113
REMARK SMILES O=c1c(O)c(-c2ccc(O)c(O)c2)oc2cc(O)cc(O)c12
REMARK SMILES IDX 5 1 3 2 2 3 1 4 22 5 20 6 19 7 17 8 16 9 15 10 14 11 6 12
REMARK SMILES IDX 7 13 8 14 9 15 13 16 11 17 10 18 12 20 4 22 21 24 18 26
REMARK H PARENT 10 19 12 21 4 23 21 25 18 27
REMARK Flexibility Score: inf
ROOT
ATOM      1  C   UNL     1       6.288  18.711  54.700  1.00  0.00     0.180 A 
ATOM      2  C   UNL     1       7.525  19.273  54.329  1.00  0.00     0.208 A 
ATOM      3  C   UNL     1       8.033  19.009  53.048  1.00  0.00     0.238 A 
ATOM      4  O   UNL     1       9.145  19.498  52.708  1.00  0.00    -0.285 OA
ATOM      5  C   UNL     1       7.292  18.208  52.155  1.00  0.00     0.111 A 
ATOM      6  C   UNL     1       7.732  17.896  50.846  1.00  0.00     0.134 A 
ATOM      7  C   UNL     1       6.931  17.099  50.015  1.00  0.00     0.093 A 
ATOM      8  C   UNL     1       5.701  16.608  50.467  1.00  0.00     0.123 A 
ATOM      9  C   UNL     1       5.264  16.912  51.757  1.00  0.00     0.094 A 
ATOM     10  C   UNL     1       6.047  17.703  52.602  1.00  0.00     0.146 A 
ATOM     11  O   UNL     1       5.610  17.973  53.827  1.00  0.00    -0.452 OA
ENDROOT
BRANCH   1  12
ATOM     12  C   UNL     1       5.695  18.929  56.039  1.00  0.00     0.025 A 
ATOM     13  C   UNL     1       4.713  19.915  56.207  1.00  0.00     0.016 A 
ATOM     14  C   UNL     1       4.127  20.125  57.456  1.00  0.00     0.051 A 
ATOM     15  C   UNL     1       4.496  19.344  58.557  1.00  0.00     0.157 A 
ATOM     16  C   UNL     1       6.052  18.129  57.138  1.00  0.00     0.062 A 
ATOM     17  C   UNL     1       5.467  18.328  58.394  1.00  0.00     0.158 A 
BRANCH  15  18
ATOM     18  O   UNL     1       3.877  19.608  59.780  1.00  0.00    -0.504 OA
ATOM     19  H   UNL     1       2.934  19.327  60.008  1.00  0.00     0.293 HD
ENDBRANCH  15  18
BRANCH  17  20
ATOM     20  O   UNL     1       5.871  17.497  59.441  1.00  0.00    -0.504 OA
ATOM     21  H   UNL     1       6.303  16.593  59.311  1.00  0.00     0.293 HD
ENDBRANCH  17  20
ENDBRANCH   1  12
BRANCH   2  22
ATOM     22  O   UNL     1       8.216  20.105  55.214  1.00  0.00    -0.502 OA
ATOM     23  H   UNL     1       8.033  20.109  56.210  1.00  0.00     0.293 HD
ENDBRANCH   2  22
BRANCH   6  24
ATOM     24  O   UNL     1       8.953  18.371  50.367  1.00  0.00    -0.507 OA
ATOM     25  H   UNL     1       9.604  17.768  49.877  1.00  0.00     0.293 HD
ENDBRANCH   6  24
BRANCH   8  26
ATOM     26  O   UNL     1       4.905  15.818  49.641  1.00  0.00    -0.508 OA
ATOM     27  H   UNL     1       5.287  15.029  49.134  1.00  0.00     0.293 HD
ENDBRANCH   8  26
TORSDOF 6
ENDMDL
MODEL 4
REMARK VINA RESULT:    -3.590      3.769      4.702
REMARK INTER + INTRA:          -4.438
REMARK INTER:                  -4.139
REMARK INTRA:                  -0.299
REMARK UNBOUND:                -0.113
REMARK SMILES O=c1c(O)c(-c2ccc(O)c(O)c2)oc2cc(O)cc(O)c12
REMARK SMILES IDX 5 1 3 2 2 3 1 4 22 5 20 6 19 7 17 8 16 9 15 10 14 11 6 12
REMARK SMILES IDX 7 13 8 14 9 15 13 16 11 17 10 18 12 20 4 22 21 24 18 26
REMARK H PARENT 10 19 12 21 4 23 21 25 18 27
REMARK Flexibility Score: inf
ROOT
ATOM      1  C   UNL     1       5.742  18.361  54.707  1.00  0.00     0.180 A 
ATOM      2  C   UNL     1       5.115  17.333  53.977  1.00  0.00     0.208 A 
ATOM      3  C   UNL     1       5.553  17.062  52.671  1.00  0.00     0.238 A 
ATOM      4  O   UNL     1       4.991  16.151  52.004  1.00  0.00    -0.285 OA
ATOM      5  C   UNL     1       6.619  17.806  52.126  1.00  0.00     0.111 A 
ATOM      6  C   UNL     1       7.123  17.594  50.820  1.00  0.00     0.134 A 
ATOM      7  C   UNL     1       8.194  18.372  50.353  1.00  0.00     0.093 A 
ATOM      8  C   UNL     1       8.769  19.354  51.166  1.00  0.00     0.123 A 
ATOM      9  C   UNL     1       8.275  19.567  52.454  1.00  0.00     0.094 A 
ATOM     10  C   UNL     1       7.208  18.805  52.938  1.00  0.00     0.146 A 
ATOM     11  O   UNL     1       6.754  19.031  54.165  1.00  0.00    -0.452 OA
ENDROOT
BRANCH   1  12
ATOM     12  C   UNL     1       5.324  18.717  56.081  1.00  0.00     0.025 A 
ATOM     13  C   UNL     1       4.436  19.784  56.278  1.00  0.00     0.016 A 
ATOM     14  C   UNL     1       4.012  20.125  57.563  1.00  0.00     0.051 A 
ATOM     15  C   UNL     1       4.452  19.399  58.675  1.00  0.00     0.157 A 
ATOM     16  C   UNL     1       5.750  17.972  57.194  1.00  0.00     0.062 A 
ATOM     17  C   UNL     1       5.328  18.303  58.487  1.00  0.00     0.158 A 
BRANCH  15  18
ATOM     18  O   UNL     1       3.997  19.795  59.934  1.00  0.00    -0.504 OA
ATOM     19  H   UNL     1       4.589  20.192  60.649  1.00  0.00     0.293 HD
ENDBRANCH  15  18
BRANCH  17  20
ATOM     20  O   UNL     1       5.793  17.520  59.546  1.00  0.00    -0.504 OA
ATOM     21  H   UNL     1       6.769  17.322  59.716  1.00  0.00     0.293 HD
ENDBRANCH  17  20
ENDBRANCH   1  12
BRANCH   2  22
ATOM     22  O   UNL     1       4.093  16.576  54.558  1.00  0.00    -0.502 OA
ATOM     23  H   UNL     1       4.255  15.658  54.953  1.00  0.00     0.293 HD
ENDBRANCH   2  22
BRANCH   6  24
ATOM     24  O   UNL     1       6.571  16.622  49.986  1.00  0.00    -0.507 OA
ATOM     25  H   UNL     1       5.675  16.192  50.188  1.00  0.00     0.293 HD
ENDBRANCH   6  24
BRANCH   8  26
ATOM     26  O   UNL     1       9.833  20.125  50.704  1.00  0.00    -0.508 OA
ATOM     27  H   UNL     1      10.657  20.285  51.270  1.00  0.00     0.293 HD
ENDBRANCH   8  26
TORSDOF 6
ENDMDL
MODEL 5
REMARK VINA RESULT:    -3.496      4.072      6.502
REMARK INTER + INTRA:          -4.325
REMARK INTER:                  -4.150
REMARK INTRA:                  -0.174
REMARK UNBOUND:                -0.113
REMARK SMILES O=c1c(O)c(-c2ccc(O)c(O)c2)oc2cc(O)cc(O)c12
REMARK SMILES IDX 5 1 3 2 2 3 1 4 22 5 20 6 19 7 17 8 16 9 15 10 14 11 6 12
REMARK SMILES IDX 7 13 8 14 9 15 13 16 11 17 10 18 12 20 4 22 21 24 18 26
REMARK H PARENT 10 19 12 21 4 23 21 25 18 27
REMARK Flexibility Score: inf
ROOT
ATOM      1  C   UNL     1       6.487  19.279  52.264  1.00  0.00     0.180 A 
ATOM      2  C   UNL     1       7.887  19.402  52.346  1.00  0.00     0.208 A 
ATOM      3  C   UNL     1       8.477  19.617  53.602  1.00  0.00     0.238 A 
ATOM      4  O   UNL     1       9.729  19.740  53.687  1.00  0.00    -0.285 OA
ATOM      5  C   UNL     1       7.663  19.684  54.752  1.00  0.00     0.111 A 
ATOM      6  C   UNL     1       8.178  19.893  56.053  1.00  0.00     0.134 A 
ATOM      7  C   UNL     1       7.302  19.938  57.149  1.00  0.00     0.093 A 
ATOM      8  C   UNL     1       5.924  19.778  56.967  1.00  0.00     0.123 A 
ATOM      9  C   UNL     1       5.411  19.572  55.685  1.00  0.00     0.094 A 
ATOM     10  C   UNL     1       6.267  19.525  54.580  1.00  0.00     0.146 A 
ATOM     11  O   UNL     1       5.753  19.333  53.371  1.00  0.00    -0.452 OA
ENDROOT
BRANCH   1  12
ATOM     12  C   UNL     1       5.791  19.071  50.974  1.00  0.00     0.025 A 
ATOM     13  C   UNL     1       5.832  20.076  49.998  1.00  0.00     0.016 A 
ATOM     14  C   UNL     1       5.200  19.894  48.767  1.00  0.00     0.051 A 
ATOM     15  C   UNL     1       4.531  18.699  48.479  1.00  0.00     0.157 A 
ATOM     16  C   UNL     1       5.139  17.861  50.679  1.00  0.00     0.062 A 
ATOM     17  C   UNL     1       4.505  17.666  49.446  1.00  0.00     0.158 A 
BRANCH  15  18
ATOM     18  O   UNL     1       3.913  18.581  47.232  1.00  0.00    -0.504 OA
ATOM     19  H   UNL     1       4.087  19.203  46.455  1.00  0.00     0.293 HD
ENDBRANCH  15  18
BRANCH  17  20
ATOM     20  O   UNL     1       3.875  16.440  49.223  1.00  0.00    -0.504 OA
ATOM     21  H   UNL     1       3.008  16.163  49.660  1.00  0.00     0.293 HD
ENDBRANCH  17  20
ENDBRANCH   1  12
BRANCH   2  22
ATOM     22  O   UNL     1       8.676  19.283  51.199  1.00  0.00    -0.502 OA
ATOM     23  H   UNL     1       9.671  19.473  51.202  1.00  0.00     0.293 HD
ENDBRANCH   2  22
BRANCH   6  24
ATOM     24  O   UNL     1       9.547  20.056  56.267  1.00  0.00    -0.507 OA
ATOM     25  H   UNL     1       9.921  20.880  56.724  1.00  0.00     0.293 HD
ENDBRANCH   6  24
BRANCH   8  26
ATOM     26  O   UNL     1       5.054  19.821  58.054  1.00  0.00    -0.508 OA
ATOM     27  H   UNL     1       5.321  20.255  58.929  1.00  0.00     0.293 HD
ENDBRANCH   8  26
TORSDOF 6
ENDMDL
MODEL 6
REMARK VINA RESULT:    -3.371      3.790      5.820
REMARK INTER + INTRA:          -4.174
REMARK INTER:                  -3.872
REMARK INTRA:                  -0.302
REMARK UNBOUND:                -0.113
REMARK SMILES O=c1c(O)c(-c2ccc(O)c(O)c2)oc2cc(O)cc(O)c12
REMARK SMILES IDX 5 1 3 2 2 3 1 4 22 5 20 6 19 7 17 8 16 9 15 10 14 11 6 12
REMARK SMILES IDX 7 13 8 14 9 15 13 16 11 17 10 18 12 20 4 22 21 24 18 26
REMARK H PARENT 10 19 12 21 4 23 21 25 18 27
REMARK Flexibility Score: inf
ROOT
ATOM      1  C   UNL     1       6.066  18.956  52.623  1.00  0.00     0.180 A 
ATOM      2  C   UNL     1       5.278  19.093  53.782  1.00  0.00     0.208 A 
ATOM      3  C   UNL     1       5.909  19.400  54.998  1.00  0.00     0.238 A 
ATOM      4  O   UNL     1       5.215  19.515  56.045  1.00  0.00    -0.285 OA
ATOM      5  C   UNL     1       7.306  19.585  55.032  1.00  0.00     0.111 A 
ATOM      6  C   UNL     1       8.017  19.900  56.214  1.00  0.00     0.134 A 
ATOM      7  C   UNL     1       9.408  20.077  56.163  1.00  0.00     0.093 A 
ATOM      8  C   UNL     1      10.099  19.946  54.954  1.00  0.00     0.123 A 
ATOM      9  C   UNL     1       9.403  19.634  53.785  1.00  0.00     0.094 A 
ATOM     10  C   UNL     1       8.017  19.452  53.815  1.00  0.00     0.146 A 
ATOM     11  O   UNL     1       7.379  19.152  52.690  1.00  0.00    -0.452 OA
ENDROOT
BRANCH   1  12
ATOM     12  C   UNL     1       5.477  18.615  51.308  1.00  0.00     0.025 A 
ATOM     13  C   UNL     1       5.338  19.613  50.334  1.00  0.00     0.016 A 
ATOM     14  C   UNL     1       4.803  19.310  49.081  1.00  0.00     0.051 A 
ATOM     15  C   UNL     1       4.413  18.003  48.769  1.00  0.00     0.157 A 
ATOM     16  C   UNL     1       5.106  17.297  50.990  1.00  0.00     0.062 A 
ATOM     17  C   UNL     1       4.573  16.981  49.735  1.00  0.00     0.158 A 
BRANCH  15  18
ATOM     18  O   UNL     1       3.879  17.767  47.501  1.00  0.00    -0.504 OA
ATOM     19  H   UNL     1       4.400  17.868  46.641  1.00  0.00     0.293 HD
ENDBRANCH  15  18
BRANCH  17  20
ATOM     20  O   UNL     1       4.225  15.652  49.490  1.00  0.00    -0.504 OA
ATOM     21  H   UNL     1       4.845  14.973  49.071  1.00  0.00     0.293 HD
ENDBRANCH  17  20
ENDBRANCH   1  12
BRANCH   2  22
ATOM     22  O   UNL     1       3.890  18.954  53.713  1.00  0.00    -0.502 OA
ATOM     23  H   UNL     1       3.439  18.314  53.070  1.00  0.00     0.293 HD
ENDBRANCH   2  22
BRANCH   6  24
ATOM     24  O   UNL     1       7.356  20.038  57.435  1.00  0.00    -0.507 OA
ATOM     25  H   UNL     1       6.358  19.880  57.522  1.00  0.00     0.293 HD
ENDBRANCH   6  24
BRANCH   8  26
ATOM     26  O   UNL     1      11.480  20.123  54.902  1.00  0.00    -0.508 OA
ATOM     27  H   UNL     1      11.922  20.954  55.276  1.00  0.00     0.293 HD
ENDBRANCH   8  26
TORSDOF 6
ENDMDL
