MODEL 1
REMARK VINA RESULT:    64.359      0.000      0.000
REMARK INTER + INTRA:          69.776
REMARK INTER:                  70.002
REMARK INTRA:                  -0.226
REMARK UNBOUND:                -0.226
REMARK SMILES CC1(C)CC[C@@]2(C(=O)[O-])CC[C@]3(C)C(=CC[C@H]4[C@]5(C)CC[C@@H](O)C(C)(C)[C@H]5CC[C@]43C)[C@H]2C1
REMARK SMILES IDX 6 1 5 2 10 3 32 4 4 5 11 6 14 7 33 8 2 9 12 10 15 11 1 12
REMARK SMILES IDX 3 13 13 14 30 15 16 16 17 17 29 18 31 19 18 20 28 21 27 22
REMARK SMILES IDX 20 23 19 24 24 25 21 26 22 27 25 28 26 29 7 30 8 31 9 32
REMARK SMILES IDX 23 33
REMARK H PARENT 23 34
REMARK Flexibility Score: inf
ROOT
ATOM      1  C   UNL     1      -7.221  14.972 -14.028  1.00  0.00     0.017 C 
ATOM      2  C   UNL     1      -6.675  16.006 -15.057  1.00  0.00     0.014 C 
ATOM      3  C   UNL     1      -6.065  14.021 -13.540  1.00  0.00     0.014 C 
ATOM      4  C   UNL     1      -7.935  15.714 -12.841  1.00  0.00     0.028 C 
ATOM      5  C   UNL     1      -5.859  17.139 -14.424  1.00  0.00     0.007 C 
ATOM      6  C   UNL     1      -5.951  13.832 -12.016  1.00  0.00     0.013 C 
ATOM      7  C   UNL     1      -8.282  14.747 -11.711  1.00  0.00    -0.064 C 
ATOM      8  C   UNL     1      -7.168  16.939 -12.278  1.00  0.00     0.015 C 
ATOM      9  C   UNL     1      -6.656  17.923 -13.357  1.00  0.00    -0.035 C 
ATOM     10  C   UNL     1      -7.324  13.624 -11.294  1.00  0.00    -0.006 C 
ATOM     11  C   UNL     1      -9.422  14.932 -11.018  1.00  0.00    -0.027 C 
ATOM     12  C   UNL     1      -7.825  18.711 -13.993  1.00  0.00     0.011 C 
ATOM     13  C   UNL     1      -5.708  18.944 -12.690  1.00  0.00     0.011 C 
ATOM     14  C   UNL     1      -7.897  12.265 -11.810  1.00  0.00     0.017 C 
ATOM     15  C   UNL     1      -7.187  13.632  -9.687  1.00  0.00    -0.020 C 
ATOM     16  C   UNL     1      -9.822  13.993  -9.922  1.00  0.00     0.032 C 
ATOM     17  C   UNL     1      -8.627  13.675  -8.971  1.00  0.00     0.006 C 
ATOM     18  C   UNL     1      -6.333  12.416  -9.210  1.00  0.00     0.008 C 
ATOM     19  C   UNL     1      -6.411  14.910  -9.216  1.00  0.00     0.012 C 
ATOM     20  C   UNL     1      -8.921  12.550  -7.883  1.00  0.00    -0.025 C 
ATOM     21  C   UNL     1      -6.320  12.181  -7.691  1.00  0.00     0.005 C 
ATOM     22  C   UNL     1      -7.658  12.476  -6.946  1.00  0.00     0.003 C 
ATOM     23  C   UNL     1     -10.152  13.008  -7.028  1.00  0.00     0.010 C 
ATOM     24  C   UNL     1      -9.270  11.176  -8.530  1.00  0.00     0.012 C 
ATOM     25  C   UNL     1      -7.831  11.675  -5.594  1.00  0.00    -0.006 C 
ATOM     26  C   UNL     1     -10.360  12.218  -5.728  1.00  0.00     0.033 C 
ATOM     27  C   UNL     1      -9.094  12.227  -4.852  1.00  0.00     0.120 C 
ATOM     28  C   UNL     1      -7.926  10.129  -5.789  1.00  0.00     0.014 C 
ATOM     29  C   UNL     1      -6.601  11.960  -4.686  1.00  0.00     0.014 C 
ENDROOT
BRANCH   1  30
ATOM     30  C   UNL     1      -8.243  14.128 -14.797  1.00  0.00     0.048 C 
ATOM     31  O   UNL     1      -9.353  14.630 -15.125  1.00  0.00    -0.550 OA
ATOM     32  O   UNL     1      -7.992  12.799 -15.125  1.00  0.00    -0.550 OA
ENDBRANCH   1  30
BRANCH  27  33
ATOM     33  O   UNL     1      -9.321  11.560  -3.633  1.00  0.00    -0.393 OA
ATOM     34  H   UNL     1      -8.915  10.656  -3.690  1.00  0.00     0.210 HD
ENDBRANCH  27  33
TORSDOF 2
ENDMDL
