MODEL 1
REMARK VINA RESULT:    -6.308      0.000      0.000
REMARK INTER + INTRA:         -12.041
REMARK INTER:                 -10.365
REMARK INTRA:                  -1.676
REMARK UNBOUND:                -1.676
REMARK SMILES C[C@@H]1O[C@H](OC[C@H]2O[C@H](Oc3c(-c4ccc(O)c(O)c4)oc4cc(O)cc(O)c4c3=O)[C@@H](O)[C@H](O)[C@H]2O)[C@@H](O)[C@@H](O)[C@H]1O
REMARK SMILES IDX 7 1 36 2 34 3 32 4 9 5 8 6 6 7 5 8 4 9 1 10 2 11 42 12 3 13
REMARK SMILES IDX 40 14 38 15 43 16 41 18 39 20 37 22 35 24 10 26 11 27 12 28
REMARK SMILES IDX 30 29 21 30 29 31 31 32 22 33 27 34 23 35 26 36 24 37 13 38
REMARK SMILES IDX 20 39 14 40 18 41 15 42 16 43 19 44 17 46 28 48 25 50 33 52
REMARK H PARENT 43 17 41 19 39 21 37 23 35 25 19 45 17 47 28 49 25 51 33 53
REMARK Flexibility Score: inf
ROOT
ATOM      1  C   UNL     1      -4.653  -7.199  23.079  1.00  0.00     0.180 C 
ATOM      2  C   UNL     1      -4.160  -8.657  23.253  1.00  0.00     0.177 C 
ATOM      3  C   UNL     1      -4.724  -9.565  22.137  1.00  0.00     0.180 C 
ATOM      4  C   UNL     1      -4.593  -8.909  20.745  1.00  0.00     0.214 C 
ATOM      5  C   UNL     1      -5.006  -7.422  20.771  1.00  0.00     0.339 C 
ATOM      6  O   UNL     1      -4.328  -6.707  21.791  1.00  0.00    -0.332 OA
ENDROOT
BRANCH   1   7
ATOM      7  C   UNL     1      -4.023  -6.264  24.127  1.00  0.00     0.198 C 
BRANCH   7   8
ATOM      8  O   UNL     1      -3.554  -6.996  25.245  1.00  0.00    -0.347 OA
BRANCH   8   9
ATOM      9  C   UNL     1      -3.979  -6.429  26.475  1.00  0.00     0.281 C 
ATOM     10  C   UNL     1      -2.809  -9.278  26.777  1.00  0.00     0.041 C 
ATOM     11  C   UNL     1      -3.287  -8.272  27.839  1.00  0.00     0.150 C 
ATOM     12  C   UNL     1      -2.133  -7.468  28.480  1.00  0.00     0.174 C 
ATOM     13  O   UNL     1      -4.362  -7.454  27.383  1.00  0.00    -0.344 OA
ATOM     14  C   UNL     1      -1.684  -6.314  27.563  1.00  0.00     0.179 C 
ATOM     15  C   UNL     1      -2.887  -5.502  27.061  1.00  0.00     0.202 C 
BRANCH  12  16
ATOM     16  O   UNL     1      -2.557  -6.973  29.727  1.00  0.00    -0.388 OA
ATOM     17  H   UNL     1      -1.806  -7.101  30.363  1.00  0.00     0.211 HD
ENDBRANCH  12  16
BRANCH  14  18
ATOM     18  O   UNL     1      -0.786  -5.466  28.232  1.00  0.00    -0.387 OA
ATOM     19  H   UNL     1      -0.152  -6.050  28.724  1.00  0.00     0.211 HD
ENDBRANCH  14  18
BRANCH  15  20
ATOM     20  O   UNL     1      -3.401  -4.664  28.070  1.00  0.00    -0.385 OA
ATOM     21  H   UNL     1      -4.151  -5.133  28.520  1.00  0.00     0.211 HD
ENDBRANCH  15  20
ENDBRANCH   8   9
ENDBRANCH   7   8
ENDBRANCH   1   7
BRANCH   2  22
ATOM     22  O   UNL     1      -2.754  -8.687  23.217  1.00  0.00    -0.387 OA
ATOM     23  H   UNL     1      -2.471  -9.528  23.662  1.00  0.00     0.211 HD
ENDBRANCH   2  22
BRANCH   3  24
ATOM     24  O   UNL     1      -6.051  -9.957  22.399  1.00  0.00    -0.387 OA
ATOM     25  H   UNL     1      -6.641  -9.565  21.708  1.00  0.00     0.211 HD
ENDBRANCH   3  24
BRANCH   5  26
ATOM     26  O   UNL     1      -6.426  -7.289  20.901  1.00  0.00    -0.454 OA
BRANCH  26  27
ATOM     27  C   UNL     1      -7.062  -6.044  20.873  1.00  0.00     0.214 A 
ATOM     28  C   UNL     1      -7.828  -5.597  21.962  1.00  0.00     0.180 A 
ATOM     29  C   UNL     1      -6.905  -5.210  19.761  1.00  0.00     0.239 A 
ATOM     30  O   UNL     1      -8.321  -4.365  21.958  1.00  0.00    -0.452 OA
ATOM     31  C   UNL     1      -7.499  -3.925  19.755  1.00  0.00     0.111 A 
ATOM     32  O   UNL     1      -6.193  -5.616  18.805  1.00  0.00    -0.285 OA
ATOM     33  C   UNL     1      -8.181  -3.527  20.938  1.00  0.00     0.146 A 
ATOM     34  C   UNL     1      -7.424  -3.000  18.671  1.00  0.00     0.134 A 
ATOM     35  C   UNL     1      -8.719  -2.243  21.049  1.00  0.00     0.094 A 
ATOM     36  C   UNL     1      -7.944  -1.710  18.827  1.00  0.00     0.093 A 
ATOM     37  C   UNL     1      -8.590  -1.330  20.006  1.00  0.00     0.123 A 
BRANCH  28  38
ATOM     38  C   UNL     1      -8.111  -6.467  23.121  1.00  0.00     0.025 A 
ATOM     39  C   UNL     1      -7.912  -6.003  24.431  1.00  0.00     0.062 A 
ATOM     40  C   UNL     1      -8.518  -7.790  22.917  1.00  0.00     0.016 A 
ATOM     41  C   UNL     1      -8.125  -6.844  25.529  1.00  0.00     0.158 A 
ATOM     42  C   UNL     1      -8.760  -8.627  24.007  1.00  0.00     0.051 A 
ATOM     43  C   UNL     1      -8.573  -8.169  25.316  1.00  0.00     0.157 A 
BRANCH  41  44
ATOM     44  O   UNL     1      -7.873  -6.330  26.804  1.00  0.00    -0.504 OA
ATOM     45  H   UNL     1      -8.385  -6.596  27.632  1.00  0.00     0.293 HD
ENDBRANCH  41  44
BRANCH  43  46
ATOM     46  O   UNL     1      -8.837  -9.054  26.363  1.00  0.00    -0.504 OA
ATOM     47  H   UNL     1      -8.425  -9.972  26.443  1.00  0.00     0.293 HD
ENDBRANCH  43  46
ENDBRANCH  28  38
BRANCH  34  48
ATOM     48  O   UNL     1      -6.876  -3.305  17.421  1.00  0.00    -0.507 OA
ATOM     49  H   UNL     1      -6.785  -4.235  17.041  1.00  0.00     0.293 HD
ENDBRANCH  34  48
BRANCH  37  50
ATOM     50  O   UNL     1      -9.117  -0.048  20.146  1.00  0.00    -0.508 OA
ATOM     51  H   UNL     1      -9.527   0.265  21.019  1.00  0.00     0.293 HD
ENDBRANCH  37  50
ENDBRANCH  26  27
ENDBRANCH   5  26
BRANCH   4  52
ATOM     52  O   UNL     1      -3.259  -9.016  20.316  1.00  0.00    -0.384 OA
ATOM     53  H   UNL     1      -2.894  -9.851  20.709  1.00  0.00     0.211 HD
ENDBRANCH   4  52
TORSDOF 16
ENDMDL
MODEL 2
REMARK VINA RESULT:    -5.028      2.553      4.222
REMARK INTER + INTRA:          -9.937
REMARK INTER:                  -8.320
REMARK INTRA:                  -1.617
REMARK UNBOUND:                -1.676
REMARK SMILES C[C@@H]1O[C@H](OC[C@H]2O[C@H](Oc3c(-c4ccc(O)c(O)c4)oc4cc(O)cc(O)c4c3=O)[C@@H](O)[C@H](O)[C@H]2O)[C@@H](O)[C@@H](O)[C@H]1O
REMARK SMILES IDX 7 1 36 2 34 3 32 4 9 5 8 6 6 7 5 8 4 9 1 10 2 11 42 12 3 13
REMARK SMILES IDX 40 14 38 15 43 16 41 18 39 20 37 22 35 24 10 26 11 27 12 28
REMARK SMILES IDX 30 29 21 30 29 31 31 32 22 33 27 34 23 35 26 36 24 37 13 38
REMARK SMILES IDX 20 39 14 40 18 41 15 42 16 43 19 44 17 46 28 48 25 50 33 52
REMARK H PARENT 43 17 41 19 39 21 37 23 35 25 19 45 17 47 28 49 25 51 33 53
REMARK Flexibility Score: inf
ROOT
ATOM      1  C   UNL     1      -2.659  -6.973  27.075  1.00  0.00     0.180 C 
ATOM      2  C   UNL     1      -2.986  -8.247  27.893  1.00  0.00     0.177 C 
ATOM      3  C   UNL     1      -4.206  -8.985  27.296  1.00  0.00     0.180 C 
ATOM      4  C   UNL     1      -4.107  -9.106  25.761  1.00  0.00     0.214 C 
ATOM      5  C   UNL     1      -3.649  -7.783  25.109  1.00  0.00     0.339 C 
ATOM      6  O   UNL     1      -2.463  -7.287  25.708  1.00  0.00    -0.332 OA
ENDROOT
BRANCH   1   7
ATOM      7  C   UNL     1      -1.388  -6.281  27.599  1.00  0.00     0.198 C 
BRANCH   7   8
ATOM      8  O   UNL     1      -0.229  -7.022  27.263  1.00  0.00    -0.347 OA
BRANCH   8   9
ATOM      9  C   UNL     1       0.747  -6.989  28.294  1.00  0.00     0.281 C 
ATOM     10  C   UNL     1       0.935  -9.507  26.506  1.00  0.00     0.041 C 
ATOM     11  C   UNL     1       1.838  -9.022  27.654  1.00  0.00     0.150 C 
ATOM     12  C   UNL     1       3.103  -8.283  27.162  1.00  0.00     0.174 C 
ATOM     13  O   UNL     1       1.121  -8.311  28.660  1.00  0.00    -0.344 OA
ATOM     14  C   UNL     1       2.781  -6.827  26.777  1.00  0.00     0.179 C 
ATOM     15  C   UNL     1       1.963  -6.129  27.873  1.00  0.00     0.202 C 
BRANCH  12  16
ATOM     16  O   UNL     1       4.079  -8.322  28.176  1.00  0.00    -0.388 OA
ATOM     17  H   UNL     1       4.860  -8.814  27.811  1.00  0.00     0.211 HD
ENDBRANCH  12  16
BRANCH  14  18
ATOM     18  O   UNL     1       3.959  -6.103  26.532  1.00  0.00    -0.387 OA
ATOM     19  H   UNL     1       4.620  -6.391  27.215  1.00  0.00     0.211 HD
ENDBRANCH  14  18
BRANCH  15  20
ATOM     20  O   UNL     1       2.767  -5.787  28.978  1.00  0.00    -0.385 OA
ATOM     21  H   UNL     1       3.682  -6.142  28.825  1.00  0.00     0.211 HD
ENDBRANCH  15  20
ENDBRANCH   8   9
ENDBRANCH   7   8
ENDBRANCH   1   7
BRANCH   2  22
ATOM     22  O   UNL     1      -1.872  -9.107  27.893  1.00  0.00    -0.387 OA
ATOM     23  H   UNL     1      -1.219  -8.733  27.245  1.00  0.00     0.211 HD
ENDBRANCH   2  22
BRANCH   3  24
ATOM     24  O   UNL     1      -5.422  -8.391  27.689  1.00  0.00    -0.387 OA
ATOM     25  H   UNL     1      -5.738  -8.830  28.517  1.00  0.00     0.211 HD
ENDBRANCH   3  24
BRANCH   5  26
ATOM     26  O   UNL     1      -4.696  -6.807  25.147  1.00  0.00    -0.454 OA
BRANCH  26  27
ATOM     27  C   UNL     1      -5.479  -6.513  24.025  1.00  0.00     0.214 A 
ATOM     28  C   UNL     1      -6.835  -6.875  23.975  1.00  0.00     0.180 A 
ATOM     29  C   UNL     1      -4.917  -5.816  22.951  1.00  0.00     0.239 A 
ATOM     30  O   UNL     1      -7.584  -6.480  22.953  1.00  0.00    -0.452 OA
ATOM     31  C   UNL     1      -5.724  -5.466  21.840  1.00  0.00     0.111 A 
ATOM     32  O   UNL     1      -3.707  -5.477  23.025  1.00  0.00    -0.285 OA
ATOM     33  C   UNL     1      -7.104  -5.797  21.920  1.00  0.00     0.146 A 
ATOM     34  C   UNL     1      -5.256  -4.776  20.682  1.00  0.00     0.134 A 
ATOM     35  C   UNL     1      -7.986  -5.409  20.909  1.00  0.00     0.094 A 
ATOM     36  C   UNL     1      -6.171  -4.372  19.703  1.00  0.00     0.093 A 
ATOM     37  C   UNL     1      -7.528  -4.687  19.810  1.00  0.00     0.123 A 
BRANCH  28  38
ATOM     38  C   UNL     1      -7.460  -7.694  25.032  1.00  0.00     0.025 A 
ATOM     39  C   UNL     1      -7.955  -7.098  26.203  1.00  0.00     0.062 A 
ATOM     40  C   UNL     1      -7.502  -9.087  24.901  1.00  0.00     0.016 A 
ATOM     41  C   UNL     1      -8.497  -7.879  27.231  1.00  0.00     0.158 A 
ATOM     42  C   UNL     1      -8.065  -9.871  25.909  1.00  0.00     0.051 A 
ATOM     43  C   UNL     1      -8.570  -9.283  27.075  1.00  0.00     0.157 A 
BRANCH  41  44
ATOM     44  O   UNL     1      -8.938  -7.225  28.384  1.00  0.00    -0.504 OA
ATOM     45  H   UNL     1      -9.398  -7.687  29.155  1.00  0.00     0.293 HD
ENDBRANCH  41  44
BRANCH  43  46
ATOM     46  O   UNL     1      -9.125 -10.122  28.042  1.00  0.00    -0.504 OA
ATOM     47  H   UNL     1      -8.619 -10.866  28.502  1.00  0.00     0.293 HD
ENDBRANCH  43  46
ENDBRANCH  28  38
BRANCH  34  48
ATOM     48  O   UNL     1      -3.910  -4.487  20.436  1.00  0.00    -0.507 OA
ATOM     49  H   UNL     1      -3.158  -4.633  21.092  1.00  0.00     0.293 HD
ENDBRANCH  34  48
BRANCH  37  50
ATOM     50  O   UNL     1      -8.429  -4.294  18.823  1.00  0.00    -0.508 OA
ATOM     51  H   UNL     1      -9.072  -3.523  18.967  1.00  0.00     0.293 HD
ENDBRANCH  37  50
ENDBRANCH  26  27
ENDBRANCH   5  26
BRANCH   4  52
ATOM     52  O   UNL     1      -3.192 -10.124  25.443  1.00  0.00    -0.384 OA
ATOM     53  H   UNL     1      -2.663 -10.305  26.263  1.00  0.00     0.211 HD
ENDBRANCH   4  52
TORSDOF 16
ENDMDL
MODEL 3
REMARK VINA RESULT:    -4.764     10.860     17.259
REMARK INTER + INTRA:          -9.503
REMARK INTER:                  -8.056
REMARK INTRA:                  -1.447
REMARK UNBOUND:                -1.676
REMARK SMILES C[C@@H]1O[C@H](OC[C@H]2O[C@H](Oc3c(-c4ccc(O)c(O)c4)oc4cc(O)cc(O)c4c3=O)[C@@H](O)[C@H](O)[C@H]2O)[C@@H](O)[C@@H](O)[C@H]1O
REMARK SMILES IDX 7 1 36 2 34 3 32 4 9 5 8 6 6 7 5 8 4 9 1 10 2 11 42 12 3 13
REMARK SMILES IDX 40 14 38 15 43 16 41 18 39 20 37 22 35 24 10 26 11 27 12 28
REMARK SMILES IDX 30 29 21 30 29 31 31 32 22 33 27 34 23 35 26 36 24 37 13 38
REMARK SMILES IDX 20 39 14 40 18 41 15 42 16 43 19 44 17 46 28 48 25 50 33 52
REMARK H PARENT 43 17 41 19 39 21 37 23 35 25 19 45 17 47 28 49 25 51 33 53
REMARK Flexibility Score: inf
ROOT
ATOM      1  C   UNL     1      -4.620   8.666  14.455  1.00  0.00     0.180 C 
ATOM      2  C   UNL     1      -3.997   9.827  13.640  1.00  0.00     0.177 C 
ATOM      3  C   UNL     1      -2.463   9.666  13.538  1.00  0.00     0.180 C 
ATOM      4  C   UNL     1      -2.063   8.220  13.176  1.00  0.00     0.214 C 
ATOM      5  C   UNL     1      -2.865   7.182  13.989  1.00  0.00     0.339 C 
ATOM      6  O   UNL     1      -4.261   7.412  13.902  1.00  0.00    -0.332 OA
ENDROOT
BRANCH   1   7
ATOM      7  C   UNL     1      -6.156   8.761  14.483  1.00  0.00     0.198 C 
BRANCH   7   8
ATOM      8  O   UNL     1      -6.727   8.091  13.375  1.00  0.00    -0.347 OA
BRANCH   8   9
ATOM      9  C   UNL     1      -7.900   7.372  13.727  1.00  0.00     0.281 C 
ATOM     10  C   UNL     1      -6.466   6.233  11.233  1.00  0.00     0.041 C 
ATOM     11  C   UNL     1      -7.690   5.717  12.009  1.00  0.00     0.150 C 
ATOM     12  C   UNL     1      -7.343   4.598  13.018  1.00  0.00     0.174 C 
ATOM     13  O   UNL     1      -8.471   6.767  12.574  1.00  0.00    -0.344 OA
ATOM     14  C   UNL     1      -6.746   5.183  14.312  1.00  0.00     0.179 C 
ATOM     15  C   UNL     1      -7.600   6.344  14.844  1.00  0.00     0.202 C 
BRANCH  12  16
ATOM     16  O   UNL     1      -8.507   3.859  13.300  1.00  0.00    -0.388 OA
ATOM     17  H   UNL     1      -8.218   2.942  13.547  1.00  0.00     0.211 HD
ENDBRANCH  12  16
BRANCH  14  18
ATOM     18  O   UNL     1      -6.628   4.191  15.300  1.00  0.00    -0.387 OA
ATOM     19  H   UNL     1      -6.631   4.657  16.177  1.00  0.00     0.211 HD
ENDBRANCH  14  18
BRANCH  15  20
ATOM     20  O   UNL     1      -8.781   5.877  15.454  1.00  0.00    -0.385 OA
ATOM     21  H   UNL     1      -8.737   4.887  15.513  1.00  0.00     0.211 HD
ENDBRANCH  15  20
ENDBRANCH   8   9
ENDBRANCH   7   8
ENDBRANCH   1   7
BRANCH   2  22
ATOM     22  O   UNL     1      -4.554   9.848  12.348  1.00  0.00    -0.387 OA
ATOM     23  H   UNL     1      -5.312   9.208  12.350  1.00  0.00     0.211 HD
ENDBRANCH   2  22
BRANCH   3  24
ATOM     24  O   UNL     1      -1.810  10.104  14.707  1.00  0.00    -0.387 OA
ATOM     25  H   UNL     1      -1.023  10.645  14.448  1.00  0.00     0.211 HD
ENDBRANCH   3  24
BRANCH   5  26
ATOM     26  O   UNL     1      -2.428   7.154  15.353  1.00  0.00    -0.454 OA
BRANCH  26  27
ATOM     27  C   UNL     1      -2.093   5.962  16.002  1.00  0.00     0.214 A 
ATOM     28  C   UNL     1      -0.917   5.857  16.763  1.00  0.00     0.180 A 
ATOM     29  C   UNL     1      -2.957   4.865  15.928  1.00  0.00     0.239 A 
ATOM     30  O   UNL     1      -0.683   4.756  17.465  1.00  0.00    -0.452 OA
ATOM     31  C   UNL     1      -2.648   3.676  16.633  1.00  0.00     0.111 A 
ATOM     32  O   UNL     1      -4.019   4.985  15.263  1.00  0.00    -0.285 OA
ATOM     33  C   UNL     1      -1.483   3.696  17.446  1.00  0.00     0.146 A 
ATOM     34  C   UNL     1      -3.443   2.491  16.613  1.00  0.00     0.134 A 
ATOM     35  C   UNL     1      -1.154   2.598  18.243  1.00  0.00     0.094 A 
ATOM     36  C   UNL     1      -3.105   1.420  17.449  1.00  0.00     0.093 A 
ATOM     37  C   UNL     1      -1.967   1.467  18.259  1.00  0.00     0.123 A 
BRANCH  28  38
ATOM     38  C   UNL     1       0.082   6.945  16.802  1.00  0.00     0.025 A 
ATOM     39  C   UNL     1       0.553   7.441  18.028  1.00  0.00     0.062 A 
ATOM     40  C   UNL     1       0.516   7.535  15.610  1.00  0.00     0.016 A 
ATOM     41  C   UNL     1       1.457   8.509  18.068  1.00  0.00     0.158 A 
ATOM     42  C   UNL     1       1.438   8.583  15.640  1.00  0.00     0.051 A 
ATOM     43  C   UNL     1       1.920   9.076  16.858  1.00  0.00     0.157 A 
BRANCH  41  44
ATOM     44  O   UNL     1       1.858   8.978  19.321  1.00  0.00    -0.504 OA
ATOM     45  H   UNL     1       1.273   8.963  20.144  1.00  0.00     0.293 HD
ENDBRANCH  41  44
BRANCH  43  46
ATOM     46  O   UNL     1       2.844  10.122  16.819  1.00  0.00    -0.504 OA
ATOM     47  H   UNL     1       3.583  10.198  16.134  1.00  0.00     0.293 HD
ENDBRANCH  43  46
ENDBRANCH  28  38
BRANCH  34  48
ATOM     48  O   UNL     1      -4.550   2.306  15.779  1.00  0.00    -0.507 OA
ATOM     49  H   UNL     1      -4.823   2.929  15.034  1.00  0.00     0.293 HD
ENDBRANCH  34  48
BRANCH  37  50
ATOM     50  O   UNL     1      -1.631   0.391  19.077  1.00  0.00    -0.508 OA
ATOM     51  H   UNL     1      -2.340  -0.161  19.547  1.00  0.00     0.293 HD
ENDBRANCH  37  50
ENDBRANCH  26  27
ENDBRANCH   5  26
BRANCH   4  52
ATOM     52  O   UNL     1      -2.290   8.015  11.804  1.00  0.00    -0.384 OA
ATOM     53  H   UNL     1      -3.116   8.513  11.570  1.00  0.00     0.211 HD
ENDBRANCH   4  52
TORSDOF 16
ENDMDL
MODEL 4
REMARK VINA RESULT:    -4.077      3.289      5.896
REMARK INTER + INTRA:          -8.374
REMARK INTER:                  -6.829
REMARK INTRA:                  -1.545
REMARK UNBOUND:                -1.676
REMARK SMILES C[C@@H]1O[C@H](OC[C@H]2O[C@H](Oc3c(-c4ccc(O)c(O)c4)oc4cc(O)cc(O)c4c3=O)[C@@H](O)[C@H](O)[C@H]2O)[C@@H](O)[C@@H](O)[C@H]1O
REMARK SMILES IDX 7 1 36 2 34 3 32 4 9 5 8 6 6 7 5 8 4 9 1 10 2 11 42 12 3 13
REMARK SMILES IDX 40 14 38 15 43 16 41 18 39 20 37 22 35 24 10 26 11 27 12 28
REMARK SMILES IDX 30 29 21 30 29 31 31 32 22 33 27 34 23 35 26 36 24 37 13 38
REMARK SMILES IDX 20 39 14 40 18 41 15 42 16 43 19 44 17 46 28 48 25 50 33 52
REMARK H PARENT 43 17 41 19 39 21 37 23 35 25 19 45 17 47 28 49 25 51 33 53
REMARK Flexibility Score: inf
ROOT
ATOM      1  C   UNL     1      -1.621  -8.824  26.890  1.00  0.00     0.180 C 
ATOM      2  C   UNL     1      -1.746  -8.481  28.396  1.00  0.00     0.177 C 
ATOM      3  C   UNL     1      -3.180  -8.019  28.737  1.00  0.00     0.180 C 
ATOM      4  C   UNL     1      -4.244  -8.941  28.106  1.00  0.00     0.214 C 
ATOM      5  C   UNL     1      -3.906  -9.288  26.639  1.00  0.00     0.339 C 
ATOM      6  O   UNL     1      -2.586  -9.789  26.510  1.00  0.00    -0.332 OA
ENDROOT
BRANCH   1   7
ATOM      7  C   UNL     1      -0.225  -9.378  26.554  1.00  0.00     0.198 C 
BRANCH   7   8
ATOM      8  O   UNL     1       0.714  -9.036  27.558  1.00  0.00    -0.347 OA
BRANCH   8   9
ATOM      9  C   UNL     1       2.006  -8.790  27.024  1.00  0.00     0.281 C 
ATOM     10  C   UNL     1       0.848  -6.386  28.592  1.00  0.00     0.041 C 
ATOM     11  C   UNL     1       2.230  -6.591  27.945  1.00  0.00     0.150 C 
ATOM     12  C   UNL     1       3.314  -7.036  28.953  1.00  0.00     0.174 C 
ATOM     13  O   UNL     1       2.178  -7.401  26.774  1.00  0.00    -0.344 OA
ATOM     14  C   UNL     1       3.209  -8.544  29.250  1.00  0.00     0.179 C 
ATOM     15  C   UNL     1       3.104  -9.361  27.954  1.00  0.00     0.202 C 
BRANCH  12  16
ATOM     16  O   UNL     1       4.582  -6.721  28.431  1.00  0.00    -0.388 OA
ATOM     17  H   UNL     1       4.544  -6.886  27.452  1.00  0.00     0.211 HD
ENDBRANCH  12  16
BRANCH  14  18
ATOM     18  O   UNL     1       4.315  -8.983  29.997  1.00  0.00    -0.387 OA
ATOM     19  H   UNL     1       3.966  -9.602  30.691  1.00  0.00     0.211 HD
ENDBRANCH  14  18
BRANCH  15  20
ATOM     20  O   UNL     1       4.347  -9.451  27.299  1.00  0.00    -0.385 OA
ATOM     21  H   UNL     1       4.457  -8.655  26.716  1.00  0.00     0.211 HD
ENDBRANCH  15  20
ENDBRANCH   8   9
ENDBRANCH   7   8
ENDBRANCH   1   7
BRANCH   2  22
ATOM     22  O   UNL     1      -1.422  -9.614  29.165  1.00  0.00    -0.387 OA
ATOM     23  H   UNL     1      -1.491  -9.345  30.118  1.00  0.00     0.211 HD
ENDBRANCH   2  22
BRANCH   3  24
ATOM     24  O   UNL     1      -3.394  -6.671  28.388  1.00  0.00    -0.387 OA
ATOM     25  H   UNL     1      -3.575  -6.618  27.417  1.00  0.00     0.211 HD
ENDBRANCH   3  24
BRANCH   5  26
ATOM     26  O   UNL     1      -4.117  -8.157  25.786  1.00  0.00    -0.454 OA
BRANCH  26  27
ATOM     27  C   UNL     1      -4.803  -8.260  24.571  1.00  0.00     0.214 A 
ATOM     28  C   UNL     1      -6.198  -8.415  24.539  1.00  0.00     0.180 A 
ATOM     29  C   UNL     1      -4.097  -8.170  23.367  1.00  0.00     0.239 A 
ATOM     30  O   UNL     1      -6.836  -8.390  23.375  1.00  0.00    -0.452 OA
ATOM     31  C   UNL     1      -4.797  -8.215  22.137  1.00  0.00     0.111 A 
ATOM     32  O   UNL     1      -2.850  -8.005  23.416  1.00  0.00    -0.285 OA
ATOM     33  C   UNL     1      -6.215  -8.284  22.206  1.00  0.00     0.146 A 
ATOM     34  C   UNL     1      -4.182  -8.154  20.850  1.00  0.00     0.134 A 
ATOM     35  C   UNL     1      -6.986  -8.242  21.042  1.00  0.00     0.094 A 
ATOM     36  C   UNL     1      -4.984  -8.079  19.705  1.00  0.00     0.093 A 
ATOM     37  C   UNL     1      -6.377  -8.126  19.795  1.00  0.00     0.123 A 
BRANCH  28  38
ATOM     38  C   UNL     1      -6.986  -8.613  25.771  1.00  0.00     0.025 A 
ATOM     39  C   UNL     1      -7.561  -7.519  26.438  1.00  0.00     0.062 A 
ATOM     40  C   UNL     1      -7.110  -9.893  26.322  1.00  0.00     0.016 A 
ATOM     41  C   UNL     1      -8.261  -7.697  27.637  1.00  0.00     0.158 A 
ATOM     42  C   UNL     1      -7.829 -10.085  27.502  1.00  0.00     0.051 A 
ATOM     43  C   UNL     1      -8.413  -9.000  28.168  1.00  0.00     0.157 A 
BRANCH  41  44
ATOM     44  O   UNL     1      -8.776  -6.563  28.268  1.00  0.00    -0.504 OA
ATOM     45  H   UNL     1      -8.594  -6.319  29.231  1.00  0.00     0.293 HD
ENDBRANCH  41  44
BRANCH  43  46
ATOM     46  O   UNL     1      -9.124  -9.259  29.341  1.00  0.00    -0.504 OA
ATOM     47  H   UNL     1     -10.085  -8.987  29.490  1.00  0.00     0.293 HD
ENDBRANCH  43  46
ENDBRANCH  28  38
BRANCH  34  48
ATOM     48  O   UNL     1      -2.799  -8.188  20.643  1.00  0.00    -0.507 OA
ATOM     49  H   UNL     1      -2.315  -8.876  20.087  1.00  0.00     0.293 HD
ENDBRANCH  34  48
BRANCH  37  50
ATOM     50  O   UNL     1      -7.166  -8.066  18.649  1.00  0.00    -0.508 OA
ATOM     51  H   UNL     1      -8.178  -8.066  18.700  1.00  0.00     0.293 HD
ENDBRANCH  37  50
ENDBRANCH  26  27
ENDBRANCH   5  26
BRANCH   4  52
ATOM     52  O   UNL     1      -4.325 -10.125  28.858  1.00  0.00    -0.384 OA
ATOM     53  H   UNL     1      -5.208 -10.534  28.661  1.00  0.00     0.211 HD
ENDBRANCH   4  52
TORSDOF 16
ENDMDL
MODEL 5
REMARK VINA RESULT:    -3.503      1.581      5.341
REMARK INTER + INTRA:          -7.431
REMARK INTER:                  -7.793
REMARK INTRA:                   0.362
REMARK UNBOUND:                -1.676
REMARK SMILES C[C@@H]1O[C@H](OC[C@H]2O[C@H](Oc3c(-c4ccc(O)c(O)c4)oc4cc(O)cc(O)c4c3=O)[C@@H](O)[C@H](O)[C@H]2O)[C@@H](O)[C@@H](O)[C@H]1O
REMARK SMILES IDX 7 1 36 2 34 3 32 4 9 5 8 6 6 7 5 8 4 9 1 10 2 11 42 12 3 13
REMARK SMILES IDX 40 14 38 15 43 16 41 18 39 20 37 22 35 24 10 26 11 27 12 28
REMARK SMILES IDX 30 29 21 30 29 31 31 32 22 33 27 34 23 35 26 36 24 37 13 38
REMARK SMILES IDX 20 39 14 40 18 41 15 42 16 43 19 44 17 46 28 48 25 50 33 52
REMARK H PARENT 43 17 41 19 39 21 37 23 35 25 19 45 17 47 28 49 25 51 33 53
REMARK Flexibility Score: inf
ROOT
ATOM      1  C   UNL     1      -5.450  -7.895  21.906  1.00  0.00     0.180 C 
ATOM      2  C   UNL     1      -4.975  -8.871  20.801  1.00  0.00     0.177 C 
ATOM      3  C   UNL     1      -6.113  -9.160  19.796  1.00  0.00     0.180 C 
ATOM      4  C   UNL     1      -6.840  -7.868  19.368  1.00  0.00     0.214 C 
ATOM      5  C   UNL     1      -7.131  -6.947  20.573  1.00  0.00     0.339 C 
ATOM      6  O   UNL     1      -5.963  -6.702  21.340  1.00  0.00    -0.332 OA
ENDROOT
BRANCH   1   7
ATOM      7  C   UNL     1      -4.300  -7.521  22.858  1.00  0.00     0.198 C 
BRANCH   7   8
ATOM      8  O   UNL     1      -4.187  -8.461  23.912  1.00  0.00    -0.347 OA
BRANCH   8   9
ATOM      9  C   UNL     1      -4.904  -8.059  25.069  1.00  0.00     0.281 C 
ATOM     10  C   UNL     1      -2.303  -9.606  25.714  1.00  0.00     0.041 C 
ATOM     11  C   UNL     1      -3.314  -8.912  26.643  1.00  0.00     0.150 C 
ATOM     12  C   UNL     1      -2.868  -7.498  27.080  1.00  0.00     0.174 C 
ATOM     13  O   UNL     1      -4.648  -8.955  26.142  1.00  0.00    -0.344 OA
ATOM     14  C   UNL     1      -3.145  -6.462  25.974  1.00  0.00     0.179 C 
ATOM     15  C   UNL     1      -4.578  -6.592  25.437  1.00  0.00     0.202 C 
BRANCH  12  16
ATOM     16  O   UNL     1      -3.543  -7.150  28.265  1.00  0.00    -0.388 OA
ATOM     17  H   UNL     1      -3.302  -6.210  28.474  1.00  0.00     0.211 HD
ENDBRANCH  12  16
BRANCH  14  18
ATOM     18  O   UNL     1      -2.934  -5.157  26.449  1.00  0.00    -0.387 OA
ATOM     19  H   UNL     1      -2.533  -4.641  25.702  1.00  0.00     0.211 HD
ENDBRANCH  14  18
BRANCH  15  20
ATOM     20  O   UNL     1      -5.518  -6.060  26.342  1.00  0.00    -0.385 OA
ATOM     21  H   UNL     1      -5.975  -6.811  26.802  1.00  0.00     0.211 HD
ENDBRANCH  15  20
ENDBRANCH   8   9
ENDBRANCH   7   8
ENDBRANCH   1   7
BRANCH   2  22
ATOM     22  O   UNL     1      -3.877  -8.312  20.119  1.00  0.00    -0.387 OA
ATOM     23  H   UNL     1      -4.175  -7.435  19.763  1.00  0.00     0.211 HD
ENDBRANCH   2  22
BRANCH   3  24
ATOM     24  O   UNL     1      -7.017 -10.121  20.290  1.00  0.00    -0.387 OA
ATOM     25  H   UNL     1      -7.405 -10.614  19.525  1.00  0.00     0.211 HD
ENDBRANCH   3  24
BRANCH   5  26
ATOM     26  O   UNL     1      -8.180  -7.486  21.385  1.00  0.00    -0.454 OA
BRANCH  26  27
ATOM     27  C   UNL     1      -8.292  -7.190  22.748  1.00  0.00     0.214 A 
ATOM     28  C   UNL     1      -8.658  -5.906  23.183  1.00  0.00     0.180 A 
ATOM     29  C   UNL     1      -8.074  -8.195  23.695  1.00  0.00     0.239 A 
ATOM     30  O   UNL     1      -8.873  -5.684  24.473  1.00  0.00    -0.452 OA
ATOM     31  C   UNL     1      -8.244  -7.913  25.073  1.00  0.00     0.111 A 
ATOM     32  O   UNL     1      -7.772  -9.347  23.286  1.00  0.00    -0.285 OA
ATOM     33  C   UNL     1      -8.702  -6.610  25.410  1.00  0.00     0.146 A 
ATOM     34  C   UNL     1      -8.029  -8.851  26.126  1.00  0.00     0.134 A 
ATOM     35  C   UNL     1      -8.981  -6.277  26.737  1.00  0.00     0.094 A 
ATOM     36  C   UNL     1      -8.351  -8.497  27.442  1.00  0.00     0.093 A 
ATOM     37  C   UNL     1      -8.821  -7.218  27.751  1.00  0.00     0.123 A 
BRANCH  28  38
ATOM     38  C   UNL     1      -8.808  -4.780  22.239  1.00  0.00     0.025 A 
ATOM     39  C   UNL     1      -8.836  -5.005  20.853  1.00  0.00     0.062 A 
ATOM     40  C   UNL     1      -8.855  -3.467  22.721  1.00  0.00     0.016 A 
ATOM     41  C   UNL     1      -8.921  -3.935  19.955  1.00  0.00     0.158 A 
ATOM     42  C   UNL     1      -8.968  -2.396  21.835  1.00  0.00     0.051 A 
ATOM     43  C   UNL     1      -9.006  -2.613  20.452  1.00  0.00     0.157 A 
BRANCH  41  44
ATOM     44  O   UNL     1      -8.908  -4.226  18.589  1.00  0.00    -0.504 OA
ATOM     45  H   UNL     1      -9.169  -3.570  17.868  1.00  0.00     0.293 HD
ENDBRANCH  41  44
BRANCH  43  46
ATOM     46  O   UNL     1      -9.125  -1.500  19.619  1.00  0.00    -0.504 OA
ATOM     47  H   UNL     1      -9.771  -1.440  18.845  1.00  0.00     0.293 HD
ENDBRANCH  43  46
ENDBRANCH  28  38
BRANCH  34  48
ATOM     48  O   UNL     1      -7.483 -10.125  25.939  1.00  0.00    -0.507 OA
ATOM     49  H   UNL     1      -7.721 -10.751  25.185  1.00  0.00     0.293 HD
ENDBRANCH  34  48
BRANCH  37  50
ATOM     50  O   UNL     1      -9.125  -6.870  29.065  1.00  0.00    -0.508 OA
ATOM     51  H   UNL     1      -8.973  -5.931  29.414  1.00  0.00     0.293 HD
ENDBRANCH  37  50
ENDBRANCH  26  27
ENDBRANCH   5  26
BRANCH   4  52
ATOM     52  O   UNL     1      -6.041  -7.182  18.439  1.00  0.00    -0.384 OA
ATOM     53  H   UNL     1      -5.115  -7.180  18.798  1.00  0.00     0.211 HD
ENDBRANCH   4  52
TORSDOF 16
ENDMDL
