MODEL 1
REMARK VINA RESULT:    -3.862      0.000      0.000
REMARK INTER + INTRA:          -3.862
REMARK INTER:                  -3.862
REMARK INTRA:                   0.000
REMARK UNBOUND:                 0.000
REMARK SMILES CC1(C)O[C@]2(C)CC[C@H]1CC2
REMARK SMILES IDX 1 1 2 2 9 3 8 4 7 5 5 6 4 7 11 8 10 9 6 10 3 11
REMARK H PARENT
REMARK Flexibility Score: inf
ROOT
ATOM      1  C   UNL     1      -3.670  82.220  -9.985  1.00  0.00     0.042 C 
ATOM      2  C   UNL     1      -4.095  82.941  -8.687  1.00  0.00     0.066 C 
ATOM      3  C   UNL     1      -5.623  83.333  -8.741  1.00  0.00     0.021 C 
ATOM      4  C   UNL     1      -5.829  84.339  -9.899  1.00  0.00     0.009 C 
ATOM      5  C   UNL     1      -4.814  85.499  -9.751  1.00  0.00     0.035 C 
ATOM      6  C   UNL     1      -3.990  85.315  -8.444  1.00  0.00     0.066 C 
ATOM      7  O   UNL     1      -3.255  84.092  -8.520  1.00  0.00    -0.369 OA
ATOM      8  C   UNL     1      -4.968  85.248  -7.235  1.00  0.00     0.035 C 
ATOM      9  C   UNL     1      -5.979  84.094  -7.443  1.00  0.00     0.009 C 
ATOM     10  C   UNL     1      -3.004  86.474  -8.269  1.00  0.00     0.042 C 
ATOM     11  C   UNL     1      -3.822  81.974  -7.514  1.00  0.00     0.042 C 
ENDROOT
TORSDOF 0
ENDMDL
MODEL 2
REMARK VINA RESULT:    -3.859      7.155      8.701
REMARK INTER + INTRA:          -3.859
REMARK INTER:                  -3.859
REMARK INTRA:                   0.000
REMARK UNBOUND:                 0.000
REMARK SMILES CC1(C)O[C@]2(C)CC[C@H]1CC2
REMARK SMILES IDX 1 1 2 2 9 3 8 4 7 5 5 6 4 7 11 8 10 9 6 10 3 11
REMARK H PARENT
REMARK Flexibility Score: inf
ROOT
ATOM      1  C   UNL     1     -11.950  85.297  -9.190  1.00  0.00     0.042 C 
ATOM      2  C   UNL     1     -12.779  84.005  -9.354  1.00  0.00     0.066 C 
ATOM      3  C   UNL     1     -12.369  82.936  -8.268  1.00  0.00     0.021 C 
ATOM      4  C   UNL     1     -10.888  82.549  -8.499  1.00  0.00     0.009 C 
ATOM      5  C   UNL     1     -10.691  82.150  -9.981  1.00  0.00     0.035 C 
ATOM      6  C   UNL     1     -12.060  82.183 -10.722  1.00  0.00     0.066 C 
ATOM      7  O   UNL     1     -12.580  83.513 -10.688  1.00  0.00    -0.369 OA
ATOM      8  C   UNL     1     -13.051  81.229  -9.996  1.00  0.00     0.035 C 
ATOM      9  C   UNL     1     -13.191  81.649  -8.512  1.00  0.00     0.009 C 
ATOM     10  C   UNL     1     -11.885  81.758 -12.184  1.00  0.00     0.042 C 
ATOM     11  C   UNL     1     -14.267  84.392  -9.204  1.00  0.00     0.042 C 
ENDROOT
TORSDOF 0
ENDMDL
MODEL 3
REMARK VINA RESULT:    -3.830      7.349      8.706
REMARK INTER + INTRA:          -3.830
REMARK INTER:                  -3.830
REMARK INTRA:                   0.000
REMARK UNBOUND:                 0.000
REMARK SMILES CC1(C)O[C@]2(C)CC[C@H]1CC2
REMARK SMILES IDX 1 1 2 2 9 3 8 4 7 5 5 6 4 7 11 8 10 9 6 10 3 11
REMARK H PARENT
REMARK Flexibility Score: inf
ROOT
ATOM      1  C   UNL     1     -14.685  81.787  -8.002  1.00  0.00     0.042 C 
ATOM      2  C   UNL     1     -13.182  81.572  -8.286  1.00  0.00     0.066 C 
ATOM      3  C   UNL     1     -12.349  82.847  -7.872  1.00  0.00     0.021 C 
ATOM      4  C   UNL     1     -12.804  84.035  -8.753  1.00  0.00     0.009 C 
ATOM      5  C   UNL     1     -12.748  83.616 -10.242  1.00  0.00     0.035 C 
ATOM      6  C   UNL     1     -12.168  82.176 -10.362  1.00  0.00     0.066 C 
ATOM      7  O   UNL     1     -13.030  81.265  -9.679  1.00  0.00    -0.369 OA
ATOM      8  C   UNL     1     -10.760  82.141  -9.701  1.00  0.00     0.035 C 
ATOM      9  C   UNL     1     -10.863  82.596  -8.225  1.00  0.00     0.009 C 
ATOM     10  C   UNL     1     -12.076  81.761 -11.834  1.00  0.00     0.042 C 
ATOM     11  C   UNL     1     -12.733  80.339  -7.471  1.00  0.00     0.042 C 
ENDROOT
TORSDOF 0
ENDMDL
MODEL 4
REMARK VINA RESULT:    -3.771      1.081      2.205
REMARK INTER + INTRA:          -3.771
REMARK INTER:                  -3.771
REMARK INTRA:                   0.000
REMARK UNBOUND:                 0.000
REMARK SMILES CC1(C)O[C@]2(C)CC[C@H]1CC2
REMARK SMILES IDX 1 1 2 2 9 3 8 4 7 5 5 6 4 7 11 8 10 9 6 10 3 11
REMARK H PARENT
REMARK Flexibility Score: inf
ROOT
ATOM      1  C   UNL     1      -5.504  83.446  -9.877  1.00  0.00     0.042 C 
ATOM      2  C   UNL     1      -4.192  83.222  -9.094  1.00  0.00     0.066 C 
ATOM      3  C   UNL     1      -4.495  82.690  -7.640  1.00  0.00     0.021 C 
ATOM      4  C   UNL     1      -5.291  83.775  -6.877  1.00  0.00     0.009 C 
ATOM      5  C   UNL     1      -4.541  85.126  -6.985  1.00  0.00     0.035 C 
ATOM      6  C   UNL     1      -3.197  84.923  -7.744  1.00  0.00     0.066 C 
ATOM      7  O   UNL     1      -3.471  84.462  -9.068  1.00  0.00    -0.369 OA
ATOM      8  C   UNL     1      -2.351  83.853  -6.996  1.00  0.00     0.035 C 
ATOM      9  C   UNL     1      -3.152  82.533  -6.887  1.00  0.00     0.009 C 
ATOM     10  C   UNL     1      -2.429  86.246  -7.829  1.00  0.00     0.042 C 
ATOM     11  C   UNL     1      -3.354  82.196  -9.887  1.00  0.00     0.042 C 
ENDROOT
TORSDOF 0
ENDMDL
MODEL 5
REMARK VINA RESULT:    -3.706      0.969      3.297
REMARK INTER + INTRA:          -3.706
REMARK INTER:                  -3.706
REMARK INTRA:                   0.000
REMARK UNBOUND:                 0.000
REMARK SMILES CC1(C)O[C@]2(C)CC[C@H]1CC2
REMARK SMILES IDX 1 1 2 2 9 3 8 4 7 5 5 6 4 7 11 8 10 9 6 10 3 11
REMARK H PARENT
REMARK Flexibility Score: inf
ROOT
ATOM      1  C   UNL     1      -4.036  85.843  -6.980  1.00  0.00     0.042 C 
ATOM      2  C   UNL     1      -4.434  85.157  -8.306  1.00  0.00     0.066 C 
ATOM      3  C   UNL     1      -5.844  84.462  -8.172  1.00  0.00     0.021 C 
ATOM      4  C   UNL     1      -5.741  83.346  -7.105  1.00  0.00     0.009 C 
ATOM      5  C   UNL     1      -4.539  82.430  -7.443  1.00  0.00     0.035 C 
ATOM      6  C   UNL     1      -3.894  82.881  -8.786  1.00  0.00     0.066 C 
ATOM      7  O   UNL     1      -3.406  84.216  -8.647  1.00  0.00    -0.369 OA
ATOM      8  C   UNL     1      -4.976  82.845  -9.903  1.00  0.00     0.035 C 
ATOM      9  C   UNL     1      -6.168  83.751  -9.507  1.00  0.00     0.009 C 
ATOM     10  C   UNL     1      -2.723  81.961  -9.148  1.00  0.00     0.042 C 
ATOM     11  C   UNL     1      -4.466  86.250  -9.397  1.00  0.00     0.042 C 
ENDROOT
TORSDOF 0
ENDMDL
MODEL 6
REMARK VINA RESULT:    -3.690      7.086      8.580
REMARK INTER + INTRA:          -3.690
REMARK INTER:                  -3.690
REMARK INTRA:                   0.000
REMARK UNBOUND:                 0.000
REMARK SMILES CC1(C)O[C@]2(C)CC[C@H]1CC2
REMARK SMILES IDX 1 1 2 2 9 3 8 4 7 5 5 6 4 7 11 8 10 9 6 10 3 11
REMARK H PARENT
REMARK Flexibility Score: inf
ROOT
ATOM      1  C   UNL     1     -13.871  84.000  -7.808  1.00  0.00     0.042 C 
ATOM      2  C   UNL     1     -13.244  83.494  -9.126  1.00  0.00     0.066 C 
ATOM      3  C   UNL     1     -13.511  81.951  -9.315  1.00  0.00     0.021 C 
ATOM      4  C   UNL     1     -12.809  81.188  -8.166  1.00  0.00     0.009 C 
ATOM      5  C   UNL     1     -11.330  81.637  -8.086  1.00  0.00     0.035 C 
ATOM      6  C   UNL     1     -11.019  82.633  -9.241  1.00  0.00     0.066 C 
ATOM      7  O   UNL     1     -11.840  83.792  -9.095  1.00  0.00    -0.369 OA
ATOM      8  C   UNL     1     -11.339  81.948 -10.600  1.00  0.00     0.035 C 
ATOM      9  C   UNL     1     -12.819  81.491 -10.620  1.00  0.00     0.009 C 
ATOM     10  C   UNL     1      -9.548  83.060  -9.194  1.00  0.00     0.042 C 
ATOM     11  C   UNL     1     -13.881  84.303 -10.277  1.00  0.00     0.042 C 
ENDROOT
TORSDOF 0
ENDMDL
MODEL 7
REMARK VINA RESULT:    -3.666      7.341      8.509
REMARK INTER + INTRA:          -3.666
REMARK INTER:                  -3.666
REMARK INTRA:                   0.000
REMARK UNBOUND:                 0.000
REMARK SMILES CC1(C)O[C@]2(C)CC[C@H]1CC2
REMARK SMILES IDX 1 1 2 2 9 3 8 4 7 5 5 6 4 7 11 8 10 9 6 10 3 11
REMARK H PARENT
REMARK Flexibility Score: inf
ROOT
ATOM      1  C   UNL     1     -10.152  82.480  -9.506  1.00  0.00     0.042 C 
ATOM      2  C   UNL     1     -11.514  82.671  -8.804  1.00  0.00     0.066 C 
ATOM      3  C   UNL     1     -12.481  81.466  -9.125  1.00  0.00     0.021 C 
ATOM      4  C   UNL     1     -12.761  81.456 -10.647  1.00  0.00     0.009 C 
ATOM      5  C   UNL     1     -13.228  82.865 -11.088  1.00  0.00     0.035 C 
ATOM      6  C   UNL     1     -13.348  83.793  -9.845  1.00  0.00     0.066 C 
ATOM      7  O   UNL     1     -12.065  83.925  -9.232  1.00  0.00    -0.369 OA
ATOM      8  C   UNL     1     -14.336  83.151  -8.828  1.00  0.00     0.035 C 
ATOM      9  C   UNL     1     -13.842  81.735  -8.441  1.00  0.00     0.009 C 
ATOM     10  C   UNL     1     -13.842  85.182 -10.263  1.00  0.00     0.042 C 
ATOM     11  C   UNL     1     -11.240  82.760  -7.287  1.00  0.00     0.042 C 
ENDROOT
TORSDOF 0
ENDMDL
MODEL 8
REMARK VINA RESULT:    -3.652      7.788      9.220
REMARK INTER + INTRA:          -3.652
REMARK INTER:                  -3.652
REMARK INTRA:                   0.000
REMARK UNBOUND:                 0.000
REMARK SMILES CC1(C)O[C@]2(C)CC[C@H]1CC2
REMARK SMILES IDX 1 1 2 2 9 3 8 4 7 5 5 6 4 7 11 8 10 9 6 10 3 11
REMARK H PARENT
REMARK Flexibility Score: inf
ROOT
ATOM      1  C   UNL     1     -11.269  81.787 -11.378  1.00  0.00     0.042 C 
ATOM      2  C   UNL     1     -12.649  82.314 -10.925  1.00  0.00     0.066 C 
ATOM      3  C   UNL     1     -12.521  83.768 -10.325  1.00  0.00     0.021 C 
ATOM      4  C   UNL     1     -11.632  83.699  -9.061  1.00  0.00     0.009 C 
ATOM      5  C   UNL     1     -12.175  82.599  -8.116  1.00  0.00     0.035 C 
ATOM      6  C   UNL     1     -13.480  81.994  -8.709  1.00  0.00     0.066 C 
ATOM      7  O   UNL     1     -13.188  81.389  -9.969  1.00  0.00    -0.369 OA
ATOM      8  C   UNL     1     -14.517  83.134  -8.918  1.00  0.00     0.035 C 
ATOM      9  C   UNL     1     -13.919  84.223  -9.843  1.00  0.00     0.009 C 
ATOM     10  C   UNL     1     -14.046  80.925  -7.767  1.00  0.00     0.042 C 
ATOM     11  C   UNL     1     -13.570  82.314 -12.165  1.00  0.00     0.042 C 
ENDROOT
TORSDOF 0
ENDMDL
MODEL 9
REMARK VINA RESULT:    -3.479      6.847      8.294
REMARK INTER + INTRA:          -3.479
REMARK INTER:                  -3.479
REMARK INTRA:                   0.000
REMARK UNBOUND:                 0.000
REMARK SMILES CC1(C)O[C@]2(C)CC[C@H]1CC2
REMARK SMILES IDX 1 1 2 2 9 3 8 4 7 5 5 6 4 7 11 8 10 9 6 10 3 11
REMARK H PARENT
REMARK Flexibility Score: inf
ROOT
ATOM      1  C   UNL     1     -10.506  81.857  -7.588  1.00  0.00     0.042 C 
ATOM      2  C   UNL     1     -11.173  82.874  -8.540  1.00  0.00     0.066 C 
ATOM      3  C   UNL     1     -12.693  83.074  -8.167  1.00  0.00     0.021 C 
ATOM      4  C   UNL     1     -13.428  81.727  -8.367  1.00  0.00     0.009 C 
ATOM      5  C   UNL     1     -13.121  81.186  -9.785  1.00  0.00     0.035 C 
ATOM      6  C   UNL     1     -12.255  82.217 -10.566  1.00  0.00     0.066 C 
ATOM      7  O   UNL     1     -11.013  82.398  -9.884  1.00  0.00    -0.369 OA
ATOM      8  C   UNL     1     -13.010  83.575 -10.620  1.00  0.00     0.035 C 
ATOM      9  C   UNL     1     -13.320  84.059  -9.182  1.00  0.00     0.009 C 
ATOM     10  C   UNL     1     -11.971  81.708 -11.984  1.00  0.00     0.042 C 
ATOM     11  C   UNL     1     -10.399  84.204  -8.407  1.00  0.00     0.042 C 
ENDROOT
TORSDOF 0
ENDMDL
