MODEL 1
REMARK VINA RESULT:    -5.999      0.000      0.000
REMARK INTER + INTRA:          -7.301
REMARK INTER:                  -7.051
REMARK INTRA:                  -0.250
REMARK UNBOUND:                -0.250
REMARK SMILES O=c1c(O)c(-c2ccc(O)cc2)oc2cc(O)cc(O)c12
REMARK SMILES IDX 5 1 3 2 2 3 1 4 21 5 19 6 18 7 16 8 15 9 14 10 13 11 6 12
REMARK SMILES IDX 7 13 8 14 9 15 12 16 11 17 10 18 4 20 20 22 17 24
REMARK H PARENT 10 19 4 21 20 23 17 25
REMARK Flexibility Score: inf
ROOT
ATOM      1  C   UNL     1     133.119 130.709 142.699  1.00  0.00     0.180 A 
ATOM      2  C   UNL     1     133.150 131.055 141.333  1.00  0.00     0.208 A 
ATOM      3  C   UNL     1     133.632 132.322 140.966  1.00  0.00     0.238 A 
ATOM      4  O   UNL     1     133.676 132.639 139.746  1.00  0.00    -0.285 OA
ATOM      5  C   UNL     1     134.052 133.224 141.965  1.00  0.00     0.111 A 
ATOM      6  C   UNL     1     134.546 134.520 141.679  1.00  0.00     0.134 A 
ATOM      7  C   UNL     1     134.937 135.363 142.730  1.00  0.00     0.093 A 
ATOM      8  C   UNL     1     134.842 134.935 144.059  1.00  0.00     0.123 A 
ATOM      9  C   UNL     1     134.356 133.659 144.346  1.00  0.00     0.094 A 
ATOM     10  C   UNL     1     133.963 132.802 143.313  1.00  0.00     0.146 A 
ATOM     11  O   UNL     1     133.509 131.591 143.614  1.00  0.00    -0.452 OA
ENDROOT
BRANCH   1  12
ATOM     12  C   UNL     1     132.643 129.387 143.163  1.00  0.00     0.021 A 
ATOM     13  C   UNL     1     133.542 128.388 143.581  1.00  0.00     0.016 A 
ATOM     14  C   UNL     1     133.067 127.156 144.039  1.00  0.00     0.047 A 
ATOM     15  C   UNL     1     131.692 126.909 144.099  1.00  0.00     0.115 A 
ATOM     16  C   UNL     1     131.262 129.138 143.246  1.00  0.00     0.016 A 
ATOM     17  C   UNL     1     130.790 127.905 143.703  1.00  0.00     0.047 A 
BRANCH  15  18
ATOM     18  O   UNL     1     131.233 125.675 144.556  1.00  0.00    -0.508 OA
ATOM     19  H   UNL     1     130.349 125.588 145.044  1.00  0.00     0.293 HD
ENDBRANCH  15  18
ENDBRANCH   1  12
BRANCH   2  20
ATOM     20  O   UNL     1     132.681 130.161 140.367  1.00  0.00    -0.502 OA
ATOM     21  H   UNL     1     132.276 130.472 139.492  1.00  0.00     0.293 HD
ENDBRANCH   2  20
BRANCH   6  22
ATOM     22  O   UNL     1     134.652 134.975 140.364  1.00  0.00    -0.507 OA
ATOM     23  H   UNL     1     135.484 135.445 140.027  1.00  0.00     0.293 HD
ENDBRANCH   6  22
BRANCH   8  24
ATOM     24  O   UNL     1     135.229 135.772 145.103  1.00  0.00    -0.508 OA
ATOM     25  H   UNL     1     134.826 135.686 146.030  1.00  0.00     0.293 HD
ENDBRANCH   8  24
TORSDOF 5
ENDMDL
MODEL 2
REMARK VINA RESULT:    -5.916      2.085      2.179
REMARK INTER + INTRA:          -7.203
REMARK INTER:                  -6.913
REMARK INTRA:                  -0.291
REMARK UNBOUND:                -0.250
REMARK SMILES O=c1c(O)c(-c2ccc(O)cc2)oc2cc(O)cc(O)c12
REMARK SMILES IDX 5 1 3 2 2 3 1 4 21 5 19 6 18 7 16 8 15 9 14 10 13 11 6 12
REMARK SMILES IDX 7 13 8 14 9 15 12 16 11 17 10 18 4 20 20 22 17 24
REMARK H PARENT 10 19 4 21 20 23 17 25
REMARK Flexibility Score: inf
ROOT
ATOM      1  C   UNL     1     131.911 131.485 142.246  1.00  0.00     0.180 A 
ATOM      2  C   UNL     1     131.096 132.363 141.504  1.00  0.00     0.208 A 
ATOM      3  C   UNL     1     131.313 133.746 141.614  1.00  0.00     0.238 A 
ATOM      4  O   UNL     1     130.598 134.541 140.946  1.00  0.00    -0.285 OA
ATOM      5  C   UNL     1     132.322 134.227 142.474  1.00  0.00     0.111 A 
ATOM      6  C   UNL     1     132.602 135.604 142.645  1.00  0.00     0.134 A 
ATOM      7  C   UNL     1     133.617 136.004 143.527  1.00  0.00     0.093 A 
ATOM      8  C   UNL     1     134.355 135.053 144.240  1.00  0.00     0.123 A 
ATOM      9  C   UNL     1     134.084 133.694 144.075  1.00  0.00     0.094 A 
ATOM     10  C   UNL     1     133.077 133.275 143.200  1.00  0.00     0.146 A 
ATOM     11  O   UNL     1     132.842 131.976 143.058  1.00  0.00    -0.452 OA
ENDROOT
BRANCH   1  12
ATOM     12  C   UNL     1     131.757 130.015 142.168  1.00  0.00     0.021 A 
ATOM     13  C   UNL     1     132.356 129.267 141.139  1.00  0.00     0.016 A 
ATOM     14  C   UNL     1     132.216 127.876 141.101  1.00  0.00     0.047 A 
ATOM     15  C   UNL     1     131.489 127.215 142.096  1.00  0.00     0.115 A 
ATOM     16  C   UNL     1     131.046 129.341 143.176  1.00  0.00     0.016 A 
ATOM     17  C   UNL     1     130.906 127.951 143.135  1.00  0.00     0.047 A 
BRANCH  15  18
ATOM     18  O   UNL     1     131.357 125.829 142.045  1.00  0.00    -0.508 OA
ATOM     19  H   UNL     1     131.763 125.233 142.757  1.00  0.00     0.293 HD
ENDBRANCH  15  18
ENDBRANCH   1  12
BRANCH   2  20
ATOM     20  O   UNL     1     130.071 131.863 140.697  1.00  0.00    -0.502 OA
ATOM     21  H   UNL     1     129.683 132.389 139.923  1.00  0.00     0.293 HD
ENDBRANCH   2  20
BRANCH   6  22
ATOM     22  O   UNL     1     131.882 136.575 141.947  1.00  0.00    -0.507 OA
ATOM     23  H   UNL     1     131.135 136.329 141.309  1.00  0.00     0.293 HD
ENDBRANCH   6  22
BRANCH   8  24
ATOM     24  O   UNL     1     135.363 135.449 145.117  1.00  0.00    -0.508 OA
ATOM     25  H   UNL     1     136.195 134.888 145.258  1.00  0.00     0.293 HD
ENDBRANCH   8  24
TORSDOF 5
ENDMDL
MODEL 3
REMARK VINA RESULT:    -5.873      2.571      3.841
REMARK INTER + INTRA:          -7.152
REMARK INTER:                  -6.873
REMARK INTRA:                  -0.279
REMARK UNBOUND:                -0.250
REMARK SMILES O=c1c(O)c(-c2ccc(O)cc2)oc2cc(O)cc(O)c12
REMARK SMILES IDX 5 1 3 2 2 3 1 4 21 5 19 6 18 7 16 8 15 9 14 10 13 11 6 12
REMARK SMILES IDX 7 13 8 14 9 15 12 16 11 17 10 18 4 20 20 22 17 24
REMARK H PARENT 10 19 4 21 20 23 17 25
REMARK Flexibility Score: inf
ROOT
ATOM      1  C   UNL     1     131.567 129.960 142.598  1.00  0.00     0.180 A 
ATOM      2  C   UNL     1     132.405 130.688 143.466  1.00  0.00     0.208 A 
ATOM      3  C   UNL     1     132.409 132.090 143.385  1.00  0.00     0.238 A 
ATOM      4  O   UNL     1     133.146 132.754 144.164  1.00  0.00    -0.285 OA
ATOM      5  C   UNL     1     131.596 132.735 142.430  1.00  0.00     0.111 A 
ATOM      6  C   UNL     1     131.546 134.143 142.281  1.00  0.00     0.134 A 
ATOM      7  C   UNL     1     130.718 134.710 141.301  1.00  0.00     0.093 A 
ATOM      8  C   UNL     1     129.942 133.897 140.468  1.00  0.00     0.123 A 
ATOM      9  C   UNL     1     129.987 132.509 140.611  1.00  0.00     0.094 A 
ATOM     10  C   UNL     1     130.805 131.925 141.583  1.00  0.00     0.146 A 
ATOM     11  O   UNL     1     130.826 130.602 141.701  1.00  0.00    -0.452 OA
ENDROOT
BRANCH   1  12
ATOM     12  C   UNL     1     131.492 128.482 142.636  1.00  0.00     0.021 A 
ATOM     13  C   UNL     1     130.715 127.810 143.598  1.00  0.00     0.016 A 
ATOM     14  C   UNL     1     130.641 126.414 143.597  1.00  0.00     0.047 A 
ATOM     15  C   UNL     1     131.328 125.673 142.631  1.00  0.00     0.115 A 
ATOM     16  C   UNL     1     132.162 127.730 141.655  1.00  0.00     0.016 A 
ATOM     17  C   UNL     1     132.087 126.335 141.658  1.00  0.00     0.047 A 
BRANCH  15  18
ATOM     18  O   UNL     1     131.245 124.281 142.644  1.00  0.00    -0.508 OA
ATOM     19  H   UNL     1     130.516 123.791 142.140  1.00  0.00     0.293 HD
ENDBRANCH  15  18
ENDBRANCH   1  12
BRANCH   2  20
ATOM     20  O   UNL     1     133.237 130.022 144.369  1.00  0.00    -0.502 OA
ATOM     21  H   UNL     1     132.919 129.727 145.284  1.00  0.00     0.293 HD
ENDBRANCH   2  20
BRANCH   6  22
ATOM     22  O   UNL     1     132.310 134.979 143.097  1.00  0.00    -0.507 OA
ATOM     23  H   UNL     1     132.496 134.753 144.067  1.00  0.00     0.293 HD
ENDBRANCH   6  22
BRANCH   8  24
ATOM     24  O   UNL     1     129.120 134.459 139.494  1.00  0.00    -0.508 OA
ATOM     25  H   UNL     1     128.996 134.022 138.588  1.00  0.00     0.293 HD
ENDBRANCH   8  24
TORSDOF 5
ENDMDL
MODEL 4
REMARK VINA RESULT:    -5.852      4.423      6.669
REMARK INTER + INTRA:          -7.128
REMARK INTER:                  -6.985
REMARK INTRA:                  -0.143
REMARK UNBOUND:                -0.250
REMARK SMILES O=c1c(O)c(-c2ccc(O)cc2)oc2cc(O)cc(O)c12
REMARK SMILES IDX 5 1 3 2 2 3 1 4 21 5 19 6 18 7 16 8 15 9 14 10 13 11 6 12
REMARK SMILES IDX 7 13 8 14 9 15 12 16 11 17 10 18 4 20 20 22 17 24
REMARK H PARENT 10 19 4 21 20 23 17 25
REMARK Flexibility Score: inf
ROOT
ATOM      1  C   UNL     1     135.881 131.183 140.518  1.00  0.00     0.180 A 
ATOM      2  C   UNL     1     135.018 130.781 139.479  1.00  0.00     0.208 A 
ATOM      3  C   UNL     1     135.523 129.966 138.454  1.00  0.00     0.238 A 
ATOM      4  O   UNL     1     134.758 129.591 137.525  1.00  0.00    -0.285 OA
ATOM      5  C   UNL     1     136.881 129.585 138.473  1.00  0.00     0.111 A 
ATOM      6  C   UNL     1     137.470 128.770 137.477  1.00  0.00     0.134 A 
ATOM      7  C   UNL     1     138.831 128.442 137.561  1.00  0.00     0.093 A 
ATOM      8  C   UNL     1     139.613 128.913 138.621  1.00  0.00     0.123 A 
ATOM      9  C   UNL     1     139.037 129.717 139.606  1.00  0.00     0.094 A 
ATOM     10  C   UNL     1     137.682 130.054 139.541  1.00  0.00     0.146 A 
ATOM     11  O   UNL     1     137.159 130.817 140.494  1.00  0.00    -0.452 OA
ENDROOT
BRANCH   1  12
ATOM     12  C   UNL     1     135.417 132.025 141.643  1.00  0.00     0.021 A 
ATOM     13  C   UNL     1     134.431 131.575 142.541  1.00  0.00     0.016 A 
ATOM     14  C   UNL     1     134.028 132.380 143.610  1.00  0.00     0.047 A 
ATOM     15  C   UNL     1     134.611 133.635 143.806  1.00  0.00     0.115 A 
ATOM     16  C   UNL     1     136.014 133.280 141.860  1.00  0.00     0.016 A 
ATOM     17  C   UNL     1     135.608 134.082 142.929  1.00  0.00     0.047 A 
BRANCH  15  18
ATOM     18  O   UNL     1     134.198 134.426 144.876  1.00  0.00    -0.508 OA
ATOM     19  H   UNL     1     134.114 134.047 145.813  1.00  0.00     0.293 HD
ENDBRANCH  15  18
ENDBRANCH   1  12
BRANCH   2  20
ATOM     20  O   UNL     1     133.689 131.214 139.458  1.00  0.00    -0.502 OA
ATOM     21  H   UNL     1     133.435 132.191 139.541  1.00  0.00     0.293 HD
ENDBRANCH   2  20
BRANCH   6  22
ATOM     22  O   UNL     1     136.716 128.285 136.407  1.00  0.00    -0.507 OA
ATOM     23  H   UNL     1     136.516 127.298 136.299  1.00  0.00     0.293 HD
ENDBRANCH   6  22
BRANCH   8  24
ATOM     24  O   UNL     1     140.965 128.588 138.705  1.00  0.00    -0.508 OA
ATOM     25  H   UNL     1     141.464 128.186 137.920  1.00  0.00     0.293 HD
ENDBRANCH   8  24
TORSDOF 5
ENDMDL
MODEL 5
REMARK VINA RESULT:    -5.842      1.551      6.493
REMARK INTER + INTRA:          -7.116
REMARK INTER:                  -6.825
REMARK INTRA:                  -0.291
REMARK UNBOUND:                -0.250
REMARK SMILES O=c1c(O)c(-c2ccc(O)cc2)oc2cc(O)cc(O)c12
REMARK SMILES IDX 5 1 3 2 2 3 1 4 21 5 19 6 18 7 16 8 15 9 14 10 13 11 6 12
REMARK SMILES IDX 7 13 8 14 9 15 12 16 11 17 10 18 4 20 20 22 17 24
REMARK H PARENT 10 19 4 21 20 23 17 25
REMARK Flexibility Score: inf
ROOT
ATOM      1  C   UNL     1     133.652 131.832 142.045  1.00  0.00     0.180 A 
ATOM      2  C   UNL     1     134.118 131.187 140.882  1.00  0.00     0.208 A 
ATOM      3  C   UNL     1     133.666 129.888 140.599  1.00  0.00     0.238 A 
ATOM      4  O   UNL     1     134.067 129.305 139.555  1.00  0.00    -0.285 OA
ATOM      5  C   UNL     1     132.778 129.251 141.489  1.00  0.00     0.111 A 
ATOM      6  C   UNL     1     132.279 127.942 141.280  1.00  0.00     0.134 A 
ATOM      7  C   UNL     1     131.404 127.373 142.217  1.00  0.00     0.093 A 
ATOM      8  C   UNL     1     131.020 128.087 143.358  1.00  0.00     0.123 A 
ATOM      9  C   UNL     1     131.509 129.377 143.569  1.00  0.00     0.094 A 
ATOM     10  C   UNL     1     132.380 129.963 142.646  1.00  0.00     0.146 A 
ATOM     11  O   UNL     1     132.827 131.194 142.869  1.00  0.00    -0.452 OA
ENDROOT
BRANCH   1  12
ATOM     12  C   UNL     1     134.068 133.207 142.400  1.00  0.00     0.021 A 
ATOM     13  C   UNL     1     135.213 133.450 143.182  1.00  0.00     0.016 A 
ATOM     14  C   UNL     1     135.598 134.759 143.484  1.00  0.00     0.047 A 
ATOM     15  C   UNL     1     134.857 135.841 143.000  1.00  0.00     0.115 A 
ATOM     16  C   UNL     1     133.340 134.301 141.900  1.00  0.00     0.016 A 
ATOM     17  C   UNL     1     133.727 135.608 142.205  1.00  0.00     0.047 A 
BRANCH  15  18
ATOM     18  O   UNL     1     135.253 137.141 143.310  1.00  0.00    -0.508 OA
ATOM     19  H   UNL     1     135.919 137.328 144.051  1.00  0.00     0.293 HD
ENDBRANCH  15  18
ENDBRANCH   1  12
BRANCH   2  20
ATOM     20  O   UNL     1     135.038 131.822 140.042  1.00  0.00    -0.502 OA
ATOM     21  H   UNL     1     135.438 132.726 140.261  1.00  0.00     0.293 HD
ENDBRANCH   2  20
BRANCH   6  22
ATOM     22  O   UNL     1     132.644 127.206 140.152  1.00  0.00    -0.507 OA
ATOM     23  H   UNL     1     133.042 127.649 139.332  1.00  0.00     0.293 HD
ENDBRANCH   6  22
BRANCH   8  24
ATOM     24  O   UNL     1     130.152 127.522 144.290  1.00  0.00    -0.508 OA
ATOM     25  H   UNL     1     129.205 127.863 144.407  1.00  0.00     0.293 HD
ENDBRANCH   8  24
TORSDOF 5
ENDMDL
MODEL 6
REMARK VINA RESULT:    -5.830      2.224      7.279
REMARK INTER + INTRA:          -7.102
REMARK INTER:                  -6.805
REMARK INTRA:                  -0.297
REMARK UNBOUND:                -0.250
REMARK SMILES O=c1c(O)c(-c2ccc(O)cc2)oc2cc(O)cc(O)c12
REMARK SMILES IDX 5 1 3 2 2 3 1 4 21 5 19 6 18 7 16 8 15 9 14 10 13 11 6 12
REMARK SMILES IDX 7 13 8 14 9 15 12 16 11 17 10 18 4 20 20 22 17 24
REMARK H PARENT 10 19 4 21 20 23 17 25
REMARK Flexibility Score: inf
ROOT
ATOM      1  C   UNL     1     132.561 128.768 143.066  1.00  0.00     0.180 A 
ATOM      2  C   UNL     1     132.253 128.180 141.823  1.00  0.00     0.208 A 
ATOM      3  C   UNL     1     132.070 126.789 141.758  1.00  0.00     0.238 A 
ATOM      4  O   UNL     1     131.783 126.252 140.654  1.00  0.00    -0.285 OA
ATOM      5  C   UNL     1     132.218 126.012 142.925  1.00  0.00     0.111 A 
ATOM      6  C   UNL     1     132.055 124.606 142.944  1.00  0.00     0.134 A 
ATOM      7  C   UNL     1     132.228 123.901 144.145  1.00  0.00     0.093 A 
ATOM      8  C   UNL     1     132.561 124.576 145.325  1.00  0.00     0.123 A 
ATOM      9  C   UNL     1     132.722 125.962 145.312  1.00  0.00     0.094 A 
ATOM     10  C   UNL     1     132.552 126.683 144.126  1.00  0.00     0.146 A 
ATOM     11  O   UNL     1     132.707 128.002 144.142  1.00  0.00    -0.452 OA
ENDROOT
BRANCH   1  12
ATOM     12  C   UNL     1     132.749 130.229 143.219  1.00  0.00     0.021 A 
ATOM     13  C   UNL     1     131.677 131.076 143.557  1.00  0.00     0.016 A 
ATOM     14  C   UNL     1     131.885 132.448 143.720  1.00  0.00     0.047 A 
ATOM     15  C   UNL     1     133.163 132.990 143.561  1.00  0.00     0.115 A 
ATOM     16  C   UNL     1     134.035 130.778 143.082  1.00  0.00     0.016 A 
ATOM     17  C   UNL     1     134.240 132.151 143.244  1.00  0.00     0.047 A 
BRANCH  15  18
ATOM     18  O   UNL     1     133.355 134.361 143.725  1.00  0.00    -0.508 OA
ATOM     19  H   UNL     1     133.090 134.833 144.582  1.00  0.00     0.293 HD
ENDBRANCH  15  18
ENDBRANCH   1  12
BRANCH   2  20
ATOM     20  O   UNL     1     132.161 128.967 140.672  1.00  0.00    -0.502 OA
ATOM     21  H   UNL     1     131.914 128.581 139.769  1.00  0.00     0.293 HD
ENDBRANCH   2  20
BRANCH   6  22
ATOM     22  O   UNL     1     131.725 123.905 141.783  1.00  0.00    -0.507 OA
ATOM     23  H   UNL     1     132.076 122.971 141.606  1.00  0.00     0.293 HD
ENDBRANCH   6  22
BRANCH   8  24
ATOM     24  O   UNL     1     132.733 123.877 146.518  1.00  0.00    -0.508 OA
ATOM     25  H   UNL     1     133.656 123.675 146.885  1.00  0.00     0.293 HD
ENDBRANCH   8  24
TORSDOF 5
ENDMDL
MODEL 7
REMARK VINA RESULT:    -5.770      2.877      6.556
REMARK INTER + INTRA:          -7.032
REMARK INTER:                  -6.756
REMARK INTRA:                  -0.276
REMARK UNBOUND:                -0.250
REMARK SMILES O=c1c(O)c(-c2ccc(O)cc2)oc2cc(O)cc(O)c12
REMARK SMILES IDX 5 1 3 2 2 3 1 4 21 5 19 6 18 7 16 8 15 9 14 10 13 11 6 12
REMARK SMILES IDX 7 13 8 14 9 15 12 16 11 17 10 18 4 20 20 22 17 24
REMARK H PARENT 10 19 4 21 20 23 17 25
REMARK Flexibility Score: inf
ROOT
ATOM      1  C   UNL     1     135.012 131.853 141.050  1.00  0.00     0.180 A 
ATOM      2  C   UNL     1     134.865 132.793 142.090  1.00  0.00     0.208 A 
ATOM      3  C   UNL     1     133.902 132.558 143.085  1.00  0.00     0.238 A 
ATOM      4  O   UNL     1     133.768 133.386 144.026  1.00  0.00    -0.285 OA
ATOM      5  C   UNL     1     133.094 131.405 143.013  1.00  0.00     0.111 A 
ATOM      6  C   UNL     1     132.098 131.097 143.972  1.00  0.00     0.134 A 
ATOM      7  C   UNL     1     131.328 129.934 143.827  1.00  0.00     0.093 A 
ATOM      8  C   UNL     1     131.534 129.075 142.741  1.00  0.00     0.123 A 
ATOM      9  C   UNL     1     132.513 129.374 141.794  1.00  0.00     0.094 A 
ATOM     10  C   UNL     1     133.293 130.527 141.921  1.00  0.00     0.146 A 
ATOM     11  O   UNL     1     134.222 130.785 141.008  1.00  0.00    -0.452 OA
ENDROOT
BRANCH   1  12
ATOM     12  C   UNL     1     136.017 132.021 139.977  1.00  0.00     0.021 A 
ATOM     13  C   UNL     1     137.372 131.697 140.181  1.00  0.00     0.016 A 
ATOM     14  C   UNL     1     138.297 131.841 139.144  1.00  0.00     0.047 A 
ATOM     15  C   UNL     1     137.883 132.294 137.888  1.00  0.00     0.115 A 
ATOM     16  C   UNL     1     135.605 132.456 138.705  1.00  0.00     0.016 A 
ATOM     17  C   UNL     1     136.533 132.599 137.670  1.00  0.00     0.047 A 
BRANCH  15  18
ATOM     18  O   UNL     1     138.818 132.434 136.864  1.00  0.00    -0.508 OA
ATOM     19  H   UNL     1     139.763 132.082 136.960  1.00  0.00     0.293 HD
ENDBRANCH  15  18
ENDBRANCH   1  12
BRANCH   2  20
ATOM     20  O   UNL     1     135.645 133.953 142.110  1.00  0.00    -0.502 OA
ATOM     21  H   UNL     1     136.646 133.930 142.260  1.00  0.00     0.293 HD
ENDBRANCH   2  20
BRANCH   6  22
ATOM     22  O   UNL     1     131.870 131.935 145.065  1.00  0.00    -0.507 OA
ATOM     23  H   UNL     1     132.370 131.820 145.938  1.00  0.00     0.293 HD
ENDBRANCH   6  22
BRANCH   8  24
ATOM     24  O   UNL     1     130.768 127.920 142.596  1.00  0.00    -0.508 OA
ATOM     25  H   UNL     1     129.985 127.722 143.208  1.00  0.00     0.293 HD
ENDBRANCH   8  24
TORSDOF 5
ENDMDL
MODEL 8
REMARK VINA RESULT:    -5.761      2.380      3.464
REMARK INTER + INTRA:          -7.021
REMARK INTER:                  -6.726
REMARK INTRA:                  -0.295
REMARK UNBOUND:                -0.250
REMARK SMILES O=c1c(O)c(-c2ccc(O)cc2)oc2cc(O)cc(O)c12
REMARK SMILES IDX 5 1 3 2 2 3 1 4 21 5 19 6 18 7 16 8 15 9 14 10 13 11 6 12
REMARK SMILES IDX 7 13 8 14 9 15 12 16 11 17 10 18 4 20 20 22 17 24
REMARK H PARENT 10 19 4 21 20 23 17 25
REMARK Flexibility Score: inf
ROOT
ATOM      1  C   UNL     1     133.177 127.825 143.675  1.00  0.00     0.180 A 
ATOM      2  C   UNL     1     134.378 127.964 142.952  1.00  0.00     0.208 A 
ATOM      3  C   UNL     1     134.765 129.242 142.520  1.00  0.00     0.238 A 
ATOM      4  O   UNL     1     135.844 129.381 141.882  1.00  0.00    -0.285 OA
ATOM      5  C   UNL     1     133.939 130.351 142.798  1.00  0.00     0.111 A 
ATOM      6  C   UNL     1     134.254 131.671 142.394  1.00  0.00     0.134 A 
ATOM      7  C   UNL     1     133.376 132.721 142.701  1.00  0.00     0.093 A 
ATOM      8  C   UNL     1     132.191 132.476 143.402  1.00  0.00     0.123 A 
ATOM      9  C   UNL     1     131.876 131.177 143.803  1.00  0.00     0.094 A 
ATOM     10  C   UNL     1     132.738 130.116 143.508  1.00  0.00     0.146 A 
ATOM     11  O   UNL     1     132.416 128.891 143.905  1.00  0.00    -0.452 OA
ENDROOT
BRANCH   1  12
ATOM     12  C   UNL     1     132.712 126.514 144.181  1.00  0.00     0.021 A 
ATOM     13  C   UNL     1     133.159 126.001 145.413  1.00  0.00     0.016 A 
ATOM     14  C   UNL     1     132.686 124.772 145.881  1.00  0.00     0.047 A 
ATOM     15  C   UNL     1     131.753 124.046 145.135  1.00  0.00     0.115 A 
ATOM     16  C   UNL     1     131.757 125.788 143.447  1.00  0.00     0.016 A 
ATOM     17  C   UNL     1     131.287 124.559 143.917  1.00  0.00     0.047 A 
BRANCH  15  18
ATOM     18  O   UNL     1     131.291 122.821 145.613  1.00  0.00    -0.508 OA
ATOM     19  H   UNL     1     131.837 121.974 145.510  1.00  0.00     0.293 HD
ENDBRANCH  15  18
ENDBRANCH   1  12
BRANCH   2  20
ATOM     20  O   UNL     1     135.153 126.842 142.647  1.00  0.00    -0.502 OA
ATOM     21  H   UNL     1     135.646 126.745 141.768  1.00  0.00     0.293 HD
ENDBRANCH   2  20
BRANCH   6  22
ATOM     22  O   UNL     1     135.429 131.947 141.692  1.00  0.00    -0.507 OA
ATOM     23  H   UNL     1     135.766 131.338 140.956  1.00  0.00     0.293 HD
ENDBRANCH   6  22
BRANCH   8  24
ATOM     24  O   UNL     1     131.318 133.518 143.707  1.00  0.00    -0.508 OA
ATOM     25  H   UNL     1     130.750 133.506 144.547  1.00  0.00     0.293 HD
ENDBRANCH   8  24
TORSDOF 5
ENDMDL
MODEL 9
REMARK VINA RESULT:    -5.715      3.081      7.800
REMARK INTER + INTRA:          -6.967
REMARK INTER:                  -6.682
REMARK INTRA:                  -0.285
REMARK UNBOUND:                -0.250
REMARK SMILES O=c1c(O)c(-c2ccc(O)cc2)oc2cc(O)cc(O)c12
REMARK SMILES IDX 5 1 3 2 2 3 1 4 21 5 19 6 18 7 16 8 15 9 14 10 13 11 6 12
REMARK SMILES IDX 7 13 8 14 9 15 12 16 11 17 10 18 4 20 20 22 17 24
REMARK H PARENT 10 19 4 21 20 23 17 25
REMARK Flexibility Score: inf
ROOT
ATOM      1  C   UNL     1     131.482 128.585 142.352  1.00  0.00     0.180 A 
ATOM      2  C   UNL     1     132.657 127.890 142.004  1.00  0.00     0.208 A 
ATOM      3  C   UNL     1     132.584 126.508 141.772  1.00  0.00     0.238 A 
ATOM      4  O   UNL     1     133.627 125.877 141.448  1.00  0.00    -0.285 OA
ATOM      5  C   UNL     1     131.349 125.842 141.912  1.00  0.00     0.111 A 
ATOM      6  C   UNL     1     131.190 124.451 141.700  1.00  0.00     0.134 A 
ATOM      7  C   UNL     1     129.929 123.861 141.868  1.00  0.00     0.093 A 
ATOM      8  C   UNL     1     128.825 124.635 142.243  1.00  0.00     0.123 A 
ATOM      9  C   UNL     1     128.975 126.006 142.452  1.00  0.00     0.094 A 
ATOM     10  C   UNL     1     130.224 126.614 142.289  1.00  0.00     0.146 A 
ATOM     11  O   UNL     1     130.338 127.922 142.490  1.00  0.00    -0.452 OA
ENDROOT
BRANCH   1  12
ATOM     12  C   UNL     1     131.475 130.046 142.593  1.00  0.00     0.021 A 
ATOM     13  C   UNL     1     131.119 130.956 141.581  1.00  0.00     0.016 A 
ATOM     14  C   UNL     1     131.096 132.329 141.840  1.00  0.00     0.047 A 
ATOM     15  C   UNL     1     131.413 132.810 143.113  1.00  0.00     0.115 A 
ATOM     16  C   UNL     1     131.772 130.536 143.877  1.00  0.00     0.016 A 
ATOM     17  C   UNL     1     131.749 131.910 144.133  1.00  0.00     0.047 A 
BRANCH  15  18
ATOM     18  O   UNL     1     131.387 134.182 143.357  1.00  0.00    -0.508 OA
ATOM     19  H   UNL     1     130.640 134.768 143.002  1.00  0.00     0.293 HD
ENDBRANCH  15  18
ENDBRANCH   1  12
BRANCH   2  20
ATOM     20  O   UNL     1     133.878 128.565 141.921  1.00  0.00    -0.502 OA
ATOM     21  H   UNL     1     134.007 129.501 142.285  1.00  0.00     0.293 HD
ENDBRANCH   2  20
BRANCH   6  22
ATOM     22  O   UNL     1     132.273 123.654 141.327  1.00  0.00    -0.507 OA
ATOM     23  H   UNL     1     132.980 123.367 141.994  1.00  0.00     0.293 HD
ENDBRANCH   6  22
BRANCH   8  24
ATOM     24  O   UNL     1     127.572 124.049 142.410  1.00  0.00    -0.508 OA
ATOM     25  H   UNL     1     126.829 124.184 141.734  1.00  0.00     0.293 HD
ENDBRANCH   8  24
TORSDOF 5
ENDMDL
