MODEL 1
REMARK VINA RESULT:    -0.272      0.000      0.000
REMARK INTER + INTRA:           0.854
REMARK INTER:                  -0.716
REMARK INTRA:                   1.570
REMARK UNBOUND:                 1.570
REMARK SMILES CCCCCCCCCCCCCCCCCCCCCCCCCCCCCC(=O)[O-]
REMARK SMILES IDX 16 1 17 2 18 3 19 4 20 5 21 6 22 7 23 8 24 9 25 10 26 11
REMARK SMILES IDX 27 12 28 13 29 14 30 15 31 16 32 17 15 18 14 19 13 20 12 21
REMARK SMILES IDX 11 22 10 23 9 24 8 25 7 26 6 27 5 28 4 29 3 30 2 31 1 32
REMARK H PARENT
REMARK Flexibility Score: inf
ROOT
ATOM      1  C   UNL     1      23.981  37.860  15.815  1.00  0.00     0.000 C 
ENDROOT
BRANCH   1   2
ATOM      2  C   UNL     1      24.500  38.879  14.788  1.00  0.00     0.000 C 
BRANCH   2   3
ATOM      3  C   UNL     1      24.540  38.275  13.375  1.00  0.00     0.000 C 
BRANCH   3   4
ATOM      4  C   UNL     1      24.645  36.740  13.392  1.00  0.00     0.000 C 
BRANCH   4   5
ATOM      5  C   UNL     1      23.705  36.069  12.373  1.00  0.00     0.000 C 
BRANCH   5   6
ATOM      6  C   UNL     1      22.690  35.110  13.033  1.00  0.00     0.000 C 
BRANCH   6   7
ATOM      7  C   UNL     1      22.028  34.123  12.053  1.00  0.00     0.000 C 
BRANCH   7   8
ATOM      8  C   UNL     1      22.934  32.978  11.561  1.00  0.00     0.000 C 
BRANCH   8   9
ATOM      9  C   UNL     1      24.028  33.390  10.558  1.00  0.00     0.000 C 
BRANCH   9  10
ATOM     10  C   UNL     1      24.241  32.352   9.443  1.00  0.00     0.000 C 
BRANCH  10  11
ATOM     11  C   UNL     1      25.376  31.360   9.759  1.00  0.00     0.000 C 
BRANCH  11  12
ATOM     12  C   UNL     1      25.619  31.082  11.256  1.00  0.00     0.000 C 
BRANCH  12  13
ATOM     13  C   UNL     1      26.803  31.835  11.892  1.00  0.00     0.006 C 
BRANCH  13  14
ATOM     14  C   UNL     1      26.392  32.950  12.869  1.00  0.00     0.053 C 
BRANCH  14  15
ATOM     15  C   UNL     1      27.070  34.255  12.576  1.00  0.00     0.041 C 
ATOM     16  O   UNL     1      27.375  34.561  11.392  1.00  0.00    -0.550 OA
ATOM     17  O   UNL     1      27.333  35.149  13.608  1.00  0.00    -0.550 OA
ENDBRANCH  14  15
ENDBRANCH  13  14
ENDBRANCH  12  13
ENDBRANCH  11  12
ENDBRANCH  10  11
ENDBRANCH   9  10
ENDBRANCH   8   9
ENDBRANCH   7   8
ENDBRANCH   6   7
ENDBRANCH   5   6
ENDBRANCH   4   5
ENDBRANCH   3   4
ENDBRANCH   2   3
ENDBRANCH   1   2
BRANCH   1  18
ATOM     18  C   UNL     1      22.530  37.429  15.546  1.00  0.00     0.000 C 
BRANCH  18  19
ATOM     19  C   UNL     1      22.203  36.041  16.125  1.00  0.00     0.000 C 
BRANCH  19  20
ATOM     20  C   UNL     1      20.738  35.638  15.889  1.00  0.00     0.000 C 
BRANCH  20  21
ATOM     21  C   UNL     1      20.579  34.254  15.226  1.00  0.00     0.000 C 
BRANCH  21  22
ATOM     22  C   UNL     1      19.686  33.308  16.050  1.00  0.00     0.000 C 
BRANCH  22  23
ATOM     23  C   UNL     1      19.057  32.207  15.176  1.00  0.00     0.000 C 
BRANCH  23  24
ATOM     24  C   UNL     1      19.936  30.939  15.113  1.00  0.00    -0.000 C 
BRANCH  24  25
ATOM     25  C   UNL     1      21.133  30.991  16.079  1.00  0.00    -0.000 C 
BRANCH  25  26
ATOM     26  C   UNL     1      22.500  30.875  15.375  1.00  0.00    -0.000 C 
BRANCH  26  27
ATOM     27  C   UNL     1      23.402  32.100  15.620  1.00  0.00    -0.000 C 
BRANCH  27  28
ATOM     28  C   UNL     1      24.833  31.704  16.022  1.00  0.00    -0.000 C 
BRANCH  28  29
ATOM     29  C   UNL     1      25.625  31.080  14.860  1.00  0.00    -0.000 C 
BRANCH  29  30
ATOM     30  C   UNL     1      27.150  31.145  15.092  1.00  0.00    -0.000 C 
BRANCH  30  31
ATOM     31  C   UNL     1      27.596  32.335  15.959  1.00  0.00    -0.003 C 
ATOM     32  C   UNL     1      26.632  33.519  15.896  1.00  0.00     0.004 C 
ENDBRANCH  30  31
ENDBRANCH  29  30
ENDBRANCH  28  29
ENDBRANCH  27  28
ENDBRANCH  26  27
ENDBRANCH  25  26
ENDBRANCH  24  25
ENDBRANCH  23  24
ENDBRANCH  22  23
ENDBRANCH  21  22
ENDBRANCH  20  21
ENDBRANCH  19  20
ENDBRANCH  18  19
ENDBRANCH   1  18
TORSDOF 28
ENDMDL
MODEL 2
REMARK VINA RESULT:     1.328      1.757      6.412
REMARK INTER + INTRA:           5.073
REMARK INTER:                   4.927
REMARK INTRA:                   0.146
REMARK UNBOUND:                 1.570
REMARK SMILES CCCCCCCCCCCCCCCCCCCCCCCCCCCCCC(=O)[O-]
REMARK SMILES IDX 16 1 17 2 18 3 19 4 20 5 21 6 22 7 23 8 24 9 25 10 26 11
REMARK SMILES IDX 27 12 28 13 29 14 30 15 31 16 32 17 15 18 14 19 13 20 12 21
REMARK SMILES IDX 11 22 10 23 9 24 8 25 7 26 6 27 5 28 4 29 3 30 2 31 1 32
REMARK H PARENT
REMARK Flexibility Score: inf
ROOT
ATOM      1  C   UNL     1      23.718  32.961  14.995  1.00  0.00     0.000 C 
ENDROOT
BRANCH   1   2
ATOM      2  C   UNL     1      23.249  31.533  15.318  1.00  0.00     0.000 C 
BRANCH   2   3
ATOM      3  C   UNL     1      21.904  31.223  14.643  1.00  0.00     0.000 C 
BRANCH   3   4
ATOM      4  C   UNL     1      20.796  30.896  15.658  1.00  0.00     0.000 C 
BRANCH   4   5
ATOM      5  C   UNL     1      20.026  32.147  16.123  1.00  0.00     0.000 C 
BRANCH   5   6
ATOM      6  C   UNL     1      20.227  33.357  15.184  1.00  0.00     0.000 C 
BRANCH   6   7
ATOM      7  C   UNL     1      21.117  34.468  15.772  1.00  0.00     0.000 C 
BRANCH   7   8
ATOM      8  C   UNL     1      20.437  35.842  15.928  1.00  0.00     0.000 C 
BRANCH   8   9
ATOM      9  C   UNL     1      21.142  37.009  15.210  1.00  0.00     0.000 C 
BRANCH   9  10
ATOM     10  C   UNL     1      22.217  37.684  16.078  1.00  0.00     0.000 C 
BRANCH  10  11
ATOM     11  C   UNL     1      23.647  37.256  15.700  1.00  0.00     0.000 C 
BRANCH  11  12
ATOM     12  C   UNL     1      24.767  38.227  16.124  1.00  0.00     0.000 C 
BRANCH  12  13
ATOM     13  C   UNL     1      24.704  39.634  15.498  1.00  0.00     0.006 C 
BRANCH  13  14
ATOM     14  C   UNL     1      25.023  39.671  13.994  1.00  0.00     0.053 C 
BRANCH  14  15
ATOM     15  C   UNL     1      24.005  38.944  13.169  1.00  0.00     0.041 C 
ATOM     16  O   UNL     1      22.859  39.440  12.991  1.00  0.00    -0.550 OA
ATOM     17  O   UNL     1      24.333  37.735  12.565  1.00  0.00    -0.550 OA
ENDBRANCH  14  15
ENDBRANCH  13  14
ENDBRANCH  12  13
ENDBRANCH  11  12
ENDBRANCH  10  11
ENDBRANCH   9  10
ENDBRANCH   8   9
ENDBRANCH   7   8
ENDBRANCH   6   7
ENDBRANCH   5   6
ENDBRANCH   4   5
ENDBRANCH   3   4
ENDBRANCH   2   3
ENDBRANCH   1   2
BRANCH   1  18
ATOM     18  C   UNL     1      24.596  33.565  16.104  1.00  0.00     0.000 C 
BRANCH  18  19
ATOM     19  C   UNL     1      24.758  35.089  15.972  1.00  0.00     0.000 C 
BRANCH  19  20
ATOM     20  C   UNL     1      25.129  35.518  14.543  1.00  0.00     0.000 C 
BRANCH  20  21
ATOM     21  C   UNL     1      26.643  35.459  14.255  1.00  0.00     0.000 C 
BRANCH  21  22
ATOM     22  C   UNL     1      27.026  34.251  13.380  1.00  0.00     0.000 C 
BRANCH  22  23
ATOM     23  C   UNL     1      27.702  33.138  14.203  1.00  0.00     0.000 C 
BRANCH  23  24
ATOM     24  C   UNL     1      26.714  32.014  14.586  1.00  0.00    -0.000 C 
BRANCH  24  25
ATOM     25  C   UNL     1      26.670  30.876  13.551  1.00  0.00    -0.000 C 
BRANCH  25  26
ATOM     26  C   UNL     1      25.628  31.097  12.436  1.00  0.00    -0.000 C 
BRANCH  26  27
ATOM     27  C   UNL     1      26.254  31.111  11.028  1.00  0.00    -0.000 C 
BRANCH  27  28
ATOM     28  C   UNL     1      25.435  31.946  10.030  1.00  0.00    -0.000 C 
BRANCH  28  29
ATOM     29  C   UNL     1      24.011  32.243  10.531  1.00  0.00    -0.000 C 
BRANCH  29  30
ATOM     30  C   UNL     1      23.905  33.632  11.197  1.00  0.00    -0.000 C 
BRANCH  30  31
ATOM     31  C   UNL     1      22.484  33.988  11.668  1.00  0.00    -0.003 C 
ATOM     32  C   UNL     1      22.451  35.169  12.637  1.00  0.00     0.004 C 
ENDBRANCH  30  31
ENDBRANCH  29  30
ENDBRANCH  28  29
ENDBRANCH  27  28
ENDBRANCH  26  27
ENDBRANCH  25  26
ENDBRANCH  24  25
ENDBRANCH  23  24
ENDBRANCH  22  23
ENDBRANCH  21  22
ENDBRANCH  20  21
ENDBRANCH  19  20
ENDBRANCH  18  19
ENDBRANCH   1  18
TORSDOF 28
ENDMDL
MODEL 3
REMARK VINA RESULT:     1.345      1.825      5.937
REMARK INTER + INTRA:           5.116
REMARK INTER:                   3.408
REMARK INTRA:                   1.708
REMARK UNBOUND:                 1.570
REMARK SMILES CCCCCCCCCCCCCCCCCCCCCCCCCCCCCC(=O)[O-]
REMARK SMILES IDX 16 1 17 2 18 3 19 4 20 5 21 6 22 7 23 8 24 9 25 10 26 11
REMARK SMILES IDX 27 12 28 13 29 14 30 15 31 16 32 17 15 18 14 19 13 20 12 21
REMARK SMILES IDX 11 22 10 23 9 24 8 25 7 26 6 27 5 28 4 29 3 30 2 31 1 32
REMARK H PARENT
REMARK Flexibility Score: inf
ROOT
ATOM      1  C   UNL     1      24.956  36.152  13.931  1.00  0.00     0.000 C 
ENDROOT
BRANCH   1   2
ATOM      2  C   UNL     1      24.930  37.545  13.280  1.00  0.00     0.000 C 
BRANCH   2   3
ATOM      3  C   UNL     1      25.928  38.495  13.960  1.00  0.00     0.000 C 
BRANCH   3   4
ATOM      4  C   UNL     1      25.868  38.415  15.495  1.00  0.00     0.000 C 
BRANCH   4   5
ATOM      5  C   UNL     1      24.714  39.243  16.089  1.00  0.00     0.000 C 
BRANCH   5   6
ATOM      6  C   UNL     1      23.833  39.907  15.008  1.00  0.00     0.000 C 
BRANCH   6   7
ATOM      7  C   UNL     1      23.006  38.912  14.172  1.00  0.00     0.000 C 
BRANCH   7   8
ATOM      8  C   UNL     1      21.956  38.106  14.959  1.00  0.00     0.000 C 
BRANCH   8   9
ATOM      9  C   UNL     1      22.458  36.775  15.551  1.00  0.00     0.000 C 
BRANCH   9  10
ATOM     10  C   UNL     1      21.377  35.682  15.570  1.00  0.00     0.000 C 
BRANCH  10  11
ATOM     11  C   UNL     1      21.719  34.486  14.662  1.00  0.00     0.000 C 
BRANCH  11  12
ATOM     12  C   UNL     1      22.320  34.844  13.287  1.00  0.00     0.000 C 
BRANCH  12  13
ATOM     13  C   UNL     1      22.562  33.657  12.335  1.00  0.00     0.006 C 
BRANCH  13  14
ATOM     14  C   UNL     1      23.987  33.588  11.761  1.00  0.00     0.053 C 
BRANCH  14  15
ATOM     15  C   UNL     1      24.311  32.247  11.176  1.00  0.00     0.041 C 
ATOM     16  O   UNL     1      25.268  32.121  10.364  1.00  0.00    -0.550 OA
ATOM     17  O   UNL     1      23.579  31.126  11.554  1.00  0.00    -0.550 OA
ENDBRANCH  14  15
ENDBRANCH  13  14
ENDBRANCH  12  13
ENDBRANCH  11  12
ENDBRANCH  10  11
ENDBRANCH   9  10
ENDBRANCH   8   9
ENDBRANCH   7   8
ENDBRANCH   6   7
ENDBRANCH   5   6
ENDBRANCH   4   5
ENDBRANCH   3   4
ENDBRANCH   2   3
ENDBRANCH   1   2
BRANCH   1  18
ATOM     18  C   UNL     1      26.086  35.997  14.962  1.00  0.00     0.000 C 
BRANCH  18  19
ATOM     19  C   UNL     1      26.705  34.589  14.960  1.00  0.00     0.000 C 
BRANCH  19  20
ATOM     20  C   UNL     1      26.423  33.826  13.656  1.00  0.00     0.000 C 
BRANCH  20  21
ATOM     21  C   UNL     1      26.727  32.316  13.747  1.00  0.00     0.000 C 
BRANCH  21  22
ATOM     22  C   UNL     1      27.354  31.925  15.097  1.00  0.00     0.000 C 
BRANCH  22  23
ATOM     23  C   UNL     1      26.287  31.499  16.124  1.00  0.00     0.000 C 
BRANCH  23  24
ATOM     24  C   UNL     1      25.046  30.875  15.450  1.00  0.00    -0.000 C 
BRANCH  24  25
ATOM     25  C   UNL     1      23.730  31.552  15.874  1.00  0.00    -0.000 C 
BRANCH  25  26
ATOM     26  C   UNL     1      22.473  30.877  15.290  1.00  0.00    -0.000 C 
BRANCH  26  27
ATOM     27  C   UNL     1      21.212  31.755  15.414  1.00  0.00    -0.000 C 
BRANCH  27  28
ATOM     28  C   UNL     1      19.932  30.921  15.589  1.00  0.00    -0.000 C 
BRANCH  28  29
ATOM     29  C   UNL     1      18.656  31.716  15.261  1.00  0.00    -0.000 C 
BRANCH  29  30
ATOM     30  C   UNL     1      17.389  31.051  15.841  1.00  0.00    -0.000 C 
BRANCH  30  31
ATOM     31  C   UNL     1      16.075  31.622  15.279  1.00  0.00    -0.003 C 
ATOM     32  C   UNL     1      14.847  31.211  16.089  1.00  0.00     0.004 C 
ENDBRANCH  30  31
ENDBRANCH  29  30
ENDBRANCH  28  29
ENDBRANCH  27  28
ENDBRANCH  26  27
ENDBRANCH  25  26
ENDBRANCH  24  25
ENDBRANCH  23  24
ENDBRANCH  22  23
ENDBRANCH  21  22
ENDBRANCH  20  21
ENDBRANCH  19  20
ENDBRANCH  18  19
ENDBRANCH   1  18
TORSDOF 28
ENDMDL
MODEL 4
REMARK VINA RESULT:     1.858      5.684      9.803
REMARK INTER + INTRA:           6.469
REMARK INTER:                   6.315
REMARK INTRA:                   0.154
REMARK UNBOUND:                 1.570
REMARK SMILES CCCCCCCCCCCCCCCCCCCCCCCCCCCCCC(=O)[O-]
REMARK SMILES IDX 16 1 17 2 18 3 19 4 20 5 21 6 22 7 23 8 24 9 25 10 26 11
REMARK SMILES IDX 27 12 28 13 29 14 30 15 31 16 32 17 15 18 14 19 13 20 12 21
REMARK SMILES IDX 11 22 10 23 9 24 8 25 7 26 6 27 5 28 4 29 3 30 2 31 1 32
REMARK H PARENT
REMARK Flexibility Score: inf
ROOT
ATOM      1  C   UNL     1      25.180  36.660  15.469  1.00  0.00     0.000 C 
ENDROOT
BRANCH   1   2
ATOM      2  C   UNL     1      23.690  36.890  15.172  1.00  0.00     0.000 C 
BRANCH   2   3
ATOM      3  C   UNL     1      23.120  38.031  16.029  1.00  0.00     0.000 C 
BRANCH   3   4
ATOM      4  C   UNL     1      24.076  39.233  16.123  1.00  0.00     0.000 C 
BRANCH   4   5
ATOM      5  C   UNL     1      25.105  39.264  14.977  1.00  0.00     0.000 C 
BRANCH   5   6
ATOM      6  C   UNL     1      26.136  40.405  15.127  1.00  0.00     0.000 C 
BRANCH   6   7
ATOM      7  C   UNL     1      25.719  41.502  16.125  1.00  0.00     0.000 C 
BRANCH   7   8
ATOM      8  C   UNL     1      25.756  42.940  15.575  1.00  0.00     0.000 C 
BRANCH   8   9
ATOM      9  C   UNL     1      24.657  43.877  16.110  1.00  0.00     0.000 C 
BRANCH   9  10
ATOM     10  C   UNL     1      24.658  45.254  15.425  1.00  0.00     0.000 C 
BRANCH  10  11
ATOM     11  C   UNL     1      23.434  46.110  15.802  1.00  0.00     0.000 C 
BRANCH  11  12
ATOM     12  C   UNL     1      23.728  47.590  16.119  1.00  0.00     0.000 C 
BRANCH  12  13
ATOM     13  C   UNL     1      22.860  48.619  15.369  1.00  0.00     0.006 C 
BRANCH  13  14
ATOM     14  C   UNL     1      23.601  49.910  14.982  1.00  0.00     0.053 C 
BRANCH  14  15
ATOM     15  C   UNL     1      25.071  49.695  14.782  1.00  0.00     0.041 C 
ATOM     16  O   UNL     1      25.517  49.371  13.648  1.00  0.00    -0.550 OA
ATOM     17  O   UNL     1      25.953  49.888  15.840  1.00  0.00    -0.550 OA
ENDBRANCH  14  15
ENDBRANCH  13  14
ENDBRANCH  12  13
ENDBRANCH  11  12
ENDBRANCH  10  11
ENDBRANCH   9  10
ENDBRANCH   8   9
ENDBRANCH   7   8
ENDBRANCH   6   7
ENDBRANCH   5   6
ENDBRANCH   4   5
ENDBRANCH   3   4
ENDBRANCH   2   3
ENDBRANCH   1   2
BRANCH   1  18
ATOM     18  C   UNL     1      25.501  35.196  15.813  1.00  0.00     0.000 C 
BRANCH  18  19
ATOM     19  C   UNL     1      26.625  34.611  14.940  1.00  0.00     0.000 C 
BRANCH  19  20
ATOM     20  C   UNL     1      27.084  33.227  15.425  1.00  0.00     0.000 C 
BRANCH  20  21
ATOM     21  C   UNL     1      27.209  32.187  14.293  1.00  0.00     0.000 C 
BRANCH  21  22
ATOM     22  C   UNL     1      26.885  32.784  12.911  1.00  0.00     0.000 C 
BRANCH  22  23
ATOM     23  C   UNL     1      25.393  32.634  12.557  1.00  0.00     0.000 C 
BRANCH  23  24
ATOM     24  C   UNL     1      24.812  33.917  11.924  1.00  0.00    -0.000 C 
BRANCH  24  25
ATOM     25  C   UNL     1      24.300  33.700  10.489  1.00  0.00    -0.000 C 
BRANCH  25  26
ATOM     26  C   UNL     1      22.823  34.097  10.294  1.00  0.00    -0.000 C 
BRANCH  26  27
ATOM     27  C   UNL     1      22.024  34.091  11.611  1.00  0.00    -0.000 C 
BRANCH  27  28
ATOM     28  C   UNL     1      22.335  35.313  12.492  1.00  0.00    -0.000 C 
BRANCH  28  29
ATOM     29  C   UNL     1      22.044  35.061  13.982  1.00  0.00    -0.000 C 
BRANCH  29  30
ATOM     30  C   UNL     1      22.113  33.561  14.344  1.00  0.00    -0.000 C 
BRANCH  30  31
ATOM     31  C   UNL     1      21.507  33.225  15.718  1.00  0.00    -0.003 C 
ATOM     32  C   UNL     1      20.314  32.275  15.631  1.00  0.00     0.004 C 
ENDBRANCH  30  31
ENDBRANCH  29  30
ENDBRANCH  28  29
ENDBRANCH  27  28
ENDBRANCH  26  27
ENDBRANCH  25  26
ENDBRANCH  24  25
ENDBRANCH  23  24
ENDBRANCH  22  23
ENDBRANCH  21  22
ENDBRANCH  20  21
ENDBRANCH  19  20
ENDBRANCH  18  19
ENDBRANCH   1  18
TORSDOF 28
ENDMDL
MODEL 5
REMARK VINA RESULT:     2.259      5.873      9.962
REMARK INTER + INTRA:           7.527
REMARK INTER:                   8.929
REMARK INTRA:                  -1.402
REMARK UNBOUND:                 1.570
REMARK SMILES CCCCCCCCCCCCCCCCCCCCCCCCCCCCCC(=O)[O-]
REMARK SMILES IDX 16 1 17 2 18 3 19 4 20 5 21 6 22 7 23 8 24 9 25 10 26 11
REMARK SMILES IDX 27 12 28 13 29 14 30 15 31 16 32 17 15 18 14 19 13 20 12 21
REMARK SMILES IDX 11 22 10 23 9 24 8 25 7 26 6 27 5 28 4 29 3 30 2 31 1 32
REMARK H PARENT
REMARK Flexibility Score: inf
ROOT
ATOM      1  C   UNL     1      24.136  35.319  14.750  1.00  0.00     0.000 C 
ENDROOT
BRANCH   1   2
ATOM      2  C   UNL     1      23.567  36.746  14.696  1.00  0.00     0.000 C 
BRANCH   2   3
ATOM      3  C   UNL     1      24.049  37.583  15.892  1.00  0.00     0.000 C 
BRANCH   3   4
ATOM      4  C   UNL     1      25.401  38.268  15.626  1.00  0.00     0.000 C 
BRANCH   4   5
ATOM      5  C   UNL     1      25.267  39.528  14.750  1.00  0.00     0.000 C 
BRANCH   5   6
ATOM      6  C   UNL     1      24.488  40.664  15.449  1.00  0.00     0.000 C 
BRANCH   6   7
ATOM      7  C   UNL     1      25.386  41.719  16.124  1.00  0.00     0.000 C 
BRANCH   7   8
ATOM      8  C   UNL     1      25.423  43.093  15.429  1.00  0.00     0.000 C 
BRANCH   8   9
ATOM      9  C   UNL     1      24.215  44.005  15.711  1.00  0.00     0.000 C 
BRANCH   9  10
ATOM     10  C   UNL     1      24.620  45.449  16.052  1.00  0.00     0.000 C 
BRANCH  10  11
ATOM     11  C   UNL     1      23.561  46.483  15.628  1.00  0.00     0.000 C 
BRANCH  11  12
ATOM     12  C   UNL     1      24.101  47.729  14.897  1.00  0.00     0.000 C 
BRANCH  12  13
ATOM     13  C   UNL     1      24.173  49.018  15.738  1.00  0.00     0.006 C 
BRANCH  13  14
ATOM     14  C   UNL     1      25.603  49.466  16.087  1.00  0.00     0.053 C 
BRANCH  14  15
ATOM     15  C   UNL     1      26.307  50.105  14.929  1.00  0.00     0.041 C 
ATOM     16  O   UNL     1      27.556  50.278  14.961  1.00  0.00    -0.550 OA
ATOM     17  O   UNL     1      25.591  50.479  13.797  1.00  0.00    -0.550 OA
ENDBRANCH  14  15
ENDBRANCH  13  14
ENDBRANCH  12  13
ENDBRANCH  11  12
ENDBRANCH  10  11
ENDBRANCH   9  10
ENDBRANCH   8   9
ENDBRANCH   7   8
ENDBRANCH   6   7
ENDBRANCH   5   6
ENDBRANCH   4   5
ENDBRANCH   3   4
ENDBRANCH   2   3
ENDBRANCH   1   2
BRANCH   1  18
ATOM     18  C   UNL     1      25.646  35.268  14.465  1.00  0.00     0.000 C 
BRANCH  18  19
ATOM     19  C   UNL     1      26.012  35.832  13.082  1.00  0.00     0.000 C 
BRANCH  19  20
ATOM     20  C   UNL     1      27.025  34.947  12.337  1.00  0.00     0.000 C 
BRANCH  20  21
ATOM     21  C   UNL     1      26.379  34.017  11.290  1.00  0.00     0.000 C 
BRANCH  21  22
ATOM     22  C   UNL     1      25.453  32.967  11.932  1.00  0.00     0.000 C 
BRANCH  22  23
ATOM     23  C   UNL     1      26.069  32.362  13.208  1.00  0.00     0.000 C 
BRANCH  23  24
ATOM     24  C   UNL     1      25.094  31.405  13.929  1.00  0.00    -0.000 C 
BRANCH  24  25
ATOM     25  C   UNL     1      23.827  31.110  13.107  1.00  0.00    -0.000 C 
BRANCH  25  26
ATOM     26  C   UNL     1      22.571  30.876  13.971  1.00  0.00    -0.000 C 
BRANCH  26  27
ATOM     27  C   UNL     1      22.454  31.876  15.137  1.00  0.00    -0.000 C 
BRANCH  27  28
ATOM     28  C   UNL     1      21.335  31.501  16.122  1.00  0.00    -0.000 C 
BRANCH  28  29
ATOM     29  C   UNL     1      20.000  32.195  15.798  1.00  0.00    -0.000 C 
BRANCH  29  30
ATOM     30  C   UNL     1      18.973  31.223  15.180  1.00  0.00    -0.000 C 
BRANCH  30  31
ATOM     31  C   UNL     1      17.811  31.925  14.456  1.00  0.00    -0.003 C 
ATOM     32  C   UNL     1      16.499  31.875  15.237  1.00  0.00     0.004 C 
ENDBRANCH  30  31
ENDBRANCH  29  30
ENDBRANCH  28  29
ENDBRANCH  27  28
ENDBRANCH  26  27
ENDBRANCH  25  26
ENDBRANCH  24  25
ENDBRANCH  23  24
ENDBRANCH  22  23
ENDBRANCH  21  22
ENDBRANCH  20  21
ENDBRANCH  19  20
ENDBRANCH  18  19
ENDBRANCH   1  18
TORSDOF 28
ENDMDL
