MODEL 1
REMARK VINA RESULT:    69.388      0.000      0.000
REMARK INTER + INTRA:          94.611
REMARK INTER:                  95.754
REMARK INTRA:                  -1.144
REMARK UNBOUND:                -1.144
REMARK SMILES CC[C@@H](CC[C@@H](C)[C@@H]1CC[C@H]2[C@H]3CC=C4C[C@H](O)CC[C@]4(C)[C@H]3CC[C@@]21C)C(C)C
REMARK SMILES IDX 5 1 4 2 3 3 2 4 1 5 28 6 29 7 30 8 6 9 7 10 8 11 9 12 26 13
REMARK SMILES IDX 10 14 11 15 25 16 27 17 12 18 24 19 23 20 13 21 21 22 14 23
REMARK SMILES IDX 15 24 20 25 22 26 16 27 19 28 17 29 18 30
REMARK H PARENT 18 31
REMARK Flexibility Score: inf
ROOT
ATOM      1  C   UNL     1      88.157  -5.401  67.864  1.00  0.00     0.004 C 
ENDROOT
BRANCH   1   2
ATOM      2  C   UNL     1      88.722  -6.267  66.718  1.00  0.00     0.004 C 
BRANCH   2   3
ATOM      3  C   UNL     1      89.511  -7.524  67.180  1.00  0.00    -0.009 C 
BRANCH   3   4
ATOM      4  C   UNL     1      89.916  -8.412  65.968  1.00  0.00     0.000 C 
ATOM      5  C   UNL     1      90.393  -7.607  64.757  1.00  0.00     0.004 C 
ENDBRANCH   3   4
BRANCH   3   6
ATOM      6  C   UNL     1      88.798  -8.262  68.372  1.00  0.00    -0.014 C 
ATOM      7  C   UNL     1      87.587  -9.124  67.971  1.00  0.00     0.007 C 
ATOM      8  C   UNL     1      89.786  -9.100  69.202  1.00  0.00     0.007 C 
ENDBRANCH   3   6
ENDBRANCH   2   3
ENDBRANCH   1   2
BRANCH   1   9
ATOM      9  C   UNL     1      86.689  -4.935  67.635  1.00  0.00    -0.011 C 
ATOM     10  C   UNL     1      85.873  -6.133  67.091  1.00  0.00     0.008 C 
BRANCH   9  11
ATOM     11  C   UNL     1      86.085  -4.239  68.915  1.00  0.00    -0.002 C 
ATOM     12  C   UNL     1      85.525  -5.227  69.980  1.00  0.00     0.005 C 
ATOM     13  C   UNL     1      84.941  -3.182  68.722  1.00  0.00    -0.026 C 
ATOM     14  C   UNL     1      84.018  -4.951  70.124  1.00  0.00     0.005 C 
ATOM     15  C   UNL     1      83.693  -4.040  68.950  1.00  0.00    -0.001 C 
ATOM     16  C   UNL     1      84.811  -2.496  67.338  1.00  0.00     0.007 C 
ATOM     17  C   UNL     1      85.155  -2.085  69.817  1.00  0.00     0.012 C 
ATOM     18  C   UNL     1      82.323  -3.326  68.874  1.00  0.00     0.000 C 
ATOM     19  C   UNL     1      83.499  -1.680  67.223  1.00  0.00     0.005 C 
ATOM     20  C   UNL     1      82.200  -2.490  67.562  1.00  0.00     0.003 C 
ATOM     21  C   UNL     1      81.876  -2.503  70.086  1.00  0.00     0.031 C 
ATOM     22  C   UNL     1      80.832  -1.647  67.483  1.00  0.00    -0.008 C 
ATOM     23  C   UNL     1      80.423  -2.188  69.914  1.00  0.00    -0.027 C 
ATOM     24  C   UNL     1      79.913  -1.875  68.705  1.00  0.00    -0.065 C 
ATOM     25  C   UNL     1      80.078  -2.090  66.190  1.00  0.00     0.014 C 
ATOM     26  C   UNL     1      81.084  -0.115  67.416  1.00  0.00     0.016 C 
ATOM     27  C   UNL     1      78.444  -1.504  68.622  1.00  0.00     0.063 C 
ATOM     28  C   UNL     1      78.631  -1.584  66.088  1.00  0.00     0.033 C 
ATOM     29  C   UNL     1      77.794  -1.981  67.313  1.00  0.00     0.118 C 
BRANCH  29  30
ATOM     30  O   UNL     1      77.538  -3.366  67.332  1.00  0.00    -0.393 OA
ATOM     31  H   UNL     1      78.396  -3.844  67.190  1.00  0.00     0.210 HD
ENDBRANCH  29  30
ENDBRANCH   9  11
ENDBRANCH   1   9
TORSDOF 7
ENDMDL
