MODEL 1
REMARK VINA RESULT:    -3.806      0.000      0.000
REMARK INTER + INTRA:         -11.672
REMARK INTER:                  -8.702
REMARK INTRA:                  -2.970
REMARK UNBOUND:                -2.970
REMARK SMILES CCCCCCCCCCCCCCCCCCCCCCCC(=O)[O-]
REMARK SMILES IDX 13 1 14 2 15 3 16 4 17 5 18 6 19 7 20 8 21 9 22 10 23 11
REMARK SMILES IDX 24 12 25 13 26 14 12 15 11 16 10 17 9 18 8 19 7 20 6 21 5 22
REMARK SMILES IDX 4 23 3 24 2 25 1 26
REMARK H PARENT
REMARK Flexibility Score: inf
ROOT
ATOM      1  C   UNL     1     -18.344  25.398  36.468  1.00  0.00     0.000 C 
ENDROOT
BRANCH   1   2
ATOM      2  C   UNL     1     -19.703  25.931  35.985  1.00  0.00     0.000 C 
BRANCH   2   3
ATOM      3  C   UNL     1     -19.579  26.875  34.775  1.00  0.00     0.000 C 
BRANCH   3   4
ATOM      4  C   UNL     1     -20.512  26.554  33.587  1.00  0.00     0.000 C 
BRANCH   4   5
ATOM      5  C   UNL     1     -19.855  25.790  32.424  1.00  0.00     0.000 C 
BRANCH   5   6
ATOM      6  C   UNL     1     -18.386  25.388  32.659  1.00  0.00     0.000 C 
BRANCH   6   7
ATOM      7  C   UNL     1     -18.141  23.865  32.611  1.00  0.00     0.000 C 
BRANCH   7   8
ATOM      8  C   UNL     1     -19.423  23.053  32.852  1.00  0.00     0.000 C 
BRANCH   8   9
ATOM      9  C   UNL     1     -19.598  22.632  34.323  1.00  0.00     0.000 C 
BRANCH   9  10
ATOM     10  C   UNL     1     -21.054  22.628  34.835  1.00  0.00     0.006 C 
BRANCH  10  11
ATOM     11  C   UNL     1     -21.520  21.291  35.435  1.00  0.00     0.053 C 
BRANCH  11  12
ATOM     12  C   UNL     1     -22.958  21.336  35.854  1.00  0.00     0.041 C 
ATOM     13  O   UNL     1     -23.832  21.793  35.069  1.00  0.00    -0.550 OA
ATOM     14  O   UNL     1     -23.330  20.912  37.123  1.00  0.00    -0.550 OA
ENDBRANCH  11  12
ENDBRANCH  10  11
ENDBRANCH   9  10
ENDBRANCH   8   9
ENDBRANCH   7   8
ENDBRANCH   6   7
ENDBRANCH   5   6
ENDBRANCH   4   5
ENDBRANCH   3   4
ENDBRANCH   2   3
ENDBRANCH   1   2
BRANCH   1  15
ATOM     15  C   UNL     1     -18.263  25.282  37.999  1.00  0.00     0.000 C 
BRANCH  15  16
ATOM     16  C   UNL     1     -19.571  25.676  38.700  1.00  0.00     0.000 C 
BRANCH  16  17
ATOM     17  C   UNL     1     -20.060  24.549  39.624  1.00  0.00     0.000 C 
BRANCH  17  18
ATOM     18  C   UNL     1     -20.403  23.259  38.861  1.00  0.00    -0.000 C 
BRANCH  18  19
ATOM     19  C   UNL     1     -21.208  22.220  39.666  1.00  0.00    -0.000 C 
BRANCH  19  20
ATOM     20  C   UNL     1     -20.995  22.309  41.193  1.00  0.00    -0.000 C 
BRANCH  20  21
ATOM     21  C   UNL     1     -21.136  20.942  41.885  1.00  0.00    -0.000 C 
BRANCH  21  22
ATOM     22  C   UNL     1     -19.882  20.552  42.687  1.00  0.00    -0.000 C 
BRANCH  22  23
ATOM     23  C   UNL     1     -18.643  21.366  42.274  1.00  0.00    -0.000 C 
BRANCH  23  24
ATOM     24  C   UNL     1     -17.555  20.500  41.618  1.00  0.00    -0.000 C 
BRANCH  24  25
ATOM     25  C   UNL     1     -18.002  19.046  41.406  1.00  0.00    -0.003 C 
ATOM     26  C   UNL     1     -16.962  18.068  41.947  1.00  0.00     0.004 C 
ENDBRANCH  24  25
ENDBRANCH  23  24
ENDBRANCH  22  23
ENDBRANCH  21  22
ENDBRANCH  20  21
ENDBRANCH  19  20
ENDBRANCH  18  19
ENDBRANCH  17  18
ENDBRANCH  16  17
ENDBRANCH  15  16
ENDBRANCH   1  15
TORSDOF 22
ENDMDL
MODEL 2
REMARK VINA RESULT:    -3.798     14.135     16.384
REMARK INTER + INTRA:         -11.652
REMARK INTER:                  -8.064
REMARK INTRA:                  -3.588
REMARK UNBOUND:                -2.970
REMARK SMILES CCCCCCCCCCCCCCCCCCCCCCCC(=O)[O-]
REMARK SMILES IDX 13 1 14 2 15 3 16 4 17 5 18 6 19 7 20 8 21 9 22 10 23 11
REMARK SMILES IDX 24 12 25 13 26 14 12 15 11 16 10 17 9 18 8 19 7 20 6 21 5 22
REMARK SMILES IDX 4 23 3 24 2 25 1 26
REMARK H PARENT
REMARK Flexibility Score: inf
ROOT
ATOM      1  C   UNL     1      -7.635  32.503  43.265  1.00  0.00     0.000 C 
ENDROOT
BRANCH   1   2
ATOM      2  C   UNL     1      -6.602  31.491  42.743  1.00  0.00     0.000 C 
BRANCH   2   3
ATOM      3  C   UNL     1      -7.206  30.099  42.485  1.00  0.00     0.000 C 
BRANCH   3   4
ATOM      4  C   UNL     1      -6.598  28.950  43.319  1.00  0.00     0.000 C 
BRANCH   4   5
ATOM      5  C   UNL     1      -7.458  27.677  43.410  1.00  0.00     0.000 C 
BRANCH   5   6
ATOM      6  C   UNL     1      -8.358  27.590  44.658  1.00  0.00     0.000 C 
BRANCH   6   7
ATOM      7  C   UNL     1      -9.861  27.763  44.356  1.00  0.00     0.000 C 
BRANCH   7   8
ATOM      8  C   UNL     1     -10.164  27.771  42.850  1.00  0.00     0.000 C 
BRANCH   8   9
ATOM      9  C   UNL     1     -11.643  27.480  42.534  1.00  0.00     0.000 C 
BRANCH   9  10
ATOM     10  C   UNL     1     -11.970  26.001  42.234  1.00  0.00     0.006 C 
BRANCH  10  11
ATOM     11  C   UNL     1     -10.813  25.201  41.611  1.00  0.00     0.053 C 
BRANCH  11  12
ATOM     12  C   UNL     1     -11.084  23.728  41.618  1.00  0.00     0.041 C 
ATOM     13  O   UNL     1     -11.958  23.248  42.388  1.00  0.00    -0.550 OA
ATOM     14  O   UNL     1     -10.344  22.878  40.806  1.00  0.00    -0.550 OA
ENDBRANCH  11  12
ENDBRANCH  10  11
ENDBRANCH   9  10
ENDBRANCH   8   9
ENDBRANCH   7   8
ENDBRANCH   6   7
ENDBRANCH   5   6
ENDBRANCH   4   5
ENDBRANCH   3   4
ENDBRANCH   2   3
ENDBRANCH   1   2
BRANCH   1  15
ATOM     15  C   UNL     1      -8.643  31.873  44.239  1.00  0.00     0.000 C 
BRANCH  15  16
ATOM     16  C   UNL     1      -8.199  31.967  45.706  1.00  0.00     0.000 C 
BRANCH  16  17
ATOM     17  C   UNL     1      -8.190  30.580  46.369  1.00  0.00     0.000 C 
BRANCH  17  18
ATOM     18  C   UNL     1      -7.020  30.393  47.348  1.00  0.00    -0.000 C 
BRANCH  18  19
ATOM     19  C   UNL     1      -5.941  29.392  46.891  1.00  0.00    -0.000 C 
BRANCH  19  20
ATOM     20  C   UNL     1      -4.532  30.008  46.756  1.00  0.00    -0.000 C 
BRANCH  20  21
ATOM     21  C   UNL     1      -4.505  31.203  45.787  1.00  0.00    -0.000 C 
BRANCH  21  22
ATOM     22  C   UNL     1      -3.918  32.473  46.428  1.00  0.00    -0.000 C 
BRANCH  22  23
ATOM     23  C   UNL     1      -4.993  33.536  46.715  1.00  0.00    -0.000 C 
BRANCH  23  24
ATOM     24  C   UNL     1      -4.965  34.030  48.171  1.00  0.00    -0.000 C 
BRANCH  24  25
ATOM     25  C   UNL     1      -6.012  33.336  49.054  1.00  0.00    -0.003 C 
ATOM     26  C   UNL     1      -5.914  33.814  50.500  1.00  0.00     0.004 C 
ENDBRANCH  24  25
ENDBRANCH  23  24
ENDBRANCH  22  23
ENDBRANCH  21  22
ENDBRANCH  20  21
ENDBRANCH  19  20
ENDBRANCH  18  19
ENDBRANCH  17  18
ENDBRANCH  16  17
ENDBRANCH  15  16
ENDBRANCH   1  15
TORSDOF 22
ENDMDL
MODEL 3
REMARK VINA RESULT:    -3.795      2.851      6.916
REMARK INTER + INTRA:         -11.647
REMARK INTER:                  -8.911
REMARK INTRA:                  -2.736
REMARK UNBOUND:                -2.970
REMARK SMILES CCCCCCCCCCCCCCCCCCCCCCCC(=O)[O-]
REMARK SMILES IDX 13 1 14 2 15 3 16 4 17 5 18 6 19 7 20 8 21 9 22 10 23 11
REMARK SMILES IDX 24 12 25 13 26 14 12 15 11 16 10 17 9 18 8 19 7 20 6 21 5 22
REMARK SMILES IDX 4 23 3 24 2 25 1 26
REMARK H PARENT
REMARK Flexibility Score: inf
ROOT
ATOM      1  C   UNL     1     -21.007  23.251  34.663  1.00  0.00     0.000 C 
ENDROOT
BRANCH   1   2
ATOM      2  C   UNL     1     -20.899  21.843  35.270  1.00  0.00     0.000 C 
BRANCH   2   3
ATOM      3  C   UNL     1     -22.271  21.228  35.603  1.00  0.00     0.000 C 
BRANCH   3   4
ATOM      4  C   UNL     1     -22.593  21.107  37.108  1.00  0.00     0.000 C 
BRANCH   4   5
ATOM      5  C   UNL     1     -21.572  21.765  38.054  1.00  0.00     0.000 C 
BRANCH   5   6
ATOM      6  C   UNL     1     -22.133  22.174  39.430  1.00  0.00     0.000 C 
BRANCH   6   7
ATOM      7  C   UNL     1     -21.384  21.541  40.622  1.00  0.00     0.000 C 
BRANCH   7   8
ATOM      8  C   UNL     1     -19.954  22.084  40.776  1.00  0.00     0.000 C 
BRANCH   8   9
ATOM      9  C   UNL     1     -19.165  21.382  41.896  1.00  0.00     0.000 C 
BRANCH   9  10
ATOM     10  C   UNL     1     -18.821  19.901  41.627  1.00  0.00     0.006 C 
BRANCH  10  11
ATOM     11  C   UNL     1     -17.322  19.566  41.703  1.00  0.00     0.053 C 
BRANCH  11  12
ATOM     12  C   UNL     1     -17.077  18.088  41.692  1.00  0.00     0.041 C 
ATOM     13  O   UNL     1     -16.914  17.465  42.775  1.00  0.00    -0.550 OA
ATOM     14  O   UNL     1     -16.989  17.404  40.487  1.00  0.00    -0.550 OA
ENDBRANCH  11  12
ENDBRANCH  10  11
ENDBRANCH   9  10
ENDBRANCH   8   9
ENDBRANCH   7   8
ENDBRANCH   6   7
ENDBRANCH   5   6
ENDBRANCH   4   5
ENDBRANCH   3   4
ENDBRANCH   2   3
ENDBRANCH   1   2
BRANCH   1  15
ATOM     15  C   UNL     1     -19.685  23.734  34.045  1.00  0.00     0.000 C 
BRANCH  15  16
ATOM     16  C   UNL     1     -18.448  23.170  34.760  1.00  0.00     0.000 C 
BRANCH  16  17
ATOM     17  C   UNL     1     -17.639  24.294  35.428  1.00  0.00     0.000 C 
BRANCH  17  18
ATOM     18  C   UNL     1     -18.353  25.655  35.376  1.00  0.00    -0.000 C 
BRANCH  18  19
ATOM     19  C   UNL     1     -19.309  25.934  36.552  1.00  0.00    -0.000 C 
BRANCH  19  20
ATOM     20  C   UNL     1     -19.162  24.946  37.728  1.00  0.00    -0.000 C 
BRANCH  20  21
ATOM     21  C   UNL     1     -20.151  25.241  38.869  1.00  0.00    -0.000 C 
BRANCH  21  22
ATOM     22  C   UNL     1     -19.449  25.727  40.150  1.00  0.00    -0.000 C 
BRANCH  22  23
ATOM     23  C   UNL     1     -20.432  26.346  41.160  1.00  0.00    -0.000 C 
BRANCH  23  24
ATOM     24  C   UNL     1     -20.746  25.406  42.335  1.00  0.00    -0.000 C 
BRANCH  24  25
ATOM     25  C   UNL     1     -22.120  24.732  42.207  1.00  0.00    -0.003 C 
ATOM     26  C   UNL     1     -23.202  25.754  41.867  1.00  0.00     0.004 C 
ENDBRANCH  24  25
ENDBRANCH  23  24
ENDBRANCH  22  23
ENDBRANCH  21  22
ENDBRANCH  20  21
ENDBRANCH  19  20
ENDBRANCH  18  19
ENDBRANCH  17  18
ENDBRANCH  16  17
ENDBRANCH  15  16
ENDBRANCH   1  15
TORSDOF 22
ENDMDL
MODEL 4
REMARK VINA RESULT:    -3.758     13.946     16.327
REMARK INTER + INTRA:         -11.561
REMARK INTER:                  -8.204
REMARK INTRA:                  -3.357
REMARK UNBOUND:                -2.970
REMARK SMILES CCCCCCCCCCCCCCCCCCCCCCCC(=O)[O-]
REMARK SMILES IDX 13 1 14 2 15 3 16 4 17 5 18 6 19 7 20 8 21 9 22 10 23 11
REMARK SMILES IDX 24 12 25 13 26 14 12 15 11 16 10 17 9 18 8 19 7 20 6 21 5 22
REMARK SMILES IDX 4 23 3 24 2 25 1 26
REMARK H PARENT
REMARK Flexibility Score: inf
ROOT
ATOM      1  C   UNL     1      -6.137  29.956  47.267  1.00  0.00     0.000 C 
ENDROOT
BRANCH   1   2
ATOM      2  C   UNL     1      -7.338  30.835  46.883  1.00  0.00     0.000 C 
BRANCH   2   3
ATOM      3  C   UNL     1      -8.421  30.063  46.107  1.00  0.00     0.000 C 
BRANCH   3   4
ATOM      4  C   UNL     1      -8.720  30.592  44.688  1.00  0.00     0.000 C 
BRANCH   4   5
ATOM      5  C   UNL     1      -8.924  29.510  43.612  1.00  0.00     0.000 C 
BRANCH   5   6
ATOM      6  C   UNL     1      -9.118  28.082  44.157  1.00  0.00     0.000 C 
BRANCH   6   7
ATOM      7  C   UNL     1     -10.580  27.590  44.110  1.00  0.00     0.000 C 
BRANCH   7   8
ATOM      8  C   UNL     1     -10.910  26.843  42.808  1.00  0.00     0.000 C 
BRANCH   8   9
ATOM      9  C   UNL     1     -12.181  27.373  42.119  1.00  0.00     0.000 C 
BRANCH   9  10
ATOM     10  C   UNL     1     -12.657  26.553  40.901  1.00  0.00     0.006 C 
BRANCH  10  11
ATOM     11  C   UNL     1     -13.931  25.725  41.143  1.00  0.00     0.053 C 
BRANCH  11  12
ATOM     12  C   UNL     1     -13.741  24.285  40.777  1.00  0.00     0.041 C 
ATOM     13  O   UNL     1     -13.450  23.439  41.664  1.00  0.00    -0.550 OA
ATOM     14  O   UNL     1     -13.844  23.882  39.452  1.00  0.00    -0.550 OA
ENDBRANCH  11  12
ENDBRANCH  10  11
ENDBRANCH   9  10
ENDBRANCH   8   9
ENDBRANCH   7   8
ENDBRANCH   6   7
ENDBRANCH   5   6
ENDBRANCH   4   5
ENDBRANCH   3   4
ENDBRANCH   2   3
ENDBRANCH   1   2
BRANCH   1  15
ATOM     15  C   UNL     1      -6.098  28.631  46.488  1.00  0.00     0.000 C 
BRANCH  15  16
ATOM     16  C   UNL     1      -4.874  28.513  45.568  1.00  0.00     0.000 C 
BRANCH  16  17
ATOM     17  C   UNL     1      -5.285  28.617  44.091  1.00  0.00     0.000 C 
BRANCH  17  18
ATOM     18  C   UNL     1      -4.615  29.796  43.365  1.00  0.00    -0.000 C 
BRANCH  18  19
ATOM     19  C   UNL     1      -5.391  31.125  43.425  1.00  0.00    -0.000 C 
BRANCH  19  20
ATOM     20  C   UNL     1      -4.816  32.142  44.433  1.00  0.00    -0.000 C 
BRANCH  20  21
ATOM     21  C   UNL     1      -5.770  33.322  44.685  1.00  0.00    -0.000 C 
BRANCH  21  22
ATOM     22  C   UNL     1      -5.456  34.070  45.993  1.00  0.00    -0.000 C 
BRANCH  22  23
ATOM     23  C   UNL     1      -4.556  33.252  46.936  1.00  0.00    -0.000 C 
BRANCH  23  24
ATOM     24  C   UNL     1      -4.562  33.790  48.376  1.00  0.00    -0.000 C 
BRANCH  24  25
ATOM     25  C   UNL     1      -5.730  33.243  49.210  1.00  0.00    -0.003 C 
ATOM     26  C   UNL     1      -6.459  34.368  49.938  1.00  0.00     0.004 C 
ENDBRANCH  24  25
ENDBRANCH  23  24
ENDBRANCH  22  23
ENDBRANCH  21  22
ENDBRANCH  20  21
ENDBRANCH  19  20
ENDBRANCH  18  19
ENDBRANCH  17  18
ENDBRANCH  16  17
ENDBRANCH  15  16
ENDBRANCH   1  15
TORSDOF 22
ENDMDL
MODEL 5
REMARK VINA RESULT:    -3.688     13.743     16.376
REMARK INTER + INTRA:         -11.400
REMARK INTER:                  -6.406
REMARK INTRA:                  -4.994
REMARK UNBOUND:                -2.970
REMARK SMILES CCCCCCCCCCCCCCCCCCCCCCCC(=O)[O-]
REMARK SMILES IDX 13 1 14 2 15 3 16 4 17 5 18 6 19 7 20 8 21 9 22 10 23 11
REMARK SMILES IDX 24 12 25 13 26 14 12 15 11 16 10 17 9 18 8 19 7 20 6 21 5 22
REMARK SMILES IDX 4 23 3 24 2 25 1 26
REMARK H PARENT
REMARK Flexibility Score: inf
ROOT
ATOM      1  C   UNL     1      -7.984  27.421  45.124  1.00  0.00     0.000 C 
ENDROOT
BRANCH   1   2
ATOM      2  C   UNL     1      -6.818  26.923  45.993  1.00  0.00     0.000 C 
BRANCH   2   3
ATOM      3  C   UNL     1      -5.449  27.429  45.503  1.00  0.00     0.000 C 
BRANCH   3   4
ATOM      4  C   UNL     1      -4.518  26.349  44.912  1.00  0.00     0.000 C 
BRANCH   4   5
ATOM      5  C   UNL     1      -4.171  26.524  43.423  1.00  0.00     0.000 C 
BRANCH   5   6
ATOM      6  C   UNL     1      -5.119  27.453  42.641  1.00  0.00     0.000 C 
BRANCH   6   7
ATOM      7  C   UNL     1      -5.799  26.775  41.432  1.00  0.00     0.000 C 
BRANCH   7   8
ATOM      8  C   UNL     1      -7.321  26.646  41.606  1.00  0.00     0.000 C 
BRANCH   8   9
ATOM      9  C   UNL     1      -8.092  27.850  41.035  1.00  0.00     0.000 C 
BRANCH   9  10
ATOM     10  C   UNL     1      -9.549  27.988  41.528  1.00  0.00     0.006 C 
BRANCH  10  11
ATOM     11  C   UNL     1     -10.164  26.693  42.084  1.00  0.00     0.053 C 
BRANCH  11  12
ATOM     12  C   UNL     1     -11.357  26.966  42.949  1.00  0.00     0.041 C 
ATOM     13  O   UNL     1     -11.202  27.384  44.127  1.00  0.00    -0.550 OA
ATOM     14  O   UNL     1     -12.637  26.721  42.470  1.00  0.00    -0.550 OA
ENDBRANCH  11  12
ENDBRANCH  10  11
ENDBRANCH   9  10
ENDBRANCH   8   9
ENDBRANCH   7   8
ENDBRANCH   6   7
ENDBRANCH   5   6
ENDBRANCH   4   5
ENDBRANCH   3   4
ENDBRANCH   2   3
ENDBRANCH   1   2
BRANCH   1  15
ATOM     15  C   UNL     1      -7.777  28.858  44.619  1.00  0.00     0.000 C 
BRANCH  15  16
ATOM     16  C   UNL     1      -8.834  29.838  45.150  1.00  0.00     0.000 C 
BRANCH  16  17
ATOM     17  C   UNL     1      -8.171  31.022  45.873  1.00  0.00     0.000 C 
BRANCH  17  18
ATOM     18  C   UNL     1      -7.603  30.639  47.249  1.00  0.00    -0.000 C 
BRANCH  18  19
ATOM     19  C   UNL     1      -6.073  30.767  47.381  1.00  0.00    -0.000 C 
BRANCH  19  20
ATOM     20  C   UNL     1      -5.424  31.664  46.306  1.00  0.00    -0.000 C 
BRANCH  20  21
ATOM     21  C   UNL     1      -4.191  31.007  45.661  1.00  0.00    -0.000 C 
BRANCH  21  22
ATOM     22  C   UNL     1      -4.438  30.591  44.200  1.00  0.00    -0.000 C 
BRANCH  22  23
ATOM     23  C   UNL     1      -5.200  31.665  43.403  1.00  0.00    -0.000 C 
BRANCH  23  24
ATOM     24  C   UNL     1      -5.758  31.132  42.073  1.00  0.00    -0.000 C 
BRANCH  24  25
ATOM     25  C   UNL     1      -7.275  31.337  41.942  1.00  0.00    -0.003 C 
ATOM     26  C   UNL     1      -7.713  32.638  42.608  1.00  0.00     0.004 C 
ENDBRANCH  24  25
ENDBRANCH  23  24
ENDBRANCH  22  23
ENDBRANCH  21  22
ENDBRANCH  20  21
ENDBRANCH  19  20
ENDBRANCH  18  19
ENDBRANCH  17  18
ENDBRANCH  16  17
ENDBRANCH  15  16
ENDBRANCH   1  15
TORSDOF 22
ENDMDL
MODEL 6
REMARK VINA RESULT:    -3.659     15.410     17.824
REMARK INTER + INTRA:         -11.335
REMARK INTER:                  -6.398
REMARK INTRA:                  -4.936
REMARK UNBOUND:                -2.970
REMARK SMILES CCCCCCCCCCCCCCCCCCCCCCCC(=O)[O-]
REMARK SMILES IDX 13 1 14 2 15 3 16 4 17 5 18 6 19 7 20 8 21 9 22 10 23 11
REMARK SMILES IDX 24 12 25 13 26 14 12 15 11 16 10 17 9 18 8 19 7 20 6 21 5 22
REMARK SMILES IDX 4 23 3 24 2 25 1 26
REMARK H PARENT
REMARK Flexibility Score: inf
ROOT
ATOM      1  C   UNL     1      -7.515  30.982  46.879  1.00  0.00     0.000 C 
ENDROOT
BRANCH   1   2
ATOM      2  C   UNL     1      -7.808  31.186  45.384  1.00  0.00     0.000 C 
BRANCH   2   3
ATOM      3  C   UNL     1      -8.722  32.395  45.113  1.00  0.00     0.000 C 
BRANCH   3   4
ATOM      4  C   UNL     1      -9.177  32.564  43.647  1.00  0.00     0.000 C 
BRANCH   4   5
ATOM      5  C   UNL     1      -8.086  32.321  42.588  1.00  0.00     0.000 C 
BRANCH   5   6
ATOM      6  C   UNL     1      -8.348  31.127  41.649  1.00  0.00     0.000 C 
BRANCH   6   7
ATOM      7  C   UNL     1      -9.251  30.037  42.265  1.00  0.00     0.000 C 
BRANCH   7   8
ATOM      8  C   UNL     1      -8.555  28.669  42.344  1.00  0.00     0.000 C 
BRANCH   8   9
ATOM      9  C   UNL     1      -8.768  27.967  43.698  1.00  0.00     0.000 C 
BRANCH   9  10
ATOM     10  C   UNL     1      -7.527  27.244  44.264  1.00  0.00     0.006 C 
BRANCH  10  11
ATOM     11  C   UNL     1      -7.281  27.469  45.765  1.00  0.00     0.053 C 
BRANCH  11  12
ATOM     12  C   UNL     1      -5.834  27.317  46.125  1.00  0.00     0.041 C 
ATOM     13  O   UNL     1      -5.195  26.295  45.758  1.00  0.00    -0.550 OA
ATOM     14  O   UNL     1      -5.202  28.282  46.899  1.00  0.00    -0.550 OA
ENDBRANCH  11  12
ENDBRANCH  10  11
ENDBRANCH   9  10
ENDBRANCH   8   9
ENDBRANCH   7   8
ENDBRANCH   6   7
ENDBRANCH   5   6
ENDBRANCH   4   5
ENDBRANCH   3   4
ENDBRANCH   2   3
ENDBRANCH   1   2
BRANCH   1  15
ATOM     15  C   UNL     1      -6.945  32.242  47.550  1.00  0.00     0.000 C 
BRANCH  15  16
ATOM     16  C   UNL     1      -5.413  32.220  47.661  1.00  0.00     0.000 C 
BRANCH  16  17
ATOM     17  C   UNL     1      -4.810  33.559  47.207  1.00  0.00     0.000 C 
BRANCH  17  18
ATOM     18  C   UNL     1      -5.797  34.415  46.396  1.00  0.00    -0.000 C 
BRANCH  18  19
ATOM     19  C   UNL     1      -5.580  34.393  44.871  1.00  0.00    -0.000 C 
BRANCH  19  20
ATOM     20  C   UNL     1      -4.302  33.646  44.431  1.00  0.00    -0.000 C 
BRANCH  20  21
ATOM     21  C   UNL     1      -4.612  32.284  43.787  1.00  0.00    -0.000 C 
BRANCH  21  22
ATOM     22  C   UNL     1      -3.933  31.113  44.521  1.00  0.00    -0.000 C 
BRANCH  22  23
ATOM     23  C   UNL     1      -4.265  29.751  43.887  1.00  0.00    -0.000 C 
BRANCH  23  24
ATOM     24  C   UNL     1      -5.074  29.882  42.586  1.00  0.00    -0.000 C 
BRANCH  24  25
ATOM     25  C   UNL     1      -4.820  28.725  41.610  1.00  0.00    -0.003 C 
ATOM     26  C   UNL     1      -4.430  27.452  42.357  1.00  0.00     0.004 C 
ENDBRANCH  24  25
ENDBRANCH  23  24
ENDBRANCH  22  23
ENDBRANCH  21  22
ENDBRANCH  20  21
ENDBRANCH  19  20
ENDBRANCH  18  19
ENDBRANCH  17  18
ENDBRANCH  16  17
ENDBRANCH  15  16
ENDBRANCH   1  15
TORSDOF 22
ENDMDL
MODEL 7
REMARK VINA RESULT:    -3.655     13.642     16.105
REMARK INTER + INTRA:         -11.326
REMARK INTER:                  -7.434
REMARK INTRA:                  -3.892
REMARK UNBOUND:                -2.970
REMARK SMILES CCCCCCCCCCCCCCCCCCCCCCCC(=O)[O-]
REMARK SMILES IDX 13 1 14 2 15 3 16 4 17 5 18 6 19 7 20 8 21 9 22 10 23 11
REMARK SMILES IDX 24 12 25 13 26 14 12 15 11 16 10 17 9 18 8 19 7 20 6 21 5 22
REMARK SMILES IDX 4 23 3 24 2 25 1 26
REMARK H PARENT
REMARK Flexibility Score: inf
ROOT
ATOM      1  C   UNL     1      -5.956  25.942  43.401  1.00  0.00     0.000 C 
ENDROOT
BRANCH   1   2
ATOM      2  C   UNL     1      -5.483  26.898  42.293  1.00  0.00     0.000 C 
BRANCH   2   3
ATOM      3  C   UNL     1      -5.817  28.371  42.593  1.00  0.00     0.000 C 
BRANCH   3   4
ATOM      4  C   UNL     1      -7.314  28.739  42.511  1.00  0.00     0.000 C 
BRANCH   4   5
ATOM      5  C   UNL     1      -7.814  29.706  43.599  1.00  0.00     0.000 C 
BRANCH   5   6
ATOM      6  C   UNL     1      -8.820  29.097  44.596  1.00  0.00     0.000 C 
BRANCH   6   7
ATOM      7  C   UNL     1      -9.218  27.642  44.269  1.00  0.00     0.000 C 
BRANCH   7   8
ATOM      8  C   UNL     1     -10.696  27.509  43.871  1.00  0.00     0.000 C 
BRANCH   8   9
ATOM      9  C   UNL     1     -10.950  27.848  42.390  1.00  0.00     0.000 C 
BRANCH   9  10
ATOM     10  C   UNL     1     -10.739  26.678  41.405  1.00  0.00     0.006 C 
BRANCH  10  11
ATOM     11  C   UNL     1     -11.133  25.297  41.954  1.00  0.00     0.053 C 
BRANCH  11  12
ATOM     12  C   UNL     1     -12.475  24.856  41.454  1.00  0.00     0.041 C 
ATOM     13  O   UNL     1     -13.109  25.569  40.632  1.00  0.00    -0.550 OA
ATOM     14  O   UNL     1     -13.043  23.680  41.924  1.00  0.00    -0.550 OA
ENDBRANCH  11  12
ENDBRANCH  10  11
ENDBRANCH   9  10
ENDBRANCH   8   9
ENDBRANCH   7   8
ENDBRANCH   6   7
ENDBRANCH   5   6
ENDBRANCH   4   5
ENDBRANCH   3   4
ENDBRANCH   2   3
ENDBRANCH   1   2
BRANCH   1  15
ATOM     15  C   UNL     1      -5.162  26.108  44.707  1.00  0.00     0.000 C 
BRANCH  15  16
ATOM     16  C   UNL     1      -6.059  26.138  45.953  1.00  0.00     0.000 C 
BRANCH  16  17
ATOM     17  C   UNL     1      -6.218  27.572  46.481  1.00  0.00     0.000 C 
BRANCH  17  18
ATOM     18  C   UNL     1      -4.934  28.406  46.342  1.00  0.00    -0.000 C 
BRANCH  18  19
ATOM     19  C   UNL     1      -5.054  29.870  46.807  1.00  0.00    -0.000 C 
BRANCH  19  20
ATOM     20  C   UNL     1      -6.504  30.324  47.083  1.00  0.00    -0.000 C 
BRANCH  20  21
ATOM     21  C   UNL     1      -6.587  31.804  47.495  1.00  0.00    -0.000 C 
BRANCH  21  22
ATOM     22  C   UNL     1      -5.203  32.464  47.616  1.00  0.00    -0.000 C 
BRANCH  22  23
ATOM     23  C   UNL     1      -5.026  33.644  46.644  1.00  0.00    -0.000 C 
BRANCH  23  24
ATOM     24  C   UNL     1      -4.233  33.260  45.384  1.00  0.00    -0.000 C 
BRANCH  24  25
ATOM     25  C   UNL     1      -5.139  32.847  44.215  1.00  0.00    -0.003 C 
ATOM     26  C   UNL     1      -4.581  31.622  43.495  1.00  0.00     0.004 C 
ENDBRANCH  24  25
ENDBRANCH  23  24
ENDBRANCH  22  23
ENDBRANCH  21  22
ENDBRANCH  20  21
ENDBRANCH  19  20
ENDBRANCH  18  19
ENDBRANCH  17  18
ENDBRANCH  16  17
ENDBRANCH  15  16
ENDBRANCH   1  15
TORSDOF 22
ENDMDL
MODEL 8
REMARK VINA RESULT:    -3.651     14.701     17.477
REMARK INTER + INTRA:         -11.317
REMARK INTER:                  -7.247
REMARK INTRA:                  -4.070
REMARK UNBOUND:                -2.970
REMARK SMILES CCCCCCCCCCCCCCCCCCCCCCCC(=O)[O-]
REMARK SMILES IDX 13 1 14 2 15 3 16 4 17 5 18 6 19 7 20 8 21 9 22 10 23 11
REMARK SMILES IDX 24 12 25 13 26 14 12 15 11 16 10 17 9 18 8 19 7 20 6 21 5 22
REMARK SMILES IDX 4 23 3 24 2 25 1 26
REMARK H PARENT
REMARK Flexibility Score: inf
ROOT
ATOM      1  C   UNL     1      -6.162  26.685  44.856  1.00  0.00     0.000 C 
ENDROOT
BRANCH   1   2
ATOM      2  C   UNL     1      -6.173  27.311  46.260  1.00  0.00     0.000 C 
BRANCH   2   3
ATOM      3  C   UNL     1      -4.979  28.254  46.504  1.00  0.00     0.000 C 
BRANCH   3   4
ATOM      4  C   UNL     1      -5.350  29.709  46.862  1.00  0.00     0.000 C 
BRANCH   4   5
ATOM      5  C   UNL     1      -6.834  29.947  47.195  1.00  0.00     0.000 C 
BRANCH   5   6
ATOM      6  C   UNL     1      -7.605  30.785  46.156  1.00  0.00     0.000 C 
BRANCH   6   7
ATOM      7  C   UNL     1      -8.938  30.148  45.708  1.00  0.00     0.000 C 
BRANCH   7   8
ATOM      8  C   UNL     1      -8.793  29.321  44.421  1.00  0.00     0.000 C 
BRANCH   8   9
ATOM      9  C   UNL     1      -9.427  27.922  44.534  1.00  0.00     0.000 C 
BRANCH   9  10
ATOM     10  C   UNL     1     -10.471  27.586  43.448  1.00  0.00     0.006 C 
BRANCH  10  11
ATOM     11  C   UNL     1     -10.407  28.479  42.198  1.00  0.00     0.053 C 
BRANCH  11  12
ATOM     12  C   UNL     1     -11.497  28.153  41.221  1.00  0.00     0.041 C 
ATOM     13  O   UNL     1     -12.581  28.793  41.247  1.00  0.00    -0.550 OA
ATOM     14  O   UNL     1     -11.331  27.119  40.309  1.00  0.00    -0.550 OA
ENDBRANCH  11  12
ENDBRANCH  10  11
ENDBRANCH   9  10
ENDBRANCH   8   9
ENDBRANCH   7   8
ENDBRANCH   6   7
ENDBRANCH   5   6
ENDBRANCH   4   5
ENDBRANCH   3   4
ENDBRANCH   2   3
ENDBRANCH   1   2
BRANCH   1  15
ATOM     15  C   UNL     1      -5.107  27.316  43.933  1.00  0.00     0.000 C 
BRANCH  15  16
ATOM     16  C   UNL     1      -5.705  28.325  42.941  1.00  0.00     0.000 C 
BRANCH  16  17
ATOM     17  C   UNL     1      -4.766  29.526  42.745  1.00  0.00     0.000 C 
BRANCH  17  18
ATOM     18  C   UNL     1      -5.330  30.828  43.336  1.00  0.00    -0.000 C 
BRANCH  18  19
ATOM     19  C   UNL     1      -4.285  31.756  43.985  1.00  0.00    -0.000 C 
BRANCH  19  20
ATOM     20  C   UNL     1      -4.859  33.105  44.468  1.00  0.00    -0.000 C 
BRANCH  20  21
ATOM     21  C   UNL     1      -6.351  33.264  44.126  1.00  0.00    -0.000 C 
BRANCH  21  22
ATOM     22  C   UNL     1      -7.075  34.238  45.071  1.00  0.00    -0.000 C 
BRANCH  22  23
ATOM     23  C   UNL     1      -6.107  34.963  46.023  1.00  0.00    -0.000 C 
BRANCH  23  24
ATOM     24  C   UNL     1      -6.449  34.737  47.504  1.00  0.00    -0.000 C 
BRANCH  24  25
ATOM     25  C   UNL     1      -5.915  33.400  48.039  1.00  0.00    -0.003 C 
ATOM     26  C   UNL     1      -4.418  33.484  48.329  1.00  0.00     0.004 C 
ENDBRANCH  24  25
ENDBRANCH  23  24
ENDBRANCH  22  23
ENDBRANCH  21  22
ENDBRANCH  20  21
ENDBRANCH  19  20
ENDBRANCH  18  19
ENDBRANCH  17  18
ENDBRANCH  16  17
ENDBRANCH  15  16
ENDBRANCH   1  15
TORSDOF 22
ENDMDL
MODEL 9
REMARK VINA RESULT:    -3.619     14.365     17.077
REMARK INTER + INTRA:         -11.243
REMARK INTER:                  -6.593
REMARK INTRA:                  -4.651
REMARK UNBOUND:                -2.970
REMARK SMILES CCCCCCCCCCCCCCCCCCCCCCCC(=O)[O-]
REMARK SMILES IDX 13 1 14 2 15 3 16 4 17 5 18 6 19 7 20 8 21 9 22 10 23 11
REMARK SMILES IDX 24 12 25 13 26 14 12 15 11 16 10 17 9 18 8 19 7 20 6 21 5 22
REMARK SMILES IDX 4 23 3 24 2 25 1 26
REMARK H PARENT
REMARK Flexibility Score: inf
ROOT
ATOM      1  C   UNL     1      -8.351  29.744  45.705  1.00  0.00     0.000 C 
ENDROOT
BRANCH   1   2
ATOM      2  C   UNL     1      -7.303  28.809  45.080  1.00  0.00     0.000 C 
BRANCH   2   3
ATOM      3  C   UNL     1      -7.258  27.425  45.755  1.00  0.00     0.000 C 
BRANCH   3   4
ATOM      4  C   UNL     1      -5.851  26.932  46.155  1.00  0.00     0.000 C 
BRANCH   4   5
ATOM      5  C   UNL     1      -4.957  26.478  44.988  1.00  0.00     0.000 C 
BRANCH   5   6
ATOM      6  C   UNL     1      -5.583  25.412  44.067  1.00  0.00     0.000 C 
BRANCH   6   7
ATOM      7  C   UNL     1      -5.062  25.459  42.615  1.00  0.00     0.000 C 
BRANCH   7   8
ATOM      8  C   UNL     1      -5.221  26.846  41.975  1.00  0.00     0.000 C 
BRANCH   8   9
ATOM      9  C   UNL     1      -6.479  26.958  41.094  1.00  0.00     0.000 C 
BRANCH   9  10
ATOM     10  C   UNL     1      -7.664  27.711  41.736  1.00  0.00     0.006 C 
BRANCH  10  11
ATOM     11  C   UNL     1      -8.715  26.807  42.402  1.00  0.00     0.053 C 
BRANCH  11  12
ATOM     12  C   UNL     1      -9.977  27.551  42.716  1.00  0.00     0.041 C 
ATOM     13  O   UNL     1      -9.995  28.810  42.680  1.00  0.00    -0.550 OA
ATOM     14  O   UNL     1     -11.122  26.858  43.087  1.00  0.00    -0.550 OA
ENDBRANCH  11  12
ENDBRANCH  10  11
ENDBRANCH   9  10
ENDBRANCH   8   9
ENDBRANCH   7   8
ENDBRANCH   6   7
ENDBRANCH   5   6
ENDBRANCH   4   5
ENDBRANCH   3   4
ENDBRANCH   2   3
ENDBRANCH   1   2
BRANCH   1  15
ATOM     15  C   UNL     1      -7.848  30.427  46.988  1.00  0.00     0.000 C 
BRANCH  15  16
ATOM     16  C   UNL     1      -7.278  31.830  46.735  1.00  0.00     0.000 C 
BRANCH  16  17
ATOM     17  C   UNL     1      -6.079  32.110  47.655  1.00  0.00     0.000 C 
BRANCH  17  18
ATOM     18  C   UNL     1      -4.728  31.952  46.939  1.00  0.00    -0.000 C 
BRANCH  18  19
ATOM     19  C   UNL     1      -4.164  30.519  46.920  1.00  0.00    -0.000 C 
BRANCH  19  20
ATOM     20  C   UNL     1      -3.875  29.978  45.504  1.00  0.00    -0.000 C 
BRANCH  20  21
ATOM     21  C   UNL     1      -4.341  30.944  44.401  1.00  0.00    -0.000 C 
BRANCH  21  22
ATOM     22  C   UNL     1      -4.872  30.211  43.156  1.00  0.00    -0.000 C 
BRANCH  22  23
ATOM     23  C   UNL     1      -5.808  31.092  42.310  1.00  0.00    -0.000 C 
BRANCH  23  24
ATOM     24  C   UNL     1      -6.546  32.149  43.148  1.00  0.00    -0.000 C 
BRANCH  24  25
ATOM     25  C   UNL     1      -7.848  32.627  42.487  1.00  0.00    -0.003 C 
ATOM     26  C   UNL     1      -9.064  32.229  43.320  1.00  0.00     0.004 C 
ENDBRANCH  24  25
ENDBRANCH  23  24
ENDBRANCH  22  23
ENDBRANCH  21  22
ENDBRANCH  20  21
ENDBRANCH  19  20
ENDBRANCH  18  19
ENDBRANCH  17  18
ENDBRANCH  16  17
ENDBRANCH  15  16
ENDBRANCH   1  15
TORSDOF 22
ENDMDL
