MODEL 1
REMARK VINA RESULT:    -6.771      0.000      0.000
REMARK INTER + INTRA:          -7.166
REMARK INTER:                  -7.166
REMARK INTRA:                   0.000
REMARK UNBOUND:                 0.000
REMARK SMILES O=c1ccc2cc(O)c(O)cc2o1
REMARK SMILES IDX 4 1 3 2 2 3 1 4 13 5 12 6 11 7 9 8 7 9 6 10 5 11 8 12 10 14
REMARK H PARENT 8 13 10 15
REMARK Flexibility Score: inf
ROOT
ATOM      1  C   UNL     1       6.007   5.785   9.359  1.00  0.00     0.019 A 
ATOM      2  C   UNL     1       6.253   7.091   9.782  1.00  0.00     0.094 A 
ATOM      3  C   UNL     1       7.189   7.309  10.798  1.00  0.00     0.336 A 
ATOM      4  O   UNL     1       7.425   8.480  11.195  1.00  0.00    -0.246 OA
ATOM      5  O   UNL     1       7.833   6.285  11.353  1.00  0.00    -0.423 OA
ATOM      6  C   UNL     1       7.628   5.023  10.978  1.00  0.00     0.142 A 
ATOM      7  C   UNL     1       8.334   3.988  11.597  1.00  0.00     0.098 A 
ATOM      8  C   UNL     1       8.124   2.659  11.210  1.00  0.00     0.161 A 
ATOM      9  C   UNL     1       7.198   2.362  10.194  1.00  0.00     0.158 A 
ATOM     10  C   UNL     1       6.487   3.398   9.570  1.00  0.00     0.062 A 
ATOM     11  C   UNL     1       6.698   4.728   9.958  1.00  0.00     0.022 A 
ENDROOT
BRANCH   9  12
ATOM     12  O   UNL     1       6.988   1.039   9.807  1.00  0.00    -0.504 OA
ATOM     13  H   UNL     1       7.126   0.737   8.849  1.00  0.00     0.293 HD
ENDBRANCH   9  12
BRANCH   8  14
ATOM     14  O   UNL     1       8.844   1.648  11.846  1.00  0.00    -0.504 OA
ATOM     15  H   UNL     1       8.826   1.524  12.851  1.00  0.00     0.293 HD
ENDBRANCH   8  14
TORSDOF 2
ENDMDL
MODEL 2
REMARK VINA RESULT:    -6.609      1.100      2.257
REMARK INTER + INTRA:          -6.995
REMARK INTER:                  -6.995
REMARK INTRA:                   0.000
REMARK UNBOUND:                 0.000
REMARK SMILES O=c1ccc2cc(O)c(O)cc2o1
REMARK SMILES IDX 4 1 3 2 2 3 1 4 13 5 12 6 11 7 9 8 7 9 6 10 5 11 8 12 10 14
REMARK H PARENT 8 13 10 15
REMARK Flexibility Score: inf
ROOT
ATOM      1  C   UNL     1       8.010   6.052  11.499  1.00  0.00     0.019 A 
ATOM      2  C   UNL     1       7.358   7.116  10.876  1.00  0.00     0.094 A 
ATOM      3  C   UNL     1       6.472   6.848   9.827  1.00  0.00     0.336 A 
ATOM      4  O   UNL     1       5.875   7.794   9.251  1.00  0.00    -0.246 OA
ATOM      5  O   UNL     1       6.255   5.596   9.432  1.00  0.00    -0.423 OA
ATOM      6  C   UNL     1       6.856   4.551  10.000  1.00  0.00     0.142 A 
ATOM      7  C   UNL     1       6.589   3.258   9.541  1.00  0.00     0.098 A 
ATOM      8  C   UNL     1       7.216   2.155  10.132  1.00  0.00     0.161 A 
ATOM      9  C   UNL     1       8.120   2.346  11.193  1.00  0.00     0.158 A 
ATOM     10  C   UNL     1       8.391   3.643  11.656  1.00  0.00     0.062 A 
ATOM     11  C   UNL     1       7.763   4.746  11.064  1.00  0.00     0.022 A 
ENDROOT
BRANCH   9  12
ATOM     12  O   UNL     1       8.746   1.249  11.783  1.00  0.00    -0.504 OA
ATOM     13  H   UNL     1       9.178   0.521  11.226  1.00  0.00     0.293 HD
ENDBRANCH   9  12
BRANCH   8  14
ATOM     14  O   UNL     1       6.928   0.877   9.653  1.00  0.00    -0.504 OA
ATOM     15  H   UNL     1       7.414   0.478   8.859  1.00  0.00     0.293 HD
ENDBRANCH   8  14
TORSDOF 2
ENDMDL
MODEL 3
REMARK VINA RESULT:    -6.570      1.139      4.498
REMARK INTER + INTRA:          -6.954
REMARK INTER:                  -6.954
REMARK INTRA:                   0.000
REMARK UNBOUND:                 0.000
REMARK SMILES O=c1ccc2cc(O)c(O)cc2o1
REMARK SMILES IDX 4 1 3 2 2 3 1 4 13 5 12 6 11 7 9 8 7 9 6 10 5 11 8 12 10 14
REMARK H PARENT 8 13 10 15
REMARK Flexibility Score: inf
ROOT
ATOM      1  C   UNL     1       6.693   2.657   9.619  1.00  0.00     0.019 A 
ATOM      2  C   UNL     1       7.380   1.622  10.254  1.00  0.00     0.094 A 
ATOM      3  C   UNL     1       8.303   1.936  11.256  1.00  0.00     0.336 A 
ATOM      4  O   UNL     1       8.933   1.016  11.840  1.00  0.00    -0.246 OA
ATOM      5  O   UNL     1       8.522   3.203  11.598  1.00  0.00    -0.423 OA
ATOM      6  C   UNL     1       7.888   4.221  11.019  1.00  0.00     0.142 A 
ATOM      7  C   UNL     1       8.159   5.532  11.420  1.00  0.00     0.098 A 
ATOM      8  C   UNL     1       7.497   6.608  10.815  1.00  0.00     0.161 A 
ATOM      9  C   UNL     1       6.554   6.370   9.798  1.00  0.00     0.158 A 
ATOM     10  C   UNL     1       6.280   5.055   9.393  1.00  0.00     0.062 A 
ATOM     11  C   UNL     1       6.942   3.979   9.999  1.00  0.00     0.022 A 
ENDROOT
BRANCH   9  12
ATOM     12  O   UNL     1       5.894   7.440   9.195  1.00  0.00    -0.504 OA
ATOM     13  H   UNL     1       6.121   8.401   9.423  1.00  0.00     0.293 HD
ENDBRANCH   9  12
BRANCH   8  14
ATOM     14  O   UNL     1       7.789   7.904  11.237  1.00  0.00    -0.504 OA
ATOM     15  H   UNL     1       8.519   8.459  10.807  1.00  0.00     0.293 HD
ENDBRANCH   8  14
TORSDOF 2
ENDMDL
MODEL 4
REMARK VINA RESULT:    -5.960      1.140      5.045
REMARK INTER + INTRA:          -6.308
REMARK INTER:                  -6.308
REMARK INTRA:                   0.000
REMARK UNBOUND:                 0.000
REMARK SMILES O=c1ccc2cc(O)c(O)cc2o1
REMARK SMILES IDX 4 1 3 2 2 3 1 4 13 5 12 6 11 7 9 8 7 9 6 10 5 11 8 12 10 14
REMARK H PARENT 8 13 10 15
REMARK Flexibility Score: inf
ROOT
ATOM      1  C   UNL     1       8.446   3.760  11.584  1.00  0.00     0.019 A 
ATOM      2  C   UNL     1       8.119   2.500  11.084  1.00  0.00     0.094 A 
ATOM      3  C   UNL     1       7.174   2.402  10.058  1.00  0.00     0.336 A 
ATOM      4  O   UNL     1       6.865   1.273   9.593  1.00  0.00    -0.246 OA
ATOM      5  O   UNL     1       6.595   3.496   9.568  1.00  0.00    -0.423 OA
ATOM      6  C   UNL     1       6.879   4.717  10.016  1.00  0.00     0.142 A 
ATOM      7  C   UNL     1       6.239   5.830   9.463  1.00  0.00     0.098 A 
ATOM      8  C   UNL     1       6.530   7.117   9.929  1.00  0.00     0.161 A 
ATOM      9  C   UNL     1       7.472   7.295  10.959  1.00  0.00     0.158 A 
ATOM     10  C   UNL     1       8.116   6.180  11.517  1.00  0.00     0.062 A 
ATOM     11  C   UNL     1       7.824   4.892  11.050  1.00  0.00     0.022 A 
ENDROOT
BRANCH   9  12
ATOM     12  O   UNL     1       7.764   8.576  11.424  1.00  0.00    -0.504 OA
ATOM     13  H   UNL     1       8.485   9.146  10.996  1.00  0.00     0.293 HD
ENDBRANCH   9  12
BRANCH   8  14
ATOM     14  O   UNL     1       5.876   8.208   9.356  1.00  0.00    -0.504 OA
ATOM     15  H   UNL     1       6.326   8.808   8.675  1.00  0.00     0.293 HD
ENDBRANCH   8  14
TORSDOF 2
ENDMDL
MODEL 5
REMARK VINA RESULT:    -5.296     11.770     13.734
REMARK INTER + INTRA:          -5.605
REMARK INTER:                  -5.605
REMARK INTRA:                   0.000
REMARK UNBOUND:                 0.000
REMARK SMILES O=c1ccc2cc(O)c(O)cc2o1
REMARK SMILES IDX 4 1 3 2 2 3 1 4 13 5 12 6 11 7 9 8 7 9 6 10 5 11 8 12 10 14
REMARK H PARENT 8 13 10 15
REMARK Flexibility Score: inf
ROOT
ATOM      1  C   UNL     1      11.974  -4.465  19.737  1.00  0.00     0.019 A 
ATOM      2  C   UNL     1      11.881  -3.087  19.541  1.00  0.00     0.094 A 
ATOM      3  C   UNL     1      10.622  -2.515  19.334  1.00  0.00     0.336 A 
ATOM      4  O   UNL     1      10.517  -1.273  19.155  1.00  0.00    -0.246 OA
ATOM      5  O   UNL     1       9.530  -3.275  19.324  1.00  0.00    -0.423 OA
ATOM      6  C   UNL     1       9.573  -4.593  19.507  1.00  0.00     0.142 A 
ATOM      7  C   UNL     1       8.392  -5.341  19.486  1.00  0.00     0.098 A 
ATOM      8  C   UNL     1       8.430  -6.727  19.677  1.00  0.00     0.161 A 
ATOM      9  C   UNL     1       9.661  -7.374  19.892  1.00  0.00     0.158 A 
ATOM     10  C   UNL     1      10.849  -6.627  19.913  1.00  0.00     0.062 A 
ATOM     11  C   UNL     1      10.810  -5.240  19.722  1.00  0.00     0.022 A 
ENDROOT
BRANCH   9  12
ATOM     12  O   UNL     1       9.700  -8.754  20.082  1.00  0.00    -0.504 OA
ATOM     13  H   UNL     1       8.908  -9.261  20.461  1.00  0.00     0.293 HD
ENDBRANCH   9  12
BRANCH   8  14
ATOM     14  O   UNL     1       7.234  -7.445  19.652  1.00  0.00    -0.504 OA
ATOM     15  H   UNL     1       6.371  -7.040  19.313  1.00  0.00     0.293 HD
ENDBRANCH   8  14
TORSDOF 2
ENDMDL
MODEL 6
REMARK VINA RESULT:    -5.257     12.802     14.065
REMARK INTER + INTRA:          -5.564
REMARK INTER:                  -5.564
REMARK INTRA:                   0.000
REMARK UNBOUND:                 0.000
REMARK SMILES O=c1ccc2cc(O)c(O)cc2o1
REMARK SMILES IDX 4 1 3 2 2 3 1 4 13 5 12 6 11 7 9 8 7 9 6 10 5 11 8 12 10 14
REMARK H PARENT 8 13 10 15
REMARK Flexibility Score: inf
ROOT
ATOM      1  C   UNL     1      10.115  -3.339  19.297  1.00  0.00     0.019 A 
ATOM      2  C   UNL     1      11.365  -2.745  19.469  1.00  0.00     0.094 A 
ATOM      3  C   UNL     1      12.452  -3.545  19.836  1.00  0.00     0.336 A 
ATOM      4  O   UNL     1      13.588  -3.028  19.997  1.00  0.00    -0.246 OA
ATOM      5  O   UNL     1      12.293  -4.854  20.020  1.00  0.00    -0.423 OA
ATOM      6  C   UNL     1      11.118  -5.461  19.866  1.00  0.00     0.142 A 
ATOM      7  C   UNL     1      11.012  -6.839  20.072  1.00  0.00     0.098 A 
ATOM      8  C   UNL     1       9.780  -7.485  19.913  1.00  0.00     0.161 A 
ATOM      9  C   UNL     1       8.642  -6.746  19.544  1.00  0.00     0.158 A 
ATOM     10  C   UNL     1       8.744  -5.361  19.337  1.00  0.00     0.062 A 
ATOM     11  C   UNL     1       9.977  -4.716  19.496  1.00  0.00     0.022 A 
ENDROOT
BRANCH   9  12
ATOM     12  O   UNL     1       7.414  -7.387  19.385  1.00  0.00    -0.504 OA
ATOM     13  H   UNL     1       6.846  -7.250  18.557  1.00  0.00     0.293 HD
ENDBRANCH   9  12
BRANCH   8  14
ATOM     14  O   UNL     1       9.706  -8.862  20.125  1.00  0.00    -0.504 OA
ATOM     15  H   UNL     1      10.027  -9.530  19.435  1.00  0.00     0.293 HD
ENDBRANCH   8  14
TORSDOF 2
ENDMDL
MODEL 7
REMARK VINA RESULT:    -4.819      9.572     12.465
REMARK INTER + INTRA:          -5.101
REMARK INTER:                  -5.101
REMARK INTRA:                   0.000
REMARK UNBOUND:                 0.000
REMARK SMILES O=c1ccc2cc(O)c(O)cc2o1
REMARK SMILES IDX 4 1 3 2 2 3 1 4 13 5 12 6 11 7 9 8 7 9 6 10 5 11 8 12 10 14
REMARK H PARENT 8 13 10 15
REMARK Flexibility Score: inf
ROOT
ATOM      1  C   UNL     1      11.001  -4.552  19.662  1.00  0.00     0.019 A 
ATOM      2  C   UNL     1      10.316  -5.718  20.004  1.00  0.00     0.094 A 
ATOM      3  C   UNL     1       9.045  -5.941  19.465  1.00  0.00     0.336 A 
ATOM      4  O   UNL     1       8.411  -6.987  19.762  1.00  0.00    -0.246 OA
ATOM      5  O   UNL     1       8.498  -5.053  18.638  1.00  0.00    -0.423 OA
ATOM      6  C   UNL     1       9.118  -3.928  18.285  1.00  0.00     0.142 A 
ATOM      7  C   UNL     1       8.494  -3.031  17.413  1.00  0.00     0.098 A 
ATOM      8  C   UNL     1       9.138  -1.846  17.038  1.00  0.00     0.161 A 
ATOM      9  C   UNL     1      10.419  -1.553  17.539  1.00  0.00     0.158 A 
ATOM     10  C   UNL     1      11.048  -2.451  18.416  1.00  0.00     0.062 A 
ATOM     11  C   UNL     1      10.403  -3.636  18.791  1.00  0.00     0.022 A 
ENDROOT
BRANCH   9  12
ATOM     12  O   UNL     1      11.061  -0.374  17.167  1.00  0.00    -0.504 OA
ATOM     13  H   UNL     1      11.317   0.331  17.849  1.00  0.00     0.293 HD
ENDBRANCH   9  12
BRANCH   8  14
ATOM     14  O   UNL     1       8.490  -0.972  16.165  1.00  0.00    -0.504 OA
ATOM     15  H   UNL     1       8.181  -1.262  15.244  1.00  0.00     0.293 HD
ENDBRANCH   8  14
TORSDOF 2
ENDMDL
MODEL 8
REMARK VINA RESULT:    -4.692      8.541     11.121
REMARK INTER + INTRA:          -4.966
REMARK INTER:                  -4.966
REMARK INTRA:                   0.000
REMARK UNBOUND:                 0.000
REMARK SMILES O=c1ccc2cc(O)c(O)cc2o1
REMARK SMILES IDX 4 1 3 2 2 3 1 4 13 5 12 6 11 7 9 8 7 9 6 10 5 11 8 12 10 14
REMARK H PARENT 8 13 10 15
REMARK Flexibility Score: inf
ROOT
ATOM      1  C   UNL     1      10.069  -3.892  19.273  1.00  0.00     0.019 A 
ATOM      2  C   UNL     1      11.383  -3.740  19.716  1.00  0.00     0.094 A 
ATOM      3  C   UNL     1      12.269  -2.968  18.958  1.00  0.00     0.336 A 
ATOM      4  O   UNL     1      13.459  -2.820  19.341  1.00  0.00    -0.246 OA
ATOM      5  O   UNL     1      11.864  -2.388  17.831  1.00  0.00    -0.423 OA
ATOM      6  C   UNL     1      10.619  -2.506  17.373  1.00  0.00     0.142 A 
ATOM      7  C   UNL     1      10.250  -1.874  16.182  1.00  0.00     0.098 A 
ATOM      8  C   UNL     1       8.944  -1.994  15.693  1.00  0.00     0.161 A 
ATOM      9  C   UNL     1       7.996  -2.754  16.401  1.00  0.00     0.158 A 
ATOM     10  C   UNL     1       8.363  -3.391  17.597  1.00  0.00     0.062 A 
ATOM     11  C   UNL     1       9.670  -3.270  18.086  1.00  0.00     0.022 A 
ENDROOT
BRANCH   9  12
ATOM     12  O   UNL     1       6.695  -2.875  15.916  1.00  0.00    -0.504 OA
ATOM     13  H   UNL     1       6.508  -3.096  14.944  1.00  0.00     0.293 HD
ENDBRANCH   9  12
BRANCH   8  14
ATOM     14  O   UNL     1       8.606  -1.350  14.503  1.00  0.00    -0.504 OA
ATOM     15  H   UNL     1       8.819  -1.749  13.596  1.00  0.00     0.293 HD
ENDBRANCH   8  14
TORSDOF 2
ENDMDL
MODEL 9
REMARK VINA RESULT:    -4.579     10.164     12.617
REMARK INTER + INTRA:          -4.847
REMARK INTER:                  -4.847
REMARK INTRA:                   0.000
REMARK UNBOUND:                 0.000
REMARK SMILES O=c1ccc2cc(O)c(O)cc2o1
REMARK SMILES IDX 4 1 3 2 2 3 1 4 13 5 12 6 11 7 9 8 7 9 6 10 5 11 8 12 10 14
REMARK H PARENT 8 13 10 15
REMARK Flexibility Score: inf
ROOT
ATOM      1  C   UNL     1       8.699  -3.884  18.456  1.00  0.00     0.019 A 
ATOM      2  C   UNL     1       8.635  -5.163  19.006  1.00  0.00     0.094 A 
ATOM      3  C   UNL     1       9.796  -5.733  19.538  1.00  0.00     0.336 A 
ATOM      4  O   UNL     1       9.759  -6.887  20.038  1.00  0.00    -0.246 OA
ATOM      5  O   UNL     1      10.946  -5.062  19.517  1.00  0.00    -0.423 OA
ATOM      6  C   UNL     1      11.051  -3.839  19.002  1.00  0.00     0.142 A 
ATOM      7  C   UNL     1      12.286  -3.183  19.008  1.00  0.00     0.098 A 
ATOM      8  C   UNL     1      12.406  -1.897  18.468  1.00  0.00     0.161 A 
ATOM      9  C   UNL     1      11.280  -1.259  17.916  1.00  0.00     0.158 A 
ATOM     10  C   UNL     1      10.039  -1.915  17.907  1.00  0.00     0.062 A 
ATOM     11  C   UNL     1       9.920  -3.201  18.448  1.00  0.00     0.022 A 
ENDROOT
BRANCH   9  12
ATOM     12  O   UNL     1      11.397   0.022  17.378  1.00  0.00    -0.504 OA
ATOM     13  H   UNL     1      12.173   0.277  16.778  1.00  0.00     0.293 HD
ENDBRANCH   9  12
BRANCH   8  14
ATOM     14  O   UNL     1      13.650  -1.268  18.490  1.00  0.00    -0.504 OA
ATOM     15  H   UNL     1      14.113  -0.962  17.643  1.00  0.00     0.293 HD
ENDBRANCH   8  14
TORSDOF 2
ENDMDL
