MODEL 1
REMARK VINA RESULT:    -4.583      0.000      0.000
REMARK INTER + INTRA:         -16.729
REMARK INTER:                 -12.085
REMARK INTRA:                  -4.644
REMARK UNBOUND:                -4.644
REMARK SMILES CCCCCCCCCCCCCCCCCCCCCCCCCCCCCC(=O)[O-]
REMARK SMILES IDX 16 1 17 2 18 3 19 4 20 5 21 6 22 7 23 8 24 9 25 10 26 11
REMARK SMILES IDX 27 12 28 13 29 14 30 15 31 16 32 17 15 18 14 19 13 20 12 21
REMARK SMILES IDX 11 22 10 23 9 24 8 25 7 26 6 27 5 28 4 29 3 30 2 31 1 32
REMARK H PARENT
REMARK Flexibility Score: inf
ROOT
ATOM      1  C   UNL     1       7.999  -5.935 -32.392  1.00  0.00     0.000 C 
ENDROOT
BRANCH   1   2
ATOM      2  C   UNL     1       8.750  -6.020 -33.732  1.00  0.00     0.000 C 
BRANCH   2   3
ATOM      3  C   UNL     1       7.854  -6.018 -34.986  1.00  0.00     0.000 C 
BRANCH   3   4
ATOM      4  C   UNL     1       7.924  -7.299 -35.840  1.00  0.00     0.000 C 
BRANCH   4   5
ATOM      5  C   UNL     1       6.912  -7.327 -37.006  1.00  0.00     0.000 C 
BRANCH   5   6
ATOM      6  C   UNL     1       6.309  -5.941 -37.292  1.00  0.00     0.000 C 
BRANCH   6   7
ATOM      7  C   UNL     1       4.835  -5.832 -36.841  1.00  0.00     0.000 C 
BRANCH   7   8
ATOM      8  C   UNL     1       4.403  -4.396 -36.488  1.00  0.00     0.000 C 
BRANCH   8   9
ATOM      9  C   UNL     1       5.469  -3.551 -35.763  1.00  0.00     0.000 C 
BRANCH   9  10
ATOM     10  C   UNL     1       6.266  -2.564 -36.646  1.00  0.00     0.000 C 
BRANCH  10  11
ATOM     11  C   UNL     1       7.755  -2.377 -36.271  1.00  0.00     0.000 C 
BRANCH  11  12
ATOM     12  C   UNL     1       8.056  -2.484 -34.766  1.00  0.00     0.000 C 
BRANCH  12  13
ATOM     13  C   UNL     1       9.445  -1.950 -34.384  1.00  0.00     0.006 C 
BRANCH  13  14
ATOM     14  C   UNL     1      10.319  -1.734 -35.626  1.00  0.00     0.053 C 
BRANCH  14  15
ATOM     15  C   UNL     1      11.774  -1.889 -35.301  1.00  0.00     0.041 C 
ATOM     16  O   UNL     1      12.201  -1.610 -34.148  1.00  0.00    -0.550 OA
ATOM     17  O   UNL     1      12.653  -2.390 -36.256  1.00  0.00    -0.550 OA
ENDBRANCH  14  15
ENDBRANCH  13  14
ENDBRANCH  12  13
ENDBRANCH  11  12
ENDBRANCH  10  11
ENDBRANCH   9  10
ENDBRANCH   8   9
ENDBRANCH   7   8
ENDBRANCH   6   7
ENDBRANCH   5   6
ENDBRANCH   4   5
ENDBRANCH   3   4
ENDBRANCH   2   3
ENDBRANCH   1   2
BRANCH   1  18
ATOM     18  C   UNL     1       6.496  -5.662 -32.560  1.00  0.00     0.000 C 
BRANCH  18  19
ATOM     19  C   UNL     1       5.639  -6.910 -32.274  1.00  0.00     0.000 C 
BRANCH  19  20
ATOM     20  C   UNL     1       4.715  -7.318 -33.438  1.00  0.00     0.000 C 
BRANCH  20  21
ATOM     21  C   UNL     1       5.082  -8.665 -34.090  1.00  0.00     0.000 C 
BRANCH  21  22
ATOM     22  C   UNL     1       3.857  -9.383 -34.685  1.00  0.00     0.000 C 
BRANCH  22  23
ATOM     23  C   UNL     1       2.600  -9.261 -33.805  1.00  0.00     0.000 C 
BRANCH  23  24
ATOM     24  C   UNL     1       2.312 -10.471 -32.895  1.00  0.00    -0.000 C 
BRANCH  24  25
ATOM     25  C   UNL     1       2.702 -11.812 -33.535  1.00  0.00    -0.000 C 
BRANCH  25  26
ATOM     26  C   UNL     1       2.251 -13.023 -32.700  1.00  0.00    -0.000 C 
BRANCH  26  27
ATOM     27  C   UNL     1       1.744 -12.655 -31.289  1.00  0.00    -0.000 C 
BRANCH  27  28
ATOM     28  C   UNL     1       2.674 -13.179 -30.181  1.00  0.00    -0.000 C 
BRANCH  28  29
ATOM     29  C   UNL     1       3.893 -12.266 -29.963  1.00  0.00    -0.000 C 
BRANCH  29  30
ATOM     30  C   UNL     1       5.182 -12.864 -30.551  1.00  0.00    -0.000 C 
BRANCH  30  31
ATOM     31  C   UNL     1       5.850 -11.928 -31.570  1.00  0.00    -0.003 C 
ATOM     32  C   UNL     1       5.864 -10.468 -31.108  1.00  0.00     0.004 C 
ENDBRANCH  30  31
ENDBRANCH  29  30
ENDBRANCH  28  29
ENDBRANCH  27  28
ENDBRANCH  26  27
ENDBRANCH  25  26
ENDBRANCH  24  25
ENDBRANCH  23  24
ENDBRANCH  22  23
ENDBRANCH  21  22
ENDBRANCH  20  21
ENDBRANCH  19  20
ENDBRANCH  18  19
ENDBRANCH   1  18
TORSDOF 28
ENDMDL
MODEL 2
REMARK VINA RESULT:    -4.377      8.551     11.209
REMARK INTER + INTRA:         -16.185
REMARK INTER:                 -12.408
REMARK INTRA:                  -3.777
REMARK UNBOUND:                -4.644
REMARK SMILES CCCCCCCCCCCCCCCCCCCCCCCCCCCCCC(=O)[O-]
REMARK SMILES IDX 16 1 17 2 18 3 19 4 20 5 21 6 22 7 23 8 24 9 25 10 26 11
REMARK SMILES IDX 27 12 28 13 29 14 30 15 31 16 32 17 15 18 14 19 13 20 12 21
REMARK SMILES IDX 11 22 10 23 9 24 8 25 7 26 6 27 5 28 4 29 3 30 2 31 1 32
REMARK H PARENT
REMARK Flexibility Score: inf
ROOT
ATOM      1  C   UNL     1       8.465 -12.141 -24.327  1.00  0.00     0.000 C 
ENDROOT
BRANCH   1   2
ATOM      2  C   UNL     1       9.067 -11.044 -25.222  1.00  0.00     0.000 C 
BRANCH   2   3
ATOM      3  C   UNL     1      10.577 -11.181 -25.500  1.00  0.00     0.000 C 
BRANCH   3   4
ATOM      4  C   UNL     1      10.983 -11.038 -26.980  1.00  0.00     0.000 C 
BRANCH   4   5
ATOM      5  C   UNL     1      10.373 -12.118 -27.900  1.00  0.00     0.000 C 
BRANCH   5   6
ATOM      6  C   UNL     1      10.932 -12.052 -29.332  1.00  0.00     0.000 C 
BRANCH   6   7
ATOM      7  C   UNL     1      11.743 -10.763 -29.592  1.00  0.00     0.000 C 
BRANCH   7   8
ATOM      8  C   UNL     1      13.029 -10.998 -30.408  1.00  0.00     0.000 C 
BRANCH   8   9
ATOM      9  C   UNL     1      14.272 -11.377 -29.578  1.00  0.00     0.000 C 
BRANCH   9  10
ATOM     10  C   UNL     1      14.552 -12.891 -29.432  1.00  0.00     0.000 C 
BRANCH  10  11
ATOM     11  C   UNL     1      15.690 -13.453 -30.317  1.00  0.00     0.000 C 
BRANCH  11  12
ATOM     12  C   UNL     1      15.229 -14.010 -31.675  1.00  0.00     0.000 C 
BRANCH  12  13
ATOM     13  C   UNL     1      15.774 -13.220 -32.874  1.00  0.00     0.006 C 
BRANCH  13  14
ATOM     14  C   UNL     1      16.742 -12.120 -32.420  1.00  0.00     0.053 C 
BRANCH  14  15
ATOM     15  C   UNL     1      17.771 -11.832 -33.472  1.00  0.00     0.041 C 
ATOM     16  O   UNL     1      17.446 -11.229 -34.530  1.00  0.00    -0.550 OA
ATOM     17  O   UNL     1      19.100 -12.187 -33.264  1.00  0.00    -0.550 OA
ENDBRANCH  14  15
ENDBRANCH  13  14
ENDBRANCH  12  13
ENDBRANCH  11  12
ENDBRANCH  10  11
ENDBRANCH   9  10
ENDBRANCH   8   9
ENDBRANCH   7   8
ENDBRANCH   6   7
ENDBRANCH   5   6
ENDBRANCH   4   5
ENDBRANCH   3   4
ENDBRANCH   2   3
ENDBRANCH   1   2
BRANCH   1  18
ATOM     18  C   UNL     1       7.763 -13.252 -25.126  1.00  0.00     0.000 C 
BRANCH  18  19
ATOM     19  C   UNL     1       6.322 -12.870 -25.514  1.00  0.00     0.000 C 
BRANCH  19  20
ATOM     20  C   UNL     1       5.311 -12.969 -24.355  1.00  0.00     0.000 C 
BRANCH  20  21
ATOM     21  C   UNL     1       5.395 -14.285 -23.558  1.00  0.00     0.000 C 
BRANCH  21  22
ATOM     22  C   UNL     1       5.478 -14.049 -22.039  1.00  0.00     0.000 C 
BRANCH  22  23
ATOM     23  C   UNL     1       5.381 -12.561 -21.655  1.00  0.00     0.000 C 
BRANCH  23  24
ATOM     24  C   UNL     1       4.511 -12.254 -20.421  1.00  0.00    -0.000 C 
BRANCH  24  25
ATOM     25  C   UNL     1       3.006 -12.261 -20.729  1.00  0.00    -0.000 C 
BRANCH  25  26
ATOM     26  C   UNL     1       2.649 -11.428 -21.972  1.00  0.00    -0.000 C 
BRANCH  26  27
ATOM     27  C   UNL     1       1.730 -12.162 -22.973  1.00  0.00    -0.000 C 
BRANCH  27  28
ATOM     28  C   UNL     1       1.862 -13.692 -22.869  1.00  0.00    -0.000 C 
BRANCH  28  29
ATOM     29  C   UNL     1       1.673 -14.387 -24.227  1.00  0.00    -0.000 C 
BRANCH  29  30
ATOM     30  C   UNL     1       1.771 -13.403 -25.405  1.00  0.00    -0.000 C 
BRANCH  30  31
ATOM     31  C   UNL     1       2.574 -13.977 -26.583  1.00  0.00    -0.003 C 
ATOM     32  C   UNL     1       3.138 -12.887 -27.499  1.00  0.00     0.004 C 
ENDBRANCH  30  31
ENDBRANCH  29  30
ENDBRANCH  28  29
ENDBRANCH  27  28
ENDBRANCH  26  27
ENDBRANCH  25  26
ENDBRANCH  24  25
ENDBRANCH  23  24
ENDBRANCH  22  23
ENDBRANCH  21  22
ENDBRANCH  20  21
ENDBRANCH  19  20
ENDBRANCH  18  19
ENDBRANCH   1  18
TORSDOF 28
ENDMDL
MODEL 3
REMARK VINA RESULT:    -4.369      8.775     13.927
REMARK INTER + INTRA:         -16.165
REMARK INTER:                 -13.276
REMARK INTRA:                  -2.889
REMARK UNBOUND:                -4.644
REMARK SMILES CCCCCCCCCCCCCCCCCCCCCCCCCCCCCC(=O)[O-]
REMARK SMILES IDX 16 1 17 2 18 3 19 4 20 5 21 6 22 7 23 8 24 9 25 10 26 11
REMARK SMILES IDX 27 12 28 13 29 14 30 15 31 16 32 17 15 18 14 19 13 20 12 21
REMARK SMILES IDX 11 22 10 23 9 24 8 25 7 26 6 27 5 28 4 29 3 30 2 31 1 32
REMARK H PARENT
REMARK Flexibility Score: inf
ROOT
ATOM      1  C   UNL     1       8.019 -12.457 -24.890  1.00  0.00     0.000 C 
ENDROOT
BRANCH   1   2
ATOM      2  C   UNL     1       7.822 -12.871 -23.421  1.00  0.00     0.000 C 
BRANCH   2   3
ATOM      3  C   UNL     1       7.479 -14.357 -23.200  1.00  0.00     0.000 C 
BRANCH   3   4
ATOM      4  C   UNL     1       7.135 -14.738 -21.747  1.00  0.00     0.000 C 
BRANCH   4   5
ATOM      5  C   UNL     1       5.685 -14.397 -21.340  1.00  0.00     0.000 C 
BRANCH   5   6
ATOM      6  C   UNL     1       5.622 -13.323 -20.239  1.00  0.00     0.000 C 
BRANCH   6   7
ATOM      7  C   UNL     1       4.789 -12.092 -20.660  1.00  0.00     0.000 C 
BRANCH   7   8
ATOM      8  C   UNL     1       3.273 -12.364 -20.718  1.00  0.00     0.000 C 
BRANCH   8   9
ATOM      9  C   UNL     1       2.516 -11.618 -21.835  1.00  0.00     0.000 C 
BRANCH   9  10
ATOM     10  C   UNL     1       1.959 -12.496 -22.979  1.00  0.00     0.000 C 
BRANCH  10  11
ATOM     11  C   UNL     1       2.924 -13.572 -23.533  1.00  0.00     0.000 C 
BRANCH  11  12
ATOM     12  C   UNL     1       4.119 -13.014 -24.325  1.00  0.00     0.000 C 
BRANCH  12  13
ATOM     13  C   UNL     1       4.362 -13.745 -25.654  1.00  0.00     0.006 C 
BRANCH  13  14
ATOM     14  C   UNL     1       3.605 -13.071 -26.805  1.00  0.00     0.053 C 
BRANCH  14  15
ATOM     15  C   UNL     1       4.549 -12.555 -27.849  1.00  0.00     0.041 C 
ATOM     16  O   UNL     1       5.657 -12.055 -27.513  1.00  0.00    -0.550 OA
ATOM     17  O   UNL     1       4.229 -12.669 -29.198  1.00  0.00    -0.550 OA
ENDBRANCH  14  15
ENDBRANCH  13  14
ENDBRANCH  12  13
ENDBRANCH  11  12
ENDBRANCH  10  11
ENDBRANCH   9  10
ENDBRANCH   8   9
ENDBRANCH   7   8
ENDBRANCH   6   7
ENDBRANCH   5   6
ENDBRANCH   4   5
ENDBRANCH   3   4
ENDBRANCH   2   3
ENDBRANCH   1   2
BRANCH   1  18
ATOM     18  C   UNL     1       8.812 -11.148 -25.046  1.00  0.00     0.000 C 
BRANCH  18  19
ATOM     19  C   UNL     1      10.307 -11.400 -25.314  1.00  0.00     0.000 C 
BRANCH  19  20
ATOM     20  C   UNL     1      10.739 -11.131 -26.769  1.00  0.00     0.000 C 
BRANCH  20  21
ATOM     21  C   UNL     1      10.419 -12.280 -27.743  1.00  0.00     0.000 C 
BRANCH  21  22
ATOM     22  C   UNL     1      10.775 -11.932 -29.200  1.00  0.00     0.000 C 
BRANCH  22  23
ATOM     23  C   UNL     1      11.587 -10.630 -29.327  1.00  0.00     0.000 C 
BRANCH  23  24
ATOM     24  C   UNL     1      12.839 -10.719 -30.221  1.00  0.00    -0.000 C 
BRANCH  24  25
ATOM     25  C   UNL     1      14.002 -11.472 -29.556  1.00  0.00    -0.000 C 
BRANCH  25  26
ATOM     26  C   UNL     1      14.333 -12.798 -30.262  1.00  0.00    -0.000 C 
BRANCH  26  27
ATOM     27  C   UNL     1      15.014 -12.621 -31.636  1.00  0.00    -0.000 C 
BRANCH  27  28
ATOM     28  C   UNL     1      16.500 -12.243 -31.505  1.00  0.00    -0.000 C 
BRANCH  28  29
ATOM     29  C   UNL     1      17.375 -12.943 -32.559  1.00  0.00    -0.000 C 
BRANCH  29  30
ATOM     30  C   UNL     1      18.230 -11.948 -33.361  1.00  0.00    -0.000 C 
BRANCH  30  31
ATOM     31  C   UNL     1      17.480 -11.378 -34.575  1.00  0.00    -0.003 C 
ATOM     32  C   UNL     1      16.598 -12.421 -35.267  1.00  0.00     0.004 C 
ENDBRANCH  30  31
ENDBRANCH  29  30
ENDBRANCH  28  29
ENDBRANCH  27  28
ENDBRANCH  26  27
ENDBRANCH  25  26
ENDBRANCH  24  25
ENDBRANCH  23  24
ENDBRANCH  22  23
ENDBRANCH  21  22
ENDBRANCH  20  21
ENDBRANCH  19  20
ENDBRANCH  18  19
ENDBRANCH   1  18
TORSDOF 28
ENDMDL
MODEL 4
REMARK VINA RESULT:    -4.330      3.494      9.178
REMARK INTER + INTRA:         -16.062
REMARK INTER:                 -11.231
REMARK INTRA:                  -4.831
REMARK UNBOUND:                -4.644
REMARK SMILES CCCCCCCCCCCCCCCCCCCCCCCCCCCCCC(=O)[O-]
REMARK SMILES IDX 16 1 17 2 18 3 19 4 20 5 21 6 22 7 23 8 24 9 25 10 26 11
REMARK SMILES IDX 27 12 28 13 29 14 30 15 31 16 32 17 15 18 14 19 13 20 12 21
REMARK SMILES IDX 11 22 10 23 9 24 8 25 7 26 6 27 5 28 4 29 3 30 2 31 1 32
REMARK H PARENT
REMARK Flexibility Score: inf
ROOT
ATOM      1  C   UNL     1       7.311  -5.799 -31.458  1.00  0.00     0.000 C 
ENDROOT
BRANCH   1   2
ATOM      2  C   UNL     1       5.972  -6.552 -31.366  1.00  0.00     0.000 C 
BRANCH   2   3
ATOM      3  C   UNL     1       6.060  -8.073 -31.603  1.00  0.00     0.000 C 
BRANCH   3   4
ATOM      4  C   UNL     1       5.402  -8.568 -32.906  1.00  0.00     0.000 C 
BRANCH   4   5
ATOM      5  C   UNL     1       4.604  -7.478 -33.655  1.00  0.00     0.000 C 
BRANCH   5   6
ATOM      6  C   UNL     1       3.583  -8.071 -34.641  1.00  0.00     0.000 C 
BRANCH   6   7
ATOM      7  C   UNL     1       2.137  -8.019 -34.098  1.00  0.00     0.000 C 
BRANCH   7   8
ATOM      8  C   UNL     1       1.464  -9.402 -34.005  1.00  0.00     0.000 C 
BRANCH   8   9
ATOM      9  C   UNL     1       2.285 -10.571 -34.584  1.00  0.00     0.000 C 
BRANCH   9  10
ATOM     10  C   UNL     1       2.770 -11.628 -33.565  1.00  0.00     0.000 C 
BRANCH  10  11
ATOM     11  C   UNL     1       2.258 -11.451 -32.116  1.00  0.00     0.000 C 
BRANCH  11  12
ATOM     12  C   UNL     1       1.803 -12.752 -31.432  1.00  0.00     0.000 C 
BRANCH  12  13
ATOM     13  C   UNL     1       2.408 -12.949 -30.035  1.00  0.00     0.006 C 
BRANCH  13  14
ATOM     14  C   UNL     1       3.915 -13.226 -30.116  1.00  0.00     0.053 C 
BRANCH  14  15
ATOM     15  C   UNL     1       4.707 -12.118 -29.489  1.00  0.00     0.041 C 
ATOM     16  O   UNL     1       5.372 -11.327 -30.209  1.00  0.00    -0.550 OA
ATOM     17  O   UNL     1       4.671 -11.928 -28.111  1.00  0.00    -0.550 OA
ENDBRANCH  14  15
ENDBRANCH  13  14
ENDBRANCH  12  13
ENDBRANCH  11  12
ENDBRANCH  10  11
ENDBRANCH   9  10
ENDBRANCH   8   9
ENDBRANCH   7   8
ENDBRANCH   6   7
ENDBRANCH   5   6
ENDBRANCH   4   5
ENDBRANCH   3   4
ENDBRANCH   2   3
ENDBRANCH   1   2
BRANCH   1  18
ATOM     18  C   UNL     1       7.494  -5.057 -32.792  1.00  0.00     0.000 C 
BRANCH  18  19
ATOM     19  C   UNL     1       8.289  -5.887 -33.818  1.00  0.00     0.000 C 
BRANCH  19  20
ATOM     20  C   UNL     1       7.602  -6.014 -35.192  1.00  0.00     0.000 C 
BRANCH  20  21
ATOM     21  C   UNL     1       7.677  -7.426 -35.804  1.00  0.00     0.000 C 
BRANCH  21  22
ATOM     22  C   UNL     1       6.602  -7.656 -36.882  1.00  0.00     0.000 C 
BRANCH  22  23
ATOM     23  C   UNL     1       6.251  -6.378 -37.665  1.00  0.00     0.000 C 
BRANCH  23  24
ATOM     24  C   UNL     1       4.747  -6.052 -37.756  1.00  0.00    -0.000 C 
BRANCH  24  25
ATOM     25  C   UNL     1       4.245  -5.198 -36.582  1.00  0.00    -0.000 C 
BRANCH  25  26
ATOM     26  C   UNL     1       3.364  -4.021 -37.036  1.00  0.00    -0.000 C 
BRANCH  26  27
ATOM     27  C   UNL     1       4.013  -3.139 -38.125  1.00  0.00    -0.000 C 
BRANCH  27  28
ATOM     28  C   UNL     1       4.795  -1.957 -37.527  1.00  0.00    -0.000 C 
BRANCH  28  29
ATOM     29  C   UNL     1       6.272  -1.959 -37.953  1.00  0.00    -0.000 C 
BRANCH  29  30
ATOM     30  C   UNL     1       7.126  -2.908 -37.094  1.00  0.00    -0.000 C 
BRANCH  30  31
ATOM     31  C   UNL     1       7.253  -2.427 -35.641  1.00  0.00    -0.003 C 
ATOM     32  C   UNL     1       8.708  -2.351 -35.170  1.00  0.00     0.004 C 
ENDBRANCH  30  31
ENDBRANCH  29  30
ENDBRANCH  28  29
ENDBRANCH  27  28
ENDBRANCH  26  27
ENDBRANCH  25  26
ENDBRANCH  24  25
ENDBRANCH  23  24
ENDBRANCH  22  23
ENDBRANCH  21  22
ENDBRANCH  20  21
ENDBRANCH  19  20
ENDBRANCH  18  19
ENDBRANCH   1  18
TORSDOF 28
ENDMDL
MODEL 5
REMARK VINA RESULT:    -4.329      8.305     11.282
REMARK INTER + INTRA:         -16.058
REMARK INTER:                 -12.862
REMARK INTRA:                  -3.196
REMARK UNBOUND:                -4.644
REMARK SMILES CCCCCCCCCCCCCCCCCCCCCCCCCCCCCC(=O)[O-]
REMARK SMILES IDX 16 1 17 2 18 3 19 4 20 5 21 6 22 7 23 8 24 9 25 10 26 11
REMARK SMILES IDX 27 12 28 13 29 14 30 15 31 16 32 17 15 18 14 19 13 20 12 21
REMARK SMILES IDX 11 22 10 23 9 24 8 25 7 26 6 27 5 28 4 29 3 30 2 31 1 32
REMARK H PARENT
REMARK Flexibility Score: inf
ROOT
ATOM      1  C   UNL     1       7.740 -13.688 -24.729  1.00  0.00     0.000 C 
ENDROOT
BRANCH   1   2
ATOM      2  C   UNL     1       8.364 -12.662 -25.691  1.00  0.00     0.000 C 
BRANCH   2   3
ATOM      3  C   UNL     1       8.621 -11.268 -25.085  1.00  0.00     0.000 C 
BRANCH   3   4
ATOM      4  C   UNL     1       9.982 -10.641 -25.449  1.00  0.00     0.000 C 
BRANCH   4   5
ATOM      5  C   UNL     1      11.164 -11.631 -25.376  1.00  0.00     0.000 C 
BRANCH   5   6
ATOM      6  C   UNL     1      11.807 -11.879 -26.752  1.00  0.00     0.000 C 
BRANCH   6   7
ATOM      7  C   UNL     1      11.196 -10.992 -27.859  1.00  0.00     0.000 C 
BRANCH   7   8
ATOM      8  C   UNL     1      11.346 -11.582 -29.275  1.00  0.00     0.000 C 
BRANCH   8   9
ATOM      9  C   UNL     1      12.366 -10.862 -30.180  1.00  0.00     0.000 C 
BRANCH   9  10
ATOM     10  C   UNL     1      13.037 -11.731 -31.269  1.00  0.00     0.000 C 
BRANCH  10  11
ATOM     11  C   UNL     1      14.571 -11.577 -31.402  1.00  0.00     0.000 C 
BRANCH  11  12
ATOM     12  C   UNL     1      15.382 -12.247 -30.280  1.00  0.00     0.000 C 
BRANCH  12  13
ATOM     13  C   UNL     1      16.856 -12.473 -30.647  1.00  0.00     0.006 C 
BRANCH  13  14
ATOM     14  C   UNL     1      17.019 -12.757 -32.146  1.00  0.00     0.053 C 
BRANCH  14  15
ATOM     15  C   UNL     1      18.068 -11.876 -32.756  1.00  0.00     0.041 C 
ATOM     16  O   UNL     1      17.845 -11.284 -33.845  1.00  0.00    -0.550 OA
ATOM     17  O   UNL     1      19.276 -11.671 -32.096  1.00  0.00    -0.550 OA
ENDBRANCH  14  15
ENDBRANCH  13  14
ENDBRANCH  12  13
ENDBRANCH  11  12
ENDBRANCH  10  11
ENDBRANCH   9  10
ENDBRANCH   8   9
ENDBRANCH   7   8
ENDBRANCH   6   7
ENDBRANCH   5   6
ENDBRANCH   4   5
ENDBRANCH   3   4
ENDBRANCH   2   3
ENDBRANCH   1   2
BRANCH   1  18
ATOM     18  C   UNL     1       7.806 -13.250 -23.256  1.00  0.00     0.000 C 
BRANCH  18  19
ATOM     19  C   UNL     1       6.409 -13.142 -22.616  1.00  0.00     0.000 C 
BRANCH  19  20
ATOM     20  C   UNL     1       6.153 -14.165 -21.492  1.00  0.00     0.000 C 
BRANCH  20  21
ATOM     21  C   UNL     1       5.270 -13.633 -20.347  1.00  0.00     0.000 C 
BRANCH  21  22
ATOM     22  C   UNL     1       4.915 -12.145 -20.521  1.00  0.00     0.000 C 
BRANCH  22  23
ATOM     23  C   UNL     1       3.399 -11.878 -20.486  1.00  0.00     0.000 C 
BRANCH  23  24
ATOM     24  C   UNL     1       2.727 -11.713 -21.863  1.00  0.00    -0.000 C 
BRANCH  24  25
ATOM     25  C   UNL     1       2.036 -12.994 -22.354  1.00  0.00    -0.000 C 
BRANCH  25  26
ATOM     26  C   UNL     1       2.413 -13.358 -23.800  1.00  0.00    -0.000 C 
BRANCH  26  27
ATOM     27  C   UNL     1       3.293 -14.622 -23.916  1.00  0.00    -0.000 C 
BRANCH  27  28
ATOM     28  C   UNL     1       4.138 -14.626 -25.202  1.00  0.00    -0.000 C 
BRANCH  28  29
ATOM     29  C   UNL     1       4.157 -13.252 -25.892  1.00  0.00    -0.000 C 
BRANCH  29  30
ATOM     30  C   UNL     1       3.370 -13.251 -27.213  1.00  0.00    -0.000 C 
BRANCH  30  31
ATOM     31  C   UNL     1       4.102 -12.493 -28.331  1.00  0.00    -0.003 C 
ATOM     32  C   UNL     1       5.562 -12.190 -27.979  1.00  0.00     0.004 C 
ENDBRANCH  30  31
ENDBRANCH  29  30
ENDBRANCH  28  29
ENDBRANCH  27  28
ENDBRANCH  26  27
ENDBRANCH  25  26
ENDBRANCH  24  25
ENDBRANCH  23  24
ENDBRANCH  22  23
ENDBRANCH  21  22
ENDBRANCH  20  21
ENDBRANCH  19  20
ENDBRANCH  18  19
ENDBRANCH   1  18
TORSDOF 28
ENDMDL
MODEL 6
REMARK VINA RESULT:    -4.317     13.202     17.435
REMARK INTER + INTRA:         -16.028
REMARK INTER:                 -13.516
REMARK INTRA:                  -2.512
REMARK UNBOUND:                -4.644
REMARK SMILES CCCCCCCCCCCCCCCCCCCCCCCCCCCCCC(=O)[O-]
REMARK SMILES IDX 16 1 17 2 18 3 19 4 20 5 21 6 22 7 23 8 24 9 25 10 26 11
REMARK SMILES IDX 27 12 28 13 29 14 30 15 31 16 32 17 15 18 14 19 13 20 12 21
REMARK SMILES IDX 11 22 10 23 9 24 8 25 7 26 6 27 5 28 4 29 3 30 2 31 1 32
REMARK H PARENT
REMARK Flexibility Score: inf
ROOT
ATOM      1  C   UNL     1      14.275  -2.630 -21.620  1.00  0.00     0.000 C 
ENDROOT
BRANCH   1   2
ATOM      2  C   UNL     1      15.160  -2.391 -20.384  1.00  0.00     0.000 C 
BRANCH   2   3
ATOM      3  C   UNL     1      15.549  -3.661 -19.602  1.00  0.00     0.000 C 
BRANCH   3   4
ATOM      4  C   UNL     1      16.811  -3.526 -18.728  1.00  0.00     0.000 C 
BRANCH   4   5
ATOM      5  C   UNL     1      17.674  -4.807 -18.678  1.00  0.00     0.000 C 
BRANCH   5   6
ATOM      6  C   UNL     1      19.168  -4.500 -18.475  1.00  0.00     0.000 C 
BRANCH   6   7
ATOM      7  C   UNL     1      20.081  -5.632 -18.997  1.00  0.00     0.000 C 
BRANCH   7   8
ATOM      8  C   UNL     1      20.978  -5.205 -20.175  1.00  0.00     0.000 C 
BRANCH   8   9
ATOM      9  C   UNL     1      20.936  -6.138 -21.402  1.00  0.00     0.000 C 
BRANCH   9  10
ATOM     10  C   UNL     1      19.947  -7.323 -21.319  1.00  0.00     0.000 C 
BRANCH  10  11
ATOM     11  C   UNL     1      18.549  -7.077 -21.934  1.00  0.00     0.000 C 
BRANCH  11  12
ATOM     12  C   UNL     1      17.370  -7.441 -21.014  1.00  0.00     0.000 C 
BRANCH  12  13
ATOM     13  C   UNL     1      16.036  -6.829 -21.464  1.00  0.00     0.006 C 
BRANCH  13  14
ATOM     14  C   UNL     1      16.229  -5.896 -22.666  1.00  0.00     0.053 C 
BRANCH  14  15
ATOM     15  C   UNL     1      15.198  -6.152 -23.724  1.00  0.00     0.041 C 
ATOM     16  O   UNL     1      15.205  -7.234 -24.369  1.00  0.00    -0.550 OA
ATOM     17  O   UNL     1      14.199  -5.214 -23.966  1.00  0.00    -0.550 OA
ENDBRANCH  14  15
ENDBRANCH  13  14
ENDBRANCH  12  13
ENDBRANCH  11  12
ENDBRANCH  10  11
ENDBRANCH   9  10
ENDBRANCH   8   9
ENDBRANCH   7   8
ENDBRANCH   6   7
ENDBRANCH   5   6
ENDBRANCH   4   5
ENDBRANCH   3   4
ENDBRANCH   2   3
ENDBRANCH   1   2
BRANCH   1  18
ATOM     18  C   UNL     1      12.856  -3.105 -21.262  1.00  0.00     0.000 C 
BRANCH  18  19
ATOM     19  C   UNL     1      12.046  -2.020 -20.527  1.00  0.00     0.000 C 
BRANCH  19  20
ATOM     20  C   UNL     1      10.519  -2.181 -20.656  1.00  0.00     0.000 C 
BRANCH  20  21
ATOM     21  C   UNL     1       9.761  -0.855 -20.855  1.00  0.00     0.000 C 
BRANCH  21  22
ATOM     22  C   UNL     1       9.950  -0.277 -22.269  1.00  0.00     0.000 C 
BRANCH  22  23
ATOM     23  C   UNL     1       9.660   1.233 -22.347  1.00  0.00     0.000 C 
BRANCH  23  24
ATOM     24  C   UNL     1      10.691   2.063 -23.137  1.00  0.00    -0.000 C 
BRANCH  24  25
ATOM     25  C   UNL     1      10.057   2.903 -24.256  1.00  0.00    -0.000 C 
BRANCH  25  26
ATOM     26  C   UNL     1       8.653   2.411 -24.647  1.00  0.00    -0.000 C 
BRANCH  26  27
ATOM     27  C   UNL     1       8.424   2.324 -26.172  1.00  0.00    -0.000 C 
BRANCH  27  28
ATOM     28  C   UNL     1       9.385   3.233 -26.958  1.00  0.00    -0.000 C 
BRANCH  28  29
ATOM     29  C   UNL     1       9.327   2.973 -28.472  1.00  0.00    -0.000 C 
BRANCH  29  30
ATOM     30  C   UNL     1      10.448   3.701 -29.233  1.00  0.00    -0.000 C 
BRANCH  30  31
ATOM     31  C   UNL     1      11.654   2.791 -29.511  1.00  0.00    -0.003 C 
ATOM     32  C   UNL     1      12.498   2.532 -28.260  1.00  0.00     0.004 C 
ENDBRANCH  30  31
ENDBRANCH  29  30
ENDBRANCH  28  29
ENDBRANCH  27  28
ENDBRANCH  26  27
ENDBRANCH  25  26
ENDBRANCH  24  25
ENDBRANCH  23  24
ENDBRANCH  22  23
ENDBRANCH  21  22
ENDBRANCH  20  21
ENDBRANCH  19  20
ENDBRANCH  18  19
ENDBRANCH   1  18
TORSDOF 28
ENDMDL
MODEL 7
REMARK VINA RESULT:    -4.286      1.748      3.667
REMARK INTER + INTRA:         -15.946
REMARK INTER:                 -11.213
REMARK INTRA:                  -4.733
REMARK UNBOUND:                -4.644
REMARK SMILES CCCCCCCCCCCCCCCCCCCCCCCCCCCCCC(=O)[O-]
REMARK SMILES IDX 16 1 17 2 18 3 19 4 20 5 21 6 22 7 23 8 24 9 25 10 26 11
REMARK SMILES IDX 27 12 28 13 29 14 30 15 31 16 32 17 15 18 14 19 13 20 12 21
REMARK SMILES IDX 11 22 10 23 9 24 8 25 7 26 6 27 5 28 4 29 3 30 2 31 1 32
REMARK H PARENT
REMARK Flexibility Score: inf
ROOT
ATOM      1  C   UNL     1       7.738  -5.897 -32.529  1.00  0.00     0.000 C 
ENDROOT
BRANCH   1   2
ATOM      2  C   UNL     1       8.668  -5.771 -33.749  1.00  0.00     0.000 C 
BRANCH   2   3
ATOM      3  C   UNL     1       7.967  -5.865 -35.118  1.00  0.00     0.000 C 
BRANCH   3   4
ATOM      4  C   UNL     1       8.003  -7.260 -35.774  1.00  0.00     0.000 C 
BRANCH   4   5
ATOM      5  C   UNL     1       6.875  -7.493 -36.803  1.00  0.00     0.000 C 
BRANCH   5   6
ATOM      6  C   UNL     1       6.155  -6.190 -37.190  1.00  0.00     0.000 C 
BRANCH   6   7
ATOM      7  C   UNL     1       4.711  -6.127 -36.645  1.00  0.00     0.000 C 
BRANCH   7   8
ATOM      8  C   UNL     1       4.113  -4.706 -36.645  1.00  0.00     0.000 C 
BRANCH   8   9
ATOM      9  C   UNL     1       4.837  -3.691 -35.738  1.00  0.00     0.000 C 
BRANCH   9  10
ATOM     10  C   UNL     1       5.894  -2.799 -36.429  1.00  0.00     0.000 C 
BRANCH  10  11
ATOM     11  C   UNL     1       7.094  -2.374 -35.551  1.00  0.00     0.000 C 
BRANCH  11  12
ATOM     12  C   UNL     1       8.452  -2.378 -36.274  1.00  0.00     0.000 C 
BRANCH  12  13
ATOM     13  C   UNL     1       9.630  -2.008 -35.360  1.00  0.00     0.006 C 
BRANCH  13  14
ATOM     14  C   UNL     1      10.715  -1.247 -36.132  1.00  0.00     0.053 C 
BRANCH  14  15
ATOM     15  C   UNL     1      11.808  -0.782 -35.218  1.00  0.00     0.041 C 
ATOM     16  O   UNL     1      12.458  -1.614 -34.530  1.00  0.00    -0.550 OA
ATOM     17  O   UNL     1      12.144   0.567 -35.161  1.00  0.00    -0.550 OA
ENDBRANCH  14  15
ENDBRANCH  13  14
ENDBRANCH  12  13
ENDBRANCH  11  12
ENDBRANCH  10  11
ENDBRANCH   9  10
ENDBRANCH   8   9
ENDBRANCH   7   8
ENDBRANCH   6   7
ENDBRANCH   5   6
ENDBRANCH   4   5
ENDBRANCH   3   4
ENDBRANCH   2   3
ENDBRANCH   1   2
BRANCH   1  18
ATOM     18  C   UNL     1       6.257  -5.677 -32.875  1.00  0.00     0.000 C 
BRANCH  18  19
ATOM     19  C   UNL     1       5.377  -6.873 -32.465  1.00  0.00     0.000 C 
BRANCH  19  20
ATOM     20  C   UNL     1       5.260  -7.967 -33.545  1.00  0.00     0.000 C 
BRANCH  20  21
ATOM     21  C   UNL     1       4.775  -9.328 -33.011  1.00  0.00     0.000 C 
BRANCH  21  22
ATOM     22  C   UNL     1       3.833 -10.044 -33.997  1.00  0.00     0.000 C 
BRANCH  22  23
ATOM     23  C   UNL     1       2.607 -10.672 -33.311  1.00  0.00     0.000 C 
BRANCH  23  24
ATOM     24  C   UNL     1       1.303  -9.857 -33.414  1.00  0.00    -0.000 C 
BRANCH  24  25
ATOM     25  C   UNL     1       1.535  -8.340 -33.346  1.00  0.00    -0.000 C 
BRANCH  25  26
ATOM     26  C   UNL     1       1.066  -7.608 -34.615  1.00  0.00    -0.000 C 
BRANCH  26  27
ATOM     27  C   UNL     1       0.994  -8.512 -35.866  1.00  0.00    -0.000 C 
BRANCH  27  28
ATOM     28  C   UNL     1       1.649  -7.858 -37.095  1.00  0.00    -0.000 C 
BRANCH  28  29
ATOM     29  C   UNL     1       2.198  -8.898 -38.086  1.00  0.00    -0.000 C 
BRANCH  29  30
ATOM     30  C   UNL     1       3.153  -9.898 -37.413  1.00  0.00    -0.000 C 
BRANCH  30  31
ATOM     31  C   UNL     1       2.840 -11.353 -37.793  1.00  0.00    -0.003 C 
ATOM     32  C   UNL     1       1.754 -11.973 -36.909  1.00  0.00     0.004 C 
ENDBRANCH  30  31
ENDBRANCH  29  30
ENDBRANCH  28  29
ENDBRANCH  27  28
ENDBRANCH  26  27
ENDBRANCH  25  26
ENDBRANCH  24  25
ENDBRANCH  23  24
ENDBRANCH  22  23
ENDBRANCH  21  22
ENDBRANCH  20  21
ENDBRANCH  19  20
ENDBRANCH  18  19
ENDBRANCH   1  18
TORSDOF 28
ENDMDL
MODEL 8
REMARK VINA RESULT:    -4.256      8.915     13.751
REMARK INTER + INTRA:         -15.867
REMARK INTER:                 -11.495
REMARK INTRA:                  -4.372
REMARK UNBOUND:                -4.644
REMARK SMILES CCCCCCCCCCCCCCCCCCCCCCCCCCCCCC(=O)[O-]
REMARK SMILES IDX 16 1 17 2 18 3 19 4 20 5 21 6 22 7 23 8 24 9 25 10 26 11
REMARK SMILES IDX 27 12 28 13 29 14 30 15 31 16 32 17 15 18 14 19 13 20 12 21
REMARK SMILES IDX 11 22 10 23 9 24 8 25 7 26 6 27 5 28 4 29 3 30 2 31 1 32
REMARK H PARENT
REMARK Flexibility Score: inf
ROOT
ATOM      1  C   UNL     1       7.997 -11.732 -24.730  1.00  0.00     0.000 C 
ENDROOT
BRANCH   1   2
ATOM      2  C   UNL     1       8.283 -12.609 -23.499  1.00  0.00     0.000 C 
BRANCH   2   3
ATOM      3  C   UNL     1       8.288 -14.128 -23.764  1.00  0.00     0.000 C 
BRANCH   3   4
ATOM      4  C   UNL     1       7.491 -14.969 -22.747  1.00  0.00     0.000 C 
BRANCH   4   5
ATOM      5  C   UNL     1       6.170 -14.311 -22.294  1.00  0.00     0.000 C 
BRANCH   5   6
ATOM      6  C   UNL     1       5.860 -14.579 -20.810  1.00  0.00     0.000 C 
BRANCH   6   7
ATOM      7  C   UNL     1       5.516 -13.288 -20.035  1.00  0.00     0.000 C 
BRANCH   7   8
ATOM      8  C   UNL     1       4.912 -12.180 -20.919  1.00  0.00     0.000 C 
BRANCH   8   9
ATOM      9  C   UNL     1       3.403 -11.931 -20.719  1.00  0.00     0.000 C 
BRANCH   9  10
ATOM     10  C   UNL     1       2.504 -12.203 -21.947  1.00  0.00     0.000 C 
BRANCH  10  11
ATOM     11  C   UNL     1       3.222 -12.767 -23.196  1.00  0.00     0.000 C 
BRANCH  11  12
ATOM     12  C   UNL     1       2.459 -13.889 -23.922  1.00  0.00     0.000 C 
BRANCH  12  13
ATOM     13  C   UNL     1       3.012 -14.193 -25.322  1.00  0.00     0.006 C 
BRANCH  13  14
ATOM     14  C   UNL     1       4.403 -13.577 -25.516  1.00  0.00     0.053 C 
BRANCH  14  15
ATOM     15  C   UNL     1       4.502 -12.857 -26.828  1.00  0.00     0.041 C 
ATOM     16  O   UNL     1       5.617 -12.438 -27.241  1.00  0.00    -0.550 OA
ATOM     17  O   UNL     1       3.370 -12.692 -27.620  1.00  0.00    -0.550 OA
ENDBRANCH  14  15
ENDBRANCH  13  14
ENDBRANCH  12  13
ENDBRANCH  11  12
ENDBRANCH  10  11
ENDBRANCH   9  10
ENDBRANCH   8   9
ENDBRANCH   7   8
ENDBRANCH   6   7
ENDBRANCH   5   6
ENDBRANCH   4   5
ENDBRANCH   3   4
ENDBRANCH   2   3
ENDBRANCH   1   2
BRANCH   1  18
ATOM     18  C   UNL     1       9.037 -11.908 -25.849  1.00  0.00     0.000 C 
BRANCH  18  19
ATOM     19  C   UNL     1      10.155 -10.851 -25.779  1.00  0.00     0.000 C 
BRANCH  19  20
ATOM     20  C   UNL     1      11.546 -11.429 -25.453  1.00  0.00     0.000 C 
BRANCH  20  21
ATOM     21  C   UNL     1      11.580 -12.966 -25.349  1.00  0.00     0.000 C 
BRANCH  21  22
ATOM     22  C   UNL     1      12.393 -13.614 -26.484  1.00  0.00     0.000 C 
BRANCH  22  23
ATOM     23  C   UNL     1      13.676 -12.836 -26.828  1.00  0.00     0.000 C 
BRANCH  23  24
ATOM     24  C   UNL     1      14.342 -13.218 -28.164  1.00  0.00    -0.000 C 
BRANCH  24  25
ATOM     25  C   UNL     1      15.149 -12.068 -28.785  1.00  0.00    -0.000 C 
BRANCH  25  26
ATOM     26  C   UNL     1      14.787 -11.815 -30.259  1.00  0.00    -0.000 C 
BRANCH  26  27
ATOM     27  C   UNL     1      13.280 -11.957 -30.565  1.00  0.00    -0.000 C 
BRANCH  27  28
ATOM     28  C   UNL     1      12.497 -10.673 -30.240  1.00  0.00    -0.000 C 
BRANCH  28  29
ATOM     29  C   UNL     1      11.383 -10.916 -29.208  1.00  0.00    -0.000 C 
BRANCH  29  30
ATOM     30  C   UNL     1      10.845 -12.356 -29.258  1.00  0.00    -0.000 C 
BRANCH  30  31
ATOM     31  C   UNL     1       9.337 -12.408 -29.551  1.00  0.00    -0.003 C 
ATOM     32  C   UNL     1       8.686 -13.704 -29.060  1.00  0.00     0.004 C 
ENDBRANCH  30  31
ENDBRANCH  29  30
ENDBRANCH  28  29
ENDBRANCH  27  28
ENDBRANCH  26  27
ENDBRANCH  25  26
ENDBRANCH  24  25
ENDBRANCH  23  24
ENDBRANCH  22  23
ENDBRANCH  21  22
ENDBRANCH  20  21
ENDBRANCH  19  20
ENDBRANCH  18  19
ENDBRANCH   1  18
TORSDOF 28
ENDMDL
MODEL 9
REMARK VINA RESULT:    -4.211      8.830     11.746
REMARK INTER + INTRA:         -15.748
REMARK INTER:                 -11.480
REMARK INTRA:                  -4.268
REMARK UNBOUND:                -4.644
REMARK SMILES CCCCCCCCCCCCCCCCCCCCCCCCCCCCCC(=O)[O-]
REMARK SMILES IDX 16 1 17 2 18 3 19 4 20 5 21 6 22 7 23 8 24 9 25 10 26 11
REMARK SMILES IDX 27 12 28 13 29 14 30 15 31 16 32 17 15 18 14 19 13 20 12 21
REMARK SMILES IDX 11 22 10 23 9 24 8 25 7 26 6 27 5 28 4 29 3 30 2 31 1 32
REMARK H PARENT
REMARK Flexibility Score: inf
ROOT
ATOM      1  C   UNL     1       8.455 -12.152 -24.205  1.00  0.00     0.000 C 
ENDROOT
BRANCH   1   2
ATOM      2  C   UNL     1       9.134 -11.049 -25.037  1.00  0.00     0.000 C 
BRANCH   2   3
ATOM      3  C   UNL     1      10.617 -11.301 -25.372  1.00  0.00     0.000 C 
BRANCH   3   4
ATOM      4  C   UNL     1      10.997 -11.089 -26.851  1.00  0.00     0.000 C 
BRANCH   4   5
ATOM      5  C   UNL     1      10.371 -12.125 -27.810  1.00  0.00     0.000 C 
BRANCH   5   6
ATOM      6  C   UNL     1      10.838 -11.936 -29.263  1.00  0.00     0.000 C 
BRANCH   6   7
ATOM      7  C   UNL     1      11.753 -10.702 -29.436  1.00  0.00     0.000 C 
BRANCH   7   8
ATOM      8  C   UNL     1      12.743 -10.828 -30.609  1.00  0.00     0.000 C 
BRANCH   8   9
ATOM      9  C   UNL     1      14.141 -11.360 -30.233  1.00  0.00     0.000 C 
BRANCH   9  10
ATOM     10  C   UNL     1      14.386 -12.864 -30.494  1.00  0.00     0.000 C 
BRANCH  10  11
ATOM     11  C   UNL     1      14.028 -13.816 -29.329  1.00  0.00     0.000 C 
BRANCH  11  12
ATOM     12  C   UNL     1      15.237 -14.345 -28.538  1.00  0.00     0.000 C 
BRANCH  12  13
ATOM     13  C   UNL     1      15.276 -13.853 -27.084  1.00  0.00     0.006 C 
BRANCH  13  14
ATOM     14  C   UNL     1      14.042 -13.004 -26.752  1.00  0.00     0.053 C 
BRANCH  14  15
ATOM     15  C   UNL     1      14.079 -12.522 -25.333  1.00  0.00     0.041 C 
ATOM     16  O   UNL     1      14.627 -11.423 -25.049  1.00  0.00    -0.550 OA
ATOM     17  O   UNL     1      13.466 -13.263 -24.328  1.00  0.00    -0.550 OA
ENDBRANCH  14  15
ENDBRANCH  13  14
ENDBRANCH  12  13
ENDBRANCH  11  12
ENDBRANCH  10  11
ENDBRANCH   9  10
ENDBRANCH   8   9
ENDBRANCH   7   8
ENDBRANCH   6   7
ENDBRANCH   5   6
ENDBRANCH   4   5
ENDBRANCH   3   4
ENDBRANCH   2   3
ENDBRANCH   1   2
BRANCH   1  18
ATOM     18  C   UNL     1       7.797 -13.240 -25.071  1.00  0.00     0.000 C 
BRANCH  18  19
ATOM     19  C   UNL     1       6.364 -12.864 -25.491  1.00  0.00     0.000 C 
BRANCH  19  20
ATOM     20  C   UNL     1       5.326 -12.977 -24.356  1.00  0.00     0.000 C 
BRANCH  20  21
ATOM     21  C   UNL     1       5.390 -14.304 -23.576  1.00  0.00     0.000 C 
BRANCH  21  22
ATOM     22  C   UNL     1       5.465 -14.087 -22.054  1.00  0.00     0.000 C 
BRANCH  22  23
ATOM     23  C   UNL     1       5.393 -12.603 -21.652  1.00  0.00     0.000 C 
BRANCH  23  24
ATOM     24  C   UNL     1       4.530 -12.296 -20.412  1.00  0.00    -0.000 C 
BRANCH  24  25
ATOM     25  C   UNL     1       3.025 -12.259 -20.721  1.00  0.00    -0.000 C 
BRANCH  25  26
ATOM     26  C   UNL     1       2.695 -11.432 -21.976  1.00  0.00    -0.000 C 
BRANCH  26  27
ATOM     27  C   UNL     1       1.774 -12.159 -22.979  1.00  0.00    -0.000 C 
BRANCH  27  28
ATOM     28  C   UNL     1       1.850 -13.689 -22.835  1.00  0.00    -0.000 C 
BRANCH  28  29
ATOM     29  C   UNL     1       1.676 -14.411 -24.182  1.00  0.00    -0.000 C 
BRANCH  29  30
ATOM     30  C   UNL     1       1.803 -13.452 -25.378  1.00  0.00    -0.000 C 
BRANCH  30  31
ATOM     31  C   UNL     1       2.677 -14.031 -26.502  1.00  0.00    -0.003 C 
ATOM     32  C   UNL     1       3.106 -12.970 -27.520  1.00  0.00     0.004 C 
ENDBRANCH  30  31
ENDBRANCH  29  30
ENDBRANCH  28  29
ENDBRANCH  27  28
ENDBRANCH  26  27
ENDBRANCH  25  26
ENDBRANCH  24  25
ENDBRANCH  23  24
ENDBRANCH  22  23
ENDBRANCH  21  22
ENDBRANCH  20  21
ENDBRANCH  19  20
ENDBRANCH  18  19
ENDBRANCH   1  18
TORSDOF 28
ENDMDL
