MODEL 1
REMARK VINA RESULT:    -3.932      0.000      0.000
REMARK INTER + INTRA:         -11.038
REMARK INTER:                  -8.989
REMARK INTRA:                  -2.049
REMARK UNBOUND:                -2.049
REMARK SMILES CCCCCCCCCCCCCCCCCCCCCCCC(=O)[O-]
REMARK SMILES IDX 13 1 14 2 15 3 16 4 17 5 18 6 19 7 20 8 21 9 22 10 23 11
REMARK SMILES IDX 24 12 25 13 26 14 12 15 11 16 10 17 9 18 8 19 7 20 6 21 5 22
REMARK SMILES IDX 4 23 3 24 2 25 1 26
REMARK H PARENT
REMARK Flexibility Score: inf
ROOT
ATOM      1  C   UNL     1      60.401  37.018  48.356  1.00  0.00     0.000 C 
ENDROOT
BRANCH   1   2
ATOM      2  C   UNL     1      61.477  36.513  47.380  1.00  0.00     0.000 C 
BRANCH   2   3
ATOM      3  C   UNL     1      60.945  35.441  46.412  1.00  0.00     0.000 C 
BRANCH   3   4
ATOM      4  C   UNL     1      61.266  35.759  44.941  1.00  0.00     0.000 C 
BRANCH   4   5
ATOM      5  C   UNL     1      60.047  35.769  43.999  1.00  0.00     0.000 C 
BRANCH   5   6
ATOM      6  C   UNL     1      58.994  36.840  44.359  1.00  0.00     0.000 C 
BRANCH   6   7
ATOM      7  C   UNL     1      57.559  36.355  44.107  1.00  0.00     0.000 C 
BRANCH   7   8
ATOM      8  C   UNL     1      57.213  36.416  42.614  1.00  0.00     0.000 C 
BRANCH   8   9
ATOM      9  C   UNL     1      56.794  37.835  42.201  1.00  0.00     0.000 C 
BRANCH   9  10
ATOM     10  C   UNL     1      57.627  38.379  41.030  1.00  0.00     0.006 C 
BRANCH  10  11
ATOM     11  C   UNL     1      58.891  37.551  40.767  1.00  0.00     0.053 C 
BRANCH  11  12
ATOM     12  C   UNL     1      60.103  38.428  40.793  1.00  0.00     0.041 C 
ATOM     13  O   UNL     1      60.115  39.511  40.149  1.00  0.00    -0.550 OA
ATOM     14  O   UNL     1      61.197  38.080  41.573  1.00  0.00    -0.550 OA
ENDBRANCH  11  12
ENDBRANCH  10  11
ENDBRANCH   9  10
ENDBRANCH   8   9
ENDBRANCH   7   8
ENDBRANCH   6   7
ENDBRANCH   5   6
ENDBRANCH   4   5
ENDBRANCH   3   4
ENDBRANCH   2   3
ENDBRANCH   1   2
BRANCH   1  15
ATOM     15  C   UNL     1      58.993  36.506  48.005  1.00  0.00     0.000 C 
BRANCH  15  16
ATOM     16  C   UNL     1      58.381  35.629  49.113  1.00  0.00     0.000 C 
BRANCH  16  17
ATOM     17  C   UNL     1      59.324  35.298  50.285  1.00  0.00     0.000 C 
BRANCH  17  18
ATOM     18  C   UNL     1      58.627  35.378  51.655  1.00  0.00    -0.000 C 
BRANCH  18  19
ATOM     19  C   UNL     1      57.668  36.576  51.759  1.00  0.00    -0.000 C 
BRANCH  19  20
ATOM     20  C   UNL     1      57.501  37.072  53.206  1.00  0.00    -0.000 C 
BRANCH  20  21
ATOM     21  C   UNL     1      58.256  36.198  54.226  1.00  0.00    -0.000 C 
BRANCH  21  22
ATOM     22  C   UNL     1      59.417  36.904  54.956  1.00  0.00    -0.000 C 
BRANCH  22  23
ATOM     23  C   UNL     1      58.990  37.965  55.990  1.00  0.00    -0.000 C 
BRANCH  23  24
ATOM     24  C   UNL     1      59.499  37.722  57.426  1.00  0.00    -0.000 C 
BRANCH  24  25
ATOM     25  C   UNL     1      59.184  38.850  58.424  1.00  0.00    -0.003 C 
ATOM     26  C   UNL     1      58.027  39.741  57.972  1.00  0.00     0.004 C 
ENDBRANCH  24  25
ENDBRANCH  23  24
ENDBRANCH  22  23
ENDBRANCH  21  22
ENDBRANCH  20  21
ENDBRANCH  19  20
ENDBRANCH  18  19
ENDBRANCH  17  18
ENDBRANCH  16  17
ENDBRANCH  15  16
ENDBRANCH   1  15
TORSDOF 22
ENDMDL
MODEL 2
REMARK VINA RESULT:    -3.873     10.439     14.949
REMARK INTER + INTRA:         -10.903
REMARK INTER:                  -9.362
REMARK INTRA:                  -1.541
REMARK UNBOUND:                -2.049
REMARK SMILES CCCCCCCCCCCCCCCCCCCCCCCC(=O)[O-]
REMARK SMILES IDX 13 1 14 2 15 3 16 4 17 5 18 6 19 7 20 8 21 9 22 10 23 11
REMARK SMILES IDX 24 12 25 13 26 14 12 15 11 16 10 17 9 18 8 19 7 20 6 21 5 22
REMARK SMILES IDX 4 23 3 24 2 25 1 26
REMARK H PARENT
REMARK Flexibility Score: inf
ROOT
ATOM      1  C   UNL     1      66.396  41.577  58.592  1.00  0.00     0.000 C 
ENDROOT
BRANCH   1   2
ATOM      2  C   UNL     1      66.751  42.251  57.256  1.00  0.00     0.000 C 
BRANCH   2   3
ATOM      3  C   UNL     1      65.783  43.390  56.889  1.00  0.00     0.000 C 
BRANCH   3   4
ATOM      4  C   UNL     1      65.080  43.989  58.119  1.00  0.00     0.000 C 
BRANCH   4   5
ATOM      5  C   UNL     1      64.692  45.475  57.986  1.00  0.00     0.000 C 
BRANCH   5   6
ATOM      6  C   UNL     1      65.621  46.430  58.766  1.00  0.00     0.000 C 
BRANCH   6   7
ATOM      7  C   UNL     1      65.773  47.792  58.073  1.00  0.00     0.000 C 
BRANCH   7   8
ATOM      8  C   UNL     1      67.047  47.836  57.222  1.00  0.00     0.000 C 
BRANCH   8   9
ATOM      9  C   UNL     1      67.872  49.096  57.523  1.00  0.00     0.000 C 
BRANCH   9  10
ATOM     10  C   UNL     1      68.443  49.746  56.253  1.00  0.00     0.006 C 
BRANCH  10  11
ATOM     11  C   UNL     1      69.406  50.901  56.560  1.00  0.00     0.053 C 
BRANCH  11  12
ATOM     12  C   UNL     1      70.820  50.478  56.314  1.00  0.00     0.041 C 
ATOM     13  O   UNL     1      71.208  49.332  56.661  1.00  0.00    -0.550 OA
ATOM     14  O   UNL     1      71.694  51.329  55.649  1.00  0.00    -0.550 OA
ENDBRANCH  11  12
ENDBRANCH  10  11
ENDBRANCH   9  10
ENDBRANCH   8   9
ENDBRANCH   7   8
ENDBRANCH   6   7
ENDBRANCH   5   6
ENDBRANCH   4   5
ENDBRANCH   3   4
ENDBRANCH   2   3
ENDBRANCH   1   2
BRANCH   1  15
ATOM     15  C   UNL     1      65.745  40.195  58.404  1.00  0.00     0.000 C 
BRANCH  15  16
ATOM     16  C   UNL     1      64.250  40.280  58.042  1.00  0.00     0.000 C 
BRANCH  16  17
ATOM     17  C   UNL     1      63.324  39.351  58.851  1.00  0.00     0.000 C 
BRANCH  17  18
ATOM     18  C   UNL     1      62.660  38.267  57.985  1.00  0.00    -0.000 C 
BRANCH  18  19
ATOM     19  C   UNL     1      63.253  38.198  56.567  1.00  0.00    -0.000 C 
BRANCH  19  20
ATOM     20  C   UNL     1      62.171  38.060  55.483  1.00  0.00    -0.000 C 
BRANCH  20  21
ATOM     21  C   UNL     1      61.191  36.905  55.762  1.00  0.00    -0.000 C 
BRANCH  21  22
ATOM     22  C   UNL     1      59.718  37.201  55.411  1.00  0.00    -0.000 C 
BRANCH  22  23
ATOM     23  C   UNL     1      58.980  38.117  56.407  1.00  0.00    -0.000 C 
BRANCH  23  24
ATOM     24  C   UNL     1      59.197  37.774  57.895  1.00  0.00    -0.000 C 
BRANCH  24  25
ATOM     25  C   UNL     1      59.107  38.974  58.855  1.00  0.00    -0.003 C 
ATOM     26  C   UNL     1      57.685  39.512  59.006  1.00  0.00     0.004 C 
ENDBRANCH  24  25
ENDBRANCH  23  24
ENDBRANCH  22  23
ENDBRANCH  21  22
ENDBRANCH  20  21
ENDBRANCH  19  20
ENDBRANCH  18  19
ENDBRANCH  17  18
ENDBRANCH  16  17
ENDBRANCH  15  16
ENDBRANCH   1  15
TORSDOF 22
ENDMDL
MODEL 3
REMARK VINA RESULT:    -3.820     15.926     18.998
REMARK INTER + INTRA:         -10.782
REMARK INTER:                  -8.042
REMARK INTRA:                  -2.740
REMARK UNBOUND:                -2.049
REMARK SMILES CCCCCCCCCCCCCCCCCCCCCCCC(=O)[O-]
REMARK SMILES IDX 13 1 14 2 15 3 16 4 17 5 18 6 19 7 20 8 21 9 22 10 23 11
REMARK SMILES IDX 24 12 25 13 26 14 12 15 11 16 10 17 9 18 8 19 7 20 6 21 5 22
REMARK SMILES IDX 4 23 3 24 2 25 1 26
REMARK H PARENT
REMARK Flexibility Score: inf
ROOT
ATOM      1  C   UNL     1      73.101  50.326  57.001  1.00  0.00     0.000 C 
ENDROOT
BRANCH   1   2
ATOM      2  C   UNL     1      72.847  51.605  57.816  1.00  0.00     0.000 C 
BRANCH   2   3
ATOM      3  C   UNL     1      72.082  52.676  57.019  1.00  0.00     0.000 C 
BRANCH   3   4
ATOM      4  C   UNL     1      70.630  52.848  57.499  1.00  0.00     0.000 C 
BRANCH   4   5
ATOM      5  C   UNL     1      69.654  53.387  56.435  1.00  0.00     0.000 C 
BRANCH   5   6
ATOM      6  C   UNL     1      70.306  53.612  55.054  1.00  0.00     0.000 C 
BRANCH   6   7
ATOM      7  C   UNL     1      69.842  52.581  54.015  1.00  0.00     0.000 C 
BRANCH   7   8
ATOM      8  C   UNL     1      70.877  51.462  53.850  1.00  0.00     0.000 C 
BRANCH   8   9
ATOM      9  C   UNL     1      71.412  51.410  52.411  1.00  0.00     0.000 C 
BRANCH   9  10
ATOM     10  C   UNL     1      70.806  52.501  51.515  1.00  0.00     0.006 C 
BRANCH  10  11
ATOM     11  C   UNL     1      70.393  51.973  50.135  1.00  0.00     0.053 C 
BRANCH  11  12
ATOM     12  C   UNL     1      68.913  51.760  50.081  1.00  0.00     0.041 C 
ATOM     13  O   UNL     1      68.433  50.606  50.230  1.00  0.00    -0.550 OA
ATOM     14  O   UNL     1      68.060  52.845  49.924  1.00  0.00    -0.550 OA
ENDBRANCH  11  12
ENDBRANCH  10  11
ENDBRANCH   9  10
ENDBRANCH   8   9
ENDBRANCH   7   8
ENDBRANCH   6   7
ENDBRANCH   5   6
ENDBRANCH   4   5
ENDBRANCH   3   4
ENDBRANCH   2   3
ENDBRANCH   1   2
BRANCH   1  15
ATOM     15  C   UNL     1      72.724  49.047  57.770  1.00  0.00     0.000 C 
BRANCH  15  16
ATOM     16  C   UNL     1      71.461  48.363  57.214  1.00  0.00     0.000 C 
BRANCH  16  17
ATOM     17  C   UNL     1      70.129  49.051  57.572  1.00  0.00     0.000 C 
BRANCH  17  18
ATOM     18  C   UNL     1      69.337  49.501  56.332  1.00  0.00    -0.000 C 
BRANCH  18  19
ATOM     19  C   UNL     1      67.997  50.163  56.697  1.00  0.00    -0.000 C 
BRANCH  19  20
ATOM     20  C   UNL     1      67.607  49.931  58.167  1.00  0.00    -0.000 C 
BRANCH  20  21
ATOM     21  C   UNL     1      66.358  49.044  58.319  1.00  0.00    -0.000 C 
BRANCH  21  22
ATOM     22  C   UNL     1      66.424  47.693  57.577  1.00  0.00    -0.000 C 
BRANCH  22  23
ATOM     23  C   UNL     1      65.423  46.628  58.068  1.00  0.00    -0.000 C 
BRANCH  23  24
ATOM     24  C   UNL     1      66.058  45.307  58.551  1.00  0.00    -0.000 C 
BRANCH  24  25
ATOM     25  C   UNL     1      65.188  44.056  58.338  1.00  0.00    -0.003 C 
ATOM     26  C   UNL     1      65.501  43.327  57.032  1.00  0.00     0.004 C 
ENDBRANCH  24  25
ENDBRANCH  23  24
ENDBRANCH  22  23
ENDBRANCH  21  22
ENDBRANCH  20  21
ENDBRANCH  19  20
ENDBRANCH  18  19
ENDBRANCH  17  18
ENDBRANCH  16  17
ENDBRANCH  15  16
ENDBRANCH   1  15
TORSDOF 22
ENDMDL
MODEL 4
REMARK VINA RESULT:    -3.805     15.410     18.711
REMARK INTER + INTRA:         -10.748
REMARK INTER:                  -7.950
REMARK INTRA:                  -2.798
REMARK UNBOUND:                -2.049
REMARK SMILES CCCCCCCCCCCCCCCCCCCCCCCC(=O)[O-]
REMARK SMILES IDX 13 1 14 2 15 3 16 4 17 5 18 6 19 7 20 8 21 9 22 10 23 11
REMARK SMILES IDX 24 12 25 13 26 14 12 15 11 16 10 17 9 18 8 19 7 20 6 21 5 22
REMARK SMILES IDX 4 23 3 24 2 25 1 26
REMARK H PARENT
REMARK Flexibility Score: inf
ROOT
ATOM      1  C   UNL     1      71.762  49.311  57.138  1.00  0.00     0.000 C 
ENDROOT
BRANCH   1   2
ATOM      2  C   UNL     1      72.291  50.578  57.830  1.00  0.00     0.000 C 
BRANCH   2   3
ATOM      3  C   UNL     1      72.481  51.753  56.854  1.00  0.00     0.000 C 
BRANCH   3   4
ATOM      4  C   UNL     1      71.802  53.044  57.343  1.00  0.00     0.000 C 
BRANCH   4   5
ATOM      5  C   UNL     1      70.272  52.951  57.509  1.00  0.00     0.000 C 
BRANCH   5   6
ATOM      6  C   UNL     1      69.490  53.230  56.207  1.00  0.00     0.000 C 
BRANCH   6   7
ATOM      7  C   UNL     1      70.269  54.134  55.240  1.00  0.00     0.000 C 
BRANCH   7   8
ATOM      8  C   UNL     1      70.259  53.556  53.820  1.00  0.00     0.000 C 
BRANCH   8   9
ATOM      9  C   UNL     1      70.480  52.036  53.838  1.00  0.00     0.000 C 
BRANCH   9  10
ATOM     10  C   UNL     1      70.841  51.476  52.454  1.00  0.00     0.006 C 
BRANCH  10  11
ATOM     11  C   UNL     1      69.612  51.009  51.664  1.00  0.00     0.053 C 
BRANCH  11  12
ATOM     12  C   UNL     1      69.477  51.796  50.399  1.00  0.00     0.041 C 
ATOM     13  O   UNL     1      68.342  51.981  49.886  1.00  0.00    -0.550 OA
ATOM     14  O   UNL     1      70.597  52.374  49.816  1.00  0.00    -0.550 OA
ENDBRANCH  11  12
ENDBRANCH  10  11
ENDBRANCH   9  10
ENDBRANCH   8   9
ENDBRANCH   7   8
ENDBRANCH   6   7
ENDBRANCH   5   6
ENDBRANCH   4   5
ENDBRANCH   3   4
ENDBRANCH   2   3
ENDBRANCH   1   2
BRANCH   1  15
ATOM     15  C   UNL     1      70.257  49.091  57.374  1.00  0.00     0.000 C 
BRANCH  15  16
ATOM     16  C   UNL     1      69.396  49.487  56.160  1.00  0.00     0.000 C 
BRANCH  16  17
ATOM     17  C   UNL     1      67.959  49.934  56.491  1.00  0.00     0.000 C 
BRANCH  17  18
ATOM     18  C   UNL     1      67.641  49.860  57.995  1.00  0.00    -0.000 C 
BRANCH  18  19
ATOM     19  C   UNL     1      66.444  48.945  58.301  1.00  0.00    -0.000 C 
BRANCH  19  20
ATOM     20  C   UNL     1      66.839  47.460  58.364  1.00  0.00    -0.000 C 
BRANCH  20  21
ATOM     21  C   UNL     1      66.019  46.583  57.399  1.00  0.00    -0.000 C 
BRANCH  21  22
ATOM     22  C   UNL     1      64.826  45.846  58.042  1.00  0.00    -0.000 C 
BRANCH  22  23
ATOM     23  C   UNL     1      65.076  44.361  58.372  1.00  0.00    -0.000 C 
BRANCH  23  24
ATOM     24  C   UNL     1      65.414  43.470  57.159  1.00  0.00    -0.000 C 
BRANCH  24  25
ATOM     25  C   UNL     1      66.653  42.574  57.340  1.00  0.00    -0.003 C 
ATOM     26  C   UNL     1      67.288  42.706  58.723  1.00  0.00     0.004 C 
ENDBRANCH  24  25
ENDBRANCH  23  24
ENDBRANCH  22  23
ENDBRANCH  21  22
ENDBRANCH  20  21
ENDBRANCH  19  20
ENDBRANCH  18  19
ENDBRANCH  17  18
ENDBRANCH  16  17
ENDBRANCH  15  16
ENDBRANCH   1  15
TORSDOF 22
ENDMDL
MODEL 5
REMARK VINA RESULT:    -3.790     10.886     15.646
REMARK INTER + INTRA:         -10.714
REMARK INTER:                  -9.415
REMARK INTRA:                  -1.299
REMARK UNBOUND:                -2.049
REMARK SMILES CCCCCCCCCCCCCCCCCCCCCCCC(=O)[O-]
REMARK SMILES IDX 13 1 14 2 15 3 16 4 17 5 18 6 19 7 20 8 21 9 22 10 23 11
REMARK SMILES IDX 24 12 25 13 26 14 12 15 11 16 10 17 9 18 8 19 7 20 6 21 5 22
REMARK SMILES IDX 4 23 3 24 2 25 1 26
REMARK H PARENT
REMARK Flexibility Score: inf
ROOT
ATOM      1  C   UNL     1      65.730  43.658  57.045  1.00  0.00     0.000 C 
ENDROOT
BRANCH   1   2
ATOM      2  C   UNL     1      66.687  42.463  57.184  1.00  0.00     0.000 C 
BRANCH   2   3
ATOM      3  C   UNL     1      66.733  41.902  58.617  1.00  0.00     0.000 C 
BRANCH   3   4
ATOM      4  C   UNL     1      66.151  40.480  58.715  1.00  0.00     0.000 C 
BRANCH   4   5
ATOM      5  C   UNL     1      64.615  40.400  58.620  1.00  0.00     0.000 C 
BRANCH   5   6
ATOM      6  C   UNL     1      64.064  38.959  58.691  1.00  0.00     0.000 C 
BRANCH   6   7
ATOM      7  C   UNL     1      62.534  38.925  58.812  1.00  0.00     0.000 C 
BRANCH   7   8
ATOM      8  C   UNL     1      61.937  37.822  57.930  1.00  0.00     0.000 C 
BRANCH   8   9
ATOM      9  C   UNL     1      62.519  37.874  56.509  1.00  0.00     0.000 C 
BRANCH   9  10
ATOM     10  C   UNL     1      61.484  37.512  55.434  1.00  0.00     0.006 C 
BRANCH  10  11
ATOM     11  C   UNL     1      60.229  36.851  56.017  1.00  0.00     0.053 C 
BRANCH  11  12
ATOM     12  C   UNL     1      59.025  37.703  55.762  1.00  0.00     0.041 C 
ATOM     13  O   UNL     1      58.724  38.629  56.560  1.00  0.00    -0.550 OA
ATOM     14  O   UNL     1      58.269  37.512  54.613  1.00  0.00    -0.550 OA
ENDBRANCH  11  12
ENDBRANCH  10  11
ENDBRANCH   9  10
ENDBRANCH   8   9
ENDBRANCH   7   8
ENDBRANCH   6   7
ENDBRANCH   5   6
ENDBRANCH   4   5
ENDBRANCH   3   4
ENDBRANCH   2   3
ENDBRANCH   1   2
BRANCH   1  15
ATOM     15  C   UNL     1      65.000  43.991  58.358  1.00  0.00     0.000 C 
BRANCH  15  16
ATOM     16  C   UNL     1      64.819  45.504  58.577  1.00  0.00     0.000 C 
BRANCH  16  17
ATOM     17  C   UNL     1      66.124  46.321  58.632  1.00  0.00     0.000 C 
BRANCH  17  18
ATOM     18  C   UNL     1      66.227  47.361  57.502  1.00  0.00    -0.000 C 
BRANCH  18  19
ATOM     19  C   UNL     1      66.519  48.776  58.028  1.00  0.00    -0.000 C 
BRANCH  19  20
ATOM     20  C   UNL     1      68.026  49.077  58.103  1.00  0.00    -0.000 C 
BRANCH  20  21
ATOM     21  C   UNL     1      68.733  48.918  56.744  1.00  0.00    -0.000 C 
BRANCH  21  22
ATOM     22  C   UNL     1      69.491  50.169  56.254  1.00  0.00    -0.000 C 
BRANCH  22  23
ATOM     23  C   UNL     1      68.755  51.004  55.187  1.00  0.00    -0.000 C 
BRANCH  23  24
ATOM     24  C   UNL     1      69.391  50.976  53.782  1.00  0.00    -0.000 C 
BRANCH  24  25
ATOM     25  C   UNL     1      70.772  51.648  53.684  1.00  0.00    -0.003 C 
ATOM     26  C   UNL     1      71.343  51.635  52.266  1.00  0.00     0.004 C 
ENDBRANCH  24  25
ENDBRANCH  23  24
ENDBRANCH  22  23
ENDBRANCH  21  22
ENDBRANCH  20  21
ENDBRANCH  19  20
ENDBRANCH  18  19
ENDBRANCH  17  18
ENDBRANCH  16  17
ENDBRANCH  15  16
ENDBRANCH   1  15
TORSDOF 22
ENDMDL
MODEL 6
REMARK VINA RESULT:    -3.755     14.378     18.022
REMARK INTER + INTRA:         -10.634
REMARK INTER:                  -8.288
REMARK INTRA:                  -2.345
REMARK UNBOUND:                -2.049
REMARK SMILES CCCCCCCCCCCCCCCCCCCCCCCC(=O)[O-]
REMARK SMILES IDX 13 1 14 2 15 3 16 4 17 5 18 6 19 7 20 8 21 9 22 10 23 11
REMARK SMILES IDX 24 12 25 13 26 14 12 15 11 16 10 17 9 18 8 19 7 20 6 21 5 22
REMARK SMILES IDX 4 23 3 24 2 25 1 26
REMARK H PARENT
REMARK Flexibility Score: inf
ROOT
ATOM      1  C   UNL     1      69.229  49.485  57.308  1.00  0.00     0.000 C 
ENDROOT
BRANCH   1   2
ATOM      2  C   UNL     1      70.130  48.764  58.324  1.00  0.00     0.000 C 
BRANCH   2   3
ATOM      3  C   UNL     1      71.624  48.865  57.970  1.00  0.00     0.000 C 
BRANCH   3   4
ATOM      4  C   UNL     1      71.862  49.419  56.554  1.00  0.00     0.000 C 
BRANCH   4   5
ATOM      5  C   UNL     1      72.728  50.691  56.491  1.00  0.00     0.000 C 
BRANCH   5   6
ATOM      6  C   UNL     1      72.286  51.791  57.481  1.00  0.00     0.000 C 
BRANCH   6   7
ATOM      7  C   UNL     1      70.978  52.471  57.051  1.00  0.00     0.000 C 
BRANCH   7   8
ATOM      8  C   UNL     1      70.961  52.724  55.539  1.00  0.00     0.000 C 
BRANCH   8   9
ATOM      9  C   UNL     1      69.642  52.248  54.912  1.00  0.00     0.000 C 
BRANCH   9  10
ATOM     10  C   UNL     1      69.855  51.190  53.819  1.00  0.00     0.006 C 
BRANCH  10  11
ATOM     11  C   UNL     1      71.218  51.321  53.125  1.00  0.00     0.053 C 
BRANCH  11  12
ATOM     12  C   UNL     1      71.052  51.909  51.760  1.00  0.00     0.041 C 
ATOM     13  O   UNL     1      71.809  52.838  51.373  1.00  0.00    -0.550 OA
ATOM     14  O   UNL     1      70.099  51.392  50.891  1.00  0.00    -0.550 OA
ENDBRANCH  11  12
ENDBRANCH  10  11
ENDBRANCH   9  10
ENDBRANCH   8   9
ENDBRANCH   7   8
ENDBRANCH   6   7
ENDBRANCH   5   6
ENDBRANCH   4   5
ENDBRANCH   3   4
ENDBRANCH   2   3
ENDBRANCH   1   2
BRANCH   1  15
ATOM     15  C   UNL     1      67.987  48.660  56.926  1.00  0.00     0.000 C 
BRANCH  15  16
ATOM     16  C   UNL     1      67.305  48.006  58.142  1.00  0.00     0.000 C 
BRANCH  16  17
ATOM     17  C   UNL     1      65.769  48.120  58.175  1.00  0.00     0.000 C 
BRANCH  17  18
ATOM     18  C   UNL     1      65.076  46.783  58.489  1.00  0.00    -0.000 C 
BRANCH  18  19
ATOM     19  C   UNL     1      66.011  45.576  58.305  1.00  0.00    -0.000 C 
BRANCH  19  20
ATOM     20  C   UNL     1      65.719  44.797  57.011  1.00  0.00    -0.000 C 
BRANCH  20  21
ATOM     21  C   UNL     1      66.055  43.299  57.129  1.00  0.00    -0.000 C 
BRANCH  21  22
ATOM     22  C   UNL     1      67.022  42.936  58.274  1.00  0.00    -0.000 C 
BRANCH  22  23
ATOM     23  C   UNL     1      66.691  41.627  59.020  1.00  0.00    -0.000 C 
BRANCH  23  24
ATOM     24  C   UNL     1      66.085  40.511  58.144  1.00  0.00    -0.000 C 
BRANCH  24  25
ATOM     25  C   UNL     1      65.112  39.570  58.877  1.00  0.00    -0.003 C 
ATOM     26  C   UNL     1      63.791  39.381  58.133  1.00  0.00     0.004 C 
ENDBRANCH  24  25
ENDBRANCH  23  24
ENDBRANCH  22  23
ENDBRANCH  21  22
ENDBRANCH  20  21
ENDBRANCH  19  20
ENDBRANCH  18  19
ENDBRANCH  17  18
ENDBRANCH  16  17
ENDBRANCH  15  16
ENDBRANCH   1  15
TORSDOF 22
ENDMDL
MODEL 7
REMARK VINA RESULT:    -3.750     11.389     15.721
REMARK INTER + INTRA:         -10.623
REMARK INTER:                  -9.337
REMARK INTRA:                  -1.286
REMARK UNBOUND:                -2.049
REMARK SMILES CCCCCCCCCCCCCCCCCCCCCCCC(=O)[O-]
REMARK SMILES IDX 13 1 14 2 15 3 16 4 17 5 18 6 19 7 20 8 21 9 22 10 23 11
REMARK SMILES IDX 24 12 25 13 26 14 12 15 11 16 10 17 9 18 8 19 7 20 6 21 5 22
REMARK SMILES IDX 4 23 3 24 2 25 1 26
REMARK H PARENT
REMARK Flexibility Score: inf
ROOT
ATOM      1  C   UNL     1      65.687  44.877  56.811  1.00  0.00     0.000 C 
ENDROOT
BRANCH   1   2
ATOM      2  C   UNL     1      64.977  45.168  58.144  1.00  0.00     0.000 C 
BRANCH   2   3
ATOM      3  C   UNL     1      65.393  46.516  58.758  1.00  0.00     0.000 C 
BRANCH   3   4
ATOM      4  C   UNL     1      66.172  47.402  57.771  1.00  0.00     0.000 C 
BRANCH   4   5
ATOM      5  C   UNL     1      66.422  48.845  58.251  1.00  0.00     0.000 C 
BRANCH   5   6
ATOM      6  C   UNL     1      67.914  49.242  58.269  1.00  0.00     0.000 C 
BRANCH   6   7
ATOM      7  C   UNL     1      68.129  50.716  57.896  1.00  0.00     0.000 C 
BRANCH   7   8
ATOM      8  C   UNL     1      67.635  51.001  56.473  1.00  0.00     0.000 C 
BRANCH   8   9
ATOM      9  C   UNL     1      68.686  50.592  55.430  1.00  0.00     0.000 C 
BRANCH   9  10
ATOM     10  C   UNL     1      69.973  51.424  55.529  1.00  0.00     0.006 C 
BRANCH  10  11
ATOM     11  C   UNL     1      70.896  51.236  54.319  1.00  0.00     0.053 C 
BRANCH  11  12
ATOM     12  C   UNL     1      70.278  51.834  53.095  1.00  0.00     0.041 C 
ATOM     13  O   UNL     1      70.319  53.078  52.908  1.00  0.00    -0.550 OA
ATOM     14  O   UNL     1      69.707  51.012  52.132  1.00  0.00    -0.550 OA
ENDBRANCH  11  12
ENDBRANCH  10  11
ENDBRANCH   9  10
ENDBRANCH   8   9
ENDBRANCH   7   8
ENDBRANCH   6   7
ENDBRANCH   5   6
ENDBRANCH   4   5
ENDBRANCH   3   4
ENDBRANCH   2   3
ENDBRANCH   1   2
BRANCH   1  15
ATOM     15  C   UNL     1      65.785  43.372  56.507  1.00  0.00     0.000 C 
BRANCH  15  16
ATOM     16  C   UNL     1      65.293  42.491  57.670  1.00  0.00     0.000 C 
BRANCH  16  17
ATOM     17  C   UNL     1      66.203  41.299  58.023  1.00  0.00     0.000 C 
BRANCH  17  18
ATOM     18  C   UNL     1      65.413  40.048  58.445  1.00  0.00    -0.000 C 
BRANCH  18  19
ATOM     19  C   UNL     1      63.905  40.184  58.178  1.00  0.00    -0.000 C 
BRANCH  19  20
ATOM     20  C   UNL     1      63.215  38.822  57.990  1.00  0.00    -0.000 C 
BRANCH  20  21
ATOM     21  C   UNL     1      63.384  38.260  56.566  1.00  0.00    -0.000 C 
BRANCH  21  22
ATOM     22  C   UNL     1      62.077  37.800  55.887  1.00  0.00    -0.000 C 
BRANCH  22  23
ATOM     23  C   UNL     1      61.163  36.918  56.760  1.00  0.00    -0.000 C 
BRANCH  23  24
ATOM     24  C   UNL     1      59.846  37.584  57.209  1.00  0.00    -0.000 C 
BRANCH  24  25
ATOM     25  C   UNL     1      59.018  38.210  56.073  1.00  0.00    -0.003 C 
ATOM     26  C   UNL     1      58.694  37.221  54.954  1.00  0.00     0.004 C 
ENDBRANCH  24  25
ENDBRANCH  23  24
ENDBRANCH  22  23
ENDBRANCH  21  22
ENDBRANCH  20  21
ENDBRANCH  19  20
ENDBRANCH  18  19
ENDBRANCH  17  18
ENDBRANCH  16  17
ENDBRANCH  15  16
ENDBRANCH   1  15
TORSDOF 22
ENDMDL
MODEL 8
REMARK VINA RESULT:    -3.703     17.972     20.216
REMARK INTER + INTRA:         -10.514
REMARK INTER:                  -6.393
REMARK INTRA:                  -4.121
REMARK UNBOUND:                -2.049
REMARK SMILES CCCCCCCCCCCCCCCCCCCCCCCC(=O)[O-]
REMARK SMILES IDX 13 1 14 2 15 3 16 4 17 5 18 6 19 7 20 8 21 9 22 10 23 11
REMARK SMILES IDX 24 12 25 13 26 14 12 15 11 16 10 17 9 18 8 19 7 20 6 21 5 22
REMARK SMILES IDX 4 23 3 24 2 25 1 26
REMARK H PARENT
REMARK Flexibility Score: inf
ROOT
ATOM      1  C   UNL     1      68.863  49.972  57.328  1.00  0.00     0.000 C 
ENDROOT
BRANCH   1   2
ATOM      2  C   UNL     1      68.755  49.949  55.794  1.00  0.00     0.000 C 
BRANCH   2   3
ATOM      3  C   UNL     1      69.017  51.326  55.159  1.00  0.00     0.000 C 
BRANCH   3   4
ATOM      4  C   UNL     1      69.899  51.240  53.901  1.00  0.00     0.000 C 
BRANCH   4   5
ATOM      5  C   UNL     1      70.665  52.532  53.555  1.00  0.00     0.000 C 
BRANCH   5   6
ATOM      6  C   UNL     1      69.949  53.819  54.017  1.00  0.00     0.000 C 
BRANCH   6   7
ATOM      7  C   UNL     1      70.215  55.004  53.076  1.00  0.00     0.000 C 
BRANCH   7   8
ATOM      8  C   UNL     1      70.945  54.546  51.808  1.00  0.00     0.000 C 
BRANCH   8   9
ATOM      9  C   UNL     1      70.105  54.828  50.553  1.00  0.00     0.000 C 
BRANCH   9  10
ATOM     10  C   UNL     1      68.825  53.981  50.496  1.00  0.00     0.006 C 
BRANCH  10  11
ATOM     11  C   UNL     1      68.904  52.856  49.456  1.00  0.00     0.053 C 
BRANCH  11  12
ATOM     12  C   UNL     1      69.347  51.581  50.101  1.00  0.00     0.041 C 
ATOM     13  O   UNL     1      70.563  51.399  50.375  1.00  0.00    -0.550 OA
ATOM     14  O   UNL     1      68.411  50.618  50.454  1.00  0.00    -0.550 OA
ENDBRANCH  11  12
ENDBRANCH  10  11
ENDBRANCH   9  10
ENDBRANCH   8   9
ENDBRANCH   7   8
ENDBRANCH   6   7
ENDBRANCH   5   6
ENDBRANCH   4   5
ENDBRANCH   3   4
ENDBRANCH   2   3
ENDBRANCH   1   2
BRANCH   1  15
ATOM     15  C   UNL     1      69.683  48.793  57.882  1.00  0.00     0.000 C 
BRANCH  15  16
ATOM     16  C   UNL     1      71.171  49.138  58.081  1.00  0.00     0.000 C 
BRANCH  16  17
ATOM     17  C   UNL     1      72.080  48.843  56.873  1.00  0.00     0.000 C 
BRANCH  17  18
ATOM     18  C   UNL     1      72.623  50.119  56.207  1.00  0.00    -0.000 C 
BRANCH  18  19
ATOM     19  C   UNL     1      72.872  51.252  57.217  1.00  0.00    -0.000 C 
BRANCH  19  20
ATOM     20  C   UNL     1      72.037  52.507  56.910  1.00  0.00    -0.000 C 
BRANCH  20  21
ATOM     21  C   UNL     1      71.088  52.887  58.062  1.00  0.00    -0.000 C 
BRANCH  21  22
ATOM     22  C   UNL     1      69.942  53.843  57.674  1.00  0.00    -0.000 C 
BRANCH  22  23
ATOM     23  C   UNL     1      68.997  54.235  58.828  1.00  0.00    -0.000 C 
BRANCH  23  24
ATOM     24  C   UNL     1      67.503  53.945  58.578  1.00  0.00    -0.000 C 
BRANCH  24  25
ATOM     25  C   UNL     1      67.093  53.897  57.095  1.00  0.00    -0.003 C 
ATOM     26  C   UNL     1      66.170  52.724  56.768  1.00  0.00     0.004 C 
ENDBRANCH  24  25
ENDBRANCH  23  24
ENDBRANCH  22  23
ENDBRANCH  21  22
ENDBRANCH  20  21
ENDBRANCH  19  20
ENDBRANCH  18  19
ENDBRANCH  17  18
ENDBRANCH  16  17
ENDBRANCH  15  16
ENDBRANCH   1  15
TORSDOF 22
ENDMDL
MODEL 9
REMARK VINA RESULT:    -3.683     16.141     19.817
REMARK INTER + INTRA:         -10.468
REMARK INTER:                  -7.037
REMARK INTRA:                  -3.431
REMARK UNBOUND:                -2.049
REMARK SMILES CCCCCCCCCCCCCCCCCCCCCCCC(=O)[O-]
REMARK SMILES IDX 13 1 14 2 15 3 16 4 17 5 18 6 19 7 20 8 21 9 22 10 23 11
REMARK SMILES IDX 24 12 25 13 26 14 12 15 11 16 10 17 9 18 8 19 7 20 6 21 5 22
REMARK SMILES IDX 4 23 3 24 2 25 1 26
REMARK H PARENT
REMARK Flexibility Score: inf
ROOT
ATOM      1  C   UNL     1      71.181  51.351  52.923  1.00  0.00     0.000 C 
ENDROOT
BRANCH   1   2
ATOM      2  C   UNL     1      70.864  51.171  54.417  1.00  0.00     0.000 C 
BRANCH   2   3
ATOM      3  C   UNL     1      69.365  50.954  54.686  1.00  0.00     0.000 C 
BRANCH   3   4
ATOM      4  C   UNL     1      69.105  49.912  55.789  1.00  0.00     0.000 C 
BRANCH   4   5
ATOM      5  C   UNL     1      67.902  50.219  56.701  1.00  0.00     0.000 C 
BRANCH   5   6
ATOM      6  C   UNL     1      68.022  49.603  58.112  1.00  0.00     0.000 C 
BRANCH   6   7
ATOM      7  C   UNL     1      67.542  48.145  58.156  1.00  0.00     0.000 C 
BRANCH   7   8
ATOM      8  C   UNL     1      66.087  48.031  57.685  1.00  0.00     0.000 C 
BRANCH   8   9
ATOM      9  C   UNL     1      65.353  46.903  58.424  1.00  0.00     0.000 C 
BRANCH   9  10
ATOM     10  C   UNL     1      66.076  45.552  58.309  1.00  0.00     0.006 C 
BRANCH  10  11
ATOM     11  C   UNL     1      65.787  44.837  56.983  1.00  0.00     0.053 C 
BRANCH  11  12
ATOM     12  C   UNL     1      65.809  43.353  57.177  1.00  0.00     0.041 C 
ATOM     13  O   UNL     1      64.730  42.713  57.283  1.00  0.00    -0.550 OA
ATOM     14  O   UNL     1      67.018  42.670  57.183  1.00  0.00    -0.550 OA
ENDBRANCH  11  12
ENDBRANCH  10  11
ENDBRANCH   9  10
ENDBRANCH   8   9
ENDBRANCH   7   8
ENDBRANCH   6   7
ENDBRANCH   5   6
ENDBRANCH   4   5
ENDBRANCH   3   4
ENDBRANCH   2   3
ENDBRANCH   1   2
BRANCH   1  15
ATOM     15  C   UNL     1      70.047  52.055  52.157  1.00  0.00     0.000 C 
BRANCH  15  16
ATOM     16  C   UNL     1      70.438  53.461  51.666  1.00  0.00     0.000 C 
BRANCH  16  17
ATOM     17  C   UNL     1      69.752  54.629  52.401  1.00  0.00     0.000 C 
BRANCH  17  18
ATOM     18  C   UNL     1      70.351  54.894  53.793  1.00  0.00    -0.000 C 
BRANCH  18  19
ATOM     19  C   UNL     1      69.366  54.575  54.930  1.00  0.00    -0.000 C 
BRANCH  19  20
ATOM     20  C   UNL     1      70.074  54.365  56.280  1.00  0.00    -0.000 C 
BRANCH  20  21
ATOM     21  C   UNL     1      69.189  53.638  57.310  1.00  0.00    -0.000 C 
BRANCH  21  22
ATOM     22  C   UNL     1      69.959  52.857  58.395  1.00  0.00    -0.000 C 
BRANCH  22  23
ATOM     23  C   UNL     1      71.278  52.212  57.924  1.00  0.00    -0.000 C 
BRANCH  23  24
ATOM     24  C   UNL     1      71.507  50.765  58.408  1.00  0.00    -0.000 C 
BRANCH  24  25
ATOM     25  C   UNL     1      72.419  49.917  57.503  1.00  0.00    -0.003 C 
ATOM     26  C   UNL     1      72.356  48.424  57.823  1.00  0.00     0.004 C 
ENDBRANCH  24  25
ENDBRANCH  23  24
ENDBRANCH  22  23
ENDBRANCH  21  22
ENDBRANCH  20  21
ENDBRANCH  19  20
ENDBRANCH  18  19
ENDBRANCH  17  18
ENDBRANCH  16  17
ENDBRANCH  15  16
ENDBRANCH   1  15
TORSDOF 22
ENDMDL
