MODEL 1
REMARK VINA RESULT:    -5.996      0.000      0.000
REMARK INTER + INTRA:          -7.238
REMARK INTER:                  -7.223
REMARK INTRA:                  -0.015
REMARK UNBOUND:                -0.015
REMARK SMILES O=c1c(O)c(-c2ccc(O)c(O)c2)oc2cc(O)cc(O)c12
REMARK SMILES IDX 5 1 3 2 2 3 1 4 22 5 20 6 19 7 17 8 16 9 15 10 14 11 6 12
REMARK SMILES IDX 7 13 8 14 9 15 13 16 11 17 10 18 12 20 4 22 21 24 18 26
REMARK H PARENT 10 19 12 21 4 23 21 25 18 27
REMARK Flexibility Score: inf
ROOT
ATOM      1  C   UNL     1      -0.628  34.710  63.141  1.00  0.00     0.180 A 
ATOM      2  C   UNL     1       0.135  33.660  63.687  1.00  0.00     0.208 A 
ATOM      3  C   UNL     1       1.535  33.733  63.621  1.00  0.00     0.238 A 
ATOM      4  O   UNL     1       2.229  32.793  64.096  1.00  0.00    -0.285 OA
ATOM      5  C   UNL     1       2.147  34.859  63.033  1.00  0.00     0.111 A 
ATOM      6  C   UNL     1       3.552  35.012  62.931  1.00  0.00     0.134 A 
ATOM      7  C   UNL     1       4.084  36.167  62.340  1.00  0.00     0.093 A 
ATOM      8  C   UNL     1       3.241  37.171  61.851  1.00  0.00     0.123 A 
ATOM      9  C   UNL     1       1.857  37.024  61.948  1.00  0.00     0.094 A 
ATOM     10  C   UNL     1       1.306  35.880  62.532  1.00  0.00     0.146 A 
ATOM     11  O   UNL     1      -0.015  35.764  62.608  1.00  0.00    -0.452 OA
ENDROOT
BRANCH   1  12
ATOM     12  C   UNL     1      -2.108  34.697  63.155  1.00  0.00     0.025 A 
ATOM     13  C   UNL     1      -2.811  34.844  61.949  1.00  0.00     0.016 A 
ATOM     14  C   UNL     1      -4.208  34.813  61.936  1.00  0.00     0.051 A 
ATOM     15  C   UNL     1      -4.922  34.618  63.121  1.00  0.00     0.157 A 
ATOM     16  C   UNL     1      -2.828  34.479  64.344  1.00  0.00     0.062 A 
ATOM     17  C   UNL     1      -4.230  34.445  64.332  1.00  0.00     0.158 A 
BRANCH  15  18
ATOM     18  O   UNL     1      -6.316  34.593  63.077  1.00  0.00    -0.504 OA
ATOM     19  H   UNL     1      -6.829  34.727  62.213  1.00  0.00     0.293 HD
ENDBRANCH  15  18
BRANCH  17  20
ATOM     20  O   UNL     1      -4.935  34.235  65.515  1.00  0.00    -0.504 OA
ATOM     21  H   UNL     1      -5.714  33.589  65.562  1.00  0.00     0.293 HD
ENDBRANCH  17  20
ENDBRANCH   1  12
BRANCH   2  22
ATOM     22  O   UNL     1      -0.495  32.579  64.308  1.00  0.00    -0.502 OA
ATOM     23  H   UNL     1      -1.397  32.231  64.007  1.00  0.00     0.293 HD
ENDBRANCH   2  22
BRANCH   6  24
ATOM     24  O   UNL     1       4.418  34.029  63.410  1.00  0.00    -0.507 OA
ATOM     25  H   UNL     1       5.379  34.238  63.654  1.00  0.00     0.293 HD
ENDBRANCH   6  24
BRANCH   8  26
ATOM     26  O   UNL     1       3.769  38.319  61.264  1.00  0.00    -0.508 OA
ATOM     27  H   UNL     1       4.153  39.071  61.825  1.00  0.00     0.293 HD
ENDBRANCH   8  26
TORSDOF 6
ENDMDL
MODEL 2
REMARK VINA RESULT:    -5.954      7.082      8.885
REMARK INTER + INTRA:          -7.188
REMARK INTER:                  -6.856
REMARK INTRA:                  -0.331
REMARK UNBOUND:                -0.015
REMARK SMILES O=c1c(O)c(-c2ccc(O)c(O)c2)oc2cc(O)cc(O)c12
REMARK SMILES IDX 5 1 3 2 2 3 1 4 22 5 20 6 19 7 17 8 16 9 15 10 14 11 6 12
REMARK SMILES IDX 7 13 8 14 9 15 13 16 11 17 10 18 12 20 4 22 21 24 18 26
REMARK H PARENT 10 19 12 21 4 23 21 25 18 27
REMARK Flexibility Score: inf
ROOT
ATOM      1  C   UNL     1       6.257  36.963  62.090  1.00  0.00     0.180 A 
ATOM      2  C   UNL     1       6.220  35.568  62.281  1.00  0.00     0.208 A 
ATOM      3  C   UNL     1       6.018  35.066  63.576  1.00  0.00     0.238 A 
ATOM      4  O   UNL     1       5.994  33.819  63.761  1.00  0.00    -0.285 OA
ATOM      5  C   UNL     1       5.835  35.961  64.650  1.00  0.00     0.111 A 
ATOM      6  C   UNL     1       5.621  35.536  65.984  1.00  0.00     0.134 A 
ATOM      7  C   UNL     1       5.438  36.490  66.996  1.00  0.00     0.093 A 
ATOM      8  C   UNL     1       5.465  37.857  66.700  1.00  0.00     0.123 A 
ATOM      9  C   UNL     1       5.677  38.281  65.388  1.00  0.00     0.094 A 
ATOM     10  C   UNL     1       5.862  37.346  64.365  1.00  0.00     0.146 A 
ATOM     11  O   UNL     1       6.066  37.777  63.124  1.00  0.00    -0.452 OA
ENDROOT
BRANCH   1  12
ATOM     12  C   UNL     1       6.486  37.568  60.758  1.00  0.00     0.025 A 
ATOM     13  C   UNL     1       5.385  37.891  59.949  1.00  0.00     0.016 A 
ATOM     14  C   UNL     1       5.575  38.482  58.698  1.00  0.00     0.051 A 
ATOM     15  C   UNL     1       6.864  38.775  58.243  1.00  0.00     0.157 A 
ATOM     16  C   UNL     1       7.780  37.883  60.308  1.00  0.00     0.062 A 
ATOM     17  C   UNL     1       7.973  38.479  59.054  1.00  0.00     0.158 A 
BRANCH  15  18
ATOM     18  O   UNL     1       7.023  39.364  56.988  1.00  0.00    -0.504 OA
ATOM     19  H   UNL     1       7.402  38.854  56.199  1.00  0.00     0.293 HD
ENDBRANCH  15  18
BRANCH  17  20
ATOM     20  O   UNL     1       9.260  38.782  58.613  1.00  0.00    -0.504 OA
ATOM     21  H   UNL     1       9.887  38.064  58.272  1.00  0.00     0.293 HD
ENDBRANCH  17  20
ENDBRANCH   1  12
BRANCH   2  22
ATOM     22  O   UNL     1       6.354  34.703  61.192  1.00  0.00    -0.502 OA
ATOM     23  H   UNL     1       5.796  34.797  60.353  1.00  0.00     0.293 HD
ENDBRANCH   2  22
BRANCH   6  24
ATOM     24  O   UNL     1       5.588  34.180  66.310  1.00  0.00    -0.507 OA
ATOM     25  H   UNL     1       6.422  33.605  66.283  1.00  0.00     0.293 HD
ENDBRANCH   6  24
BRANCH   8  26
ATOM     26  O   UNL     1       5.283  38.805  67.706  1.00  0.00    -0.508 OA
ATOM     27  H   UNL     1       4.479  38.776  68.321  1.00  0.00     0.293 HD
ENDBRANCH   8  26
TORSDOF 6
ENDMDL
MODEL 3
REMARK VINA RESULT:    -5.918     13.172     14.325
REMARK INTER + INTRA:          -7.144
REMARK INTER:                  -6.892
REMARK INTRA:                  -0.252
REMARK UNBOUND:                -0.015
REMARK SMILES O=c1c(O)c(-c2ccc(O)c(O)c2)oc2cc(O)cc(O)c12
REMARK SMILES IDX 5 1 3 2 2 3 1 4 22 5 20 6 19 7 17 8 16 9 15 10 14 11 6 12
REMARK SMILES IDX 7 13 8 14 9 15 13 16 11 17 10 18 12 20 4 22 21 24 18 26
REMARK H PARENT 10 19 12 21 4 23 21 25 18 27
REMARK Flexibility Score: inf
ROOT
ATOM      1  C   UNL     1       9.992  43.433  62.784  1.00  0.00     0.180 A 
ATOM      2  C   UNL     1      10.517  42.518  63.717  1.00  0.00     0.208 A 
ATOM      3  C   UNL     1      10.173  42.658  65.071  1.00  0.00     0.238 A 
ATOM      4  O   UNL     1      10.646  41.851  65.917  1.00  0.00    -0.285 OA
ATOM      5  C   UNL     1       9.299  43.691  65.465  1.00  0.00     0.111 A 
ATOM      6  C   UNL     1       8.899  43.896  66.808  1.00  0.00     0.134 A 
ATOM      7  C   UNL     1       8.018  44.942  67.118  1.00  0.00     0.093 A 
ATOM      8  C   UNL     1       7.528  45.784  66.113  1.00  0.00     0.123 A 
ATOM      9  C   UNL     1       7.919  45.585  64.789  1.00  0.00     0.094 A 
ATOM     10  C   UNL     1       8.798  44.549  64.459  1.00  0.00     0.146 A 
ATOM     11  O   UNL     1       9.158  44.386  63.190  1.00  0.00    -0.452 OA
ENDROOT
BRANCH   1  12
ATOM     12  C   UNL     1      10.323  43.363  61.342  1.00  0.00     0.025 A 
ATOM     13  C   UNL     1      11.241  44.276  60.800  1.00  0.00     0.016 A 
ATOM     14  C   UNL     1      11.584  44.215  59.447  1.00  0.00     0.051 A 
ATOM     15  C   UNL     1      11.030  43.234  58.620  1.00  0.00     0.157 A 
ATOM     16  C   UNL     1       9.783  42.363  60.514  1.00  0.00     0.062 A 
ATOM     17  C   UNL     1      10.128  42.299  59.156  1.00  0.00     0.158 A 
BRANCH  15  18
ATOM     18  O   UNL     1      11.391  43.199  57.273  1.00  0.00    -0.504 OA
ATOM     19  H   UNL     1      12.176  42.652  56.941  1.00  0.00     0.293 HD
ENDBRANCH  15  18
BRANCH  17  20
ATOM     20  O   UNL     1       9.583  41.309  58.341  1.00  0.00    -0.504 OA
ATOM     21  H   UNL     1       8.933  41.531  57.597  1.00  0.00     0.293 HD
ENDBRANCH  17  20
ENDBRANCH   1  12
BRANCH   2  22
ATOM     22  O   UNL     1      11.342  41.473  63.293  1.00  0.00    -0.502 OA
ATOM     23  H   UNL     1      11.000  40.529  63.166  1.00  0.00     0.293 HD
ENDBRANCH   2  22
BRANCH   6  24
ATOM     24  O   UNL     1       9.370  43.074  67.832  1.00  0.00    -0.507 OA
ATOM     25  H   UNL     1      10.258  42.589  67.761  1.00  0.00     0.293 HD
ENDBRANCH   6  24
BRANCH   8  26
ATOM     26  O   UNL     1       6.651  46.822  66.421  1.00  0.00    -0.508 OA
ATOM     27  H   UNL     1       6.810  47.766  66.089  1.00  0.00     0.293 HD
ENDBRANCH   8  26
TORSDOF 6
ENDMDL
MODEL 4
REMARK VINA RESULT:    -5.913      5.824      8.861
REMARK INTER + INTRA:          -7.138
REMARK INTER:                  -6.817
REMARK INTRA:                  -0.322
REMARK UNBOUND:                -0.015
REMARK SMILES O=c1c(O)c(-c2ccc(O)c(O)c2)oc2cc(O)cc(O)c12
REMARK SMILES IDX 5 1 3 2 2 3 1 4 22 5 20 6 19 7 17 8 16 9 15 10 14 11 6 12
REMARK SMILES IDX 7 13 8 14 9 15 13 16 11 17 10 18 12 20 4 22 21 24 18 26
REMARK H PARENT 10 19 12 21 4 23 21 25 18 27
REMARK Flexibility Score: inf
ROOT
ATOM      1  C   UNL     1      -3.638  33.340  57.323  1.00  0.00     0.180 A 
ATOM      2  C   UNL     1      -4.987  32.954  57.453  1.00  0.00     0.208 A 
ATOM      3  C   UNL     1      -5.608  33.071  58.706  1.00  0.00     0.238 A 
ATOM      4  O   UNL     1      -6.811  32.718  58.837  1.00  0.00    -0.285 OA
ATOM      5  C   UNL     1      -4.882  33.590  59.798  1.00  0.00     0.111 A 
ATOM      6  C   UNL     1      -5.436  33.746  61.092  1.00  0.00     0.134 A 
ATOM      7  C   UNL     1      -4.651  34.279  62.125  1.00  0.00     0.093 A 
ATOM      8  C   UNL     1      -3.325  34.660  61.888  1.00  0.00     0.123 A 
ATOM      9  C   UNL     1      -2.775  34.508  60.615  1.00  0.00     0.094 A 
ATOM     10  C   UNL     1      -3.540  33.978  59.573  1.00  0.00     0.146 A 
ATOM     11  O   UNL     1      -2.990  33.839  58.371  1.00  0.00    -0.452 OA
ENDROOT
BRANCH   1  12
ATOM     12  C   UNL     1      -2.909  33.228  56.039  1.00  0.00     0.025 A 
ATOM     13  C   UNL     1      -2.301  32.010  55.696  1.00  0.00     0.016 A 
ATOM     14  C   UNL     1      -1.625  31.875  54.480  1.00  0.00     0.051 A 
ATOM     15  C   UNL     1      -1.560  32.946  53.584  1.00  0.00     0.157 A 
ATOM     16  C   UNL     1      -2.861  34.297  55.128  1.00  0.00     0.062 A 
ATOM     17  C   UNL     1      -2.185  34.163  53.906  1.00  0.00     0.158 A 
BRANCH  15  18
ATOM     18  O   UNL     1      -0.877  32.782  52.379  1.00  0.00    -0.504 OA
ATOM     19  H   UNL     1      -1.011  31.966  51.793  1.00  0.00     0.293 HD
ENDBRANCH  15  18
BRANCH  17  20
ATOM     20  O   UNL     1      -2.137  35.230  53.011  1.00  0.00    -0.504 OA
ATOM     21  H   UNL     1      -1.317  35.819  52.930  1.00  0.00     0.293 HD
ENDBRANCH  17  20
ENDBRANCH   1  12
BRANCH   2  22
ATOM     22  O   UNL     1      -5.698  32.489  56.344  1.00  0.00    -0.502 OA
ATOM     23  H   UNL     1      -6.605  32.047  56.427  1.00  0.00     0.293 HD
ENDBRANCH   2  22
BRANCH   6  24
ATOM     24  O   UNL     1      -6.755  33.375  61.358  1.00  0.00    -0.507 OA
ATOM     25  H   UNL     1      -7.008  32.877  62.204  1.00  0.00     0.293 HD
ENDBRANCH   6  24
BRANCH   8  26
ATOM     26  O   UNL     1      -2.546  35.190  62.914  1.00  0.00    -0.508 OA
ATOM     27  H   UNL     1      -2.963  35.666  63.705  1.00  0.00     0.293 HD
ENDBRANCH   8  26
TORSDOF 6
ENDMDL
MODEL 5
REMARK VINA RESULT:    -5.899      5.246      8.771
REMARK INTER + INTRA:          -7.121
REMARK INTER:                  -6.884
REMARK INTRA:                  -0.238
REMARK UNBOUND:                -0.015
REMARK SMILES O=c1c(O)c(-c2ccc(O)c(O)c2)oc2cc(O)cc(O)c12
REMARK SMILES IDX 5 1 3 2 2 3 1 4 22 5 20 6 19 7 17 8 16 9 15 10 14 11 6 12
REMARK SMILES IDX 7 13 8 14 9 15 13 16 11 17 10 18 12 20 4 22 21 24 18 26
REMARK H PARENT 10 19 12 21 4 23 21 25 18 27
REMARK Flexibility Score: inf
ROOT
ATOM      1  C   UNL     1       5.386  37.170  60.713  1.00  0.00     0.180 A 
ATOM      2  C   UNL     1       4.142  37.188  61.373  1.00  0.00     0.208 A 
ATOM      3  C   UNL     1       3.827  36.144  62.256  1.00  0.00     0.238 A 
ATOM      4  O   UNL     1       2.710  36.144  62.843  1.00  0.00    -0.285 OA
ATOM      5  C   UNL     1       4.764  35.115  62.482  1.00  0.00     0.111 A 
ATOM      6  C   UNL     1       4.525  34.030  63.360  1.00  0.00     0.134 A 
ATOM      7  C   UNL     1       5.513  33.050  63.538  1.00  0.00     0.093 A 
ATOM      8  C   UNL     1       6.733  33.135  62.857  1.00  0.00     0.123 A 
ATOM      9  C   UNL     1       6.971  34.202  61.990  1.00  0.00     0.094 A 
ATOM     10  C   UNL     1       6.000  35.188  61.798  1.00  0.00     0.146 A 
ATOM     11  O   UNL     1       6.251  36.191  60.963  1.00  0.00    -0.452 OA
ENDROOT
BRANCH   1  12
ATOM     12  C   UNL     1       5.783  38.224  59.753  1.00  0.00     0.025 A 
ATOM     13  C   UNL     1       5.163  38.281  58.496  1.00  0.00     0.016 A 
ATOM     14  C   UNL     1       5.506  39.280  57.581  1.00  0.00     0.051 A 
ATOM     15  C   UNL     1       6.460  40.246  57.915  1.00  0.00     0.157 A 
ATOM     16  C   UNL     1       6.727  39.209  60.095  1.00  0.00     0.062 A 
ATOM     17  C   UNL     1       7.071  40.214  59.180  1.00  0.00     0.158 A 
BRANCH  15  18
ATOM     18  O   UNL     1       6.784  41.230  56.981  1.00  0.00    -0.504 OA
ATOM     19  H   UNL     1       6.978  42.187  57.253  1.00  0.00     0.293 HD
ENDBRANCH  15  18
BRANCH  17  20
ATOM     20  O   UNL     1       8.012  41.183  59.524  1.00  0.00    -0.504 OA
ATOM     21  H   UNL     1       7.849  42.167  59.351  1.00  0.00     0.293 HD
ENDBRANCH  17  20
ENDBRANCH   1  12
BRANCH   2  22
ATOM     22  O   UNL     1       3.251  38.245  61.169  1.00  0.00    -0.502 OA
ATOM     23  H   UNL     1       2.904  38.493  60.250  1.00  0.00     0.293 HD
ENDBRANCH   2  22
BRANCH   6  24
ATOM     24  O   UNL     1       3.320  33.918  64.054  1.00  0.00    -0.507 OA
ATOM     25  H   UNL     1       2.489  33.533  63.620  1.00  0.00     0.293 HD
ENDBRANCH   6  24
BRANCH   8  26
ATOM     26  O   UNL     1       7.714  32.163  63.035  1.00  0.00    -0.508 OA
ATOM     27  H   UNL     1       8.551  32.347  63.575  1.00  0.00     0.293 HD
ENDBRANCH   8  26
TORSDOF 6
ENDMDL
MODEL 6
REMARK VINA RESULT:    -5.836      6.027      8.937
REMARK INTER + INTRA:          -7.046
REMARK INTER:                  -6.729
REMARK INTRA:                  -0.317
REMARK UNBOUND:                -0.015
REMARK SMILES O=c1c(O)c(-c2ccc(O)c(O)c2)oc2cc(O)cc(O)c12
REMARK SMILES IDX 5 1 3 2 2 3 1 4 22 5 20 6 19 7 17 8 16 9 15 10 14 11 6 12
REMARK SMILES IDX 7 13 8 14 9 15 13 16 11 17 10 18 12 20 4 22 21 24 18 26
REMARK H PARENT 10 19 12 21 4 23 21 25 18 27
REMARK Flexibility Score: inf
ROOT
ATOM      1  C   UNL     1       5.771  37.214  61.669  1.00  0.00     0.180 A 
ATOM      2  C   UNL     1       5.706  37.999  62.836  1.00  0.00     0.208 A 
ATOM      3  C   UNL     1       5.322  37.392  64.042  1.00  0.00     0.238 A 
ATOM      4  O   UNL     1       5.249  38.088  65.091  1.00  0.00    -0.285 OA
ATOM      5  C   UNL     1       5.031  36.013  64.066  1.00  0.00     0.111 A 
ATOM      6  C   UNL     1       4.641  35.325  65.241  1.00  0.00     0.134 A 
ATOM      7  C   UNL     1       4.377  33.948  65.185  1.00  0.00     0.093 A 
ATOM      8  C   UNL     1       4.497  33.249  63.979  1.00  0.00     0.123 A 
ATOM      9  C   UNL     1       4.879  33.922  62.819  1.00  0.00     0.094 A 
ATOM     10  C   UNL     1       5.146  35.294  62.853  1.00  0.00     0.146 A 
ATOM     11  O   UNL     1       5.504  35.913  61.733  1.00  0.00    -0.452 OA
ENDROOT
BRANCH   1  12
ATOM     12  C   UNL     1       6.150  37.785  60.356  1.00  0.00     0.025 A 
ATOM     13  C   UNL     1       5.147  38.250  59.492  1.00  0.00     0.016 A 
ATOM     14  C   UNL     1       5.482  38.812  58.257  1.00  0.00     0.051 A 
ATOM     15  C   UNL     1       6.821  38.934  57.875  1.00  0.00     0.157 A 
ATOM     16  C   UNL     1       7.497  37.927  59.980  1.00  0.00     0.062 A 
ATOM     17  C   UNL     1       7.836  38.494  58.743  1.00  0.00     0.158 A 
BRANCH  15  18
ATOM     18  O   UNL     1       7.125  39.498  56.636  1.00  0.00    -0.504 OA
ATOM     19  H   UNL     1       6.610  40.288  56.265  1.00  0.00     0.293 HD
ENDBRANCH  15  18
BRANCH  17  20
ATOM     20  O   UNL     1       9.173  38.625  58.375  1.00  0.00    -0.504 OA
ATOM     21  H   UNL     1       9.794  39.268  58.851  1.00  0.00     0.293 HD
ENDBRANCH  17  20
ENDBRANCH   1  12
BRANCH   2  22
ATOM     22  O   UNL     1       6.048  39.354  62.795  1.00  0.00    -0.502 OA
ATOM     23  H   UNL     1       6.984  39.684  62.995  1.00  0.00     0.293 HD
ENDBRANCH   2  22
BRANCH   6  24
ATOM     24  O   UNL     1       4.514  35.995  66.458  1.00  0.00    -0.507 OA
ATOM     25  H   UNL     1       4.486  37.007  66.509  1.00  0.00     0.293 HD
ENDBRANCH   6  24
BRANCH   8  26
ATOM     26  O   UNL     1       4.235  31.881  63.923  1.00  0.00    -0.508 OA
ATOM     27  H   UNL     1       3.646  31.483  63.201  1.00  0.00     0.293 HD
ENDBRANCH   8  26
TORSDOF 6
ENDMDL
MODEL 7
REMARK VINA RESULT:    -5.831      3.400      6.082
REMARK INTER + INTRA:          -7.039
REMARK INTER:                  -6.726
REMARK INTRA:                  -0.313
REMARK UNBOUND:                -0.015
REMARK SMILES O=c1c(O)c(-c2ccc(O)c(O)c2)oc2cc(O)cc(O)c12
REMARK SMILES IDX 5 1 3 2 2 3 1 4 22 5 20 6 19 7 17 8 16 9 15 10 14 11 6 12
REMARK SMILES IDX 7 13 8 14 9 15 13 16 11 17 10 18 12 20 4 22 21 24 18 26
REMARK H PARENT 10 19 12 21 4 23 21 25 18 27
REMARK Flexibility Score: inf
ROOT
ATOM      1  C   UNL     1       4.195  37.575  61.831  1.00  0.00     0.180 A 
ATOM      2  C   UNL     1       5.236  37.743  62.765  1.00  0.00     0.208 A 
ATOM      3  C   UNL     1       6.508  38.117  62.304  1.00  0.00     0.238 A 
ATOM      4  O   UNL     1       7.450  38.260  63.130  1.00  0.00    -0.285 OA
ATOM      5  C   UNL     1       6.713  38.337  60.927  1.00  0.00     0.111 A 
ATOM      6  C   UNL     1       7.962  38.721  60.382  1.00  0.00     0.134 A 
ATOM      7  C   UNL     1       8.084  38.930  59.000  1.00  0.00     0.093 A 
ATOM      8  C   UNL     1       6.981  38.763  58.155  1.00  0.00     0.123 A 
ATOM      9  C   UNL     1       5.748  38.385  58.687  1.00  0.00     0.094 A 
ATOM     10  C   UNL     1       5.607  38.171  60.061  1.00  0.00     0.146 A 
ATOM     11  O   UNL     1       4.422  37.806  60.541  1.00  0.00    -0.452 OA
ENDROOT
BRANCH   1  12
ATOM     12  C   UNL     1       2.832  37.164  62.238  1.00  0.00     0.025 A 
ATOM     13  C   UNL     1       2.488  35.804  62.216  1.00  0.00     0.016 A 
ATOM     14  C   UNL     1       1.214  35.390  62.616  1.00  0.00     0.051 A 
ATOM     15  C   UNL     1       0.273  36.325  63.057  1.00  0.00     0.157 A 
ATOM     16  C   UNL     1       1.892  38.101  62.702  1.00  0.00     0.062 A 
ATOM     17  C   UNL     1       0.614  37.687  63.106  1.00  0.00     0.158 A 
BRANCH  15  18
ATOM     18  O   UNL     1      -0.991  35.882  63.448  1.00  0.00    -0.504 OA
ATOM     19  H   UNL     1      -1.818  36.061  62.892  1.00  0.00     0.293 HD
ENDBRANCH  15  18
BRANCH  17  20
ATOM     20  O   UNL     1      -0.314  38.623  63.559  1.00  0.00    -0.504 OA
ATOM     21  H   UNL     1      -0.872  38.459  64.388  1.00  0.00     0.293 HD
ENDBRANCH  17  20
ENDBRANCH   1  12
BRANCH   2  22
ATOM     22  O   UNL     1       4.994  37.568  64.130  1.00  0.00    -0.502 OA
ATOM     23  H   UNL     1       4.390  38.185  64.658  1.00  0.00     0.293 HD
ENDBRANCH   2  22
BRANCH   6  24
ATOM     24  O   UNL     1       9.080  38.895  61.199  1.00  0.00    -0.507 OA
ATOM     25  H   UNL     1       8.991  39.121  62.183  1.00  0.00     0.293 HD
ENDBRANCH   6  24
BRANCH   8  26
ATOM     26  O   UNL     1       7.100  38.971  56.783  1.00  0.00    -0.508 OA
ATOM     27  H   UNL     1       7.194  39.903  56.394  1.00  0.00     0.293 HD
ENDBRANCH   8  26
TORSDOF 6
ENDMDL
MODEL 8
REMARK VINA RESULT:    -5.827     10.929     15.217
REMARK INTER + INTRA:          -7.035
REMARK INTER:                  -6.907
REMARK INTRA:                  -0.128
REMARK UNBOUND:                -0.015
REMARK SMILES O=c1c(O)c(-c2ccc(O)c(O)c2)oc2cc(O)cc(O)c12
REMARK SMILES IDX 5 1 3 2 2 3 1 4 22 5 20 6 19 7 17 8 16 9 15 10 14 11 6 12
REMARK SMILES IDX 7 13 8 14 9 15 13 16 11 17 10 18 12 20 4 22 21 24 18 26
REMARK H PARENT 10 19 12 21 4 23 21 25 18 27
REMARK Flexibility Score: inf
ROOT
ATOM      1  C   UNL     1       8.556  46.037  65.254  1.00  0.00     0.180 A 
ATOM      2  C   UNL     1       7.364  45.594  65.859  1.00  0.00     0.208 A 
ATOM      3  C   UNL     1       7.011  44.240  65.753  1.00  0.00     0.238 A 
ATOM      4  O   UNL     1       5.941  43.834  66.281  1.00  0.00    -0.285 OA
ATOM      5  C   UNL     1       7.862  43.350  65.065  1.00  0.00     0.111 A 
ATOM      6  C   UNL     1       7.582  41.970  64.917  1.00  0.00     0.134 A 
ATOM      7  C   UNL     1       8.485  41.148  64.226  1.00  0.00     0.093 A 
ATOM      8  C   UNL     1       9.660  41.679  63.682  1.00  0.00     0.123 A 
ATOM      9  C   UNL     1       9.940  43.038  63.825  1.00  0.00     0.094 A 
ATOM     10  C   UNL     1       9.053  43.875  64.509  1.00  0.00     0.146 A 
ATOM     11  O   UNL     1       9.341  45.166  64.627  1.00  0.00    -0.452 OA
ENDROOT
BRANCH   1  12
ATOM     12  C   UNL     1       8.985  47.453  65.307  1.00  0.00     0.025 A 
ATOM     13  C   UNL     1       8.171  48.443  64.734  1.00  0.00     0.016 A 
ATOM     14  C   UNL     1       8.546  49.788  64.790  1.00  0.00     0.051 A 
ATOM     15  C   UNL     1       9.729  50.166  65.432  1.00  0.00     0.157 A 
ATOM     16  C   UNL     1      10.164  47.837  65.970  1.00  0.00     0.062 A 
ATOM     17  C   UNL     1      10.541  49.187  66.029  1.00  0.00     0.158 A 
BRANCH  15  18
ATOM     18  O   UNL     1      10.077  51.516  65.470  1.00  0.00    -0.504 OA
ATOM     19  H   UNL     1      10.075  52.047  66.333  1.00  0.00     0.293 HD
ENDBRANCH  15  18
BRANCH  17  20
ATOM     20  O   UNL     1      11.714  49.559  66.683  1.00  0.00    -0.504 OA
ATOM     21  H   UNL     1      11.717  49.822  67.661  1.00  0.00     0.293 HD
ENDBRANCH  17  20
ENDBRANCH   1  12
BRANCH   2  22
ATOM     22  O   UNL     1       6.563  46.486  66.577  1.00  0.00    -0.502 OA
ATOM     23  H   UNL     1       6.809  46.811  67.504  1.00  0.00     0.293 HD
ENDBRANCH   2  22
BRANCH   6  24
ATOM     24  O   UNL     1       6.419  41.412  65.448  1.00  0.00    -0.507 OA
ATOM     25  H   UNL     1       6.344  40.420  65.641  1.00  0.00     0.293 HD
ENDBRANCH   6  24
BRANCH   8  26
ATOM     26  O   UNL     1      10.557  40.863  62.997  1.00  0.00    -0.508 OA
ATOM     27  H   UNL     1      10.666  39.882  63.230  1.00  0.00     0.293 HD
ENDBRANCH   8  26
TORSDOF 6
ENDMDL
MODEL 9
REMARK VINA RESULT:    -5.706      6.654      9.046
REMARK INTER + INTRA:          -6.889
REMARK INTER:                  -6.557
REMARK INTRA:                  -0.333
REMARK UNBOUND:                -0.015
REMARK SMILES O=c1c(O)c(-c2ccc(O)c(O)c2)oc2cc(O)cc(O)c12
REMARK SMILES IDX 5 1 3 2 2 3 1 4 22 5 20 6 19 7 17 8 16 9 15 10 14 11 6 12
REMARK SMILES IDX 7 13 8 14 9 15 13 16 11 17 10 18 12 20 4 22 21 24 18 26
REMARK H PARENT 10 19 12 21 4 23 21 25 18 27
REMARK Flexibility Score: inf
ROOT
ATOM      1  C   UNL     1       6.400  37.628  60.548  1.00  0.00     0.180 A 
ATOM      2  C   UNL     1       7.619  38.326  60.443  1.00  0.00     0.208 A 
ATOM      3  C   UNL     1       7.768  39.282  59.426  1.00  0.00     0.238 A 
ATOM      4  O   UNL     1       8.859  39.904  59.314  1.00  0.00    -0.285 OA
ATOM      5  C   UNL     1       6.694  39.539  58.549  1.00  0.00     0.111 A 
ATOM      6  C   UNL     1       6.762  40.490  57.502  1.00  0.00     0.134 A 
ATOM      7  C   UNL     1       5.646  40.696  56.677  1.00  0.00     0.093 A 
ATOM      8  C   UNL     1       4.466  39.970  56.880  1.00  0.00     0.123 A 
ATOM      9  C   UNL     1       4.396  39.032  57.910  1.00  0.00     0.094 A 
ATOM     10  C   UNL     1       5.497  38.812  58.742  1.00  0.00     0.146 A 
ATOM     11  O   UNL     1       5.404  37.909  59.713  1.00  0.00    -0.452 OA
ENDROOT
BRANCH   1  12
ATOM     12  C   UNL     1       6.174  36.592  61.582  1.00  0.00     0.025 A 
ATOM     13  C   UNL     1       5.527  36.941  62.778  1.00  0.00     0.016 A 
ATOM     14  C   UNL     1       5.284  35.975  63.758  1.00  0.00     0.051 A 
ATOM     15  C   UNL     1       5.667  34.647  63.552  1.00  0.00     0.157 A 
ATOM     16  C   UNL     1       6.539  35.251  61.367  1.00  0.00     0.062 A 
ATOM     17  C   UNL     1       6.293  34.280  62.349  1.00  0.00     0.158 A 
BRANCH  15  18
ATOM     18  O   UNL     1       5.413  33.706  64.550  1.00  0.00    -0.504 OA
ATOM     19  H   UNL     1       5.732  33.833  65.503  1.00  0.00     0.293 HD
ENDBRANCH  15  18
BRANCH  17  20
ATOM     20  O   UNL     1       6.664  32.955  62.131  1.00  0.00    -0.504 OA
ATOM     21  H   UNL     1       7.402  32.514  62.668  1.00  0.00     0.293 HD
ENDBRANCH  17  20
ENDBRANCH   1  12
BRANCH   2  22
ATOM     22  O   UNL     1       8.650  38.087  61.355  1.00  0.00    -0.502 OA
ATOM     23  H   UNL     1       9.545  38.556  61.298  1.00  0.00     0.293 HD
ENDBRANCH   2  22
BRANCH   6  24
ATOM     24  O   UNL     1       7.923  41.229  57.275  1.00  0.00    -0.507 OA
ATOM     25  H   UNL     1       8.219  41.483  56.340  1.00  0.00     0.293 HD
ENDBRANCH   6  24
BRANCH   8  26
ATOM     26  O   UNL     1       3.357  40.175  56.061  1.00  0.00    -0.508 OA
ATOM     27  H   UNL     1       2.842  41.047  56.075  1.00  0.00     0.293 HD
ENDBRANCH   8  26
TORSDOF 6
ENDMDL
