MODEL 1
REMARK VINA RESULT:    -4.242      0.000      0.000
REMARK INTER + INTRA:         -16.419
REMARK INTER:                 -10.690
REMARK INTRA:                  -5.729
REMARK UNBOUND:                -5.729
REMARK SMILES CCCCCCCCCCCCCCCCCCCCCCCCCCCC(=O)[O-]
REMARK SMILES IDX 15 1 16 2 17 3 18 4 19 5 20 6 21 7 22 8 23 9 24 10 25 11
REMARK SMILES IDX 26 12 27 13 28 14 29 15 30 16 14 17 13 18 12 19 11 20 10 21
REMARK SMILES IDX 9 22 8 23 7 24 6 25 5 26 4 27 3 28 2 29 1 30
REMARK H PARENT
REMARK Flexibility Score: inf
ROOT
ATOM      1  C   UNL     1       4.402  53.619   1.418  1.00  0.00     0.000 C 
ENDROOT
BRANCH   1   2
ATOM      2  C   UNL     1       5.013  52.213   1.277  1.00  0.00     0.000 C 
BRANCH   2   3
ATOM      3  C   UNL     1       3.973  51.090   1.436  1.00  0.00     0.000 C 
BRANCH   3   4
ATOM      4  C   UNL     1       2.631  51.430   0.769  1.00  0.00     0.000 C 
BRANCH   4   5
ATOM      5  C   UNL     1       2.234  50.425  -0.322  1.00  0.00     0.000 C 
BRANCH   5   6
ATOM      6  C   UNL     1       2.304  51.070  -1.712  1.00  0.00     0.000 C 
BRANCH   6   7
ATOM      7  C   UNL     1       2.484  52.592  -1.605  1.00  0.00     0.000 C 
BRANCH   7   8
ATOM      8  C   UNL     1       3.799  53.082  -2.237  1.00  0.00     0.000 C 
BRANCH   8   9
ATOM      9  C   UNL     1       4.564  52.020  -3.053  1.00  0.00     0.000 C 
BRANCH   9  10
ATOM     10  C   UNL     1       6.092  52.017  -2.849  1.00  0.00     0.000 C 
BRANCH  10  11
ATOM     11  C   UNL     1       6.615  53.040  -1.819  1.00  0.00     0.000 C 
BRANCH  11  12
ATOM     12  C   UNL     1       7.325  54.265  -2.423  1.00  0.00     0.006 C 
BRANCH  12  13
ATOM     13  C   UNL     1       6.546  55.569  -2.210  1.00  0.00     0.053 C 
BRANCH  13  14
ATOM     14  C   UNL     1       7.462  56.654  -1.740  1.00  0.00     0.041 C 
ATOM     15  O   UNL     1       7.288  57.184  -0.611  1.00  0.00    -0.550 OA
ATOM     16  O   UNL     1       8.478  57.114  -2.569  1.00  0.00    -0.550 OA
ENDBRANCH  13  14
ENDBRANCH  12  13
ENDBRANCH  11  12
ENDBRANCH  10  11
ENDBRANCH   9  10
ENDBRANCH   8   9
ENDBRANCH   7   8
ENDBRANCH   6   7
ENDBRANCH   5   6
ENDBRANCH   4   5
ENDBRANCH   3   4
ENDBRANCH   2   3
ENDBRANCH   1   2
BRANCH   1  17
ATOM     17  C   UNL     1       5.411  54.785   1.369  1.00  0.00     0.000 C 
BRANCH  17  18
ATOM     18  C   UNL     1       6.875  54.394   1.640  1.00  0.00     0.000 C 
BRANCH  18  19
ATOM     19  C   UNL     1       7.359  54.822   3.033  1.00  0.00     0.000 C 
BRANCH  19  20
ATOM     20  C   UNL     1       8.237  53.732   3.667  1.00  0.00     0.000 C 
BRANCH  20  21
ATOM     21  C   UNL     1       8.105  52.372   2.957  1.00  0.00     0.000 C 
BRANCH  21  22
ATOM     22  C   UNL     1       9.376  51.498   2.978  1.00  0.00    -0.000 C 
BRANCH  22  23
ATOM     23  C   UNL     1       9.959  51.152   1.597  1.00  0.00    -0.000 C 
BRANCH  23  24
ATOM     24  C   UNL     1       9.249  51.888   0.448  1.00  0.00    -0.000 C 
BRANCH  24  25
ATOM     25  C   UNL     1       9.804  51.509  -0.938  1.00  0.00    -0.000 C 
BRANCH  25  26
ATOM     26  C   UNL     1      10.722  52.562  -1.592  1.00  0.00    -0.000 C 
BRANCH  26  27
ATOM     27  C   UNL     1      11.298  53.615  -0.629  1.00  0.00    -0.000 C 
BRANCH  27  28
ATOM     28  C   UNL     1      10.548  54.956  -0.697  1.00  0.00    -0.000 C 
BRANCH  28  29
ATOM     29  C   UNL     1      10.386  55.610   0.684  1.00  0.00    -0.003 C 
ATOM     30  C   UNL     1      11.210  54.912   1.765  1.00  0.00     0.004 C 
ENDBRANCH  28  29
ENDBRANCH  27  28
ENDBRANCH  26  27
ENDBRANCH  25  26
ENDBRANCH  24  25
ENDBRANCH  23  24
ENDBRANCH  22  23
ENDBRANCH  21  22
ENDBRANCH  20  21
ENDBRANCH  19  20
ENDBRANCH  18  19
ENDBRANCH  17  18
ENDBRANCH   1  17
TORSDOF 26
ENDMDL
MODEL 2
REMARK VINA RESULT:    -4.183      1.526      3.279
REMARK INTER + INTRA:         -16.270
REMARK INTER:                 -10.912
REMARK INTRA:                  -5.357
REMARK UNBOUND:                -5.729
REMARK SMILES CCCCCCCCCCCCCCCCCCCCCCCCCCCC(=O)[O-]
REMARK SMILES IDX 15 1 16 2 17 3 18 4 19 5 20 6 21 7 22 8 23 9 24 10 25 11
REMARK SMILES IDX 26 12 27 13 28 14 29 15 30 16 14 17 13 18 12 19 11 20 10 21
REMARK SMILES IDX 9 22 8 23 7 24 6 25 5 26 4 27 3 28 2 29 1 30
REMARK H PARENT
REMARK Flexibility Score: inf
ROOT
ATOM      1  C   UNL     1       2.019  51.180  -0.356  1.00  0.00     0.000 C 
ENDROOT
BRANCH   1   2
ATOM      2  C   UNL     1       1.896  52.697  -0.593  1.00  0.00     0.000 C 
BRANCH   2   3
ATOM      3  C   UNL     1       2.476  53.139  -1.948  1.00  0.00     0.000 C 
BRANCH   3   4
ATOM      4  C   UNL     1       2.817  51.951  -2.860  1.00  0.00     0.000 C 
BRANCH   4   5
ATOM      5  C   UNL     1       4.286  51.943  -3.308  1.00  0.00     0.000 C 
BRANCH   5   6
ATOM      6  C   UNL     1       5.227  51.924  -2.098  1.00  0.00     0.000 C 
BRANCH   6   7
ATOM      7  C   UNL     1       6.690  52.102  -2.532  1.00  0.00     0.000 C 
BRANCH   7   8
ATOM      8  C   UNL     1       7.195  53.544  -2.348  1.00  0.00     0.000 C 
BRANCH   8   9
ATOM      9  C   UNL     1       6.802  54.520  -3.476  1.00  0.00     0.000 C 
BRANCH   9  10
ATOM     10  C   UNL     1       5.798  55.616  -3.068  1.00  0.00     0.000 C 
BRANCH  10  11
ATOM     11  C   UNL     1       5.306  55.541  -1.608  1.00  0.00     0.000 C 
BRANCH  11  12
ATOM     12  C   UNL     1       4.142  56.488  -1.265  1.00  0.00     0.006 C 
BRANCH  12  13
ATOM     13  C   UNL     1       4.074  56.832   0.228  1.00  0.00     0.053 C 
BRANCH  13  14
ATOM     14  C   UNL     1       5.244  57.676   0.623  1.00  0.00     0.041 C 
ATOM     15  O   UNL     1       5.313  58.877   0.251  1.00  0.00    -0.550 OA
ATOM     16  O   UNL     1       6.283  57.123   1.361  1.00  0.00    -0.550 OA
ENDBRANCH  13  14
ENDBRANCH  12  13
ENDBRANCH  11  12
ENDBRANCH  10  11
ENDBRANCH   9  10
ENDBRANCH   8   9
ENDBRANCH   7   8
ENDBRANCH   6   7
ENDBRANCH   5   6
ENDBRANCH   4   5
ENDBRANCH   3   4
ENDBRANCH   2   3
ENDBRANCH   1   2
BRANCH   1  17
ATOM     17  C   UNL     1       2.984  50.766   0.774  1.00  0.00     0.000 C 
BRANCH  17  18
ATOM     18  C   UNL     1       3.622  51.932   1.551  1.00  0.00     0.000 C 
BRANCH  18  19
ATOM     19  C   UNL     1       5.151  51.973   1.418  1.00  0.00     0.000 C 
BRANCH  19  20
ATOM     20  C   UNL     1       5.651  53.419   1.285  1.00  0.00     0.000 C 
BRANCH  20  21
ATOM     21  C   UNL     1       7.166  53.551   1.530  1.00  0.00     0.000 C 
BRANCH  21  22
ATOM     22  C   UNL     1       8.028  52.434   0.908  1.00  0.00    -0.000 C 
BRANCH  22  23
ATOM     23  C   UNL     1       9.253  52.008   1.738  1.00  0.00    -0.000 C 
BRANCH  23  24
ATOM     24  C   UNL     1      10.305  51.256   0.907  1.00  0.00    -0.000 C 
BRANCH  24  25
ATOM     25  C   UNL     1      11.452  52.166   0.429  1.00  0.00    -0.000 C 
BRANCH  25  26
ATOM     26  C   UNL     1      11.365  52.621  -1.042  1.00  0.00    -0.000 C 
BRANCH  26  27
ATOM     27  C   UNL     1      10.658  53.969  -1.269  1.00  0.00    -0.000 C 
BRANCH  27  28
ATOM     28  C   UNL     1      10.836  54.939  -0.088  1.00  0.00    -0.000 C 
BRANCH  28  29
ATOM     29  C   UNL     1       9.706  55.977  -0.004  1.00  0.00    -0.003 C 
ATOM     30  C   UNL     1       9.298  56.514  -1.375  1.00  0.00     0.004 C 
ENDBRANCH  28  29
ENDBRANCH  27  28
ENDBRANCH  26  27
ENDBRANCH  25  26
ENDBRANCH  24  25
ENDBRANCH  23  24
ENDBRANCH  22  23
ENDBRANCH  21  22
ENDBRANCH  20  21
ENDBRANCH  19  20
ENDBRANCH  18  19
ENDBRANCH  17  18
ENDBRANCH   1  17
TORSDOF 26
ENDMDL
MODEL 3
REMARK VINA RESULT:    -4.143      1.777      5.326
REMARK INTER + INTRA:         -16.168
REMARK INTER:                 -10.931
REMARK INTRA:                  -5.237
REMARK UNBOUND:                -5.729
REMARK SMILES CCCCCCCCCCCCCCCCCCCCCCCCCCCC(=O)[O-]
REMARK SMILES IDX 15 1 16 2 17 3 18 4 19 5 20 6 21 7 22 8 23 9 24 10 25 11
REMARK SMILES IDX 26 12 27 13 28 14 29 15 30 16 14 17 13 18 12 19 11 20 10 21
REMARK SMILES IDX 9 22 8 23 7 24 6 25 5 26 4 27 3 28 2 29 1 30
REMARK H PARENT
REMARK Flexibility Score: inf
ROOT
ATOM      1  C   UNL     1       5.220  52.975   1.230  1.00  0.00     0.000 C 
ENDROOT
BRANCH   1   2
ATOM      2  C   UNL     1       4.074  53.975   1.467  1.00  0.00     0.000 C 
BRANCH   2   3
ATOM      3  C   UNL     1       3.804  54.875   0.249  1.00  0.00     0.000 C 
BRANCH   3   4
ATOM      4  C   UNL     1       4.324  56.308   0.446  1.00  0.00     0.000 C 
BRANCH   4   5
ATOM      5  C   UNL     1       5.795  56.472   0.039  1.00  0.00     0.000 C 
BRANCH   5   6
ATOM      6  C   UNL     1       6.618  57.064   1.189  1.00  0.00     0.000 C 
BRANCH   6   7
ATOM      7  C   UNL     1       7.102  55.962   2.145  1.00  0.00     0.000 C 
BRANCH   7   8
ATOM      8  C   UNL     1       8.482  55.401   1.758  1.00  0.00     0.000 C 
BRANCH   8   9
ATOM      9  C   UNL     1       9.568  56.466   1.500  1.00  0.00     0.000 C 
BRANCH   9  10
ATOM     10  C   UNL     1      10.347  56.295   0.181  1.00  0.00     0.000 C 
BRANCH  10  11
ATOM     11  C   UNL     1       9.471  56.118  -1.077  1.00  0.00     0.000 C 
BRANCH  11  12
ATOM     12  C   UNL     1       9.146  57.419  -1.831  1.00  0.00     0.006 C 
BRANCH  12  13
ATOM     13  C   UNL     1      10.068  58.581  -1.439  1.00  0.00     0.053 C 
BRANCH  13  14
ATOM     14  C   UNL     1       9.261  59.769  -1.022  1.00  0.00     0.041 C 
ATOM     15  O   UNL     1       9.206  60.102   0.191  1.00  0.00    -0.550 OA
ATOM     16  O   UNL     1       8.530  60.480  -1.966  1.00  0.00    -0.550 OA
ENDBRANCH  13  14
ENDBRANCH  12  13
ENDBRANCH  11  12
ENDBRANCH  10  11
ENDBRANCH   9  10
ENDBRANCH   8   9
ENDBRANCH   7   8
ENDBRANCH   6   7
ENDBRANCH   5   6
ENDBRANCH   4   5
ENDBRANCH   3   4
ENDBRANCH   2   3
ENDBRANCH   1   2
BRANCH   1  17
ATOM     17  C   UNL     1       4.797  51.493   1.152  1.00  0.00     0.000 C 
BRANCH  17  18
ATOM     18  C   UNL     1       3.330  51.211   1.527  1.00  0.00     0.000 C 
BRANCH  18  19
ATOM     19  C   UNL     1       2.542  50.543   0.391  1.00  0.00     0.000 C 
BRANCH  19  20
ATOM     20  C   UNL     1       2.088  51.582  -0.645  1.00  0.00     0.000 C 
BRANCH  20  21
ATOM     21  C   UNL     1       2.775  51.401  -2.012  1.00  0.00     0.000 C 
BRANCH  21  22
ATOM     22  C   UNL     1       3.672  52.575  -2.453  1.00  0.00    -0.000 C 
BRANCH  22  23
ATOM     23  C   UNL     1       5.141  52.211  -2.733  1.00  0.00    -0.000 C 
BRANCH  23  24
ATOM     24  C   UNL     1       6.034  53.447  -2.937  1.00  0.00    -0.000 C 
BRANCH  24  25
ATOM     25  C   UNL     1       7.177  53.534  -1.909  1.00  0.00    -0.000 C 
BRANCH  25  26
ATOM     26  C   UNL     1       7.678  52.181  -1.362  1.00  0.00    -0.000 C 
BRANCH  26  27
ATOM     27  C   UNL     1       8.589  52.273  -0.125  1.00  0.00    -0.000 C 
BRANCH  27  28
ATOM     28  C   UNL     1       9.998  51.711  -0.382  1.00  0.00    -0.000 C 
BRANCH  28  29
ATOM     29  C   UNL     1      11.052  52.817  -0.543  1.00  0.00    -0.003 C 
ATOM     30  C   UNL     1      11.810  52.718  -1.866  1.00  0.00     0.004 C 
ENDBRANCH  28  29
ENDBRANCH  27  28
ENDBRANCH  26  27
ENDBRANCH  25  26
ENDBRANCH  24  25
ENDBRANCH  23  24
ENDBRANCH  22  23
ENDBRANCH  21  22
ENDBRANCH  20  21
ENDBRANCH  19  20
ENDBRANCH  18  19
ENDBRANCH  17  18
ENDBRANCH   1  17
TORSDOF 26
ENDMDL
MODEL 4
REMARK VINA RESULT:    -4.099      1.951      3.167
REMARK INTER + INTRA:         -16.058
REMARK INTER:                 -11.158
REMARK INTRA:                  -4.900
REMARK UNBOUND:                -5.729
REMARK SMILES CCCCCCCCCCCCCCCCCCCCCCCCCCCC(=O)[O-]
REMARK SMILES IDX 15 1 16 2 17 3 18 4 19 5 20 6 21 7 22 8 23 9 24 10 25 11
REMARK SMILES IDX 26 12 27 13 28 14 29 15 30 16 14 17 13 18 12 19 11 20 10 21
REMARK SMILES IDX 9 22 8 23 7 24 6 25 5 26 4 27 3 28 2 29 1 30
REMARK H PARENT
REMARK Flexibility Score: inf
ROOT
ATOM      1  C   UNL     1       5.933  52.265   0.763  1.00  0.00     0.000 C 
ENDROOT
BRANCH   1   2
ATOM      2  C   UNL     1       4.808  51.528   1.514  1.00  0.00     0.000 C 
BRANCH   2   3
ATOM      3  C   UNL     1       3.410  51.843   0.956  1.00  0.00     0.000 C 
BRANCH   3   4
ATOM      4  C   UNL     1       2.516  50.597   0.863  1.00  0.00     0.000 C 
BRANCH   4   5
ATOM      5  C   UNL     1       2.271  50.142  -0.583  1.00  0.00     0.000 C 
BRANCH   5   6
ATOM      6  C   UNL     1       2.149  51.348  -1.522  1.00  0.00     0.000 C 
BRANCH   6   7
ATOM      7  C   UNL     1       2.170  50.906  -2.994  1.00  0.00     0.000 C 
BRANCH   7   8
ATOM      8  C   UNL     1       3.084  51.784  -3.867  1.00  0.00     0.000 C 
BRANCH   8   9
ATOM      9  C   UNL     1       4.589  51.466  -3.757  1.00  0.00     0.000 C 
BRANCH   9  10
ATOM     10  C   UNL     1       5.398  52.439  -2.876  1.00  0.00     0.000 C 
BRANCH  10  11
ATOM     11  C   UNL     1       5.039  53.929  -3.050  1.00  0.00     0.000 C 
BRANCH  11  12
ATOM     12  C   UNL     1       4.890  54.719  -1.738  1.00  0.00     0.006 C 
BRANCH  12  13
ATOM     13  C   UNL     1       3.437  54.797  -1.252  1.00  0.00     0.053 C 
BRANCH  13  14
ATOM     14  C   UNL     1       3.343  55.640  -0.020  1.00  0.00     0.041 C 
ATOM     15  O   UNL     1       2.555  56.622   0.016  1.00  0.00    -0.550 OA
ATOM     16  O   UNL     1       4.161  55.371   1.070  1.00  0.00    -0.550 OA
ENDBRANCH  13  14
ENDBRANCH  12  13
ENDBRANCH  11  12
ENDBRANCH  10  11
ENDBRANCH   9  10
ENDBRANCH   8   9
ENDBRANCH   7   8
ENDBRANCH   6   7
ENDBRANCH   5   6
ENDBRANCH   4   5
ENDBRANCH   3   4
ENDBRANCH   2   3
ENDBRANCH   1   2
BRANCH   1  17
ATOM     17  C   UNL     1       6.822  53.175   1.635  1.00  0.00     0.000 C 
BRANCH  17  18
ATOM     18  C   UNL     1       8.105  52.516   2.173  1.00  0.00     0.000 C 
BRANCH  18  19
ATOM     19  C   UNL     1       9.260  53.513   2.348  1.00  0.00     0.000 C 
BRANCH  19  20
ATOM     20  C   UNL     1      10.610  52.783   2.399  1.00  0.00     0.000 C 
BRANCH  20  21
ATOM     21  C   UNL     1      11.532  53.153   1.222  1.00  0.00     0.000 C 
BRANCH  21  22
ATOM     22  C   UNL     1      11.704  52.052   0.155  1.00  0.00    -0.000 C 
BRANCH  22  23
ATOM     23  C   UNL     1      11.046  52.346  -1.205  1.00  0.00    -0.000 C 
BRANCH  23  24
ATOM     24  C   UNL     1       9.545  52.010  -1.227  1.00  0.00    -0.000 C 
BRANCH  24  25
ATOM     25  C   UNL     1       8.668  53.221  -1.594  1.00  0.00    -0.000 C 
BRANCH  25  26
ATOM     26  C   UNL     1       9.267  54.600  -1.248  1.00  0.00    -0.000 C 
BRANCH  26  27
ATOM     27  C   UNL     1       8.247  55.749  -1.147  1.00  0.00    -0.000 C 
BRANCH  27  28
ATOM     28  C   UNL     1       8.622  56.955  -2.024  1.00  0.00    -0.000 C 
BRANCH  28  29
ATOM     29  C   UNL     1       7.864  56.969  -3.360  1.00  0.00    -0.003 C 
ATOM     30  C   UNL     1       6.577  57.789  -3.297  1.00  0.00     0.004 C 
ENDBRANCH  28  29
ENDBRANCH  27  28
ENDBRANCH  26  27
ENDBRANCH  25  26
ENDBRANCH  24  25
ENDBRANCH  23  24
ENDBRANCH  22  23
ENDBRANCH  21  22
ENDBRANCH  20  21
ENDBRANCH  19  20
ENDBRANCH  18  19
ENDBRANCH  17  18
ENDBRANCH   1  17
TORSDOF 26
ENDMDL
MODEL 5
REMARK VINA RESULT:    -4.095      2.082      5.169
REMARK INTER + INTRA:         -16.050
REMARK INTER:                 -11.136
REMARK INTRA:                  -4.914
REMARK UNBOUND:                -5.729
REMARK SMILES CCCCCCCCCCCCCCCCCCCCCCCCCCCC(=O)[O-]
REMARK SMILES IDX 15 1 16 2 17 3 18 4 19 5 20 6 21 7 22 8 23 9 24 10 25 11
REMARK SMILES IDX 26 12 27 13 28 14 29 15 30 16 14 17 13 18 12 19 11 20 10 21
REMARK SMILES IDX 9 22 8 23 7 24 6 25 5 26 4 27 3 28 2 29 1 30
REMARK H PARENT
REMARK Flexibility Score: inf
ROOT
ATOM      1  C   UNL     1       8.861  51.820  -1.183  1.00  0.00     0.000 C 
ENDROOT
BRANCH   1   2
ATOM      2  C   UNL     1       7.576  52.451  -0.614  1.00  0.00     0.000 C 
BRANCH   2   3
ATOM      3  C   UNL     1       7.624  52.628   0.913  1.00  0.00     0.000 C 
BRANCH   3   4
ATOM      4  C   UNL     1       6.301  52.245   1.595  1.00  0.00     0.000 C 
BRANCH   4   5
ATOM      5  C   UNL     1       5.168  51.979   0.594  1.00  0.00     0.000 C 
BRANCH   5   6
ATOM      6  C   UNL     1       3.937  51.399   1.302  1.00  0.00     0.000 C 
BRANCH   6   7
ATOM      7  C   UNL     1       2.657  51.674   0.498  1.00  0.00     0.000 C 
BRANCH   7   8
ATOM      8  C   UNL     1       2.295  50.524  -0.459  1.00  0.00     0.000 C 
BRANCH   8   9
ATOM      9  C   UNL     1       2.169  50.928  -1.942  1.00  0.00     0.000 C 
BRANCH   9  10
ATOM     10  C   UNL     1       3.183  51.987  -2.417  1.00  0.00     0.000 C 
BRANCH  10  11
ATOM     11  C   UNL     1       3.923  51.642  -3.726  1.00  0.00     0.000 C 
BRANCH  11  12
ATOM     12  C   UNL     1       5.435  51.929  -3.712  1.00  0.00     0.006 C 
BRANCH  12  13
ATOM     13  C   UNL     1       5.757  53.422  -3.570  1.00  0.00     0.053 C 
BRANCH  13  14
ATOM     14  C   UNL     1       5.048  54.211  -4.625  1.00  0.00     0.041 C 
ATOM     15  O   UNL     1       4.020  54.877  -4.333  1.00  0.00    -0.550 OA
ATOM     16  O   UNL     1       5.493  54.171  -5.940  1.00  0.00    -0.550 OA
ENDBRANCH  13  14
ENDBRANCH  12  13
ENDBRANCH  11  12
ENDBRANCH  10  11
ENDBRANCH   9  10
ENDBRANCH   8   9
ENDBRANCH   7   8
ENDBRANCH   6   7
ENDBRANCH   5   6
ENDBRANCH   4   5
ENDBRANCH   3   4
ENDBRANCH   2   3
ENDBRANCH   1   2
BRANCH   1  17
ATOM     17  C   UNL     1       9.950  51.489  -0.143  1.00  0.00     0.000 C 
BRANCH  17  18
ATOM     18  C   UNL     1      11.275  52.254  -0.318  1.00  0.00     0.000 C 
BRANCH  18  19
ATOM     19  C   UNL     1      11.138  53.486  -1.223  1.00  0.00     0.000 C 
BRANCH  19  20
ATOM     20  C   UNL     1      10.856  54.747  -0.392  1.00  0.00     0.000 C 
BRANCH  20  21
ATOM     21  C   UNL     1       9.603  55.506  -0.867  1.00  0.00     0.000 C 
BRANCH  21  22
ATOM     22  C   UNL     1       9.807  57.015  -1.113  1.00  0.00    -0.000 C 
BRANCH  22  23
ATOM     23  C   UNL     1       8.594  57.754  -1.706  1.00  0.00    -0.000 C 
BRANCH  23  24
ATOM     24  C   UNL     1       7.960  58.749  -0.719  1.00  0.00    -0.000 C 
BRANCH  24  25
ATOM     25  C   UNL     1       6.615  58.256  -0.154  1.00  0.00    -0.000 C 
BRANCH  25  26
ATOM     26  C   UNL     1       6.713  57.362   1.099  1.00  0.00    -0.000 C 
BRANCH  26  27
ATOM     27  C   UNL     1       6.043  55.983   0.972  1.00  0.00    -0.000 C 
BRANCH  27  28
ATOM     28  C   UNL     1       5.790  55.578  -0.491  1.00  0.00    -0.000 C 
BRANCH  28  29
ATOM     29  C   UNL     1       4.302  55.335  -0.785  1.00  0.00    -0.003 C 
ATOM     30  C   UNL     1       3.453  55.280   0.484  1.00  0.00     0.004 C 
ENDBRANCH  28  29
ENDBRANCH  27  28
ENDBRANCH  26  27
ENDBRANCH  25  26
ENDBRANCH  24  25
ENDBRANCH  23  24
ENDBRANCH  22  23
ENDBRANCH  21  22
ENDBRANCH  20  21
ENDBRANCH  19  20
ENDBRANCH  18  19
ENDBRANCH  17  18
ENDBRANCH   1  17
TORSDOF 26
ENDMDL
MODEL 6
REMARK VINA RESULT:    -4.070      1.966      5.086
REMARK INTER + INTRA:         -15.986
REMARK INTER:                 -10.474
REMARK INTRA:                  -5.512
REMARK UNBOUND:                -5.729
REMARK SMILES CCCCCCCCCCCCCCCCCCCCCCCCCCCC(=O)[O-]
REMARK SMILES IDX 15 1 16 2 17 3 18 4 19 5 20 6 21 7 22 8 23 9 24 10 25 11
REMARK SMILES IDX 26 12 27 13 28 14 29 15 30 16 14 17 13 18 12 19 11 20 10 21
REMARK SMILES IDX 9 22 8 23 7 24 6 25 5 26 4 27 3 28 2 29 1 30
REMARK H PARENT
REMARK Flexibility Score: inf
ROOT
ATOM      1  C   UNL     1       6.862  53.710   1.193  1.00  0.00     0.000 C 
ENDROOT
BRANCH   1   2
ATOM      2  C   UNL     1       6.396  55.089   1.694  1.00  0.00     0.000 C 
BRANCH   2   3
ATOM      3  C   UNL     1       4.873  55.169   1.894  1.00  0.00     0.000 C 
BRANCH   3   4
ATOM      4  C   UNL     1       4.165  55.918   0.753  1.00  0.00     0.000 C 
BRANCH   4   5
ATOM      5  C   UNL     1       3.100  55.066   0.048  1.00  0.00     0.000 C 
BRANCH   5   6
ATOM      6  C   UNL     1       3.612  54.559  -1.305  1.00  0.00     0.000 C 
BRANCH   6   7
ATOM      7  C   UNL     1       2.631  54.910  -2.434  1.00  0.00     0.000 C 
BRANCH   7   8
ATOM      8  C   UNL     1       3.212  55.924  -3.435  1.00  0.00     0.000 C 
BRANCH   8   9
ATOM      9  C   UNL     1       4.389  56.764  -2.899  1.00  0.00     0.000 C 
BRANCH   9  10
ATOM     10  C   UNL     1       5.703  56.624  -3.693  1.00  0.00     0.000 C 
BRANCH  10  11
ATOM     11  C   UNL     1       6.954  57.191  -2.990  1.00  0.00     0.000 C 
BRANCH  11  12
ATOM     12  C   UNL     1       7.246  56.596  -1.601  1.00  0.00     0.006 C 
BRANCH  12  13
ATOM     13  C   UNL     1       8.175  57.479  -0.759  1.00  0.00     0.053 C 
BRANCH  13  14
ATOM     14  C   UNL     1       9.570  56.939  -0.781  1.00  0.00     0.041 C 
ATOM     15  O   UNL     1      10.553  57.726  -0.770  1.00  0.00    -0.550 OA
ATOM     16  O   UNL     1       9.784  55.569  -0.865  1.00  0.00    -0.550 OA
ENDBRANCH  13  14
ENDBRANCH  12  13
ENDBRANCH  11  12
ENDBRANCH  10  11
ENDBRANCH   9  10
ENDBRANCH   8   9
ENDBRANCH   7   8
ENDBRANCH   6   7
ENDBRANCH   5   6
ENDBRANCH   4   5
ENDBRANCH   3   4
ENDBRANCH   2   3
ENDBRANCH   1   2
BRANCH   1  17
ATOM     17  C   UNL     1       6.072  52.506   1.746  1.00  0.00     0.000 C 
BRANCH  17  18
ATOM     18  C   UNL     1       5.078  51.867   0.759  1.00  0.00     0.000 C 
BRANCH  18  19
ATOM     19  C   UNL     1       3.880  51.210   1.461  1.00  0.00     0.000 C 
BRANCH  19  20
ATOM     20  C   UNL     1       2.578  51.484   0.694  1.00  0.00     0.000 C 
BRANCH  20  21
ATOM     21  C   UNL     1       2.437  50.618  -0.572  1.00  0.00     0.000 C 
BRANCH  21  22
ATOM     22  C   UNL     1       1.903  51.359  -1.815  1.00  0.00    -0.000 C 
BRANCH  22  23
ATOM     23  C   UNL     1       2.267  50.721  -3.167  1.00  0.00    -0.000 C 
BRANCH  23  24
ATOM     24  C   UNL     1       2.554  51.764  -4.261  1.00  0.00    -0.000 C 
BRANCH  24  25
ATOM     25  C   UNL     1       3.992  51.678  -4.805  1.00  0.00    -0.000 C 
BRANCH  25  26
ATOM     26  C   UNL     1       5.107  51.737  -3.740  1.00  0.00    -0.000 C 
BRANCH  26  27
ATOM     27  C   UNL     1       5.950  53.025  -3.748  1.00  0.00    -0.000 C 
BRANCH  27  28
ATOM     28  C   UNL     1       6.817  53.176  -2.487  1.00  0.00    -0.000 C 
BRANCH  28  29
ATOM     29  C   UNL     1       7.354  51.829  -1.979  1.00  0.00    -0.003 C 
ATOM     30  C   UNL     1       8.790  51.923  -1.469  1.00  0.00     0.004 C 
ENDBRANCH  28  29
ENDBRANCH  27  28
ENDBRANCH  26  27
ENDBRANCH  25  26
ENDBRANCH  24  25
ENDBRANCH  23  24
ENDBRANCH  22  23
ENDBRANCH  21  22
ENDBRANCH  20  21
ENDBRANCH  19  20
ENDBRANCH  18  19
ENDBRANCH  17  18
ENDBRANCH   1  17
TORSDOF 26
ENDMDL
MODEL 7
REMARK VINA RESULT:    -4.062      2.003      4.184
REMARK INTER + INTRA:         -15.965
REMARK INTER:                 -11.197
REMARK INTRA:                  -4.768
REMARK UNBOUND:                -5.729
REMARK SMILES CCCCCCCCCCCCCCCCCCCCCCCCCCCC(=O)[O-]
REMARK SMILES IDX 15 1 16 2 17 3 18 4 19 5 20 6 21 7 22 8 23 9 24 10 25 11
REMARK SMILES IDX 26 12 27 13 28 14 29 15 30 16 14 17 13 18 12 19 11 20 10 21
REMARK SMILES IDX 9 22 8 23 7 24 6 25 5 26 4 27 3 28 2 29 1 30
REMARK H PARENT
REMARK Flexibility Score: inf
ROOT
ATOM      1  C   UNL     1       1.876  52.239  -1.838  1.00  0.00     0.000 C 
ENDROOT
BRANCH   1   2
ATOM      2  C   UNL     1       2.579  51.153  -2.673  1.00  0.00     0.000 C 
BRANCH   2   3
ATOM      3  C   UNL     1       2.615  51.483  -4.175  1.00  0.00     0.000 C 
BRANCH   3   4
ATOM      4  C   UNL     1       4.043  51.503  -4.742  1.00  0.00     0.000 C 
BRANCH   4   5
ATOM      5  C   UNL     1       5.087  51.968  -3.717  1.00  0.00     0.000 C 
BRANCH   5   6
ATOM      6  C   UNL     1       5.658  53.339  -4.101  1.00  0.00     0.000 C 
BRANCH   6   7
ATOM      7  C   UNL     1       4.738  54.473  -3.625  1.00  0.00     0.000 C 
BRANCH   7   8
ATOM      8  C   UNL     1       4.716  54.621  -2.094  1.00  0.00     0.000 C 
BRANCH   8   9
ATOM      9  C   UNL     1       4.733  56.075  -1.581  1.00  0.00     0.000 C 
BRANCH   9  10
ATOM     10  C   UNL     1       5.589  57.050  -2.413  1.00  0.00     0.000 C 
BRANCH  10  11
ATOM     11  C   UNL     1       7.091  56.704  -2.482  1.00  0.00     0.000 C 
BRANCH  11  12
ATOM     12  C   UNL     1       7.817  57.210  -3.741  1.00  0.00     0.006 C 
BRANCH  12  13
ATOM     13  C   UNL     1       6.886  57.338  -4.954  1.00  0.00     0.053 C 
BRANCH  13  14
ATOM     14  C   UNL     1       7.347  56.446  -6.062  1.00  0.00     0.041 C 
ATOM     15  O   UNL     1       7.980  55.389  -5.802  1.00  0.00    -0.550 OA
ATOM     16  O   UNL     1       7.120  56.805  -7.385  1.00  0.00    -0.550 OA
ENDBRANCH  13  14
ENDBRANCH  12  13
ENDBRANCH  11  12
ENDBRANCH  10  11
ENDBRANCH   9  10
ENDBRANCH   8   9
ENDBRANCH   7   8
ENDBRANCH   6   7
ENDBRANCH   5   6
ENDBRANCH   4   5
ENDBRANCH   3   4
ENDBRANCH   2   3
ENDBRANCH   1   2
BRANCH   1  17
ATOM     17  C   UNL     1       2.221  52.242  -0.335  1.00  0.00     0.000 C 
BRANCH  17  18
ATOM     18  C   UNL     1       2.623  50.874   0.247  1.00  0.00     0.000 C 
BRANCH  18  19
ATOM     19  C   UNL     1       3.641  50.988   1.390  1.00  0.00     0.000 C 
BRANCH  19  20
ATOM     20  C   UNL     1       4.324  52.364   1.381  1.00  0.00     0.000 C 
BRANCH  20  21
ATOM     21  C   UNL     1       5.859  52.268   1.467  1.00  0.00     0.000 C 
BRANCH  21  22
ATOM     22  C   UNL     1       6.626  53.151   0.462  1.00  0.00    -0.000 C 
BRANCH  22  23
ATOM     23  C   UNL     1       7.301  52.394  -0.696  1.00  0.00    -0.000 C 
BRANCH  23  24
ATOM     24  C   UNL     1       8.249  53.284  -1.518  1.00  0.00    -0.000 C 
BRANCH  24  25
ATOM     25  C   UNL     1       8.983  54.330  -0.658  1.00  0.00    -0.000 C 
BRANCH  25  26
ATOM     26  C   UNL     1      10.521  54.322  -0.778  1.00  0.00    -0.000 C 
BRANCH  26  27
ATOM     27  C   UNL     1      11.147  52.944  -1.059  1.00  0.00    -0.000 C 
BRANCH  27  28
ATOM     28  C   UNL     1      11.594  52.222   0.224  1.00  0.00    -0.000 C 
BRANCH  28  29
ATOM     29  C   UNL     1      10.518  51.269   0.768  1.00  0.00    -0.003 C 
ATOM     30  C   UNL     1       9.844  51.803   2.030  1.00  0.00     0.004 C 
ENDBRANCH  28  29
ENDBRANCH  27  28
ENDBRANCH  26  27
ENDBRANCH  25  26
ENDBRANCH  24  25
ENDBRANCH  23  24
ENDBRANCH  22  23
ENDBRANCH  21  22
ENDBRANCH  20  21
ENDBRANCH  19  20
ENDBRANCH  18  19
ENDBRANCH  17  18
ENDBRANCH   1  17
TORSDOF 26
ENDMDL
MODEL 8
REMARK VINA RESULT:    -4.041      1.873      3.277
REMARK INTER + INTRA:         -15.913
REMARK INTER:                 -11.201
REMARK INTRA:                  -4.712
REMARK UNBOUND:                -5.729
REMARK SMILES CCCCCCCCCCCCCCCCCCCCCCCCCCCC(=O)[O-]
REMARK SMILES IDX 15 1 16 2 17 3 18 4 19 5 20 6 21 7 22 8 23 9 24 10 25 11
REMARK SMILES IDX 26 12 27 13 28 14 29 15 30 16 14 17 13 18 12 19 11 20 10 21
REMARK SMILES IDX 9 22 8 23 7 24 6 25 5 26 4 27 3 28 2 29 1 30
REMARK H PARENT
REMARK Flexibility Score: inf
ROOT
ATOM      1  C   UNL     1       5.448  51.861   1.113  1.00  0.00     0.000 C 
ENDROOT
BRANCH   1   2
ATOM      2  C   UNL     1       3.986  52.155   1.497  1.00  0.00     0.000 C 
BRANCH   2   3
ATOM      3  C   UNL     1       3.025  51.020   1.105  1.00  0.00     0.000 C 
BRANCH   3   4
ATOM      4  C   UNL     1       2.579  51.103  -0.363  1.00  0.00     0.000 C 
BRANCH   4   5
ATOM      5  C   UNL     1       2.182  52.525  -0.788  1.00  0.00     0.000 C 
BRANCH   5   6
ATOM      6  C   UNL     1       3.078  53.026  -1.927  1.00  0.00     0.000 C 
BRANCH   6   7
ATOM      7  C   UNL     1       3.779  51.855  -2.634  1.00  0.00     0.000 C 
BRANCH   7   8
ATOM      8  C   UNL     1       5.078  52.279  -3.343  1.00  0.00     0.000 C 
BRANCH   8   9
ATOM      9  C   UNL     1       6.376  51.882  -2.611  1.00  0.00     0.000 C 
BRANCH   9  10
ATOM     10  C   UNL     1       7.146  53.052  -1.970  1.00  0.00     0.000 C 
BRANCH  10  11
ATOM     11  C   UNL     1       7.141  54.362  -2.785  1.00  0.00     0.000 C 
BRANCH  11  12
ATOM     12  C   UNL     1       6.346  55.518  -2.152  1.00  0.00     0.006 C 
BRANCH  12  13
ATOM     13  C   UNL     1       5.804  55.176  -0.758  1.00  0.00     0.053 C 
BRANCH  13  14
ATOM     14  C   UNL     1       4.659  56.072  -0.409  1.00  0.00     0.041 C 
ATOM     15  O   UNL     1       4.478  56.430   0.785  1.00  0.00    -0.550 OA
ATOM     16  O   UNL     1       3.764  56.473  -1.392  1.00  0.00    -0.550 OA
ENDBRANCH  13  14
ENDBRANCH  12  13
ENDBRANCH  11  12
ENDBRANCH  10  11
ENDBRANCH   9  10
ENDBRANCH   8   9
ENDBRANCH   7   8
ENDBRANCH   6   7
ENDBRANCH   5   6
ENDBRANCH   4   5
ENDBRANCH   3   4
ENDBRANCH   2   3
ENDBRANCH   1   2
BRANCH   1  17
ATOM     17  C   UNL     1       6.508  52.677   1.882  1.00  0.00     0.000 C 
BRANCH  17  18
ATOM     18  C   UNL     1       7.932  52.611   1.300  1.00  0.00     0.000 C 
BRANCH  18  19
ATOM     19  C   UNL     1       8.968  52.105   2.314  1.00  0.00     0.000 C 
BRANCH  19  20
ATOM     20  C   UNL     1      10.088  51.324   1.610  1.00  0.00     0.000 C 
BRANCH  20  21
ATOM     21  C   UNL     1      10.095  51.537   0.085  1.00  0.00     0.000 C 
BRANCH  21  22
ATOM     22  C   UNL     1      11.182  52.500  -0.435  1.00  0.00    -0.000 C 
BRANCH  22  23
ATOM     23  C   UNL     1      10.658  53.746  -1.172  1.00  0.00    -0.000 C 
BRANCH  23  24
ATOM     24  C   UNL     1      10.817  55.036  -0.350  1.00  0.00    -0.000 C 
BRANCH  24  25
ATOM     25  C   UNL     1       9.490  55.521   0.264  1.00  0.00    -0.000 C 
BRANCH  25  26
ATOM     26  C   UNL     1       9.071  56.956  -0.117  1.00  0.00    -0.000 C 
BRANCH  26  27
ATOM     27  C   UNL     1       9.720  57.508  -1.399  1.00  0.00    -0.000 C 
BRANCH  27  28
ATOM     28  C   UNL     1      10.710  58.651  -1.118  1.00  0.00    -0.000 C 
BRANCH  28  29
ATOM     29  C   UNL     1      10.274  59.977  -1.760  1.00  0.00    -0.003 C 
ATOM     30  C   UNL     1       9.347  59.774  -2.957  1.00  0.00     0.004 C 
ENDBRANCH  28  29
ENDBRANCH  27  28
ENDBRANCH  26  27
ENDBRANCH  25  26
ENDBRANCH  24  25
ENDBRANCH  23  24
ENDBRANCH  22  23
ENDBRANCH  21  22
ENDBRANCH  20  21
ENDBRANCH  19  20
ENDBRANCH  18  19
ENDBRANCH  17  18
ENDBRANCH   1  17
TORSDOF 26
ENDMDL
MODEL 9
REMARK VINA RESULT:    -4.019      1.734      6.951
REMARK INTER + INTRA:         -15.857
REMARK INTER:                 -10.776
REMARK INTRA:                  -5.081
REMARK UNBOUND:                -5.729
REMARK SMILES CCCCCCCCCCCCCCCCCCCCCCCCCCCC(=O)[O-]
REMARK SMILES IDX 15 1 16 2 17 3 18 4 19 5 20 6 21 7 22 8 23 9 24 10 25 11
REMARK SMILES IDX 26 12 27 13 28 14 29 15 30 16 14 17 13 18 12 19 11 20 10 21
REMARK SMILES IDX 9 22 8 23 7 24 6 25 5 26 4 27 3 28 2 29 1 30
REMARK H PARENT
REMARK Flexibility Score: inf
ROOT
ATOM      1  C   UNL     1       9.411  53.060  -1.450  1.00  0.00     0.000 C 
ENDROOT
BRANCH   1   2
ATOM      2  C   UNL     1      10.542  52.017  -1.515  1.00  0.00     0.000 C 
BRANCH   2   3
ATOM      3  C   UNL     1      11.639  52.258  -0.464  1.00  0.00     0.000 C 
BRANCH   3   4
ATOM      4  C   UNL     1      11.220  51.804   0.943  1.00  0.00     0.000 C 
BRANCH   4   5
ATOM      5  C   UNL     1      11.304  52.929   1.985  1.00  0.00     0.000 C 
BRANCH   5   6
ATOM      6  C   UNL     1      10.141  52.840   2.980  1.00  0.00     0.000 C 
BRANCH   6   7
ATOM      7  C   UNL     1       9.061  51.867   2.483  1.00  0.00     0.000 C 
BRANCH   7   8
ATOM      8  C   UNL     1       7.713  52.560   2.213  1.00  0.00     0.000 C 
BRANCH   8   9
ATOM      9  C   UNL     1       7.588  53.985   2.790  1.00  0.00     0.000 C 
BRANCH   9  10
ATOM     10  C   UNL     1       7.431  55.101   1.740  1.00  0.00     0.000 C 
BRANCH  10  11
ATOM     11  C   UNL     1       8.598  56.109   1.678  1.00  0.00     0.000 C 
BRANCH  11  12
ATOM     12  C   UNL     1       9.273  56.239   0.301  1.00  0.00     0.006 C 
BRANCH  12  13
ATOM     13  C   UNL     1      10.800  56.113   0.373  1.00  0.00     0.053 C 
BRANCH  13  14
ATOM     14  C   UNL     1      11.434  57.466   0.419  1.00  0.00     0.041 C 
ATOM     15  O   UNL     1      10.718  58.502   0.392  1.00  0.00    -0.550 OA
ATOM     16  O   UNL     1      12.818  57.586   0.441  1.00  0.00    -0.550 OA
ENDBRANCH  13  14
ENDBRANCH  12  13
ENDBRANCH  11  12
ENDBRANCH  10  11
ENDBRANCH   9  10
ENDBRANCH   8   9
ENDBRANCH   7   8
ENDBRANCH   6   7
ENDBRANCH   5   6
ENDBRANCH   4   5
ENDBRANCH   3   4
ENDBRANCH   2   3
ENDBRANCH   1   2
BRANCH   1  17
ATOM     17  C   UNL     1       7.984  52.480  -1.360  1.00  0.00     0.000 C 
BRANCH  17  18
ATOM     18  C   UNL     1       6.849  53.513  -1.487  1.00  0.00     0.000 C 
BRANCH  18  19
ATOM     19  C   UNL     1       6.188  53.506  -2.873  1.00  0.00     0.000 C 
BRANCH  19  20
ATOM     20  C   UNL     1       5.431  52.192  -3.112  1.00  0.00     0.000 C 
BRANCH  20  21
ATOM     21  C   UNL     1       3.903  52.381  -3.144  1.00  0.00     0.000 C 
BRANCH  21  22
ATOM     22  C   UNL     1       3.107  51.183  -3.701  1.00  0.00    -0.000 C 
BRANCH  22  23
ATOM     23  C   UNL     1       1.941  50.701  -2.820  1.00  0.00    -0.000 C 
BRANCH  23  24
ATOM     24  C   UNL     1       1.948  51.339  -1.420  1.00  0.00    -0.000 C 
BRANCH  24  25
ATOM     25  C   UNL     1       2.312  50.337  -0.309  1.00  0.00    -0.000 C 
BRANCH  25  26
ATOM     26  C   UNL     1       3.080  50.931   0.890  1.00  0.00    -0.000 C 
BRANCH  26  27
ATOM     27  C   UNL     1       4.176  51.948   0.525  1.00  0.00    -0.000 C 
BRANCH  27  28
ATOM     28  C   UNL     1       4.112  53.224   1.381  1.00  0.00    -0.000 C 
BRANCH  28  29
ATOM     29  C   UNL     1       3.920  54.491   0.535  1.00  0.00    -0.003 C 
ATOM     30  C   UNL     1       2.554  54.542  -0.146  1.00  0.00     0.004 C 
ENDBRANCH  28  29
ENDBRANCH  27  28
ENDBRANCH  26  27
ENDBRANCH  25  26
ENDBRANCH  24  25
ENDBRANCH  23  24
ENDBRANCH  22  23
ENDBRANCH  21  22
ENDBRANCH  20  21
ENDBRANCH  19  20
ENDBRANCH  18  19
ENDBRANCH  17  18
ENDBRANCH   1  17
TORSDOF 26
ENDMDL
