MODEL 1
REMARK VINA RESULT:     6.733      0.000      0.000
REMARK INTER + INTRA:          14.320
REMARK INTER:                  15.393
REMARK INTRA:                  -1.074
REMARK UNBOUND:                -1.074
REMARK SMILES CCCCCCCCCCCCCCCCCCCCCCCC(=O)[O-]
REMARK SMILES IDX 13 1 14 2 15 3 16 4 17 5 18 6 19 7 20 8 21 9 22 10 23 11
REMARK SMILES IDX 24 12 25 13 26 14 12 15 11 16 10 17 9 18 8 19 7 20 6 21 5 22
REMARK SMILES IDX 4 23 3 24 2 25 1 26
REMARK H PARENT
REMARK Flexibility Score: inf
ROOT
ATOM      1  C   UNL     1      -6.329 -21.655 -24.113  1.00  0.00     0.000 C 
ENDROOT
BRANCH   1   2
ATOM      2  C   UNL     1      -5.689 -20.556 -24.986  1.00  0.00     0.000 C 
BRANCH   2   3
ATOM      3  C   UNL     1      -5.239 -19.286 -24.236  1.00  0.00     0.000 C 
BRANCH   3   4
ATOM      4  C   UNL     1      -3.796 -18.825 -24.545  1.00  0.00     0.000 C 
BRANCH   4   5
ATOM      5  C   UNL     1      -2.854 -19.965 -24.975  1.00  0.00     0.000 C 
BRANCH   5   6
ATOM      6  C   UNL     1      -2.002 -20.568 -23.842  1.00  0.00     0.000 C 
BRANCH   6   7
ATOM      7  C   UNL     1      -0.526 -20.833 -24.204  1.00  0.00     0.000 C 
BRANCH   7   8
ATOM      8  C   UNL     1       0.119 -19.779 -25.125  1.00  0.00     0.000 C 
BRANCH   8   9
ATOM      9  C   UNL     1       1.430 -19.165 -24.595  1.00  0.00     0.000 C 
BRANCH   9  10
ATOM     10  C   UNL     1       1.713 -17.725 -25.069  1.00  0.00     0.006 C 
BRANCH  10  11
ATOM     11  C   UNL     1       3.099 -17.187 -24.677  1.00  0.00     0.053 C 
BRANCH  11  12
ATOM     12  C   UNL     1       3.994 -18.271 -24.162  1.00  0.00     0.041 C 
ATOM     13  O   UNL     1       4.930 -18.715 -24.877  1.00  0.00    -0.550 OA
ATOM     14  O   UNL     1       3.772 -18.817 -22.903  1.00  0.00    -0.550 OA
ENDBRANCH  11  12
ENDBRANCH  10  11
ENDBRANCH   9  10
ENDBRANCH   8   9
ENDBRANCH   7   8
ENDBRANCH   6   7
ENDBRANCH   5   6
ENDBRANCH   4   5
ENDBRANCH   3   4
ENDBRANCH   2   3
ENDBRANCH   1   2
BRANCH   1  15
ATOM     15  C   UNL     1      -6.692 -22.955 -24.853  1.00  0.00     0.000 C 
BRANCH  15  16
ATOM     16  C   UNL     1      -6.367 -24.216 -24.038  1.00  0.00     0.000 C 
BRANCH  16  17
ATOM     17  C   UNL     1      -7.625 -25.070 -23.821  1.00  0.00     0.000 C 
BRANCH  17  18
ATOM     18  C   UNL     1      -8.741 -24.746 -24.828  1.00  0.00    -0.000 C 
BRANCH  18  19
ATOM     19  C   UNL     1     -10.085 -24.449 -24.141  1.00  0.00    -0.000 C 
BRANCH  19  20
ATOM     20  C   UNL     1     -10.794 -23.217 -24.726  1.00  0.00    -0.000 C 
BRANCH  20  21
ATOM     21  C   UNL     1      -9.864 -21.998 -24.849  1.00  0.00    -0.000 C 
BRANCH  21  22
ATOM     22  C   UNL     1     -10.542 -20.691 -24.410  1.00  0.00    -0.000 C 
BRANCH  22  23
ATOM     23  C   UNL     1      -9.549 -19.673 -23.819  1.00  0.00    -0.000 C 
BRANCH  23  24
ATOM     24  C   UNL     1      -8.542 -19.166 -24.874  1.00  0.00    -0.000 C 
BRANCH  24  25
ATOM     25  C   UNL     1      -8.393 -17.635 -24.898  1.00  0.00    -0.003 C 
ATOM     26  C   UNL     1      -8.004 -17.050 -23.542  1.00  0.00     0.004 C 
ENDBRANCH  24  25
ENDBRANCH  23  24
ENDBRANCH  22  23
ENDBRANCH  21  22
ENDBRANCH  20  21
ENDBRANCH  19  20
ENDBRANCH  18  19
ENDBRANCH  17  18
ENDBRANCH  16  17
ENDBRANCH  15  16
ENDBRANCH   1  15
TORSDOF 22
ENDMDL
MODEL 2
REMARK VINA RESULT:     9.409      2.080      2.346
REMARK INTER + INTRA:          20.436
REMARK INTER:                  22.792
REMARK INTRA:                  -2.356
REMARK UNBOUND:                -1.074
REMARK SMILES CCCCCCCCCCCCCCCCCCCCCCCC(=O)[O-]
REMARK SMILES IDX 13 1 14 2 15 3 16 4 17 5 18 6 19 7 20 8 21 9 22 10 23 11
REMARK SMILES IDX 24 12 25 13 26 14 12 15 11 16 10 17 9 18 8 19 7 20 6 21 5 22
REMARK SMILES IDX 4 23 3 24 2 25 1 26
REMARK H PARENT
REMARK Flexibility Score: inf
ROOT
ATOM      1  C   UNL     1      -6.302 -21.613 -24.033  1.00  0.00     0.000 C 
ENDROOT
BRANCH   1   2
ATOM      2  C   UNL     1      -5.563 -20.809 -25.124  1.00  0.00     0.000 C 
BRANCH   2   3
ATOM      3  C   UNL     1      -5.127 -19.386 -24.723  1.00  0.00     0.000 C 
BRANCH   3   4
ATOM      4  C   UNL     1      -3.661 -19.034 -25.068  1.00  0.00     0.000 C 
BRANCH   4   5
ATOM      5  C   UNL     1      -2.710 -20.246 -25.068  1.00  0.00     0.000 C 
BRANCH   5   6
ATOM      6  C   UNL     1      -1.913 -20.448 -23.765  1.00  0.00     0.000 C 
BRANCH   6   7
ATOM      7  C   UNL     1      -0.420 -20.784 -23.957  1.00  0.00     0.000 C 
BRANCH   7   8
ATOM      8  C   UNL     1       0.269 -20.045 -25.122  1.00  0.00     0.000 C 
BRANCH   8   9
ATOM      9  C   UNL     1       1.205 -18.895 -24.701  1.00  0.00     0.000 C 
BRANCH   9  10
ATOM     10  C   UNL     1       0.673 -17.478 -24.999  1.00  0.00     0.006 C 
BRANCH  10  11
ATOM     11  C   UNL     1       0.760 -16.503 -23.815  1.00  0.00     0.053 C 
BRANCH  11  12
ATOM     12  C   UNL     1      -0.393 -15.547 -23.791  1.00  0.00     0.041 C 
ATOM     13  O   UNL     1      -0.724 -14.979 -22.718  1.00  0.00    -0.550 OA
ATOM     14  O   UNL     1      -1.125 -15.312 -24.949  1.00  0.00    -0.550 OA
ENDBRANCH  11  12
ENDBRANCH  10  11
ENDBRANCH   9  10
ENDBRANCH   8   9
ENDBRANCH   7   8
ENDBRANCH   6   7
ENDBRANCH   5   6
ENDBRANCH   4   5
ENDBRANCH   3   4
ENDBRANCH   2   3
ENDBRANCH   1   2
BRANCH   1  15
ATOM     15  C   UNL     1      -6.763 -23.020 -24.451  1.00  0.00     0.000 C 
BRANCH  15  16
ATOM     16  C   UNL     1      -6.701 -24.035 -23.301  1.00  0.00     0.000 C 
BRANCH  16  17
ATOM     17  C   UNL     1      -7.872 -25.026 -23.376  1.00  0.00     0.000 C 
BRANCH  17  18
ATOM     18  C   UNL     1      -8.811 -24.742 -24.560  1.00  0.00    -0.000 C 
BRANCH  18  19
ATOM     19  C   UNL     1     -10.289 -24.678 -24.137  1.00  0.00    -0.000 C 
BRANCH  19  20
ATOM     20  C   UNL     1     -11.021 -23.456 -24.716  1.00  0.00    -0.000 C 
BRANCH  20  21
ATOM     21  C   UNL     1     -10.375 -22.123 -24.302  1.00  0.00    -0.000 C 
BRANCH  21  22
ATOM     22  C   UNL     1     -10.898 -20.933 -25.122  1.00  0.00    -0.000 C 
BRANCH  22  23
ATOM     23  C   UNL     1     -10.288 -19.591 -24.679  1.00  0.00    -0.000 C 
BRANCH  23  24
ATOM     24  C   UNL     1      -9.385 -19.745 -23.436  1.00  0.00    -0.000 C 
BRANCH  24  25
ATOM     25  C   UNL     1      -8.535 -18.499 -23.133  1.00  0.00    -0.003 C 
ATOM     26  C   UNL     1      -7.544 -18.713 -21.991  1.00  0.00     0.004 C 
ENDBRANCH  24  25
ENDBRANCH  23  24
ENDBRANCH  22  23
ENDBRANCH  21  22
ENDBRANCH  20  21
ENDBRANCH  19  20
ENDBRANCH  18  19
ENDBRANCH  17  18
ENDBRANCH  16  17
ENDBRANCH  15  16
ENDBRANCH   1  15
TORSDOF 22
ENDMDL
