MODEL 1
REMARK VINA RESULT:     2.560      0.000      0.000
REMARK INTER + INTRA:           2.801
REMARK INTER:                   2.934
REMARK INTRA:                  -0.133
REMARK UNBOUND:                -0.133
REMARK SMILES O=C([O-])C=Cc1ccc(O)cc1
REMARK SMILES IDX 6 1 7 2 12 3 8 4 11 5 9 6 5 7 4 8 2 9 1 10 3 11 10 12
REMARK H PARENT 10 13
REMARK Flexibility Score: inf
ROOT
ATOM      1  C   UNL     1     -37.136  25.402  -4.902  1.00  0.00    -0.025 A 
ATOM      2  C   UNL     1     -38.162  24.441  -4.898  1.00  0.00     0.012 A 
ATOM      3  C   UNL     1     -35.795  24.964  -4.883  1.00  0.00     0.012 A 
ATOM      4  C   UNL     1     -37.859  23.077  -4.900  1.00  0.00     0.047 A 
ATOM      5  C   UNL     1     -35.497  23.599  -4.886  1.00  0.00     0.047 A 
ATOM      6  C   UNL     1     -36.528  22.651  -4.897  1.00  0.00     0.115 A 
ENDROOT
BRANCH   1   7
ATOM      7  C   UNL     1     -37.509  26.838  -4.888  1.00  0.00     0.010 C 
ATOM      8  C   UNL     1     -37.130  27.716  -5.829  1.00  0.00     0.025 C 
BRANCH   8   9
ATOM      9  C   UNL     1     -37.529  29.133  -5.788  1.00  0.00     0.064 C 
ATOM     10  O   UNL     1     -38.734  29.468  -5.640  1.00  0.00    -0.545 OA
ATOM     11  O   UNL     1     -36.558  30.118  -5.914  1.00  0.00    -0.545 OA
ENDBRANCH   8   9
ENDBRANCH   1   7
BRANCH   6  12
ATOM     12  O   UNL     1     -36.241  21.288  -4.901  1.00  0.00    -0.508 OA
ATOM     13  H   UNL     1     -35.654  20.873  -5.615  1.00  0.00     0.293 HD
ENDBRANCH   6  12
TORSDOF 3
ENDMDL
MODEL 2
REMARK VINA RESULT:     3.614      1.143      5.795
REMARK INTER + INTRA:           4.008
REMARK INTER:                   4.159
REMARK INTRA:                  -0.151
REMARK UNBOUND:                -0.133
REMARK SMILES O=C([O-])C=Cc1ccc(O)cc1
REMARK SMILES IDX 6 1 7 2 12 3 8 4 11 5 9 6 5 7 4 8 2 9 1 10 3 11 10 12
REMARK H PARENT 10 13
REMARK Flexibility Score: inf
ROOT
ATOM      1  C   UNL     1     -37.495  26.256  -5.182  1.00  0.00    -0.025 A 
ATOM      2  C   UNL     1     -36.270  26.626  -5.763  1.00  0.00     0.012 A 
ATOM      3  C   UNL     1     -38.436  27.262  -4.881  1.00  0.00     0.012 A 
ATOM      4  C   UNL     1     -35.999  27.964  -6.060  1.00  0.00     0.047 A 
ATOM      5  C   UNL     1     -38.161  28.600  -5.180  1.00  0.00     0.047 A 
ATOM      6  C   UNL     1     -36.942  28.954  -5.773  1.00  0.00     0.115 A 
ENDROOT
BRANCH   1   7
ATOM      7  C   UNL     1     -37.731  24.823  -4.875  1.00  0.00     0.010 C 
ATOM      8  C   UNL     1     -37.017  23.820  -5.407  1.00  0.00     0.025 C 
BRANCH   8   9
ATOM      9  C   UNL     1     -37.272  22.409  -5.070  1.00  0.00     0.064 C 
ATOM     10  O   UNL     1     -38.444  21.986  -4.879  1.00  0.00    -0.545 OA
ATOM     11  O   UNL     1     -36.204  21.529  -4.964  1.00  0.00    -0.545 OA
ENDBRANCH   8   9
ENDBRANCH   1   7
BRANCH   6  12
ATOM     12  O   UNL     1     -36.659  30.284  -6.076  1.00  0.00    -0.508 OA
ATOM     13  H   UNL     1     -35.705  30.617  -6.159  1.00  0.00     0.293 HD
ENDBRANCH   6  12
TORSDOF 3
ENDMDL
