MODEL 1
REMARK VINA RESULT:    -3.695      0.000      0.000
REMARK INTER + INTRA:         -11.834
REMARK INTER:                  -8.446
REMARK INTRA:                  -3.387
REMARK UNBOUND:                -3.387
REMARK SMILES CCCCCCCCCCCCCCCCCCCCCCCC(=O)[O-]
REMARK SMILES IDX 13 1 14 2 15 3 16 4 17 5 18 6 19 7 20 8 21 9 22 10 23 11
REMARK SMILES IDX 24 12 25 13 26 14 12 15 11 16 10 17 9 18 8 19 7 20 6 21 5 22
REMARK SMILES IDX 4 23 3 24 2 25 1 26
REMARK H PARENT
REMARK Flexibility Score: inf
ROOT
ATOM      1  C   UNL     1      36.355   7.320  -5.758  1.00  0.00     0.000 C 
ENDROOT
BRANCH   1   2
ATOM      2  C   UNL     1      36.972   6.222  -6.645  1.00  0.00     0.000 C 
BRANCH   2   3
ATOM      3  C   UNL     1      37.236   6.674  -8.099  1.00  0.00     0.000 C 
BRANCH   3   4
ATOM      4  C   UNL     1      36.005   6.498  -9.005  1.00  0.00     0.000 C 
BRANCH   4   5
ATOM      5  C   UNL     1      36.109   5.236  -9.889  1.00  0.00     0.000 C 
BRANCH   5   6
ATOM      6  C   UNL     1      35.350   4.022  -9.327  1.00  0.00     0.000 C 
BRANCH   6   7
ATOM      7  C   UNL     1      36.221   3.146  -8.412  1.00  0.00     0.000 C 
BRANCH   7   8
ATOM      8  C   UNL     1      37.561   2.763  -9.062  1.00  0.00     0.000 C 
BRANCH   8   9
ATOM      9  C   UNL     1      38.631   2.375  -8.027  1.00  0.00     0.000 C 
BRANCH   9  10
ATOM     10  C   UNL     1      39.450   3.588  -7.538  1.00  0.00     0.006 C 
BRANCH  10  11
ATOM     11  C   UNL     1      40.250   3.315  -6.253  1.00  0.00     0.053 C 
BRANCH  11  12
ATOM     12  C   UNL     1      40.649   1.879  -6.124  1.00  0.00     0.041 C 
ATOM     13  O   UNL     1      39.900   1.065  -5.523  1.00  0.00    -0.550 OA
ATOM     14  O   UNL     1      41.840   1.435  -6.683  1.00  0.00    -0.550 OA
ENDBRANCH  11  12
ENDBRANCH  10  11
ENDBRANCH   9  10
ENDBRANCH   8   9
ENDBRANCH   7   8
ENDBRANCH   6   7
ENDBRANCH   5   6
ENDBRANCH   4   5
ENDBRANCH   3   4
ENDBRANCH   2   3
ENDBRANCH   1   2
BRANCH   1  15
ATOM     15  C   UNL     1      35.051   6.918  -5.042  1.00  0.00     0.000 C 
BRANCH  15  16
ATOM     16  C   UNL     1      34.707   5.416  -5.115  1.00  0.00     0.000 C 
BRANCH  16  17
ATOM     17  C   UNL     1      33.724   5.021  -6.236  1.00  0.00     0.000 C 
BRANCH  17  18
ATOM     18  C   UNL     1      32.935   6.191  -6.851  1.00  0.00    -0.000 C 
BRANCH  18  19
ATOM     19  C   UNL     1      32.267   5.824  -8.184  1.00  0.00    -0.000 C 
BRANCH  19  20
ATOM     20  C   UNL     1      32.371   6.983  -9.189  1.00  0.00    -0.000 C 
BRANCH  20  21
ATOM     21  C   UNL     1      31.905   6.585 -10.599  1.00  0.00    -0.000 C 
BRANCH  21  22
ATOM     22  C   UNL     1      30.389   6.762 -10.789  1.00  0.00    -0.000 C 
BRANCH  22  23
ATOM     23  C   UNL     1      29.839   7.984 -10.036  1.00  0.00    -0.000 C 
BRANCH  23  24
ATOM     24  C   UNL     1      28.690   7.625  -9.077  1.00  0.00    -0.000 C 
BRANCH  24  25
ATOM     25  C   UNL     1      28.782   8.378  -7.740  1.00  0.00    -0.003 C 
ATOM     26  C   UNL     1      29.446   7.548  -6.641  1.00  0.00     0.004 C 
ENDBRANCH  24  25
ENDBRANCH  23  24
ENDBRANCH  22  23
ENDBRANCH  21  22
ENDBRANCH  20  21
ENDBRANCH  19  20
ENDBRANCH  18  19
ENDBRANCH  17  18
ENDBRANCH  16  17
ENDBRANCH  15  16
ENDBRANCH   1  15
TORSDOF 22
ENDMDL
MODEL 2
REMARK VINA RESULT:    -3.553      1.252      3.854
REMARK INTER + INTRA:         -11.511
REMARK INTER:                  -7.972
REMARK INTRA:                  -3.539
REMARK UNBOUND:                -3.387
REMARK SMILES CCCCCCCCCCCCCCCCCCCCCCCC(=O)[O-]
REMARK SMILES IDX 13 1 14 2 15 3 16 4 17 5 18 6 19 7 20 8 21 9 22 10 23 11
REMARK SMILES IDX 24 12 25 13 26 14 12 15 11 16 10 17 9 18 8 19 7 20 6 21 5 22
REMARK SMILES IDX 4 23 3 24 2 25 1 26
REMARK H PARENT
REMARK Flexibility Score: inf
ROOT
ATOM      1  C   UNL     1      31.849   5.744  -7.251  1.00  0.00     0.000 C 
ENDROOT
BRANCH   1   2
ATOM      2  C   UNL     1      33.283   5.630  -6.699  1.00  0.00     0.000 C 
BRANCH   2   3
ATOM      3  C   UNL     1      33.843   6.958  -6.144  1.00  0.00     0.000 C 
BRANCH   3   4
ATOM      4  C   UNL     1      35.136   6.761  -5.334  1.00  0.00     0.000 C 
BRANCH   4   5
ATOM      5  C   UNL     1      36.257   6.113  -6.174  1.00  0.00     0.000 C 
BRANCH   5   6
ATOM      6  C   UNL     1      36.744   6.993  -7.340  1.00  0.00     0.000 C 
BRANCH   6   7
ATOM      7  C   UNL     1      37.347   6.174  -8.492  1.00  0.00     0.000 C 
BRANCH   7   8
ATOM      8  C   UNL     1      37.104   4.664  -8.334  1.00  0.00     0.000 C 
BRANCH   8   9
ATOM      9  C   UNL     1      38.327   3.822  -8.740  1.00  0.00     0.000 C 
BRANCH   9  10
ATOM     10  C   UNL     1      39.607   4.234  -7.984  1.00  0.00     0.006 C 
BRANCH  10  11
ATOM     11  C   UNL     1      39.617   3.801  -6.508  1.00  0.00     0.053 C 
BRANCH  11  12
ATOM     12  C   UNL     1      40.352   2.515  -6.296  1.00  0.00     0.041 C 
ATOM     13  O   UNL     1      40.090   1.793  -5.298  1.00  0.00    -0.550 OA
ATOM     14  O   UNL     1      41.313   2.104  -7.210  1.00  0.00    -0.550 OA
ENDBRANCH  11  12
ENDBRANCH  10  11
ENDBRANCH   9  10
ENDBRANCH   8   9
ENDBRANCH   7   8
ENDBRANCH   6   7
ENDBRANCH   5   6
ENDBRANCH   4   5
ENDBRANCH   3   4
ENDBRANCH   2   3
ENDBRANCH   1   2
BRANCH   1  15
ATOM     15  C   UNL     1      31.109   7.040  -6.868  1.00  0.00     0.000 C 
BRANCH  15  16
ATOM     16  C   UNL     1      29.583   7.006  -7.087  1.00  0.00     0.000 C 
BRANCH  16  17
ATOM     17  C   UNL     1      28.965   8.318  -7.612  1.00  0.00     0.000 C 
BRANCH  17  18
ATOM     18  C   UNL     1      28.454   8.261  -9.063  1.00  0.00    -0.000 C 
BRANCH  18  19
ATOM     19  C   UNL     1      28.858   6.970  -9.788  1.00  0.00    -0.000 C 
BRANCH  19  20
ATOM     20  C   UNL     1      29.966   7.241 -10.818  1.00  0.00    -0.000 C 
BRANCH  20  21
ATOM     21  C   UNL     1      30.355   8.727 -10.890  1.00  0.00    -0.000 C 
BRANCH  21  22
ATOM     22  C   UNL     1      31.878   8.933 -10.963  1.00  0.00    -0.000 C 
BRANCH  22  23
ATOM     23  C   UNL     1      32.633   8.137  -9.886  1.00  0.00    -0.000 C 
BRANCH  23  24
ATOM     24  C   UNL     1      33.956   7.544 -10.404  1.00  0.00    -0.000 C 
BRANCH  24  25
ATOM     25  C   UNL     1      34.068   6.035 -10.135  1.00  0.00    -0.003 C 
ATOM     26  C   UNL     1      33.033   5.219 -10.910  1.00  0.00     0.004 C 
ENDBRANCH  24  25
ENDBRANCH  23  24
ENDBRANCH  22  23
ENDBRANCH  21  22
ENDBRANCH  20  21
ENDBRANCH  19  20
ENDBRANCH  18  19
ENDBRANCH  17  18
ENDBRANCH  16  17
ENDBRANCH  15  16
ENDBRANCH   1  15
TORSDOF 22
ENDMDL
MODEL 3
REMARK VINA RESULT:    -3.527      1.849      4.125
REMARK INTER + INTRA:         -11.450
REMARK INTER:                  -8.107
REMARK INTRA:                  -3.342
REMARK UNBOUND:                -3.387
REMARK SMILES CCCCCCCCCCCCCCCCCCCCCCCC(=O)[O-]
REMARK SMILES IDX 13 1 14 2 15 3 16 4 17 5 18 6 19 7 20 8 21 9 22 10 23 11
REMARK SMILES IDX 24 12 25 13 26 14 12 15 11 16 10 17 9 18 8 19 7 20 6 21 5 22
REMARK SMILES IDX 4 23 3 24 2 25 1 26
REMARK H PARENT
REMARK Flexibility Score: inf
ROOT
ATOM      1  C   UNL     1      31.917   5.712  -7.193  1.00  0.00     0.000 C 
ENDROOT
BRANCH   1   2
ATOM      2  C   UNL     1      33.317   5.535  -6.574  1.00  0.00     0.000 C 
BRANCH   2   3
ATOM      3  C   UNL     1      33.932   6.848  -6.041  1.00  0.00     0.000 C 
BRANCH   3   4
ATOM      4  C   UNL     1      35.468   6.802  -5.986  1.00  0.00     0.000 C 
BRANCH   4   5
ATOM      5  C   UNL     1      36.016   5.376  -6.213  1.00  0.00     0.000 C 
BRANCH   5   6
ATOM      6  C   UNL     1      37.198   5.317  -7.197  1.00  0.00     0.000 C 
BRANCH   6   7
ATOM      7  C   UNL     1      36.961   4.333  -8.353  1.00  0.00     0.000 C 
BRANCH   7   8
ATOM      8  C   UNL     1      35.926   3.250  -8.004  1.00  0.00     0.000 C 
BRANCH   8   9
ATOM      9  C   UNL     1      35.658   2.287  -9.175  1.00  0.00     0.000 C 
BRANCH   9  10
ATOM     10  C   UNL     1      36.569   1.043  -9.138  1.00  0.00     0.006 C 
BRANCH  10  11
ATOM     11  C   UNL     1      36.516   0.280  -7.804  1.00  0.00     0.053 C 
BRANCH  11  12
ATOM     12  C   UNL     1      37.863   0.162  -7.162  1.00  0.00     0.041 C 
ATOM     13  O   UNL     1      38.077  -0.730  -6.299  1.00  0.00    -0.550 OA
ATOM     14  O   UNL     1      38.886   1.025  -7.528  1.00  0.00    -0.550 OA
ENDBRANCH  11  12
ENDBRANCH  10  11
ENDBRANCH   9  10
ENDBRANCH   8   9
ENDBRANCH   7   8
ENDBRANCH   6   7
ENDBRANCH   5   6
ENDBRANCH   4   5
ENDBRANCH   3   4
ENDBRANCH   2   3
ENDBRANCH   1   2
BRANCH   1  15
ATOM     15  C   UNL     1      31.250   7.071  -6.907  1.00  0.00     0.000 C 
BRANCH  15  16
ATOM     16  C   UNL     1      29.708   7.050  -6.907  1.00  0.00     0.000 C 
BRANCH  16  17
ATOM     17  C   UNL     1      29.032   8.397  -7.236  1.00  0.00     0.000 C 
BRANCH  17  18
ATOM     18  C   UNL     1      28.419   8.490  -8.645  1.00  0.00    -0.000 C 
BRANCH  18  19
ATOM     19  C   UNL     1      28.576   7.192  -9.451  1.00  0.00    -0.000 C 
BRANCH  19  20
ATOM     20  C   UNL     1      28.547   7.476 -10.961  1.00  0.00    -0.000 C 
BRANCH  20  21
ATOM     21  C   UNL     1      29.910   7.239 -11.633  1.00  0.00    -0.000 C 
BRANCH  21  22
ATOM     22  C   UNL     1      30.937   6.613 -10.673  1.00  0.00    -0.000 C 
BRANCH  22  23
ATOM     23  C   UNL     1      32.158   6.038 -11.410  1.00  0.00    -0.000 C 
BRANCH  23  24
ATOM     24  C   UNL     1      33.196   5.425 -10.453  1.00  0.00    -0.000 C 
BRANCH  24  25
ATOM     25  C   UNL     1      34.507   6.226 -10.417  1.00  0.00    -0.003 C 
ATOM     26  C   UNL     1      34.396   7.501  -9.581  1.00  0.00     0.004 C 
ENDBRANCH  24  25
ENDBRANCH  23  24
ENDBRANCH  22  23
ENDBRANCH  21  22
ENDBRANCH  20  21
ENDBRANCH  19  20
ENDBRANCH  18  19
ENDBRANCH  17  18
ENDBRANCH  16  17
ENDBRANCH  15  16
ENDBRANCH   1  15
TORSDOF 22
ENDMDL
MODEL 4
REMARK VINA RESULT:    -3.484      1.650      3.400
REMARK INTER + INTRA:         -11.352
REMARK INTER:                  -8.365
REMARK INTRA:                  -2.987
REMARK UNBOUND:                -3.387
REMARK SMILES CCCCCCCCCCCCCCCCCCCCCCCC(=O)[O-]
REMARK SMILES IDX 13 1 14 2 15 3 16 4 17 5 18 6 19 7 20 8 21 9 22 10 23 11
REMARK SMILES IDX 24 12 25 13 26 14 12 15 11 16 10 17 9 18 8 19 7 20 6 21 5 22
REMARK SMILES IDX 4 23 3 24 2 25 1 26
REMARK H PARENT
REMARK Flexibility Score: inf
ROOT
ATOM      1  C   UNL     1      33.077   7.304  -6.646  1.00  0.00     0.000 C 
ENDROOT
BRANCH   1   2
ATOM      2  C   UNL     1      33.034   5.781  -6.873  1.00  0.00     0.000 C 
BRANCH   2   3
ATOM      3  C   UNL     1      34.223   5.024  -6.242  1.00  0.00     0.000 C 
BRANCH   3   4
ATOM      4  C   UNL     1      35.220   5.966  -5.546  1.00  0.00     0.000 C 
BRANCH   4   5
ATOM      5  C   UNL     1      36.389   6.364  -6.474  1.00  0.00     0.000 C 
BRANCH   5   6
ATOM      6  C   UNL     1      36.507   5.486  -7.732  1.00  0.00     0.000 C 
BRANCH   6   7
ATOM      7  C   UNL     1      37.855   4.753  -7.821  1.00  0.00     0.000 C 
BRANCH   7   8
ATOM      8  C   UNL     1      37.692   3.230  -7.962  1.00  0.00     0.000 C 
BRANCH   8   9
ATOM      9  C   UNL     1      36.226   2.809  -8.175  1.00  0.00     0.000 C 
BRANCH   9  10
ATOM     10  C   UNL     1      36.063   1.280  -8.301  1.00  0.00     0.006 C 
BRANCH  10  11
ATOM     11  C   UNL     1      37.397   0.516  -8.320  1.00  0.00     0.053 C 
BRANCH  11  12
ATOM     12  C   UNL     1      37.693  -0.147  -7.011  1.00  0.00     0.041 C 
ATOM     13  O   UNL     1      38.794   0.053  -6.434  1.00  0.00    -0.550 OA
ATOM     14  O   UNL     1      36.746  -0.973  -6.420  1.00  0.00    -0.550 OA
ENDBRANCH  11  12
ENDBRANCH  10  11
ENDBRANCH   9  10
ENDBRANCH   8   9
ENDBRANCH   7   8
ENDBRANCH   6   7
ENDBRANCH   5   6
ENDBRANCH   4   5
ENDBRANCH   3   4
ENDBRANCH   2   3
ENDBRANCH   1   2
BRANCH   1  15
ATOM     15  C   UNL     1      33.021   8.153  -7.931  1.00  0.00     0.000 C 
BRANCH  15  16
ATOM     16  C   UNL     1      33.553   7.451  -9.197  1.00  0.00     0.000 C 
BRANCH  16  17
ATOM     17  C   UNL     1      32.532   7.301 -10.343  1.00  0.00     0.000 C 
BRANCH  17  18
ATOM     18  C   UNL     1      31.993   5.874 -10.551  1.00  0.00    -0.000 C 
BRANCH  18  19
ATOM     19  C   UNL     1      30.931   5.792 -11.656  1.00  0.00    -0.000 C 
BRANCH  19  20
ATOM     20  C   UNL     1      30.029   7.037 -11.645  1.00  0.00    -0.000 C 
BRANCH  20  21
ATOM     21  C   UNL     1      28.817   6.879 -10.711  1.00  0.00    -0.000 C 
BRANCH  21  22
ATOM     22  C   UNL     1      28.361   8.219 -10.108  1.00  0.00    -0.000 C 
BRANCH  22  23
ATOM     23  C   UNL     1      28.507   8.257  -8.578  1.00  0.00    -0.000 C 
BRANCH  23  24
ATOM     24  C   UNL     1      29.452   7.166  -8.043  1.00  0.00    -0.000 C 
BRANCH  24  25
ATOM     25  C   UNL     1      29.520   7.149  -6.508  1.00  0.00    -0.003 C 
ATOM     26  C   UNL     1      29.412   8.546  -5.898  1.00  0.00     0.004 C 
ENDBRANCH  24  25
ENDBRANCH  23  24
ENDBRANCH  22  23
ENDBRANCH  21  22
ENDBRANCH  20  21
ENDBRANCH  19  20
ENDBRANCH  18  19
ENDBRANCH  17  18
ENDBRANCH  16  17
ENDBRANCH  15  16
ENDBRANCH   1  15
TORSDOF 22
ENDMDL
MODEL 5
REMARK VINA RESULT:    -3.413     11.187     14.810
REMARK INTER + INTRA:         -11.190
REMARK INTER:                  -7.030
REMARK INTRA:                  -4.160
REMARK UNBOUND:                -3.387
REMARK SMILES CCCCCCCCCCCCCCCCCCCCCCCC(=O)[O-]
REMARK SMILES IDX 13 1 14 2 15 3 16 4 17 5 18 6 19 7 20 8 21 9 22 10 23 11
REMARK SMILES IDX 24 12 25 13 26 14 12 15 11 16 10 17 9 18 8 19 7 20 6 21 5 22
REMARK SMILES IDX 4 23 3 24 2 25 1 26
REMARK H PARENT
REMARK Flexibility Score: inf
ROOT
ATOM      1  C   UNL     1      42.073   1.170   4.697  1.00  0.00     0.000 C 
ENDROOT
BRANCH   1   2
ATOM      2  C   UNL     1      42.138   1.651   6.159  1.00  0.00     0.000 C 
BRANCH   2   3
ATOM      3  C   UNL     1      41.942   3.175   6.322  1.00  0.00     0.000 C 
BRANCH   3   4
ATOM      4  C   UNL     1      41.014   3.529   7.496  1.00  0.00     0.000 C 
BRANCH   4   5
ATOM      5  C   UNL     1      40.288   4.874   7.278  1.00  0.00     0.000 C 
BRANCH   5   6
ATOM      6  C   UNL     1      38.865   4.912   7.864  1.00  0.00     0.000 C 
BRANCH   6   7
ATOM      7  C   UNL     1      38.013   6.053   7.286  1.00  0.00     0.000 C 
BRANCH   7   8
ATOM      8  C   UNL     1      38.772   6.884   6.239  1.00  0.00     0.000 C 
BRANCH   8   9
ATOM      9  C   UNL     1      38.041   6.940   4.885  1.00  0.00     0.000 C 
BRANCH   9  10
ATOM     10  C   UNL     1      36.537   6.623   5.011  1.00  0.00     0.006 C 
BRANCH  10  11
ATOM     11  C   UNL     1      35.665   7.347   3.971  1.00  0.00     0.053 C 
BRANCH  11  12
ATOM     12  C   UNL     1      34.284   6.776   3.889  1.00  0.00     0.041 C 
ATOM     13  O   UNL     1      33.764   6.536   2.767  1.00  0.00    -0.550 OA
ATOM     14  O   UNL     1      33.578   6.493   5.050  1.00  0.00    -0.550 OA
ENDBRANCH  11  12
ENDBRANCH  10  11
ENDBRANCH   9  10
ENDBRANCH   8   9
ENDBRANCH   7   8
ENDBRANCH   6   7
ENDBRANCH   5   6
ENDBRANCH   4   5
ENDBRANCH   3   4
ENDBRANCH   2   3
ENDBRANCH   1   2
BRANCH   1  15
ATOM     15  C   UNL     1      41.914   2.292   3.652  1.00  0.00     0.000 C 
BRANCH  15  16
ATOM     16  C   UNL     1      40.842   2.030   2.576  1.00  0.00     0.000 C 
BRANCH  16  17
ATOM     17  C   UNL     1      39.669   3.031   2.561  1.00  0.00     0.000 C 
BRANCH  17  18
ATOM     18  C   UNL     1      39.344   3.675   3.921  1.00  0.00    -0.000 C 
BRANCH  18  19
ATOM     19  C   UNL     1      38.006   3.198   4.503  1.00  0.00    -0.000 C 
BRANCH  19  20
ATOM     20  C   UNL     1      38.226   2.129   5.586  1.00  0.00    -0.000 C 
BRANCH  20  21
ATOM     21  C   UNL     1      38.214   0.701   5.017  1.00  0.00    -0.000 C 
BRANCH  21  22
ATOM     22  C   UNL     1      37.130   0.505   3.942  1.00  0.00    -0.000 C 
BRANCH  22  23
ATOM     23  C   UNL     1      37.592  -0.415   2.800  1.00  0.00    -0.000 C 
BRANCH  23  24
ATOM     24  C   UNL     1      37.327   0.186   1.408  1.00  0.00    -0.000 C 
BRANCH  24  25
ATOM     25  C   UNL     1      38.005  -0.614   0.284  1.00  0.00    -0.003 C 
ATOM     26  C   UNL     1      39.373  -0.049  -0.098  1.00  0.00     0.004 C 
ENDBRANCH  24  25
ENDBRANCH  23  24
ENDBRANCH  22  23
ENDBRANCH  21  22
ENDBRANCH  20  21
ENDBRANCH  19  20
ENDBRANCH  18  19
ENDBRANCH  17  18
ENDBRANCH  16  17
ENDBRANCH  15  16
ENDBRANCH   1  15
TORSDOF 22
ENDMDL
MODEL 6
REMARK VINA RESULT:    -3.413      1.415      2.858
REMARK INTER + INTRA:         -11.189
REMARK INTER:                  -7.557
REMARK INTRA:                  -3.631
REMARK UNBOUND:                -3.387
REMARK SMILES CCCCCCCCCCCCCCCCCCCCCCCC(=O)[O-]
REMARK SMILES IDX 13 1 14 2 15 3 16 4 17 5 18 6 19 7 20 8 21 9 22 10 23 11
REMARK SMILES IDX 24 12 25 13 26 14 12 15 11 16 10 17 9 18 8 19 7 20 6 21 5 22
REMARK SMILES IDX 4 23 3 24 2 25 1 26
REMARK H PARENT
REMARK Flexibility Score: inf
ROOT
ATOM      1  C   UNL     1      35.254   3.795  -7.274  1.00  0.00     0.000 C 
ENDROOT
BRANCH   1   2
ATOM      2  C   UNL     1      35.502   3.989  -8.782  1.00  0.00     0.000 C 
BRANCH   2   3
ATOM      3  C   UNL     1      35.306   5.443  -9.263  1.00  0.00     0.000 C 
BRANCH   3   4
ATOM      4  C   UNL     1      36.589   6.284  -9.143  1.00  0.00     0.000 C 
BRANCH   4   5
ATOM      5  C   UNL     1      37.759   5.677  -9.947  1.00  0.00     0.000 C 
BRANCH   5   6
ATOM      6  C   UNL     1      38.984   5.322  -9.086  1.00  0.00     0.000 C 
BRANCH   6   7
ATOM      7  C   UNL     1      38.669   5.303  -7.582  1.00  0.00     0.000 C 
BRANCH   7   8
ATOM      8  C   UNL     1      39.013   3.957  -6.923  1.00  0.00     0.000 C 
BRANCH   8   9
ATOM      9  C   UNL     1      38.966   2.782  -7.916  1.00  0.00     0.000 C 
BRANCH   9  10
ATOM     10  C   UNL     1      40.306   2.023  -7.999  1.00  0.00     0.006 C 
BRANCH  10  11
ATOM     11  C   UNL     1      40.324   0.713  -7.193  1.00  0.00     0.053 C 
BRANCH  11  12
ATOM     12  C   UNL     1      40.876   0.899  -5.815  1.00  0.00     0.041 C 
ATOM     13  O   UNL     1      41.627   1.877  -5.560  1.00  0.00    -0.550 OA
ATOM     14  O   UNL     1      40.547   0.003  -4.807  1.00  0.00    -0.550 OA
ENDBRANCH  11  12
ENDBRANCH  10  11
ENDBRANCH   9  10
ENDBRANCH   8   9
ENDBRANCH   7   8
ENDBRANCH   6   7
ENDBRANCH   5   6
ENDBRANCH   4   5
ENDBRANCH   3   4
ENDBRANCH   2   3
ENDBRANCH   1   2
BRANCH   1  15
ATOM     15  C   UNL     1      34.315   4.835  -6.633  1.00  0.00     0.000 C 
BRANCH  15  16
ATOM     16  C   UNL     1      34.472   5.001  -5.108  1.00  0.00     0.000 C 
BRANCH  16  17
ATOM     17  C   UNL     1      34.875   6.414  -4.639  1.00  0.00     0.000 C 
BRANCH  17  18
ATOM     18  C   UNL     1      35.868   7.146  -5.560  1.00  0.00    -0.000 C 
BRANCH  18  19
ATOM     19  C   UNL     1      35.518   8.628  -5.756  1.00  0.00    -0.000 C 
BRANCH  19  20
ATOM     20  C   UNL     1      34.074   8.790  -6.255  1.00  0.00    -0.000 C 
BRANCH  20  21
ATOM     21  C   UNL     1      33.906   8.369  -7.725  1.00  0.00    -0.000 C 
BRANCH  21  22
ATOM     22  C   UNL     1      32.451   8.495  -8.210  1.00  0.00    -0.000 C 
BRANCH  22  23
ATOM     23  C   UNL     1      31.799   7.129  -8.477  1.00  0.00    -0.000 C 
BRANCH  23  24
ATOM     24  C   UNL     1      31.138   6.530  -7.222  1.00  0.00    -0.000 C 
BRANCH  24  25
ATOM     25  C   UNL     1      29.703   7.040  -7.014  1.00  0.00    -0.003 C 
ATOM     26  C   UNL     1      28.990   7.347  -8.331  1.00  0.00     0.004 C 
ENDBRANCH  24  25
ENDBRANCH  23  24
ENDBRANCH  22  23
ENDBRANCH  21  22
ENDBRANCH  20  21
ENDBRANCH  19  20
ENDBRANCH  18  19
ENDBRANCH  17  18
ENDBRANCH  16  17
ENDBRANCH  15  16
ENDBRANCH   1  15
TORSDOF 22
ENDMDL
MODEL 7
REMARK VINA RESULT:    -3.393     10.706     13.590
REMARK INTER + INTRA:         -11.143
REMARK INTER:                  -6.449
REMARK INTRA:                  -4.694
REMARK UNBOUND:                -3.387
REMARK SMILES CCCCCCCCCCCCCCCCCCCCCCCC(=O)[O-]
REMARK SMILES IDX 13 1 14 2 15 3 16 4 17 5 18 6 19 7 20 8 21 9 22 10 23 11
REMARK SMILES IDX 24 12 25 13 26 14 12 15 11 16 10 17 9 18 8 19 7 20 6 21 5 22
REMARK SMILES IDX 4 23 3 24 2 25 1 26
REMARK H PARENT
REMARK Flexibility Score: inf
ROOT
ATOM      1  C   UNL     1      38.417   1.696   4.458  1.00  0.00     0.000 C 
ENDROOT
BRANCH   1   2
ATOM      2  C   UNL     1      38.758   1.718   2.956  1.00  0.00     0.000 C 
BRANCH   2   3
ATOM      3  C   UNL     1      39.704   2.869   2.550  1.00  0.00     0.000 C 
BRANCH   3   4
ATOM      4  C   UNL     1      40.785   3.148   3.609  1.00  0.00     0.000 C 
BRANCH   4   5
ATOM      5  C   UNL     1      42.105   2.408   3.301  1.00  0.00     0.000 C 
BRANCH   5   6
ATOM      6  C   UNL     1      42.666   1.621   4.499  1.00  0.00     0.000 C 
BRANCH   6   7
ATOM      7  C   UNL     1      42.501   0.101   4.342  1.00  0.00     0.000 C 
BRANCH   7   8
ATOM      8  C   UNL     1      41.964  -0.295   2.956  1.00  0.00     0.000 C 
BRANCH   8   9
ATOM      9  C   UNL     1      41.057  -1.538   3.005  1.00  0.00     0.000 C 
BRANCH   9  10
ATOM     10  C   UNL     1      40.208  -1.702   1.728  1.00  0.00     0.006 C 
BRANCH  10  11
ATOM     11  C   UNL     1      40.440  -0.595   0.686  1.00  0.00     0.053 C 
BRANCH  11  12
ATOM     12  C   UNL     1      39.289  -0.451  -0.259  1.00  0.00     0.041 C 
ATOM     13  O   UNL     1      38.128  -0.241   0.183  1.00  0.00    -0.550 OA
ATOM     14  O   UNL     1      39.499  -0.531  -1.629  1.00  0.00    -0.550 OA
ENDBRANCH  11  12
ENDBRANCH  10  11
ENDBRANCH   9  10
ENDBRANCH   8   9
ENDBRANCH   7   8
ENDBRANCH   6   7
ENDBRANCH   5   6
ENDBRANCH   4   5
ENDBRANCH   3   4
ENDBRANCH   2   3
ENDBRANCH   1   2
BRANCH   1  15
ATOM     15  C   UNL     1      38.892   0.439   5.212  1.00  0.00     0.000 C 
BRANCH  15  16
ATOM     16  C   UNL     1      39.573   0.714   6.568  1.00  0.00     0.000 C 
BRANCH  16  17
ATOM     17  C   UNL     1      39.415   2.153   7.103  1.00  0.00     0.000 C 
BRANCH  17  18
ATOM     18  C   UNL     1      40.735   2.914   7.323  1.00  0.00    -0.000 C 
BRANCH  18  19
ATOM     19  C   UNL     1      40.636   4.400   6.952  1.00  0.00    -0.000 C 
BRANCH  19  20
ATOM     20  C   UNL     1      39.171   4.821   6.756  1.00  0.00    -0.000 C 
BRANCH  20  21
ATOM     21  C   UNL     1      38.970   5.695   5.507  1.00  0.00    -0.000 C 
BRANCH  21  22
ATOM     22  C   UNL     1      37.693   5.327   4.731  1.00  0.00    -0.000 C 
BRANCH  22  23
ATOM     23  C   UNL     1      36.516   4.987   5.660  1.00  0.00    -0.000 C 
BRANCH  23  24
ATOM     24  C   UNL     1      35.577   3.923   5.065  1.00  0.00    -0.000 C 
BRANCH  24  25
ATOM     25  C   UNL     1      34.600   4.511   4.035  1.00  0.00    -0.003 C 
ATOM     26  C   UNL     1      33.787   3.437   3.313  1.00  0.00     0.004 C 
ENDBRANCH  24  25
ENDBRANCH  23  24
ENDBRANCH  22  23
ENDBRANCH  21  22
ENDBRANCH  20  21
ENDBRANCH  19  20
ENDBRANCH  18  19
ENDBRANCH  17  18
ENDBRANCH  16  17
ENDBRANCH  15  16
ENDBRANCH   1  15
TORSDOF 22
ENDMDL
MODEL 8
REMARK VINA RESULT:    -3.391     10.574     14.201
REMARK INTER + INTRA:         -11.139
REMARK INTER:                  -7.130
REMARK INTRA:                  -4.008
REMARK UNBOUND:                -3.387
REMARK SMILES CCCCCCCCCCCCCCCCCCCCCCCC(=O)[O-]
REMARK SMILES IDX 13 1 14 2 15 3 16 4 17 5 18 6 19 7 20 8 21 9 22 10 23 11
REMARK SMILES IDX 24 12 25 13 26 14 12 15 11 16 10 17 9 18 8 19 7 20 6 21 5 22
REMARK SMILES IDX 4 23 3 24 2 25 1 26
REMARK H PARENT
REMARK Flexibility Score: inf
ROOT
ATOM      1  C   UNL     1      38.176   3.597   4.382  1.00  0.00     0.000 C 
ENDROOT
BRANCH   1   2
ATOM      2  C   UNL     1      38.375   5.106   4.618  1.00  0.00     0.000 C 
BRANCH   2   3
ATOM      3  C   UNL     1      38.157   5.540   6.084  1.00  0.00     0.000 C 
BRANCH   3   4
ATOM      4  C   UNL     1      36.863   6.349   6.275  1.00  0.00     0.000 C 
BRANCH   4   5
ATOM      5  C   UNL     1      35.621   5.440   6.396  1.00  0.00     0.000 C 
BRANCH   5   6
ATOM      6  C   UNL     1      34.433   5.897   5.531  1.00  0.00     0.000 C 
BRANCH   6   7
ATOM      7  C   UNL     1      34.551   5.440   4.068  1.00  0.00     0.000 C 
BRANCH   7   8
ATOM      8  C   UNL     1      34.632   3.910   3.932  1.00  0.00     0.000 C 
BRANCH   8   9
ATOM      9  C   UNL     1      33.334   3.207   4.369  1.00  0.00     0.000 C 
BRANCH   9  10
ATOM     10  C   UNL     1      32.970   2.017   3.457  1.00  0.00     0.006 C 
BRANCH  10  11
ATOM     11  C   UNL     1      33.184   2.299   1.960  1.00  0.00     0.053 C 
BRANCH  11  12
ATOM     12  C   UNL     1      31.898   2.545   1.236  1.00  0.00     0.041 C 
ATOM     13  O   UNL     1      31.108   1.592   1.006  1.00  0.00    -0.550 OA
ATOM     14  O   UNL     1      31.562   3.830   0.831  1.00  0.00    -0.550 OA
ENDBRANCH  11  12
ENDBRANCH  10  11
ENDBRANCH   9  10
ENDBRANCH   8   9
ENDBRANCH   7   8
ENDBRANCH   6   7
ENDBRANCH   5   6
ENDBRANCH   4   5
ENDBRANCH   3   4
ENDBRANCH   2   3
ENDBRANCH   1   2
BRANCH   1  15
ATOM     15  C   UNL     1      38.059   2.750   5.664  1.00  0.00     0.000 C 
BRANCH  15  16
ATOM     16  C   UNL     1      39.253   1.814   5.936  1.00  0.00     0.000 C 
BRANCH  16  17
ATOM     17  C   UNL     1      40.456   2.471   6.642  1.00  0.00     0.000 C 
BRANCH  17  18
ATOM     18  C   UNL     1      41.498   3.102   5.700  1.00  0.00    -0.000 C 
BRANCH  18  19
ATOM     19  C   UNL     1      42.013   2.121   4.637  1.00  0.00    -0.000 C 
BRANCH  19  20
ATOM     20  C   UNL     1      41.589   2.566   3.228  1.00  0.00    -0.000 C 
BRANCH  20  21
ATOM     21  C   UNL     1      41.240   1.379   2.314  1.00  0.00    -0.000 C 
BRANCH  21  22
ATOM     22  C   UNL     1      39.841   1.510   1.688  1.00  0.00    -0.000 C 
BRANCH  22  23
ATOM     23  C   UNL     1      38.792   0.641   2.400  1.00  0.00    -0.000 C 
BRANCH  23  24
ATOM     24  C   UNL     1      37.353   0.973   1.968  1.00  0.00    -0.000 C 
BRANCH  24  25
ATOM     25  C   UNL     1      36.309   0.507   2.996  1.00  0.00    -0.003 C 
ATOM     26  C   UNL     1      36.893  -0.447   4.038  1.00  0.00     0.004 C 
ENDBRANCH  24  25
ENDBRANCH  23  24
ENDBRANCH  22  23
ENDBRANCH  21  22
ENDBRANCH  20  21
ENDBRANCH  19  20
ENDBRANCH  18  19
ENDBRANCH  17  18
ENDBRANCH  16  17
ENDBRANCH  15  16
ENDBRANCH   1  15
TORSDOF 22
ENDMDL
MODEL 9
REMARK VINA RESULT:    -3.340     10.377     13.771
REMARK INTER + INTRA:         -11.023
REMARK INTER:                  -7.348
REMARK INTRA:                  -3.675
REMARK UNBOUND:                -3.387
REMARK SMILES CCCCCCCCCCCCCCCCCCCCCCCC(=O)[O-]
REMARK SMILES IDX 13 1 14 2 15 3 16 4 17 5 18 6 19 7 20 8 21 9 22 10 23 11
REMARK SMILES IDX 24 12 25 13 26 14 12 15 11 16 10 17 9 18 8 19 7 20 6 21 5 22
REMARK SMILES IDX 4 23 3 24 2 25 1 26
REMARK H PARENT
REMARK Flexibility Score: inf
ROOT
ATOM      1  C   UNL     1      42.309   2.007   4.666  1.00  0.00     0.000 C 
ENDROOT
BRANCH   1   2
ATOM      2  C   UNL     1      41.952   2.307   3.198  1.00  0.00     0.000 C 
BRANCH   2   3
ATOM      3  C   UNL     1      40.533   2.887   3.009  1.00  0.00     0.000 C 
BRANCH   3   4
ATOM      4  C   UNL     1      39.653   2.014   2.099  1.00  0.00     0.000 C 
BRANCH   4   5
ATOM      5  C   UNL     1      38.332   1.604   2.786  1.00  0.00     0.000 C 
BRANCH   5   6
ATOM      6  C   UNL     1      37.960   2.489   3.990  1.00  0.00     0.000 C 
BRANCH   6   7
ATOM      7  C   UNL     1      36.985   1.800   4.956  1.00  0.00     0.000 C 
BRANCH   7   8
ATOM      8  C   UNL     1      35.523   2.214   4.716  1.00  0.00     0.000 C 
BRANCH   8   9
ATOM      9  C   UNL     1      34.852   1.396   3.598  1.00  0.00     0.000 C 
BRANCH   9  10
ATOM     10  C   UNL     1      33.635   2.118   2.985  1.00  0.00     0.006 C 
BRANCH  10  11
ATOM     11  C   UNL     1      33.772   2.386   1.477  1.00  0.00     0.053 C 
BRANCH  11  12
ATOM     12  C   UNL     1      32.509   2.919   0.876  1.00  0.00     0.041 C 
ATOM     13  O   UNL     1      32.555   3.842   0.020  1.00  0.00    -0.550 OA
ATOM     14  O   UNL     1      31.282   2.386   1.248  1.00  0.00    -0.550 OA
ENDBRANCH  11  12
ENDBRANCH  10  11
ENDBRANCH   9  10
ENDBRANCH   8   9
ENDBRANCH   7   8
ENDBRANCH   6   7
ENDBRANCH   5   6
ENDBRANCH   4   5
ENDBRANCH   3   4
ENDBRANCH   2   3
ENDBRANCH   1   2
BRANCH   1  15
ATOM     15  C   UNL     1      41.173   1.375   5.493  1.00  0.00     0.000 C 
BRANCH  15  16
ATOM     16  C   UNL     1      40.593   2.280   6.598  1.00  0.00     0.000 C 
BRANCH  16  17
ATOM     17  C   UNL     1      41.153   3.717   6.631  1.00  0.00     0.000 C 
BRANCH  17  18
ATOM     18  C   UNL     1      40.167   4.788   7.133  1.00  0.00    -0.000 C 
BRANCH  18  19
ATOM     19  C   UNL     1      38.741   4.249   7.313  1.00  0.00    -0.000 C 
BRANCH  19  20
ATOM     20  C   UNL     1      37.723   5.129   6.571  1.00  0.00    -0.000 C 
BRANCH  20  21
ATOM     21  C   UNL     1      38.383   6.041   5.522  1.00  0.00    -0.000 C 
BRANCH  21  22
ATOM     22  C   UNL     1      37.526   6.194   4.254  1.00  0.00    -0.000 C 
BRANCH  22  23
ATOM     23  C   UNL     1      36.685   7.481   4.263  1.00  0.00    -0.000 C 
BRANCH  23  24
ATOM     24  C   UNL     1      35.220   7.237   3.858  1.00  0.00    -0.000 C 
BRANCH  24  25
ATOM     25  C   UNL     1      34.796   5.771   4.042  1.00  0.00    -0.003 C 
ATOM     26  C   UNL     1      34.109   5.520   5.385  1.00  0.00     0.004 C 
ENDBRANCH  24  25
ENDBRANCH  23  24
ENDBRANCH  22  23
ENDBRANCH  21  22
ENDBRANCH  20  21
ENDBRANCH  19  20
ENDBRANCH  18  19
ENDBRANCH  17  18
ENDBRANCH  16  17
ENDBRANCH  15  16
ENDBRANCH   1  15
TORSDOF 22
ENDMDL
