MODEL 1
REMARK VINA RESULT:    -6.509      0.000      0.000
REMARK INTER + INTRA:         -10.152
REMARK INTER:                  -8.601
REMARK INTRA:                  -1.550
REMARK UNBOUND:                -1.550
REMARK SMILES CC[C@@H](C=C[C@H](C)[C@@H]1CC[C@H]2[C@@H]3CC=C4C[C@@H](O)CC[C@]4(C)[C@@H]3CC[C@@]21C)C(C)C
REMARK SMILES IDX 6 1 7 2 5 3 4 4 3 5 2 6 1 7 28 8 29 9 30 10 8 11 9 12 26 13
REMARK SMILES IDX 10 14 11 15 25 16 27 17 12 18 24 19 23 20 13 21 21 22 14 23
REMARK SMILES IDX 15 24 20 25 22 26 16 27 19 28 17 29 18 30
REMARK H PARENT 18 31
REMARK Flexibility Score: inf
ROOT
ATOM      1  C   UNL     1       9.646  16.478  12.309  1.00  0.00     0.012 C 
ATOM      2  C   UNL     1       8.119  16.439  12.543  1.00  0.00     0.012 C 
ENDROOT
BRANCH   1   3
ATOM      3  C   UNL     1      10.260  15.387  13.169  1.00  0.00    -0.028 C 
ATOM      4  C   UNL     1      11.112  15.657  14.177  1.00  0.00    -0.027 C 
BRANCH   4   5
ATOM      5  C   UNL     1      11.804  14.627  15.059  1.00  0.00     0.014 C 
BRANCH   5   6
ATOM      6  C   UNL     1      13.009  13.977  14.319  1.00  0.00     0.004 C 
ATOM      7  C   UNL     1      14.208  14.899  14.057  1.00  0.00     0.004 C 
ENDBRANCH   5   6
BRANCH   5   8
ATOM      8  C   UNL     1      10.869  13.633  15.829  1.00  0.00    -0.011 C 
ATOM      9  C   UNL     1      10.687  12.271  15.140  1.00  0.00     0.008 C 
ATOM     10  C   UNL     1      11.340  13.416  17.279  1.00  0.00     0.008 C 
ENDBRANCH   5   8
ENDBRANCH   4   5
ENDBRANCH   1   3
BRANCH   1  11
ATOM     11  C   UNL     1      10.016  16.357  10.783  1.00  0.00     0.002 C 
ATOM     12  C   UNL     1       9.952  14.892  10.239  1.00  0.00     0.005 C 
ATOM     13  C   UNL     1      11.460  16.830  10.352  1.00  0.00    -0.026 C 
ATOM     14  C   UNL     1      11.377  14.457   9.875  1.00  0.00     0.005 C 
ATOM     15  C   UNL     1      12.261  15.528  10.481  1.00  0.00    -0.001 C 
ATOM     16  C   UNL     1      12.201  17.883  11.242  1.00  0.00     0.007 C 
ATOM     17  C   UNL     1      11.373  17.340   8.865  1.00  0.00     0.012 C 
ATOM     18  C   UNL     1      13.743  15.579   9.978  1.00  0.00     0.000 C 
ATOM     19  C   UNL     1      13.757  17.891  11.091  1.00  0.00     0.005 C 
ATOM     20  C   UNL     1      14.298  17.039   9.906  1.00  0.00     0.003 C 
ATOM     21  C   UNL     1      14.600  14.700  10.912  1.00  0.00     0.031 C 
ATOM     22  C   UNL     1      15.861  17.094   9.619  1.00  0.00    -0.008 C 
ATOM     23  C   UNL     1      16.073  14.849  10.730  1.00  0.00    -0.027 C 
ATOM     24  C   UNL     1      16.652  15.996  10.335  1.00  0.00    -0.065 C 
ATOM     25  C   UNL     1      16.465  18.480  10.010  1.00  0.00     0.014 C 
ATOM     26  C   UNL     1      16.063  16.876   8.091  1.00  0.00     0.016 C 
ATOM     27  C   UNL     1      18.170  16.070  10.341  1.00  0.00     0.063 C 
ATOM     28  C   UNL     1      17.996  18.550   9.879  1.00  0.00     0.033 C 
ATOM     29  C   UNL     1      18.663  17.470  10.736  1.00  0.00     0.118 C 
BRANCH  29  30
ATOM     30  O   UNL     1      20.054  17.550  10.572  1.00  0.00    -0.393 OA
ATOM     31  H   UNL     1      20.269  17.108   9.709  1.00  0.00     0.210 HD
ENDBRANCH  29  30
ENDBRANCH   1  11
TORSDOF 6
ENDMDL
MODEL 2
REMARK VINA RESULT:    -6.383      0.981      1.165
REMARK INTER + INTRA:          -9.985
REMARK INTER:                  -8.260
REMARK INTRA:                  -1.725
REMARK UNBOUND:                -1.550
REMARK SMILES CC[C@@H](C=C[C@H](C)[C@@H]1CC[C@H]2[C@@H]3CC=C4C[C@@H](O)CC[C@]4(C)[C@@H]3CC[C@@]21C)C(C)C
REMARK SMILES IDX 6 1 7 2 5 3 4 4 3 5 2 6 1 7 28 8 29 9 30 10 8 11 9 12 26 13
REMARK SMILES IDX 10 14 11 15 25 16 27 17 12 18 24 19 23 20 13 21 21 22 14 23
REMARK SMILES IDX 15 24 20 25 22 26 16 27 19 28 17 29 18 30
REMARK H PARENT 18 31
REMARK Flexibility Score: inf
ROOT
ATOM      1  C   UNL     1       9.144  16.960  13.100  1.00  0.00     0.012 C 
ATOM      2  C   UNL     1       7.676  17.011  13.580  1.00  0.00     0.012 C 
ENDROOT
BRANCH   1   3
ATOM      3  C   UNL     1       9.787  15.748  13.751  1.00  0.00    -0.028 C 
ATOM      4  C   UNL     1      10.973  15.815  14.386  1.00  0.00    -0.027 C 
BRANCH   4   5
ATOM      5  C   UNL     1      11.709  14.647  15.028  1.00  0.00     0.014 C 
BRANCH   5   6
ATOM      6  C   UNL     1      12.792  14.074  14.068  1.00  0.00     0.004 C 
ATOM      7  C   UNL     1      14.122  14.842  14.029  1.00  0.00     0.004 C 
ENDBRANCH   5   6
BRANCH   5   8
ATOM      8  C   UNL     1      10.818  13.581  15.752  1.00  0.00    -0.011 C 
ATOM      9  C   UNL     1      10.698  12.242  15.006  1.00  0.00     0.008 C 
ATOM     10  C   UNL     1      11.297  13.324  17.193  1.00  0.00     0.008 C 
ENDBRANCH   5   8
ENDBRANCH   4   5
ENDBRANCH   1   3
BRANCH   1  11
ATOM     11  C   UNL     1       9.255  16.961  11.529  1.00  0.00     0.002 C 
ATOM     12  C   UNL     1       8.756  15.634  10.866  1.00  0.00     0.005 C 
ATOM     13  C   UNL     1      10.696  17.145  10.908  1.00  0.00    -0.026 C 
ATOM     14  C   UNL     1       9.965  14.938  10.229  1.00  0.00     0.005 C 
ATOM     15  C   UNL     1      11.161  15.690  10.777  1.00  0.00    -0.001 C 
ATOM     16  C   UNL     1      11.790  17.874  11.757  1.00  0.00     0.007 C 
ATOM     17  C   UNL     1      10.529  17.854   9.512  1.00  0.00     0.012 C 
ATOM     18  C   UNL     1      12.524  15.468  10.039  1.00  0.00     0.000 C 
ATOM     19  C   UNL     1      13.263  17.546  11.348  1.00  0.00     0.005 C 
ATOM     20  C   UNL     1      13.406  16.758  10.014  1.00  0.00     0.003 C 
ATOM     21  C   UNL     1      13.261  14.300  10.728  1.00  0.00     0.031 C 
ATOM     22  C   UNL     1      14.878  16.493   9.475  1.00  0.00    -0.008 C 
ATOM     23  C   UNL     1      14.685  14.132  10.316  1.00  0.00    -0.027 C 
ATOM     24  C   UNL     1      15.467  15.159   9.940  1.00  0.00    -0.065 C 
ATOM     25  C   UNL     1      15.854  17.641   9.890  1.00  0.00     0.014 C 
ATOM     26  C   UNL     1      14.804  16.439   7.921  1.00  0.00     0.016 C 
ATOM     27  C   UNL     1      16.942  14.884   9.698  1.00  0.00     0.063 C 
ATOM     28  C   UNL     1      17.320  17.377   9.510  1.00  0.00     0.033 C 
ATOM     29  C   UNL     1      17.814  16.069  10.136  1.00  0.00     0.118 C 
BRANCH  29  30
ATOM     30  O   UNL     1      19.145  15.851   9.749  1.00  0.00    -0.393 OA
ATOM     31  H   UNL     1      19.703  16.499  10.254  1.00  0.00     0.210 HD
ENDBRANCH  29  30
ENDBRANCH   1  11
TORSDOF 6
ENDMDL
MODEL 3
REMARK VINA RESULT:    -6.336      1.358      2.271
REMARK INTER + INTRA:          -9.924
REMARK INTER:                  -7.945
REMARK INTRA:                  -1.979
REMARK UNBOUND:                -1.550
REMARK SMILES CC[C@@H](C=C[C@H](C)[C@@H]1CC[C@H]2[C@@H]3CC=C4C[C@@H](O)CC[C@]4(C)[C@@H]3CC[C@@]21C)C(C)C
REMARK SMILES IDX 6 1 7 2 5 3 4 4 3 5 2 6 1 7 28 8 29 9 30 10 8 11 9 12 26 13
REMARK SMILES IDX 10 14 11 15 25 16 27 17 12 18 24 19 23 20 13 21 21 22 14 23
REMARK SMILES IDX 15 24 20 25 22 26 16 27 19 28 17 29 18 30
REMARK H PARENT 18 31
REMARK Flexibility Score: inf
ROOT
ATOM      1  C   UNL     1       9.152  17.088  14.059  1.00  0.00     0.012 C 
ATOM      2  C   UNL     1       7.676  17.133  14.515  1.00  0.00     0.012 C 
ENDROOT
BRANCH   1   3
ATOM      3  C   UNL     1       9.594  15.636  14.111  1.00  0.00    -0.028 C 
ATOM      4  C   UNL     1      10.778  15.261  14.633  1.00  0.00    -0.027 C 
BRANCH   4   5
ATOM      5  C   UNL     1      11.318  13.838  14.688  1.00  0.00     0.014 C 
BRANCH   5   6
ATOM      6  C   UNL     1      10.727  13.063  15.901  1.00  0.00     0.004 C 
ATOM      7  C   UNL     1      11.334  13.403  17.270  1.00  0.00     0.004 C 
ENDBRANCH   5   6
BRANCH   5   8
ATOM      8  C   UNL     1      12.861  13.674  14.471  1.00  0.00    -0.011 C 
ATOM      9  C   UNL     1      13.247  13.030  13.130  1.00  0.00     0.008 C 
ATOM     10  C   UNL     1      13.604  15.014  14.629  1.00  0.00     0.008 C 
ENDBRANCH   5   8
ENDBRANCH   4   5
ENDBRANCH   1   3
BRANCH   1  11
ATOM     11  C   UNL     1       9.358  17.756  12.648  1.00  0.00     0.002 C 
ATOM     12  C   UNL     1       8.932  16.840  11.454  1.00  0.00     0.005 C 
ATOM     13  C   UNL     1      10.829  18.179  12.259  1.00  0.00    -0.026 C 
ATOM     14  C   UNL     1      10.192  16.474  10.661  1.00  0.00     0.005 C 
ATOM     15  C   UNL     1      11.335  16.915  11.553  1.00  0.00    -0.001 C 
ATOM     16  C   UNL     1      11.854  18.473  13.406  1.00  0.00     0.007 C 
ATOM     17  C   UNL     1      10.732  19.415  11.288  1.00  0.00     0.012 C 
ATOM     18  C   UNL     1      12.745  17.021  10.880  1.00  0.00     0.000 C 
ATOM     19  C   UNL     1      13.356  18.342  12.992  1.00  0.00     0.005 C 
ATOM     20  C   UNL     1      13.598  18.195  11.462  1.00  0.00     0.003 C 
ATOM     21  C   UNL     1      13.465  15.667  11.054  1.00  0.00     0.031 C 
ATOM     22  C   UNL     1      15.105  18.177  10.958  1.00  0.00    -0.008 C 
ATOM     23  C   UNL     1      14.916  15.683  10.703  1.00  0.00    -0.027 C 
ATOM     24  C   UNL     1      15.695  16.768  10.850  1.00  0.00    -0.065 C 
ATOM     25  C   UNL     1      16.027  19.034  11.883  1.00  0.00     0.014 C 
ATOM     26  C   UNL     1      15.127  18.789   9.527  1.00  0.00     0.016 C 
ATOM     27  C   UNL     1      17.188  16.614  10.610  1.00  0.00     0.063 C 
ATOM     28  C   UNL     1      17.520  18.949  11.523  1.00  0.00     0.033 C 
ATOM     29  C   UNL     1      18.005  17.497  11.565  1.00  0.00     0.118 C 
BRANCH  29  30
ATOM     30  O   UNL     1      19.361  17.457  11.209  1.00  0.00    -0.393 OA
ATOM     31  H   UNL     1      19.429  16.898  10.390  1.00  0.00     0.210 HD
ENDBRANCH  29  30
ENDBRANCH   1  11
TORSDOF 6
ENDMDL
MODEL 4
REMARK VINA RESULT:    -6.158      2.015      3.566
REMARK INTER + INTRA:          -9.689
REMARK INTER:                  -8.364
REMARK INTRA:                  -1.324
REMARK UNBOUND:                -1.550
REMARK SMILES CC[C@@H](C=C[C@H](C)[C@@H]1CC[C@H]2[C@@H]3CC=C4C[C@@H](O)CC[C@]4(C)[C@@H]3CC[C@@]21C)C(C)C
REMARK SMILES IDX 6 1 7 2 5 3 4 4 3 5 2 6 1 7 28 8 29 9 30 10 8 11 9 12 26 13
REMARK SMILES IDX 10 14 11 15 25 16 27 17 12 18 24 19 23 20 13 21 21 22 14 23
REMARK SMILES IDX 15 24 20 25 22 26 16 27 19 28 17 29 18 30
REMARK H PARENT 18 31
REMARK Flexibility Score: inf
ROOT
ATOM      1  C   UNL     1      13.472  17.969  14.841  1.00  0.00     0.012 C 
ATOM      2  C   UNL     1      13.237  18.850  16.089  1.00  0.00     0.012 C 
ENDROOT
BRANCH   1   3
ATOM      3  C   UNL     1      12.321  16.981  14.766  1.00  0.00    -0.028 C 
ATOM      4  C   UNL     1      12.517  15.651  14.665  1.00  0.00    -0.027 C 
BRANCH   4   5
ATOM      5  C   UNL     1      11.428  14.596  14.543  1.00  0.00     0.014 C 
BRANCH   5   6
ATOM      6  C   UNL     1      10.015  15.247  14.555  1.00  0.00     0.004 C 
ATOM      7  C   UNL     1       9.460  15.662  13.184  1.00  0.00     0.004 C 
ENDBRANCH   5   6
BRANCH   5   8
ATOM      8  C   UNL     1      11.591  13.324  15.444  1.00  0.00    -0.011 C 
ATOM      9  C   UNL     1      11.409  13.584  16.948  1.00  0.00     0.008 C 
ATOM     10  C   UNL     1      10.650  12.189  15.001  1.00  0.00     0.008 C 
ENDBRANCH   5   8
ENDBRANCH   4   5
ENDBRANCH   1   3
BRANCH   1  11
ATOM     11  C   UNL     1      13.646  18.829  13.533  1.00  0.00     0.002 C 
ATOM     12  C   UNL     1      12.505  18.611  12.484  1.00  0.00     0.005 C 
ATOM     13  C   UNL     1      14.956  18.590  12.683  1.00  0.00    -0.026 C 
ATOM     14  C   UNL     1      13.115  17.932  11.253  1.00  0.00     0.005 C 
ATOM     15  C   UNL     1      14.495  17.500  11.709  1.00  0.00    -0.001 C 
ATOM     16  C   UNL     1      16.223  18.019  13.402  1.00  0.00     0.007 C 
ATOM     17  C   UNL     1      15.307  19.941  11.955  1.00  0.00     0.012 C 
ATOM     18  C   UNL     1      15.512  17.107  10.584  1.00  0.00     0.000 C 
ATOM     19  C   UNL     1      17.250  17.312  12.459  1.00  0.00     0.005 C 
ATOM     20  C   UNL     1      16.979  17.511  10.940  1.00  0.00     0.003 C 
ATOM     21  C   UNL     1      15.394  15.589  10.336  1.00  0.00     0.031 C 
ATOM     22  C   UNL     1      18.049  16.921   9.922  1.00  0.00    -0.008 C 
ATOM     23  C   UNL     1      16.474  15.011   9.485  1.00  0.00    -0.027 C 
ATOM     24  C   UNL     1      17.726  15.500   9.455  1.00  0.00    -0.065 C 
ATOM     25  C   UNL     1      19.486  16.931  10.535  1.00  0.00     0.014 C 
ATOM     26  C   UNL     1      18.040  17.828   8.657  1.00  0.00     0.016 C 
ATOM     27  C   UNL     1      18.776  14.728   8.672  1.00  0.00     0.063 C 
ATOM     28  C   UNL     1      20.543  16.251   9.649  1.00  0.00     0.033 C 
ATOM     29  C   UNL     1      20.150  14.801   9.353  1.00  0.00     0.118 C 
BRANCH  29  30
ATOM     30  O   UNL     1      21.125  14.222   8.526  1.00  0.00    -0.393 OA
ATOM     31  H   UNL     1      20.938  14.532   7.600  1.00  0.00     0.210 HD
ENDBRANCH  29  30
ENDBRANCH   1  11
TORSDOF 6
ENDMDL
MODEL 5
REMARK VINA RESULT:    -5.901      1.992      3.601
REMARK INTER + INTRA:          -9.349
REMARK INTER:                  -7.524
REMARK INTRA:                  -1.825
REMARK UNBOUND:                -1.550
REMARK SMILES CC[C@@H](C=C[C@H](C)[C@@H]1CC[C@H]2[C@@H]3CC=C4C[C@@H](O)CC[C@]4(C)[C@@H]3CC[C@@]21C)C(C)C
REMARK SMILES IDX 6 1 7 2 5 3 4 4 3 5 2 6 1 7 28 8 29 9 30 10 8 11 9 12 26 13
REMARK SMILES IDX 10 14 11 15 25 16 27 17 12 18 24 19 23 20 13 21 21 22 14 23
REMARK SMILES IDX 15 24 20 25 22 26 16 27 19 28 17 29 18 30
REMARK H PARENT 18 31
REMARK Flexibility Score: inf
ROOT
ATOM      1  C   UNL     1      12.877  18.447  14.659  1.00  0.00     0.012 C 
ATOM      2  C   UNL     1      12.307  19.415  15.720  1.00  0.00     0.012 C 
ENDROOT
BRANCH   1   3
ATOM      3  C   UNL     1      11.862  17.331  14.479  1.00  0.00    -0.028 C 
ATOM      4  C   UNL     1      12.213  16.030  14.478  1.00  0.00    -0.027 C 
BRANCH   4   5
ATOM      5  C   UNL     1      11.273  14.853  14.263  1.00  0.00     0.014 C 
BRANCH   5   6
ATOM      6  C   UNL     1      11.805  13.576  14.976  1.00  0.00     0.004 C 
ATOM      7  C   UNL     1      11.319  13.365  16.417  1.00  0.00     0.004 C 
ENDBRANCH   5   6
BRANCH   5   8
ATOM      8  C   UNL     1      10.750  14.641  12.801  1.00  0.00    -0.011 C 
ATOM      9  C   UNL     1       9.671  15.643  12.361  1.00  0.00     0.008 C 
ATOM     10  C   UNL     1      11.903  14.646  11.779  1.00  0.00     0.008 C 
ENDBRANCH   5   8
ENDBRANCH   4   5
ENDBRANCH   1   3
BRANCH   1  11
ATOM     11  C   UNL     1      13.241  19.186  13.316  1.00  0.00     0.002 C 
ATOM     12  C   UNL     1      12.233  18.904  12.154  1.00  0.00     0.005 C 
ATOM     13  C   UNL     1      14.638  18.845  12.662  1.00  0.00    -0.026 C 
ATOM     14  C   UNL     1      12.968  18.107  11.070  1.00  0.00     0.005 C 
ATOM     15  C   UNL     1      14.264  17.685  11.731  1.00  0.00    -0.001 C 
ATOM     16  C   UNL     1      15.786  18.309  13.581  1.00  0.00     0.007 C 
ATOM     17  C   UNL     1      15.122  20.119  11.875  1.00  0.00     0.012 C 
ATOM     18  C   UNL     1      15.399  17.173  10.781  1.00  0.00     0.000 C 
ATOM     19  C   UNL     1      16.897  17.500  12.838  1.00  0.00     0.005 C 
ATOM     20  C   UNL     1      16.824  17.572  11.285  1.00  0.00     0.003 C 
ATOM     21  C   UNL     1      15.262  15.642  10.647  1.00  0.00     0.031 C 
ATOM     22  C   UNL     1      17.992  16.871  10.464  1.00  0.00    -0.008 C 
ATOM     23  C   UNL     1      16.420  14.967   9.990  1.00  0.00    -0.027 C 
ATOM     24  C   UNL     1      17.682  15.423  10.079  1.00  0.00    -0.065 C 
ATOM     25  C   UNL     1      19.341  16.901  11.250  1.00  0.00     0.014 C 
ATOM     26  C   UNL     1      18.170  17.665   9.137  1.00  0.00     0.016 C 
ATOM     27  C   UNL     1      18.794  14.563   9.503  1.00  0.00     0.063 C 
ATOM     28  C   UNL     1      20.477  16.123  10.565  1.00  0.00     0.033 C 
ATOM     29  C   UNL     1      20.075  14.662  10.344  1.00  0.00     0.118 C 
BRANCH  29  30
ATOM     30  O   UNL     1      21.125  13.992   9.697  1.00  0.00    -0.393 OA
ATOM     31  H   UNL     1      20.719  13.236   9.196  1.00  0.00     0.210 HD
ENDBRANCH  29  30
ENDBRANCH   1  11
TORSDOF 6
ENDMDL
MODEL 6
REMARK VINA RESULT:    -5.759      1.674      4.144
REMARK INTER + INTRA:          -9.161
REMARK INTER:                  -7.165
REMARK INTRA:                  -1.996
REMARK UNBOUND:                -1.550
REMARK SMILES CC[C@@H](C=C[C@H](C)[C@@H]1CC[C@H]2[C@@H]3CC=C4C[C@@H](O)CC[C@]4(C)[C@@H]3CC[C@@]21C)C(C)C
REMARK SMILES IDX 6 1 7 2 5 3 4 4 3 5 2 6 1 7 28 8 29 9 30 10 8 11 9 12 26 13
REMARK SMILES IDX 10 14 11 15 25 16 27 17 12 18 24 19 23 20 13 21 21 22 14 23
REMARK SMILES IDX 15 24 20 25 22 26 16 27 19 28 17 29 18 30
REMARK H PARENT 18 31
REMARK Flexibility Score: inf
ROOT
ATOM      1  C   UNL     1      11.219  14.708  14.293  1.00  0.00     0.012 C 
ATOM      2  C   UNL     1      10.201  14.116  15.295  1.00  0.00     0.012 C 
ENDROOT
BRANCH   1   3
ATOM      3  C   UNL     1      10.640  14.519  12.901  1.00  0.00    -0.028 C 
ATOM      4  C   UNL     1      11.417  14.333  11.816  1.00  0.00    -0.027 C 
BRANCH   4   5
ATOM      5  C   UNL     1      10.926  14.178  10.384  1.00  0.00     0.014 C 
BRANCH   5   6
ATOM      6  C   UNL     1      12.043  14.554   9.367  1.00  0.00     0.004 C 
ATOM      7  C   UNL     1      13.472  14.168   9.773  1.00  0.00     0.004 C 
ENDBRANCH   5   6
BRANCH   5   8
ATOM      8  C   UNL     1       9.505  14.760  10.071  1.00  0.00    -0.011 C 
ATOM      9  C   UNL     1       9.521  16.093   9.305  1.00  0.00     0.008 C 
ATOM     10  C   UNL     1       8.627  13.744   9.317  1.00  0.00     0.008 C 
ENDBRANCH   5   8
ENDBRANCH   4   5
ENDBRANCH   1   3
BRANCH   1  11
ATOM     11  C   UNL     1      11.576  16.206  14.625  1.00  0.00     0.002 C 
ATOM     12  C   UNL     1      10.593  17.240  13.984  1.00  0.00     0.005 C 
ATOM     13  C   UNL     1      12.992  16.729  14.160  1.00  0.00    -0.026 C 
ATOM     14  C   UNL     1      11.369  18.045  12.935  1.00  0.00     0.005 C 
ATOM     15  C   UNL     1      12.670  17.286  12.768  1.00  0.00    -0.001 C 
ATOM     16  C   UNL     1      14.144  15.691  13.955  1.00  0.00     0.007 C 
ATOM     17  C   UNL     1      13.443  17.850  15.170  1.00  0.00     0.012 C 
ATOM     18  C   UNL     1      13.834  18.045  12.045  1.00  0.00     0.000 C 
ATOM     19  C   UNL     1      15.293  16.165  13.006  1.00  0.00     0.005 C 
ATOM     20  C   UNL     1      15.238  17.673  12.624  1.00  0.00     0.003 C 
ATOM     21  C   UNL     1      13.750  17.731  10.537  1.00  0.00     0.031 C 
ATOM     22  C   UNL     1      16.439  18.253  11.759  1.00  0.00    -0.008 C 
ATOM     23  C   UNL     1      14.939  18.161   9.744  1.00  0.00    -0.027 C 
ATOM     24  C   UNL     1      16.183  18.204  10.251  1.00  0.00    -0.065 C 
ATOM     25  C   UNL     1      17.776  17.505  12.063  1.00  0.00     0.014 C 
ATOM     26  C   UNL     1      16.609  19.752  12.142  1.00  0.00     0.016 C 
ATOM     27  C   UNL     1      17.332  18.504   9.302  1.00  0.00     0.063 C 
ATOM     28  C   UNL     1      18.946  17.932  11.162  1.00  0.00     0.033 C 
ATOM     29  C   UNL     1      18.597  17.723   9.686  1.00  0.00     0.118 C 
BRANCH  29  30
ATOM     30  O   UNL     1      19.677  18.145   8.896  1.00  0.00    -0.393 OA
ATOM     31  H   UNL     1      20.496  17.740   9.285  1.00  0.00     0.210 HD
ENDBRANCH  29  30
ENDBRANCH   1  11
TORSDOF 6
ENDMDL
MODEL 7
REMARK VINA RESULT:    -5.759      3.201      5.992
REMARK INTER + INTRA:          -9.161
REMARK INTER:                  -8.018
REMARK INTRA:                  -1.142
REMARK UNBOUND:                -1.550
REMARK SMILES CC[C@@H](C=C[C@H](C)[C@@H]1CC[C@H]2[C@@H]3CC=C4C[C@@H](O)CC[C@]4(C)[C@@H]3CC[C@@]21C)C(C)C
REMARK SMILES IDX 6 1 7 2 5 3 4 4 3 5 2 6 1 7 28 8 29 9 30 10 8 11 9 12 26 13
REMARK SMILES IDX 10 14 11 15 25 16 27 17 12 18 24 19 23 20 13 21 21 22 14 23
REMARK SMILES IDX 15 24 20 25 22 26 16 27 19 28 17 29 18 30
REMARK H PARENT 18 31
REMARK Flexibility Score: inf
ROOT
ATOM      1  C   UNL     1      14.812  17.717  14.191  1.00  0.00     0.012 C 
ATOM      2  C   UNL     1      15.483  18.596  15.272  1.00  0.00     0.012 C 
ENDROOT
BRANCH   1   3
ATOM      3  C   UNL     1      13.553  17.132  14.806  1.00  0.00    -0.028 C 
ATOM      4  C   UNL     1      13.233  15.828  14.691  1.00  0.00    -0.027 C 
BRANCH   4   5
ATOM      5  C   UNL     1      11.976  15.166  15.237  1.00  0.00     0.014 C 
BRANCH   5   6
ATOM      6  C   UNL     1      12.321  13.858  16.007  1.00  0.00     0.004 C 
ATOM      7  C   UNL     1      11.152  13.189  16.742  1.00  0.00     0.004 C 
ENDBRANCH   5   6
BRANCH   5   8
ATOM      8  C   UNL     1      10.761  15.068  14.252  1.00  0.00    -0.011 C 
ATOM      9  C   UNL     1      10.741  13.791  13.396  1.00  0.00     0.008 C 
ATOM     10  C   UNL     1       9.417  15.214  14.990  1.00  0.00     0.008 C 
ENDBRANCH   5   8
ENDBRANCH   4   5
ENDBRANCH   1   3
BRANCH   1  11
ATOM     11  C   UNL     1      14.547  18.514  12.859  1.00  0.00     0.002 C 
ATOM     12  C   UNL     1      13.694  19.809  13.064  1.00  0.00     0.005 C 
ATOM     13  C   UNL     1      13.771  17.759  11.709  1.00  0.00    -0.026 C 
ATOM     14  C   UNL     1      12.347  19.607  12.360  1.00  0.00     0.005 C 
ATOM     15  C   UNL     1      12.317  18.129  12.027  1.00  0.00    -0.001 C 
ATOM     16  C   UNL     1      13.821  16.195  11.673  1.00  0.00     0.007 C 
ATOM     17  C   UNL     1      14.258  18.350  10.333  1.00  0.00     0.012 C 
ATOM     18  C   UNL     1      11.246  17.669  10.981  1.00  0.00     0.000 C 
ATOM     19  C   UNL     1      12.643  15.519  10.899  1.00  0.00     0.005 C 
ATOM     20  C   UNL     1      11.758  16.501  10.077  1.00  0.00     0.003 C 
ATOM     21  C   UNL     1       9.968  17.266  11.746  1.00  0.00     0.031 C 
ATOM     22  C   UNL     1      10.614  15.872   9.170  1.00  0.00    -0.008 C 
ATOM     23  C   UNL     1       8.946  16.557  10.921  1.00  0.00    -0.027 C 
ATOM     24  C   UNL     1       9.261  15.770   9.879  1.00  0.00    -0.065 C 
ATOM     25  C   UNL     1      11.013  14.454   8.649  1.00  0.00     0.014 C 
ATOM     26  C   UNL     1      10.416  16.814   7.948  1.00  0.00     0.016 C 
ATOM     27  C   UNL     1       8.145  14.977   9.218  1.00  0.00     0.063 C 
ATOM     28  C   UNL     1       9.894  13.739   7.875  1.00  0.00     0.033 C 
ATOM     29  C   UNL     1       8.638  13.603   8.741  1.00  0.00     0.118 C 
BRANCH  29  30
ATOM     30  O   UNL     1       7.633  12.969   7.994  1.00  0.00    -0.393 OA
ATOM     31  H   UNL     1       7.880  13.066   7.037  1.00  0.00     0.210 HD
ENDBRANCH  29  30
ENDBRANCH   1  11
TORSDOF 6
ENDMDL
MODEL 8
REMARK VINA RESULT:    -5.673      3.477      6.828
REMARK INTER + INTRA:          -9.047
REMARK INTER:                  -7.925
REMARK INTRA:                  -1.122
REMARK UNBOUND:                -1.550
REMARK SMILES CC[C@@H](C=C[C@H](C)[C@@H]1CC[C@H]2[C@@H]3CC=C4C[C@@H](O)CC[C@]4(C)[C@@H]3CC[C@@]21C)C(C)C
REMARK SMILES IDX 6 1 7 2 5 3 4 4 3 5 2 6 1 7 28 8 29 9 30 10 8 11 9 12 26 13
REMARK SMILES IDX 10 14 11 15 25 16 27 17 12 18 24 19 23 20 13 21 21 22 14 23
REMARK SMILES IDX 15 24 20 25 22 26 16 27 19 28 17 29 18 30
REMARK H PARENT 18 31
REMARK Flexibility Score: inf
ROOT
ATOM      1  C   UNL     1      14.086  14.832  11.579  1.00  0.00     0.012 C 
ATOM      2  C   UNL     1      15.139  14.981  12.700  1.00  0.00     0.012 C 
ENDROOT
BRANCH   1   3
ATOM      3  C   UNL     1      12.787  14.401  12.238  1.00  0.00    -0.028 C 
ATOM      4  C   UNL     1      12.532  14.624  13.542  1.00  0.00    -0.027 C 
BRANCH   4   5
ATOM      5  C   UNL     1      11.280  14.192  14.292  1.00  0.00     0.014 C 
BRANCH   5   6
ATOM      6  C   UNL     1      10.528  15.421  14.879  1.00  0.00     0.004 C 
ATOM      7  C   UNL     1       9.062  15.574  14.448  1.00  0.00     0.004 C 
ENDBRANCH   5   6
BRANCH   5   8
ATOM      8  C   UNL     1      11.441  12.973  15.264  1.00  0.00    -0.011 C 
ATOM      9  C   UNL     1      11.308  13.328  16.754  1.00  0.00     0.008 C 
ATOM     10  C   UNL     1      10.463  11.836  14.918  1.00  0.00     0.008 C 
ENDBRANCH   5   8
ENDBRANCH   4   5
ENDBRANCH   1   3
BRANCH   1  11
ATOM     11  C   UNL     1      13.948  16.143  10.717  1.00  0.00     0.002 C 
ATOM     12  C   UNL     1      14.701  17.372  11.324  1.00  0.00     0.005 C 
ATOM     13  C   UNL     1      12.489  16.703  10.486  1.00  0.00    -0.026 C 
ATOM     14  C   UNL     1      13.655  18.408  11.751  1.00  0.00     0.005 C 
ATOM     15  C   UNL     1      12.338  17.662  11.672  1.00  0.00    -0.001 C 
ATOM     16  C   UNL     1      11.282  15.710  10.576  1.00  0.00     0.007 C 
ATOM     17  C   UNL     1      12.476  17.450   9.100  1.00  0.00     0.012 C 
ATOM     18  C   UNL     1      11.038  18.536  11.689  1.00  0.00     0.000 C 
ATOM     19  C   UNL     1       9.903  16.381  10.882  1.00  0.00     0.005 C 
ATOM     20  C   UNL     1       9.904  17.935  10.796  1.00  0.00     0.003 C 
ATOM     21  C   UNL     1      10.576  18.686  13.154  1.00  0.00     0.031 C 
ATOM     22  C   UNL     1       8.510  18.678  10.979  1.00  0.00    -0.008 C 
ATOM     23  C   UNL     1       9.211  19.266  13.321  1.00  0.00    -0.027 C 
ATOM     24  C   UNL     1       8.225  19.090  12.425  1.00  0.00    -0.065 C 
ATOM     25  C   UNL     1       7.324  17.802  10.466  1.00  0.00     0.014 C 
ATOM     26  C   UNL     1       8.565  19.986  10.137  1.00  0.00     0.016 C 
ATOM     27  C   UNL     1       6.836  19.593  12.784  1.00  0.00     0.063 C 
ATOM     28  C   UNL     1       5.938  18.412  10.736  1.00  0.00     0.033 C 
ATOM     29  C   UNL     1       5.742  18.667  12.234  1.00  0.00     0.118 C 
BRANCH  29  30
ATOM     30  O   UNL     1       4.480  19.244  12.438  1.00  0.00    -0.393 OA
ATOM     31  H   UNL     1       4.320  19.865  11.680  1.00  0.00     0.210 HD
ENDBRANCH  29  30
ENDBRANCH   1  11
TORSDOF 6
ENDMDL
MODEL 9
REMARK VINA RESULT:    -5.604      3.473      8.318
REMARK INTER + INTRA:          -8.957
REMARK INTER:                  -7.975
REMARK INTRA:                  -0.982
REMARK UNBOUND:                -1.550
REMARK SMILES CC[C@@H](C=C[C@H](C)[C@@H]1CC[C@H]2[C@@H]3CC=C4C[C@@H](O)CC[C@]4(C)[C@@H]3CC[C@@]21C)C(C)C
REMARK SMILES IDX 6 1 7 2 5 3 4 4 3 5 2 6 1 7 28 8 29 9 30 10 8 11 9 12 26 13
REMARK SMILES IDX 10 14 11 15 25 16 27 17 12 18 24 19 23 20 13 21 21 22 14 23
REMARK SMILES IDX 15 24 20 25 22 26 16 27 19 28 17 29 18 30
REMARK H PARENT 18 31
REMARK Flexibility Score: inf
ROOT
ATOM      1  C   UNL     1      16.046  17.768  12.376  1.00  0.00     0.012 C 
ATOM      2  C   UNL     1      16.712  18.877  13.222  1.00  0.00     0.012 C 
ENDROOT
BRANCH   1   3
ATOM      3  C   UNL     1      17.104  17.234  11.424  1.00  0.00    -0.028 C 
ATOM      4  C   UNL     1      18.421  17.436  11.624  1.00  0.00    -0.027 C 
BRANCH   4   5
ATOM      5  C   UNL     1      19.543  16.976  10.704  1.00  0.00     0.014 C 
BRANCH   5   6
ATOM      6  C   UNL     1      20.573  16.099  11.474  1.00  0.00     0.004 C 
ATOM      7  C   UNL     1      20.833  14.705  10.887  1.00  0.00     0.004 C 
ENDBRANCH   5   6
BRANCH   5   8
ATOM      8  C   UNL     1      20.157  18.066   9.761  1.00  0.00    -0.011 C 
ATOM      9  C   UNL     1      20.075  17.729   8.264  1.00  0.00     0.008 C 
ATOM     10  C   UNL     1      19.533  19.451  10.011  1.00  0.00     0.008 C 
ENDBRANCH   5   8
ENDBRANCH   4   5
ENDBRANCH   1   3
BRANCH   1  11
ATOM     11  C   UNL     1      15.388  16.653  13.271  1.00  0.00     0.002 C 
ATOM     12  C   UNL     1      15.431  15.228  12.627  1.00  0.00     0.005 C 
ATOM     13  C   UNL     1      13.861  16.829  13.635  1.00  0.00    -0.026 C 
ATOM     14  C   UNL     1      13.992  14.806  12.310  1.00  0.00     0.005 C 
ATOM     15  C   UNL     1      13.183  16.076  12.484  1.00  0.00    -0.001 C 
ATOM     16  C   UNL     1      13.250  18.270  13.627  1.00  0.00     0.007 C 
ATOM     17  C   UNL     1      13.618  16.143  15.031  1.00  0.00     0.012 C 
ATOM     18  C   UNL     1      11.630  15.906  12.593  1.00  0.00     0.000 C 
ATOM     19  C   UNL     1      11.697  18.323  13.450  1.00  0.00     0.005 C 
ATOM     20  C   UNL     1      10.983  16.945  13.566  1.00  0.00     0.003 C 
ATOM     21  C   UNL     1      11.031  16.019  11.176  1.00  0.00     0.031 C 
ATOM     22  C   UNL     1       9.394  16.937  13.515  1.00  0.00    -0.008 C 
ATOM     23  C   UNL     1       9.545  16.143  11.135  1.00  0.00    -0.027 C 
ATOM     24  C   UNL     1       8.831  16.737  12.107  1.00  0.00    -0.065 C 
ATOM     25  C   UNL     1       8.798  18.253  14.110  1.00  0.00     0.014 C 
ATOM     26  C   UNL     1       8.906  15.736  14.375  1.00  0.00     0.016 C 
ATOM     27  C   UNL     1       7.343  16.943  11.876  1.00  0.00     0.063 C 
ATOM     28  C   UNL     1       7.270  18.362  13.968  1.00  0.00     0.033 C 
ATOM     29  C   UNL     1       6.854  18.260  12.497  1.00  0.00     0.118 C 
BRANCH  29  30
ATOM     30  O   UNL     1       5.456  18.339  12.411  1.00  0.00    -0.393 OA
ATOM     31  H   UNL     1       5.216  18.185  11.460  1.00  0.00     0.210 HD
ENDBRANCH  29  30
ENDBRANCH   1  11
TORSDOF 6
ENDMDL
