MODEL 1
REMARK VINA RESULT:    -6.611      0.000      0.000
REMARK INTER + INTRA:          -8.482
REMARK INTER:                  -8.156
REMARK INTRA:                  -0.325
REMARK UNBOUND:                -0.325
REMARK SMILES Oc1cc(O)c2cc(O)c(-c3cc(O)c(O)c(O)c3)[o+]c2c1
REMARK SMILES IDX 10 1 20 2 21 3 22 4 2 5 3 6 4 7 6 8 7 9 8 10 11 11 12 12
REMARK SMILES IDX 13 13 19 14 15 15 17 16 14 17 16 19 18 21 9 23 1 25 5 27
REMARK H PARENT 14 18 16 20 18 22 9 24 1 26 5 28
REMARK Flexibility Score: inf
ROOT
ATOM      1  C   UNL     1      -0.981  53.288  17.248  1.00  0.00     0.402 A 
ATOM      2  O   UNL     1      -1.251  52.868  18.482  1.00  0.00    -0.202 OA
ATOM      3  C   UNL     1      -0.361  52.254  19.255  1.00  0.00     0.368 A 
ATOM      4  C   UNL     1      -0.738  51.853  20.538  1.00  0.00     0.162 A 
ATOM      5  C   UNL     1       0.175  51.209  21.374  1.00  0.00     0.128 A 
ATOM      6  C   UNL     1       1.478  50.964  20.922  1.00  0.00     0.093 A 
ATOM      7  C   UNL     1       1.880  51.357  19.640  1.00  0.00     0.136 A 
ATOM      8  C   UNL     1       0.952  52.010  18.788  1.00  0.00     0.125 A 
ATOM      9  C   UNL     1       1.264  52.427  17.483  1.00  0.00     0.078 A 
ATOM     10  C   UNL     1       0.294  53.060  16.700  1.00  0.00     0.223 A 
ENDROOT
BRANCH   1  11
ATOM     11  C   UNL     1      -2.055  53.969  16.490  1.00  0.00     0.091 A 
ATOM     12  C   UNL     1      -3.163  53.231  16.047  1.00  0.00     0.068 A 
ATOM     13  C   UNL     1      -4.205  53.846  15.345  1.00  0.00     0.162 A 
ATOM     14  C   UNL     1      -2.018  55.351  16.251  1.00  0.00     0.068 A 
ATOM     15  C   UNL     1      -4.149  55.237  15.088  1.00  0.00     0.200 A 
ATOM     16  C   UNL     1      -3.055  55.980  15.550  1.00  0.00     0.162 A 
BRANCH  13  17
ATOM     17  O   UNL     1      -5.270  53.043  14.926  1.00  0.00    -0.504 OA
ATOM     18  H   UNL     1      -5.165  52.220  14.353  1.00  0.00     0.293 HD
ENDBRANCH  13  17
BRANCH  15  19
ATOM     19  O   UNL     1      -5.153  55.911  14.389  1.00  0.00    -0.502 OA
ATOM     20  H   UNL     1      -5.891  56.442  14.828  1.00  0.00     0.293 HD
ENDBRANCH  15  19
BRANCH  16  21
ATOM     21  O   UNL     1      -3.006  57.353  15.312  1.00  0.00    -0.504 OA
ATOM     22  H   UNL     1      -2.363  57.753  14.638  1.00  0.00     0.293 HD
ENDBRANCH  16  21
ENDBRANCH   1  11
BRANCH  10  23
ATOM     23  O   UNL     1       0.587  53.429  15.387  1.00  0.00    -0.500 OA
ATOM     24  H   UNL     1       0.986  52.772  14.726  1.00  0.00     0.294 HD
ENDBRANCH  10  23
BRANCH   5  25
ATOM     25  O   UNL     1      -0.219  50.816  22.650  1.00  0.00    -0.507 OA
ATOM     26  H   UNL     1      -1.067  50.283  22.803  1.00  0.00     0.293 HD
ENDBRANCH   5  25
BRANCH   7  27
ATOM     27  O   UNL     1       3.198  51.078  19.267  1.00  0.00    -0.507 OA
ATOM     28  H   UNL     1       4.005  51.258  19.847  1.00  0.00     0.293 HD
ENDBRANCH   7  27
TORSDOF 7
ENDMDL
MODEL 2
REMARK VINA RESULT:    -6.599      3.331      7.106
REMARK INTER + INTRA:          -8.468
REMARK INTER:                  -8.106
REMARK INTRA:                  -0.362
REMARK UNBOUND:                -0.325
REMARK SMILES Oc1cc(O)c2cc(O)c(-c3cc(O)c(O)c(O)c3)[o+]c2c1
REMARK SMILES IDX 10 1 20 2 21 3 22 4 2 5 3 6 4 7 6 8 7 9 8 10 11 11 12 12
REMARK SMILES IDX 13 13 19 14 15 15 17 16 14 17 16 19 18 21 9 23 1 25 5 27
REMARK H PARENT 14 18 16 20 18 22 9 24 1 26 5 28
REMARK Flexibility Score: inf
ROOT
ATOM      1  C   UNL     1       0.887  55.052  17.247  1.00  0.00     0.402 A 
ATOM      2  O   UNL     1       1.083  56.230  17.832  1.00  0.00    -0.202 OA
ATOM      3  C   UNL     1       1.100  57.381  17.168  1.00  0.00     0.368 A 
ATOM      4  C   UNL     1       1.311  58.569  17.872  1.00  0.00     0.162 A 
ATOM      5  C   UNL     1       1.330  59.793  17.202  1.00  0.00     0.128 A 
ATOM      6  C   UNL     1       1.138  59.830  15.816  1.00  0.00     0.093 A 
ATOM      7  C   UNL     1       0.925  58.653  15.088  1.00  0.00     0.136 A 
ATOM      8  C   UNL     1       0.907  57.407  15.767  1.00  0.00     0.125 A 
ATOM      9  C   UNL     1       0.713  56.178  15.116  1.00  0.00     0.078 A 
ATOM     10  C   UNL     1       0.712  54.989  15.853  1.00  0.00     0.223 A 
ENDROOT
BRANCH   1  11
ATOM     11  C   UNL     1       0.879  53.840  18.098  1.00  0.00     0.091 A 
ATOM     12  C   UNL     1      -0.309  53.448  18.733  1.00  0.00     0.068 A 
ATOM     13  C   UNL     1      -0.357  52.298  19.528  1.00  0.00     0.162 A 
ATOM     14  C   UNL     1       2.023  53.040  18.241  1.00  0.00     0.068 A 
ATOM     15  C   UNL     1       0.808  51.509  19.685  1.00  0.00     0.200 A 
ATOM     16  C   UNL     1       1.990  51.886  19.033  1.00  0.00     0.162 A 
BRANCH  13  17
ATOM     17  O   UNL     1      -1.573  51.978  20.137  1.00  0.00    -0.504 OA
ATOM     18  H   UNL     1      -1.912  51.036  20.261  1.00  0.00     0.293 HD
ENDBRANCH  13  17
BRANCH  15  19
ATOM     19  O   UNL     1       0.831  50.352  20.469  1.00  0.00    -0.502 OA
ATOM     20  H   UNL     1       0.057  49.710  20.552  1.00  0.00     0.293 HD
ENDBRANCH  15  19
BRANCH  16  21
ATOM     21  O   UNL     1       3.133  51.100  19.175  1.00  0.00    -0.504 OA
ATOM     22  H   UNL     1       3.346  50.349  18.528  1.00  0.00     0.293 HD
ENDBRANCH  16  21
ENDBRANCH   1  11
BRANCH  10  23
ATOM     23  O   UNL     1       0.570  53.763  15.201  1.00  0.00    -0.500 OA
ATOM     24  H   UNL     1      -0.064  53.645  14.420  1.00  0.00     0.294 HD
ENDBRANCH  10  23
BRANCH   5  25
ATOM     25  O   UNL     1       1.542  60.967  17.921  1.00  0.00    -0.507 OA
ATOM     26  H   UNL     1       2.439  61.175  18.345  1.00  0.00     0.293 HD
ENDBRANCH   5  25
BRANCH   7  27
ATOM     27  O   UNL     1       0.738  58.776  13.708  1.00  0.00    -0.507 OA
ATOM     28  H   UNL     1       0.600  59.654  13.228  1.00  0.00     0.293 HD
ENDBRANCH   7  27
TORSDOF 7
ENDMDL
MODEL 3
REMARK VINA RESULT:    -6.554      1.744      6.842
REMARK INTER + INTRA:          -8.411
REMARK INTER:                  -8.195
REMARK INTRA:                  -0.216
REMARK UNBOUND:                -0.325
REMARK SMILES Oc1cc(O)c2cc(O)c(-c3cc(O)c(O)c(O)c3)[o+]c2c1
REMARK SMILES IDX 10 1 20 2 21 3 22 4 2 5 3 6 4 7 6 8 7 9 8 10 11 11 12 12
REMARK SMILES IDX 13 13 19 14 15 15 17 16 14 17 16 19 18 21 9 23 1 25 5 27
REMARK H PARENT 14 18 16 20 18 22 9 24 1 26 5 28
REMARK Flexibility Score: inf
ROOT
ATOM      1  C   UNL     1      -0.234  52.623  18.452  1.00  0.00     0.402 A 
ATOM      2  O   UNL     1      -1.516  52.957  18.321  1.00  0.00    -0.202 OA
ATOM      3  C   UNL     1      -2.091  53.200  17.148  1.00  0.00     0.368 A 
ATOM      4  C   UNL     1      -3.445  53.541  17.113  1.00  0.00     0.162 A 
ATOM      5  C   UNL     1      -4.076  53.797  15.895  1.00  0.00     0.128 A 
ATOM      6  C   UNL     1      -3.349  53.711  14.702  1.00  0.00     0.093 A 
ATOM      7  C   UNL     1      -1.991  53.372  14.712  1.00  0.00     0.136 A 
ATOM      8  C   UNL     1      -1.345  53.112  15.948  1.00  0.00     0.125 A 
ATOM      9  C   UNL     1       0.015  52.777  16.054  1.00  0.00     0.078 A 
ATOM     10  C   UNL     1       0.582  52.541  17.310  1.00  0.00     0.223 A 
ENDROOT
BRANCH   1  11
ATOM     11  C   UNL     1       0.287  52.369  19.814  1.00  0.00     0.091 A 
ATOM     12  C   UNL     1      -0.170  51.253  20.532  1.00  0.00     0.068 A 
ATOM     13  C   UNL     1       0.316  50.971  21.813  1.00  0.00     0.162 A 
ATOM     14  C   UNL     1       1.273  53.188  20.385  1.00  0.00     0.068 A 
ATOM     15  C   UNL     1       1.294  51.816  22.391  1.00  0.00     0.200 A 
ATOM     16  C   UNL     1       1.769  52.917  21.666  1.00  0.00     0.162 A 
BRANCH  13  17
ATOM     17  O   UNL     1      -0.196  49.850  22.471  1.00  0.00    -0.504 OA
ATOM     18  H   UNL     1      -1.170  49.727  22.705  1.00  0.00     0.293 HD
ENDBRANCH  13  17
BRANCH  15  19
ATOM     19  O   UNL     1       1.817  51.595  23.668  1.00  0.00    -0.502 OA
ATOM     20  H   UNL     1       1.717  50.730  24.178  1.00  0.00     0.293 HD
ENDBRANCH  15  19
BRANCH  16  21
ATOM     21  O   UNL     1       2.744  53.741  22.228  1.00  0.00    -0.504 OA
ATOM     22  H   UNL     1       2.567  54.720  22.421  1.00  0.00     0.293 HD
ENDBRANCH  16  21
ENDBRANCH   1  11
BRANCH  10  23
ATOM     23  O   UNL     1       1.944  52.257  17.420  1.00  0.00    -0.500 OA
ATOM     24  H   UNL     1       2.629  52.690  16.810  1.00  0.00     0.294 HD
ENDBRANCH  10  23
BRANCH   5  25
ATOM     25  O   UNL     1      -5.427  54.136  15.879  1.00  0.00    -0.507 OA
ATOM     26  H   UNL     1      -5.982  54.067  15.034  1.00  0.00     0.293 HD
ENDBRANCH   5  25
BRANCH   7  27
ATOM     27  O   UNL     1      -1.336  53.304  13.478  1.00  0.00    -0.507 OA
ATOM     28  H   UNL     1      -0.998  52.450  13.058  1.00  0.00     0.293 HD
ENDBRANCH   7  27
TORSDOF 7
ENDMDL
MODEL 4
REMARK VINA RESULT:    -6.553      3.054      6.771
REMARK INTER + INTRA:          -8.411
REMARK INTER:                  -8.049
REMARK INTRA:                  -0.362
REMARK UNBOUND:                -0.325
REMARK SMILES Oc1cc(O)c2cc(O)c(-c3cc(O)c(O)c(O)c3)[o+]c2c1
REMARK SMILES IDX 10 1 20 2 21 3 22 4 2 5 3 6 4 7 6 8 7 9 8 10 11 11 12 12
REMARK SMILES IDX 13 13 19 14 15 15 17 16 14 17 16 19 18 21 9 23 1 25 5 27
REMARK H PARENT 14 18 16 20 18 22 9 24 1 26 5 28
REMARK Flexibility Score: inf
ROOT
ATOM      1  C   UNL     1       0.690  53.895  18.795  1.00  0.00     0.402 A 
ATOM      2  O   UNL     1      -0.613  54.146  18.689  1.00  0.00    -0.202 OA
ATOM      3  C   UNL     1      -1.346  53.768  17.647  1.00  0.00     0.368 A 
ATOM      4  C   UNL     1      -2.708  54.075  17.627  1.00  0.00     0.162 A 
ATOM      5  C   UNL     1      -3.503  53.687  16.548  1.00  0.00     0.128 A 
ATOM      6  C   UNL     1      -2.933  52.986  15.479  1.00  0.00     0.093 A 
ATOM      7  C   UNL     1      -1.570  52.667  15.476  1.00  0.00     0.136 A 
ATOM      8  C   UNL     1      -0.758  53.061  16.571  1.00  0.00     0.125 A 
ATOM      9  C   UNL     1       0.619  52.795  16.646  1.00  0.00     0.078 A 
ATOM     10  C   UNL     1       1.355  53.221  17.756  1.00  0.00     0.223 A 
ENDROOT
BRANCH   1  11
ATOM     11  C   UNL     1       1.395  54.361  20.012  1.00  0.00     0.091 A 
ATOM     12  C   UNL     1       1.391  53.558  21.162  1.00  0.00     0.068 A 
ATOM     13  C   UNL     1       2.064  53.957  22.322  1.00  0.00     0.162 A 
ATOM     14  C   UNL     1       2.115  55.565  20.023  1.00  0.00     0.068 A 
ATOM     15  C   UNL     1       2.769  55.184  22.333  1.00  0.00     0.200 A 
ATOM     16  C   UNL     1       2.793  55.977  21.177  1.00  0.00     0.162 A 
BRANCH  13  17
ATOM     17  O   UNL     1       2.005  53.111  23.432  1.00  0.00    -0.504 OA
ATOM     18  H   UNL     1       1.490  52.243  23.455  1.00  0.00     0.293 HD
ENDBRANCH  13  17
BRANCH  15  19
ATOM     19  O   UNL     1       3.456  55.645  23.459  1.00  0.00    -0.502 OA
ATOM     20  H   UNL     1       4.306  55.230  23.813  1.00  0.00     0.293 HD
ENDBRANCH  15  19
BRANCH  16  21
ATOM     21  O   UNL     1       3.501  57.178  21.182  1.00  0.00    -0.504 OA
ATOM     22  H   UNL     1       4.388  57.271  21.664  1.00  0.00     0.293 HD
ENDBRANCH  16  21
ENDBRANCH   1  11
BRANCH  10  23
ATOM     23  O   UNL     1       2.732  53.001  17.808  1.00  0.00    -0.500 OA
ATOM     24  H   UNL     1       3.178  52.283  17.250  1.00  0.00     0.294 HD
ENDBRANCH  10  23
BRANCH   5  25
ATOM     25  O   UNL     1      -4.860  54.003  16.546  1.00  0.00    -0.507 OA
ATOM     26  H   UNL     1      -5.183  54.957  16.439  1.00  0.00     0.293 HD
ENDBRANCH   5  25
BRANCH   7  27
ATOM     27  O   UNL     1      -1.077  51.962  14.373  1.00  0.00    -0.507 OA
ATOM     28  H   UNL     1      -1.057  52.322  13.430  1.00  0.00     0.293 HD
ENDBRANCH   7  27
TORSDOF 7
ENDMDL
MODEL 5
REMARK VINA RESULT:    -6.545      1.666      7.085
REMARK INTER + INTRA:          -8.401
REMARK INTER:                  -8.150
REMARK INTRA:                  -0.250
REMARK UNBOUND:                -0.325
REMARK SMILES Oc1cc(O)c2cc(O)c(-c3cc(O)c(O)c(O)c3)[o+]c2c1
REMARK SMILES IDX 10 1 20 2 21 3 22 4 2 5 3 6 4 7 6 8 7 9 8 10 11 11 12 12
REMARK SMILES IDX 13 13 19 14 15 15 17 16 14 17 16 19 18 21 9 23 1 25 5 27
REMARK H PARENT 14 18 16 20 18 22 9 24 1 26 5 28
REMARK Flexibility Score: inf
ROOT
ATOM      1  C   UNL     1      -0.156  52.575  18.435  1.00  0.00     0.402 A 
ATOM      2  O   UNL     1      -1.416  52.986  18.314  1.00  0.00    -0.202 OA
ATOM      3  C   UNL     1      -1.973  53.300  17.149  1.00  0.00     0.368 A 
ATOM      4  C   UNL     1      -3.305  53.719  17.124  1.00  0.00     0.162 A 
ATOM      5  C   UNL     1      -3.917  54.052  15.915  1.00  0.00     0.128 A 
ATOM      6  C   UNL     1      -3.191  53.965  14.721  1.00  0.00     0.093 A 
ATOM      7  C   UNL     1      -1.855  53.548  14.720  1.00  0.00     0.136 A 
ATOM      8  C   UNL     1      -1.229  53.211  15.949  1.00  0.00     0.125 A 
ATOM      9  C   UNL     1       0.109  52.795  16.044  1.00  0.00     0.078 A 
ATOM     10  C   UNL     1       0.658  52.484  17.292  1.00  0.00     0.223 A 
ENDROOT
BRANCH   1  11
ATOM     11  C   UNL     1       0.346  52.245  19.789  1.00  0.00     0.091 A 
ATOM     12  C   UNL     1       1.296  53.080  20.396  1.00  0.00     0.068 A 
ATOM     13  C   UNL     1       1.777  52.809  21.682  1.00  0.00     0.162 A 
ATOM     14  C   UNL     1      -0.149  51.144  20.504  1.00  0.00     0.068 A 
ATOM     15  C   UNL     1       1.289  51.683  22.387  1.00  0.00     0.200 A 
ATOM     16  C   UNL     1       0.323  50.861  21.791  1.00  0.00     0.162 A 
BRANCH  13  17
ATOM     17  O   UNL     1       2.731  53.679  22.216  1.00  0.00    -0.504 OA
ATOM     18  H   UNL     1       2.698  54.683  22.119  1.00  0.00     0.293 HD
ENDBRANCH  13  17
BRANCH  15  19
ATOM     19  O   UNL     1       1.731  51.353  23.671  1.00  0.00    -0.502 OA
ATOM     20  H   UNL     1       1.408  51.803  24.514  1.00  0.00     0.293 HD
ENDBRANCH  15  19
BRANCH  16  21
ATOM     21  O   UNL     1      -0.170  49.761  22.492  1.00  0.00    -0.504 OA
ATOM     22  H   UNL     1       0.417  48.965  22.714  1.00  0.00     0.293 HD
ENDBRANCH  16  21
ENDBRANCH   1  11
BRANCH  10  23
ATOM     23  O   UNL     1       2.001  52.120  17.394  1.00  0.00    -0.500 OA
ATOM     24  H   UNL     1       2.473  51.613  16.654  1.00  0.00     0.294 HD
ENDBRANCH  10  23
BRANCH   5  25
ATOM     25  O   UNL     1      -5.246  54.469  15.909  1.00  0.00    -0.507 OA
ATOM     26  H   UNL     1      -5.958  53.962  15.397  1.00  0.00     0.293 HD
ENDBRANCH   5  25
BRANCH   7  27
ATOM     27  O   UNL     1      -1.202  53.485  13.485  1.00  0.00    -0.507 OA
ATOM     28  H   UNL     1      -0.876  54.290  12.972  1.00  0.00     0.293 HD
ENDBRANCH   7  27
TORSDOF 7
ENDMDL
MODEL 6
REMARK VINA RESULT:    -6.452     10.284     12.769
REMARK INTER + INTRA:          -8.286
REMARK INTER:                  -7.906
REMARK INTRA:                  -0.380
REMARK UNBOUND:                -0.325
REMARK SMILES Oc1cc(O)c2cc(O)c(-c3cc(O)c(O)c(O)c3)[o+]c2c1
REMARK SMILES IDX 10 1 20 2 21 3 22 4 2 5 3 6 4 7 6 8 7 9 8 10 11 11 12 12
REMARK SMILES IDX 13 13 19 14 15 15 17 16 14 17 16 19 18 21 9 23 1 25 5 27
REMARK H PARENT 14 18 16 20 18 22 9 24 1 26 5 28
REMARK Flexibility Score: inf
ROOT
ATOM      1  C   UNL     1       2.435  55.901  27.941  1.00  0.00     0.402 A 
ATOM      2  O   UNL     1       1.827  56.691  27.060  1.00  0.00    -0.202 OA
ATOM      3  C   UNL     1       1.651  57.995  27.248  1.00  0.00     0.368 A 
ATOM      4  C   UNL     1       1.003  58.743  26.262  1.00  0.00     0.162 A 
ATOM      5  C   UNL     1       0.809  60.114  26.430  1.00  0.00     0.128 A 
ATOM      6  C   UNL     1       1.266  60.744  27.594  1.00  0.00     0.093 A 
ATOM      7  C   UNL     1       1.918  60.017  28.596  1.00  0.00     0.136 A 
ATOM      8  C   UNL     1       2.115  58.621  28.429  1.00  0.00     0.125 A 
ATOM      9  C   UNL     1       2.748  57.811  29.386  1.00  0.00     0.078 A 
ATOM     10  C   UNL     1       2.902  56.441  29.153  1.00  0.00     0.223 A 
ENDROOT
BRANCH   1  11
ATOM     11  C   UNL     1       2.577  54.464  27.611  1.00  0.00     0.091 A 
ATOM     12  C   UNL     1       3.739  54.016  26.966  1.00  0.00     0.068 A 
ATOM     13  C   UNL     1       3.916  52.663  26.657  1.00  0.00     0.162 A 
ATOM     14  C   UNL     1       1.599  53.529  27.980  1.00  0.00     0.068 A 
ATOM     15  C   UNL     1       2.914  51.728  27.013  1.00  0.00     0.200 A 
ATOM     16  C   UNL     1       1.763  52.171  27.678  1.00  0.00     0.162 A 
BRANCH  13  17
ATOM     17  O   UNL     1       5.094  52.293  26.003  1.00  0.00    -0.504 OA
ATOM     18  H   UNL     1       5.368  52.637  25.095  1.00  0.00     0.293 HD
ENDBRANCH  13  17
BRANCH  15  19
ATOM     19  O   UNL     1       3.024  50.365  26.729  1.00  0.00    -0.502 OA
ATOM     20  H   UNL     1       2.991  49.637  27.427  1.00  0.00     0.293 HD
ENDBRANCH  15  19
BRANCH  16  21
ATOM     21  O   UNL     1       0.782  51.249  28.043  1.00  0.00    -0.504 OA
ATOM     22  H   UNL     1      -0.124  51.228  27.588  1.00  0.00     0.293 HD
ENDBRANCH  16  21
ENDBRANCH   1  11
BRANCH  10  23
ATOM     23  O   UNL     1       3.484  55.627  30.125  1.00  0.00    -0.500 OA
ATOM     24  H   UNL     1       4.050  56.012  30.872  1.00  0.00     0.294 HD
ENDBRANCH  10  23
BRANCH   5  25
ATOM     25  O   UNL     1       0.160  60.843  25.436  1.00  0.00    -0.507 OA
ATOM     26  H   UNL     1       0.190  60.559  24.464  1.00  0.00     0.293 HD
ENDBRANCH   5  25
BRANCH   7  27
ATOM     27  O   UNL     1       2.346  60.720  29.726  1.00  0.00    -0.507 OA
ATOM     28  H   UNL     1       3.005  60.364  30.403  1.00  0.00     0.293 HD
ENDBRANCH   7  27
TORSDOF 7
ENDMDL
MODEL 7
REMARK VINA RESULT:    -6.449      2.395      3.139
REMARK INTER + INTRA:          -8.282
REMARK INTER:                  -7.970
REMARK INTRA:                  -0.312
REMARK UNBOUND:                -0.325
REMARK SMILES Oc1cc(O)c2cc(O)c(-c3cc(O)c(O)c(O)c3)[o+]c2c1
REMARK SMILES IDX 10 1 20 2 21 3 22 4 2 5 3 6 4 7 6 8 7 9 8 10 11 11 12 12
REMARK SMILES IDX 13 13 19 14 15 15 17 16 14 17 16 19 18 21 9 23 1 25 5 27
REMARK H PARENT 14 18 16 20 18 22 9 24 1 26 5 28
REMARK Flexibility Score: inf
ROOT
ATOM      1  C   UNL     1       0.092  53.720  16.259  1.00  0.00     0.402 A 
ATOM      2  O   UNL     1       0.499  54.514  17.246  1.00  0.00    -0.202 OA
ATOM      3  C   UNL     1       1.298  54.107  18.227  1.00  0.00     0.368 A 
ATOM      4  C   UNL     1       1.674  55.017  19.218  1.00  0.00     0.162 A 
ATOM      5  C   UNL     1       2.515  54.619  20.258  1.00  0.00     0.128 A 
ATOM      6  C   UNL     1       2.985  53.302  20.308  1.00  0.00     0.093 A 
ATOM      7  C   UNL     1       2.623  52.372  19.326  1.00  0.00     0.136 A 
ATOM      8  C   UNL     1       1.766  52.772  18.268  1.00  0.00     0.125 A 
ATOM      9  C   UNL     1       1.342  51.905  17.249  1.00  0.00     0.078 A 
ATOM     10  C   UNL     1       0.492  52.371  16.241  1.00  0.00     0.223 A 
ENDROOT
BRANCH   1  11
ATOM     11  C   UNL     1      -0.791  54.294  15.217  1.00  0.00     0.091 A 
ATOM     12  C   UNL     1      -0.240  55.107  14.216  1.00  0.00     0.068 A 
ATOM     13  C   UNL     1      -1.041  55.650  13.205  1.00  0.00     0.162 A 
ATOM     14  C   UNL     1      -2.162  53.998  15.177  1.00  0.00     0.068 A 
ATOM     15  C   UNL     1      -2.428  55.365  13.185  1.00  0.00     0.200 A 
ATOM     16  C   UNL     1      -2.976  54.534  14.172  1.00  0.00     0.162 A 
BRANCH  13  17
ATOM     17  O   UNL     1      -0.423  56.459  12.249  1.00  0.00    -0.504 OA
ATOM     18  H   UNL     1      -0.445  57.468  12.263  1.00  0.00     0.293 HD
ENDBRANCH  13  17
BRANCH  15  19
ATOM     19  O   UNL     1      -3.285  55.879  12.209  1.00  0.00    -0.502 OA
ATOM     20  H   UNL     1      -3.368  56.860  11.989  1.00  0.00     0.293 HD
ENDBRANCH  15  19
BRANCH  16  21
ATOM     21  O   UNL     1      -4.339  54.240  14.143  1.00  0.00    -0.504 OA
ATOM     22  H   UNL     1      -4.677  53.285  14.141  1.00  0.00     0.293 HD
ENDBRANCH  16  21
ENDBRANCH   1  11
BRANCH  10  23
ATOM     23  O   UNL     1       0.028  51.498  15.256  1.00  0.00    -0.500 OA
ATOM     24  H   UNL     1      -0.486  51.830  14.449  1.00  0.00     0.294 HD
ENDBRANCH  10  23
BRANCH   5  25
ATOM     25  O   UNL     1       2.878  55.540  21.238  1.00  0.00    -0.507 OA
ATOM     26  H   UNL     1       2.352  55.635  22.099  1.00  0.00     0.293 HD
ENDBRANCH   5  25
BRANCH   7  27
ATOM     27  O   UNL     1       3.138  51.077  19.446  1.00  0.00    -0.507 OA
ATOM     28  H   UNL     1       2.573  50.247  19.549  1.00  0.00     0.293 HD
ENDBRANCH   7  27
TORSDOF 7
ENDMDL
MODEL 8
REMARK VINA RESULT:    -6.377      2.098      6.870
REMARK INTER + INTRA:          -8.193
REMARK INTER:                  -7.828
REMARK INTRA:                  -0.365
REMARK UNBOUND:                -0.325
REMARK SMILES Oc1cc(O)c2cc(O)c(-c3cc(O)c(O)c(O)c3)[o+]c2c1
REMARK SMILES IDX 10 1 20 2 21 3 22 4 2 5 3 6 4 7 6 8 7 9 8 10 11 11 12 12
REMARK SMILES IDX 13 13 19 14 15 15 17 16 14 17 16 19 18 21 9 23 1 25 5 27
REMARK H PARENT 14 18 16 20 18 22 9 24 1 26 5 28
REMARK Flexibility Score: inf
ROOT
ATOM      1  C   UNL     1      -0.395  53.350  17.461  1.00  0.00     0.402 A 
ATOM      2  O   UNL     1      -1.567  53.889  17.787  1.00  0.00    -0.202 OA
ATOM      3  C   UNL     1      -2.632  53.855  16.994  1.00  0.00     0.368 A 
ATOM      4  C   UNL     1      -3.821  54.447  17.426  1.00  0.00     0.162 A 
ATOM      5  C   UNL     1      -4.957  54.424  16.616  1.00  0.00     0.128 A 
ATOM      6  C   UNL     1      -4.904  53.803  15.362  1.00  0.00     0.093 A 
ATOM      7  C   UNL     1      -3.724  53.203  14.906  1.00  0.00     0.136 A 
ATOM      8  C   UNL     1      -2.567  53.227  15.727  1.00  0.00     0.125 A 
ATOM      9  C   UNL     1      -1.339  52.662  15.347  1.00  0.00     0.078 A 
ATOM     10  C   UNL     1      -0.240  52.729  16.209  1.00  0.00     0.223 A 
ENDROOT
BRANCH   1  11
ATOM     11  C   UNL     1       0.715  53.445  18.437  1.00  0.00     0.091 A 
ATOM     12  C   UNL     1       1.640  54.495  18.332  1.00  0.00     0.068 A 
ATOM     13  C   UNL     1       2.689  54.627  19.248  1.00  0.00     0.162 A 
ATOM     14  C   UNL     1       0.832  52.538  19.501  1.00  0.00     0.068 A 
ATOM     15  C   UNL     1       2.813  53.694  20.306  1.00  0.00     0.200 A 
ATOM     16  C   UNL     1       1.877  52.658  20.426  1.00  0.00     0.162 A 
BRANCH  13  17
ATOM     17  O   UNL     1       3.577  55.691  19.071  1.00  0.00    -0.504 OA
ATOM     18  H   UNL     1       3.301  56.613  18.768  1.00  0.00     0.293 HD
ENDBRANCH  13  17
BRANCH  15  19
ATOM     19  O   UNL     1       3.840  53.765  21.251  1.00  0.00    -0.502 OA
ATOM     20  H   UNL     1       4.733  53.304  21.152  1.00  0.00     0.293 HD
ENDBRANCH  15  19
BRANCH  16  21
ATOM     21  O   UNL     1       1.990  51.749  21.477  1.00  0.00    -0.504 OA
ATOM     22  H   UNL     1       1.941  50.748  21.322  1.00  0.00     0.293 HD
ENDBRANCH  16  21
ENDBRANCH   1  11
BRANCH  10  23
ATOM     23  O   UNL     1       0.994  52.213  15.811  1.00  0.00    -0.500 OA
ATOM     24  H   UNL     1       1.075  51.563  15.038  1.00  0.00     0.294 HD
ENDBRANCH  10  23
BRANCH   5  25
ATOM     25  O   UNL     1      -6.133  55.020  17.064  1.00  0.00    -0.507 OA
ATOM     26  H   UNL     1      -6.910  54.468  17.407  1.00  0.00     0.293 HD
ENDBRANCH   5  25
BRANCH   7  27
ATOM     27  O   UNL     1      -3.755  52.601  13.644  1.00  0.00    -0.507 OA
ATOM     28  H   UNL     1      -4.176  53.016  12.825  1.00  0.00     0.293 HD
ENDBRANCH   7  27
TORSDOF 7
ENDMDL
MODEL 9
REMARK VINA RESULT:    -6.210      3.023      7.840
REMARK INTER + INTRA:          -7.987
REMARK INTER:                  -7.607
REMARK INTRA:                  -0.380
REMARK UNBOUND:                -0.325
REMARK SMILES Oc1cc(O)c2cc(O)c(-c3cc(O)c(O)c(O)c3)[o+]c2c1
REMARK SMILES IDX 10 1 20 2 21 3 22 4 2 5 3 6 4 7 6 8 7 9 8 10 11 11 12 12
REMARK SMILES IDX 13 13 19 14 15 15 17 16 14 17 16 19 18 21 9 23 1 25 5 27
REMARK H PARENT 14 18 16 20 18 22 9 24 1 26 5 28
REMARK Flexibility Score: inf
ROOT
ATOM      1  C   UNL     1      -1.332  54.742  14.501  1.00  0.00     0.402 A 
ATOM      2  O   UNL     1      -1.318  56.066  14.369  1.00  0.00    -0.202 OA
ATOM      3  C   UNL     1      -1.733  56.695  13.274  1.00  0.00     0.368 A 
ATOM      4  C   UNL     1      -1.682  58.090  13.231  1.00  0.00     0.162 A 
ATOM      5  C   UNL     1      -2.115  58.778  12.097  1.00  0.00     0.128 A 
ATOM      6  C   UNL     1      -2.603  58.065  10.995  1.00  0.00     0.093 A 
ATOM      7  C   UNL     1      -2.664  56.667  11.014  1.00  0.00     0.136 A 
ATOM      8  C   UNL     1      -2.223  55.964  12.166  1.00  0.00     0.125 A 
ATOM      9  C   UNL     1      -2.236  54.564  12.268  1.00  0.00     0.078 A 
ATOM     10  C   UNL     1      -1.780  53.942  13.434  1.00  0.00     0.223 A 
ENDROOT
BRANCH   1  11
ATOM     11  C   UNL     1      -0.851  54.160  15.775  1.00  0.00     0.091 A 
ATOM     12  C   UNL     1      -1.772  53.873  16.794  1.00  0.00     0.068 A 
ATOM     13  C   UNL     1      -1.356  53.305  18.003  1.00  0.00     0.162 A 
ATOM     14  C   UNL     1       0.500  53.838  15.967  1.00  0.00     0.068 A 
ATOM     15  C   UNL     1       0.014  53.003  18.197  1.00  0.00     0.200 A 
ATOM     16  C   UNL     1       0.931  53.268  17.172  1.00  0.00     0.162 A 
BRANCH  13  17
ATOM     17  O   UNL     1      -2.328  53.058  18.975  1.00  0.00    -0.504 OA
ATOM     18  H   UNL     1      -2.739  52.152  19.146  1.00  0.00     0.293 HD
ENDBRANCH  13  17
BRANCH  15  19
ATOM     19  O   UNL     1       0.497  52.441  19.382  1.00  0.00    -0.502 OA
ATOM     20  H   UNL     1       1.415  52.033  19.482  1.00  0.00     0.293 HD
ENDBRANCH  15  19
BRANCH  16  21
ATOM     21  O   UNL     1       2.278  52.957  17.357  1.00  0.00    -0.504 OA
ATOM     22  H   UNL     1       2.623  52.008  17.260  1.00  0.00     0.293 HD
ENDBRANCH  16  21
ENDBRANCH   1  11
BRANCH  10  23
ATOM     23  O   UNL     1      -1.746  52.550  13.517  1.00  0.00    -0.500 OA
ATOM     24  H   UNL     1      -2.259  51.965  12.868  1.00  0.00     0.294 HD
ENDBRANCH  10  23
BRANCH   5  25
ATOM     25  O   UNL     1      -2.056  60.169  12.072  1.00  0.00    -0.507 OA
ATOM     26  H   UNL     1      -1.174  60.661  11.982  1.00  0.00     0.293 HD
ENDBRANCH   5  25
BRANCH   7  27
ATOM     27  O   UNL     1      -3.168  56.030   9.875  1.00  0.00    -0.507 OA
ATOM     28  H   UNL     1      -3.897  56.407   9.287  1.00  0.00     0.293 HD
ENDBRANCH   7  27
TORSDOF 7
ENDMDL
