MODEL 1
REMARK VINA RESULT:    -2.552      0.000      0.000
REMARK INTER + INTRA:          -2.723
REMARK INTER:                  -2.776
REMARK INTRA:                   0.053
REMARK UNBOUND:                 0.053
REMARK SMILES C[C@H]1[C@@H](C)CC[C@@]2(C(=O)[O-])CC[C@]3(C)C(=CC[C@H]4[C@@]5(C)CC[C@H](O)C(C)(C)[C@@H]5CC[C@]43C)[C@@H]12
REMARK SMILES IDX 7 1 6 2 11 3 33 4 5 5 12 6 15 7 2 8 3 9 13 10 16 11 1 12
REMARK SMILES IDX 4 13 14 14 31 15 17 16 18 17 30 18 32 19 19 20 29 21 28 22
REMARK SMILES IDX 21 23 20 24 25 25 22 26 23 27 26 28 27 29 8 30 9 31 10 32
REMARK SMILES IDX 24 33
REMARK H PARENT 24 34
REMARK Flexibility Score: inf
ROOT
ATOM      1  C   UNL     1      99.719 -66.652   5.113  1.00  0.00     0.017 C 
ATOM      2  C   UNL     1     100.149 -66.934   6.583  1.00  0.00     0.014 C 
ATOM      3  C   UNL     1     100.696 -65.652   4.455  1.00  0.00     0.014 C 
ATOM      4  C   UNL     1      99.669 -67.951   4.217  1.00  0.00     0.030 C 
ATOM      5  C   UNL     1     101.315 -67.902   6.723  1.00  0.00     0.004 C 
ATOM      6  C   UNL     1     100.146 -65.119   3.128  1.00  0.00     0.013 C 
ATOM      7  C   UNL     1      99.589 -67.634   2.703  1.00  0.00    -0.063 C 
ATOM      8  C   UNL     1     100.739 -69.070   4.556  1.00  0.00    -0.003 C 
ATOM      9  C   UNL     1     100.936 -69.237   6.085  1.00  0.00    -0.011 C 
ATOM     10  C   UNL     1      99.668 -66.214   2.084  1.00  0.00    -0.006 C 
ATOM     11  C   UNL     1      99.351 -68.668   1.877  1.00  0.00    -0.027 C 
ATOM     12  C   UNL     1     102.074 -68.968   3.786  1.00  0.00     0.008 C 
ATOM     13  C   UNL     1     101.943 -70.333   6.470  1.00  0.00     0.008 C 
ATOM     14  C   UNL     1      98.201 -65.815   1.710  1.00  0.00     0.017 C 
ATOM     15  C   UNL     1     100.611 -66.233   0.764  1.00  0.00    -0.020 C 
ATOM     16  C   UNL     1      99.309 -68.517   0.392  1.00  0.00     0.032 C 
ATOM     17  C   UNL     1     100.427 -67.561  -0.141  1.00  0.00     0.006 C 
ATOM     18  C   UNL     1     100.409 -64.894  -0.047  1.00  0.00     0.008 C 
ATOM     19  C   UNL     1     102.115 -66.228   1.203  1.00  0.00     0.012 C 
ATOM     20  C   UNL     1     100.350 -67.302  -1.715  1.00  0.00    -0.025 C 
ATOM     21  C   UNL     1      99.448 -64.892  -1.254  1.00  0.00     0.005 C 
ATOM     22  C   UNL     1      99.202 -66.255  -1.960  1.00  0.00     0.003 C 
ATOM     23  C   UNL     1     100.093 -68.652  -2.498  1.00  0.00     0.010 C 
ATOM     24  C   UNL     1     101.722 -66.784  -2.247  1.00  0.00     0.012 C 
ATOM     25  C   UNL     1      98.622 -66.141  -3.441  1.00  0.00    -0.006 C 
ATOM     26  C   UNL     1      98.736 -68.710  -3.198  1.00  0.00     0.033 C 
ATOM     27  C   UNL     1      98.620 -67.537  -4.180  1.00  0.00     0.120 C 
ATOM     28  C   UNL     1      97.145 -65.661  -3.348  1.00  0.00     0.014 C 
ATOM     29  C   UNL     1      99.364 -65.082  -4.307  1.00  0.00     0.014 C 
ENDROOT
BRANCH   1  30
ATOM     30  C   UNL     1      98.339 -66.002   5.243  1.00  0.00     0.048 C 
ATOM     31  O   UNL     1      98.192 -64.875   5.789  1.00  0.00    -0.550 OA
ATOM     32  O   UNL     1      97.234 -66.595   4.639  1.00  0.00    -0.550 OA
ENDBRANCH   1  30
BRANCH  27  33
ATOM     33  O   UNL     1      99.663 -67.616  -5.125  1.00  0.00    -0.393 OA
ATOM     34  H   UNL     1     100.519 -67.619  -4.619  1.00  0.00     0.210 HD
ENDBRANCH  27  33
TORSDOF 2
ENDMDL
MODEL 2
REMARK VINA RESULT:    -1.496      1.579      8.000
REMARK INTER + INTRA:          -1.575
REMARK INTER:                  -2.479
REMARK INTRA:                   0.905
REMARK UNBOUND:                 0.053
REMARK SMILES C[C@H]1[C@@H](C)CC[C@@]2(C(=O)[O-])CC[C@]3(C)C(=CC[C@H]4[C@@]5(C)CC[C@H](O)C(C)(C)[C@@H]5CC[C@]43C)[C@@H]12
REMARK SMILES IDX 7 1 6 2 11 3 33 4 5 5 12 6 15 7 2 8 3 9 13 10 16 11 1 12
REMARK SMILES IDX 4 13 14 14 31 15 17 16 18 17 30 18 32 19 19 20 29 21 28 22
REMARK SMILES IDX 21 23 20 24 25 25 22 26 23 27 26 28 27 29 8 30 9 31 10 32
REMARK SMILES IDX 24 33
REMARK H PARENT 24 34
REMARK Flexibility Score: inf
ROOT
ATOM      1  C   UNL     1     100.284 -66.765  -3.630  1.00  0.00     0.017 C 
ATOM      2  C   UNL     1      99.869 -66.275  -5.048  1.00  0.00     0.014 C 
ATOM      3  C   UNL     1     100.895 -65.599  -2.821  1.00  0.00     0.014 C 
ATOM      4  C   UNL     1      99.082 -67.362  -2.799  1.00  0.00     0.030 C 
ATOM      5  C   UNL     1      98.563 -65.496  -5.087  1.00  0.00     0.004 C 
ATOM      6  C   UNL     1     101.587 -66.098  -1.549  1.00  0.00     0.013 C 
ATOM      7  C   UNL     1      99.412 -67.519  -1.294  1.00  0.00    -0.063 C 
ATOM      8  C   UNL     1      97.665 -66.699  -3.053  1.00  0.00    -0.003 C 
ATOM      9  C   UNL     1      97.437 -66.380  -4.552  1.00  0.00    -0.011 C 
ATOM     10  C   UNL     1     100.723 -67.044  -0.613  1.00  0.00    -0.006 C 
ATOM     11  C   UNL     1      98.522 -68.193  -0.543  1.00  0.00    -0.027 C 
ATOM     12  C   UNL     1      97.310 -65.515  -2.127  1.00  0.00     0.008 C 
ATOM     13  C   UNL     1      96.063 -65.761  -4.859  1.00  0.00     0.008 C 
ATOM     14  C   UNL     1     101.596 -68.325  -0.400  1.00  0.00     0.017 C 
ATOM     15  C   UNL     1     100.388 -66.336   0.808  1.00  0.00    -0.020 C 
ATOM     16  C   UNL     1      98.683 -68.367   0.931  1.00  0.00     0.032 C 
ATOM     17  C   UNL     1      99.204 -67.068   1.631  1.00  0.00     0.006 C 
ATOM     18  C   UNL     1     101.718 -66.174   1.642  1.00  0.00     0.008 C 
ATOM     19  C   UNL     1      99.880 -64.876   0.551  1.00  0.00     0.012 C 
ATOM     20  C   UNL     1      99.478 -67.250   3.193  1.00  0.00    -0.025 C 
ATOM     21  C   UNL     1     102.049 -67.221   2.725  1.00  0.00     0.005 C 
ATOM     22  C   UNL     1     100.853 -67.999   3.342  1.00  0.00     0.003 C 
ATOM     23  C   UNL     1      98.297 -68.043   3.886  1.00  0.00     0.010 C 
ATOM     24  C   UNL     1      99.501 -65.862   3.905  1.00  0.00     0.012 C 
ATOM     25  C   UNL     1     101.161 -68.687   4.747  1.00  0.00    -0.006 C 
ATOM     26  C   UNL     1      98.706 -69.416   4.417  1.00  0.00     0.033 C 
ATOM     27  C   UNL     1      99.851 -69.252   5.425  1.00  0.00     0.120 C 
ATOM     28  C   UNL     1     102.114 -69.891   4.499  1.00  0.00     0.014 C 
ATOM     29  C   UNL     1     101.908 -67.746   5.737  1.00  0.00     0.014 C 
ENDROOT
BRANCH   1  30
ATOM     30  C   UNL     1     101.364 -67.817  -3.896  1.00  0.00     0.048 C 
ATOM     31  O   UNL     1     101.518 -68.808  -3.133  1.00  0.00    -0.550 OA
ATOM     32  O   UNL     1     102.116 -67.758  -5.066  1.00  0.00    -0.550 OA
ENDBRANCH   1  30
BRANCH  27  33
ATOM     33  O   UNL     1      99.425 -68.423   6.483  1.00  0.00    -0.393 OA
ATOM     34  H   UNL     1      98.558 -68.021   6.211  1.00  0.00     0.210 HD
ENDBRANCH  27  33
TORSDOF 2
ENDMDL
MODEL 3
REMARK VINA RESULT:    -1.470      1.967      3.489
REMARK INTER + INTRA:          -1.545
REMARK INTER:                  -1.389
REMARK INTRA:                  -0.156
REMARK UNBOUND:                 0.053
REMARK SMILES C[C@H]1[C@@H](C)CC[C@@]2(C(=O)[O-])CC[C@]3(C)C(=CC[C@H]4[C@@]5(C)CC[C@H](O)C(C)(C)[C@@H]5CC[C@]43C)[C@@H]12
REMARK SMILES IDX 7 1 6 2 11 3 33 4 5 5 12 6 15 7 2 8 3 9 13 10 16 11 1 12
REMARK SMILES IDX 4 13 14 14 31 15 17 16 18 17 30 18 32 19 19 20 29 21 28 22
REMARK SMILES IDX 21 23 20 24 25 25 22 26 23 27 26 28 27 29 8 30 9 31 10 32
REMARK SMILES IDX 24 33
REMARK H PARENT 24 34
REMARK Flexibility Score: inf
ROOT
ATOM      1  C   UNL     1     100.503 -68.470   5.668  1.00  0.00     0.017 C 
ATOM      2  C   UNL     1     100.564 -68.383   7.222  1.00  0.00     0.014 C 
ATOM      3  C   UNL     1      99.070 -68.174   5.174  1.00  0.00     0.014 C 
ATOM      4  C   UNL     1     101.488 -67.467   4.948  1.00  0.00     0.030 C 
ATOM      5  C   UNL     1     100.612 -66.965   7.772  1.00  0.00     0.004 C 
ATOM      6  C   UNL     1      98.896 -68.542   3.698  1.00  0.00     0.013 C 
ATOM      7  C   UNL     1     101.179 -67.303   3.439  1.00  0.00    -0.063 C 
ATOM      8  C   UNL     1     101.727 -66.083   5.682  1.00  0.00    -0.003 C 
ATOM      9  C   UNL     1     101.846 -66.255   7.217  1.00  0.00    -0.011 C 
ATOM     10  C   UNL     1      99.974 -67.942   2.700  1.00  0.00    -0.006 C 
ATOM     11  C   UNL     1     102.077 -66.621   2.706  1.00  0.00    -0.027 C 
ATOM     12  C   UNL     1     100.767 -64.942   5.278  1.00  0.00     0.008 C 
ATOM     13  C   UNL     1     102.110 -64.945   7.976  1.00  0.00     0.008 C 
ATOM     14  C   UNL     1     100.542 -69.171   1.914  1.00  0.00     0.017 C 
ATOM     15  C   UNL     1      99.312 -66.866   1.681  1.00  0.00    -0.020 C 
ATOM     16  C   UNL     1     101.878 -66.336   1.254  1.00  0.00     0.032 C 
ATOM     17  C   UNL     1     100.400 -65.942   0.921  1.00  0.00     0.006 C 
ATOM     18  C   UNL     1      98.330 -67.610   0.695  1.00  0.00     0.008 C 
ATOM     19  C   UNL     1      98.411 -65.873   2.492  1.00  0.00     0.012 C 
ATOM     20  C   UNL     1     100.132 -65.724  -0.637  1.00  0.00    -0.025 C 
ATOM     21  C   UNL     1      98.835 -67.993  -0.711  1.00  0.00     0.005 C 
ATOM     22  C   UNL     1     100.004 -67.149  -1.293  1.00  0.00     0.003 C 
ATOM     23  C   UNL     1     101.292 -64.875  -1.297  1.00  0.00     0.010 C 
ATOM     24  C   UNL     1      98.841 -64.876  -0.853  1.00  0.00     0.012 C 
ATOM     25  C   UNL     1     100.166 -67.241  -2.876  1.00  0.00    -0.006 C 
ATOM     26  C   UNL     1     102.125 -65.654  -2.314  1.00  0.00     0.033 C 
ATOM     27  C   UNL     1     101.208 -66.186  -3.423  1.00  0.00     0.120 C 
ATOM     28  C   UNL     1     100.709 -68.656  -3.226  1.00  0.00     0.014 C 
ATOM     29  C   UNL     1      98.816 -67.099  -3.638  1.00  0.00     0.014 C 
ENDROOT
BRANCH   1  30
ATOM     30  C   UNL     1     100.856 -69.927   5.358  1.00  0.00     0.048 C 
ATOM     31  O   UNL     1     102.017 -70.261   4.999  1.00  0.00    -0.550 OA
ATOM     32  O   UNL     1      99.920 -70.931   5.593  1.00  0.00    -0.550 OA
ENDBRANCH   1  30
BRANCH  27  33
ATOM     33  O   UNL     1     100.557 -65.103  -4.048  1.00  0.00    -0.393 OA
ATOM     34  H   UNL     1     101.098 -64.290  -3.865  1.00  0.00     0.210 HD
ENDBRANCH  27  33
TORSDOF 2
ENDMDL
