MODEL 1
REMARK VINA RESULT:     2.387      0.000      0.000
REMARK INTER + INTRA:           4.220
REMARK INTER:                   6.295
REMARK INTRA:                  -2.075
REMARK UNBOUND:                -2.075
REMARK SMILES CCCCCCCCCCCCCCCCCCCCCCCCCCCCCC(=O)[O-]
REMARK SMILES IDX 16 1 17 2 18 3 19 4 20 5 21 6 22 7 23 8 24 9 25 10 26 11
REMARK SMILES IDX 27 12 28 13 29 14 30 15 31 16 32 17 15 18 14 19 13 20 12 21
REMARK SMILES IDX 11 22 10 23 9 24 8 25 7 26 6 27 5 28 4 29 3 30 2 31 1 32
REMARK H PARENT
REMARK Flexibility Score: inf
ROOT
ATOM      1  C   UNL     1     -19.867  -3.945   7.934  1.00  0.00     0.000 C 
ENDROOT
BRANCH   1   2
ATOM      2  C   UNL     1     -20.043  -5.393   8.416  1.00  0.00     0.000 C 
BRANCH   2   3
ATOM      3  C   UNL     1     -21.362  -6.022   7.933  1.00  0.00     0.000 C 
BRANCH   3   4
ATOM      4  C   UNL     1     -22.292  -6.430   9.091  1.00  0.00     0.000 C 
BRANCH   4   5
ATOM      5  C   UNL     1     -23.700  -6.896   8.672  1.00  0.00     0.000 C 
BRANCH   5   6
ATOM      6  C   UNL     1     -23.697  -8.279   7.995  1.00  0.00     0.000 C 
BRANCH   6   7
ATOM      7  C   UNL     1     -25.078  -8.953   8.018  1.00  0.00     0.000 C 
BRANCH   7   8
ATOM      8  C   UNL     1     -26.228  -7.950   8.207  1.00  0.00     0.000 C 
BRANCH   8   9
ATOM      9  C   UNL     1     -26.891  -8.132   9.581  1.00  0.00     0.000 C 
BRANCH   9  10
ATOM     10  C   UNL     1     -26.933  -6.829  10.401  1.00  0.00     0.000 C 
BRANCH  10  11
ATOM     11  C   UNL     1     -27.643  -6.941  11.764  1.00  0.00     0.000 C 
BRANCH  11  12
ATOM     12  C   UNL     1     -28.614  -5.790  12.094  1.00  0.00     0.000 C 
BRANCH  12  13
ATOM     13  C   UNL     1     -28.330  -4.466  11.357  1.00  0.00     0.006 C 
BRANCH  13  14
ATOM     14  C   UNL     1     -29.351  -3.352  11.637  1.00  0.00     0.053 C 
BRANCH  14  15
ATOM     15  C   UNL     1     -28.888  -2.024  11.121  1.00  0.00     0.041 C 
ATOM     16  O   UNL     1     -28.054  -1.966  10.179  1.00  0.00    -0.550 OA
ATOM     17  O   UNL     1     -29.359  -0.850  11.698  1.00  0.00    -0.550 OA
ENDBRANCH  14  15
ENDBRANCH  13  14
ENDBRANCH  12  13
ENDBRANCH  11  12
ENDBRANCH  10  11
ENDBRANCH   9  10
ENDBRANCH   8   9
ENDBRANCH   7   8
ENDBRANCH   6   7
ENDBRANCH   5   6
ENDBRANCH   4   5
ENDBRANCH   3   4
ENDBRANCH   2   3
ENDBRANCH   1   2
BRANCH   1  18
ATOM     18  C   UNL     1     -19.990  -2.915   9.068  1.00  0.00     0.000 C 
BRANCH  18  19
ATOM     19  C   UNL     1     -20.854  -1.725   8.627  1.00  0.00     0.000 C 
BRANCH  19  20
ATOM     20  C   UNL     1     -21.153  -1.724   7.117  1.00  0.00     0.000 C 
BRANCH  20  21
ATOM     21  C   UNL     1     -20.554  -0.544   6.328  1.00  0.00     0.000 C 
BRANCH  21  22
ATOM     22  C   UNL     1     -21.596   0.532   5.976  1.00  0.00     0.000 C 
BRANCH  22  23
ATOM     23  C   UNL     1     -21.363   1.865   6.714  1.00  0.00     0.000 C 
BRANCH  23  24
ATOM     24  C   UNL     1     -21.270   1.758   8.248  1.00  0.00    -0.000 C 
BRANCH  24  25
ATOM     25  C   UNL     1     -22.287   2.605   9.036  1.00  0.00    -0.000 C 
BRANCH  25  26
ATOM     26  C   UNL     1     -22.908   1.880  10.252  1.00  0.00    -0.000 C 
BRANCH  26  27
ATOM     27  C   UNL     1     -21.935   0.991  11.056  1.00  0.00    -0.000 C 
BRANCH  27  28
ATOM     28  C   UNL     1     -21.710   1.408  12.523  1.00  0.00    -0.000 C 
BRANCH  28  29
ATOM     29  C   UNL     1     -22.499   0.548  13.526  1.00  0.00    -0.000 C 
BRANCH  29  30
ATOM     30  C   UNL     1     -21.646  -0.572  14.143  1.00  0.00    -0.000 C 
BRANCH  30  31
ATOM     31  C   UNL     1     -20.728  -1.249  13.113  1.00  0.00    -0.003 C 
ATOM     32  C   UNL     1     -21.456  -2.377  12.386  1.00  0.00     0.004 C 
ENDBRANCH  30  31
ENDBRANCH  29  30
ENDBRANCH  28  29
ENDBRANCH  27  28
ENDBRANCH  26  27
ENDBRANCH  25  26
ENDBRANCH  24  25
ENDBRANCH  23  24
ENDBRANCH  22  23
ENDBRANCH  21  22
ENDBRANCH  20  21
ENDBRANCH  19  20
ENDBRANCH  18  19
ENDBRANCH   1  18
TORSDOF 28
ENDMDL
MODEL 2
REMARK VINA RESULT:     2.410      4.825      7.677
REMARK INTER + INTRA:           4.281
REMARK INTER:                   6.240
REMARK INTRA:                  -1.959
REMARK UNBOUND:                -2.075
REMARK SMILES CCCCCCCCCCCCCCCCCCCCCCCCCCCCCC(=O)[O-]
REMARK SMILES IDX 16 1 17 2 18 3 19 4 20 5 21 6 22 7 23 8 24 9 25 10 26 11
REMARK SMILES IDX 27 12 28 13 29 14 30 15 31 16 32 17 15 18 14 19 13 20 12 21
REMARK SMILES IDX 11 22 10 23 9 24 8 25 7 26 6 27 5 28 4 29 3 30 2 31 1 32
REMARK H PARENT
REMARK Flexibility Score: inf
ROOT
ATOM      1  C   UNL     1     -22.255   1.091  13.235  1.00  0.00     0.000 C 
ENDROOT
BRANCH   1   2
ATOM      2  C   UNL     1     -21.354   0.007  13.844  1.00  0.00     0.000 C 
BRANCH   2   3
ATOM      3  C   UNL     1     -21.585  -1.378  13.213  1.00  0.00     0.000 C 
BRANCH   3   4
ATOM      4  C   UNL     1     -20.544  -1.729  12.135  1.00  0.00     0.000 C 
BRANCH   4   5
ATOM      5  C   UNL     1     -21.117  -2.313  10.829  1.00  0.00     0.000 C 
BRANCH   5   6
ATOM      6  C   UNL     1     -20.553  -1.632   9.570  1.00  0.00     0.000 C 
BRANCH   6   7
ATOM      7  C   UNL     1     -20.228  -2.634   8.450  1.00  0.00     0.000 C 
BRANCH   7   8
ATOM      8  C   UNL     1     -20.991  -3.960   8.596  1.00  0.00     0.000 C 
BRANCH   8   9
ATOM      9  C   UNL     1     -20.138  -5.138   8.103  1.00  0.00     0.000 C 
BRANCH   9  10
ATOM     10  C   UNL     1     -20.918  -6.465   8.064  1.00  0.00     0.000 C 
BRANCH  10  11
ATOM     11  C   UNL     1     -22.388  -6.369   8.518  1.00  0.00     0.000 C 
BRANCH  11  12
ATOM     12  C   UNL     1     -23.215  -7.657   8.337  1.00  0.00     0.000 C 
BRANCH  12  13
ATOM     13  C   UNL     1     -24.738  -7.484   8.511  1.00  0.00     0.006 C 
BRANCH  13  14
ATOM     14  C   UNL     1     -25.570  -7.946   7.304  1.00  0.00     0.053 C 
BRANCH  14  15
ATOM     15  C   UNL     1     -26.437  -9.121   7.639  1.00  0.00     0.041 C 
ATOM     16  O   UNL     1     -26.972  -9.795   6.720  1.00  0.00    -0.550 OA
ATOM     17  O   UNL     1     -26.675  -9.455   8.968  1.00  0.00    -0.550 OA
ENDBRANCH  14  15
ENDBRANCH  13  14
ENDBRANCH  12  13
ENDBRANCH  11  12
ENDBRANCH  10  11
ENDBRANCH   9  10
ENDBRANCH   8   9
ENDBRANCH   7   8
ENDBRANCH   6   7
ENDBRANCH   5   6
ENDBRANCH   4   5
ENDBRANCH   3   4
ENDBRANCH   2   3
ENDBRANCH   1   2
BRANCH   1  18
ATOM     18  C   UNL     1     -21.584   1.851  12.080  1.00  0.00     0.000 C 
BRANCH  18  19
ATOM     19  C   UNL     1     -22.208   1.452  10.735  1.00  0.00     0.000 C 
BRANCH  19  20
ATOM     20  C   UNL     1     -21.332   1.834   9.528  1.00  0.00     0.000 C 
BRANCH  20  21
ATOM     21  C   UNL     1     -22.006   2.752   8.490  1.00  0.00     0.000 C 
BRANCH  21  22
ATOM     22  C   UNL     1     -22.790   3.909   9.132  1.00  0.00     0.000 C 
BRANCH  22  23
ATOM     23  C   UNL     1     -22.362   5.294   8.608  1.00  0.00     0.000 C 
BRANCH  23  24
ATOM     24  C   UNL     1     -20.856   5.600   8.716  1.00  0.00    -0.000 C 
BRANCH  24  25
ATOM     25  C   UNL     1     -20.374   6.086  10.096  1.00  0.00    -0.000 C 
BRANCH  25  26
ATOM     26  C   UNL     1     -18.853   6.350  10.179  1.00  0.00    -0.000 C 
BRANCH  26  27
ATOM     27  C   UNL     1     -18.384   7.693   9.580  1.00  0.00    -0.000 C 
BRANCH  27  28
ATOM     28  C   UNL     1     -16.859   7.857   9.427  1.00  0.00    -0.000 C 
BRANCH  28  29
ATOM     29  C   UNL     1     -16.384   9.311   9.598  1.00  0.00    -0.000 C 
BRANCH  29  30
ATOM     30  C   UNL     1     -15.895   9.608  11.024  1.00  0.00    -0.000 C 
BRANCH  30  31
ATOM     31  C   UNL     1     -14.403   9.972  11.072  1.00  0.00    -0.003 C 
ATOM     32  C   UNL     1     -13.903  10.055  12.512  1.00  0.00     0.004 C 
ENDBRANCH  30  31
ENDBRANCH  29  30
ENDBRANCH  28  29
ENDBRANCH  27  28
ENDBRANCH  26  27
ENDBRANCH  25  26
ENDBRANCH  24  25
ENDBRANCH  23  24
ENDBRANCH  22  23
ENDBRANCH  21  22
ENDBRANCH  20  21
ENDBRANCH  19  20
ENDBRANCH  18  19
ENDBRANCH   1  18
TORSDOF 28
ENDMDL
MODEL 3
REMARK VINA RESULT:     2.416      2.243      9.144
REMARK INTER + INTRA:           4.296
REMARK INTER:                   6.482
REMARK INTRA:                  -2.185
REMARK UNBOUND:                -2.075
REMARK SMILES CCCCCCCCCCCCCCCCCCCCCCCCCCCCCC(=O)[O-]
REMARK SMILES IDX 16 1 17 2 18 3 19 4 20 5 21 6 22 7 23 8 24 9 25 10 26 11
REMARK SMILES IDX 27 12 28 13 29 14 30 15 31 16 32 17 15 18 14 19 13 20 12 21
REMARK SMILES IDX 11 22 10 23 9 24 8 25 7 26 6 27 5 28 4 29 3 30 2 31 1 32
REMARK H PARENT
REMARK Flexibility Score: inf
ROOT
ATOM      1  C   UNL     1     -19.624  -3.020   9.085  1.00  0.00     0.000 C 
ENDROOT
BRANCH   1   2
ATOM      2  C   UNL     1     -20.631  -2.010   9.655  1.00  0.00     0.000 C 
BRANCH   2   3
ATOM      3  C   UNL     1     -21.374  -2.547  10.891  1.00  0.00     0.000 C 
BRANCH   3   4
ATOM      4  C   UNL     1     -20.879  -1.925  12.209  1.00  0.00     0.000 C 
BRANCH   4   5
ATOM      5  C   UNL     1     -21.753  -2.213  13.445  1.00  0.00     0.000 C 
BRANCH   5   6
ATOM      6  C   UNL     1     -21.762  -1.053  14.457  1.00  0.00     0.000 C 
BRANCH   6   7
ATOM      7  C   UNL     1     -21.265   0.268  13.848  1.00  0.00     0.000 C 
BRANCH   7   8
ATOM      8  C   UNL     1     -22.331   0.969  12.991  1.00  0.00     0.000 C 
BRANCH   8   9
ATOM      9  C   UNL     1     -21.692   2.033  12.086  1.00  0.00     0.000 C 
BRANCH   9  10
ATOM     10  C   UNL     1     -21.336   1.493  10.688  1.00  0.00     0.000 C 
BRANCH  10  11
ATOM     11  C   UNL     1     -22.428   1.689   9.618  1.00  0.00     0.000 C 
BRANCH  11  12
ATOM     12  C   UNL     1     -22.072   2.677   8.491  1.00  0.00     0.000 C 
BRANCH  12  13
ATOM     13  C   UNL     1     -21.526   2.028   7.202  1.00  0.00     0.006 C 
BRANCH  13  14
ATOM     14  C   UNL     1     -20.612   0.817   7.441  1.00  0.00     0.053 C 
BRANCH  14  15
ATOM     15  C   UNL     1     -20.912  -0.306   6.496  1.00  0.00     0.041 C 
ATOM     16  O   UNL     1     -20.038  -0.696   5.678  1.00  0.00    -0.550 OA
ATOM     17  O   UNL     1     -22.166  -0.906   6.502  1.00  0.00    -0.550 OA
ENDBRANCH  14  15
ENDBRANCH  13  14
ENDBRANCH  12  13
ENDBRANCH  11  12
ENDBRANCH  10  11
ENDBRANCH   9  10
ENDBRANCH   8   9
ENDBRANCH   7   8
ENDBRANCH   6   7
ENDBRANCH   5   6
ENDBRANCH   4   5
ENDBRANCH   3   4
ENDBRANCH   2   3
ENDBRANCH   1   2
BRANCH   1  18
ATOM     18  C   UNL     1     -20.196  -3.845   7.921  1.00  0.00     0.000 C 
BRANCH  18  19
ATOM     19  C   UNL     1     -19.999  -5.347   8.174  1.00  0.00     0.000 C 
BRANCH  19  20
ATOM     20  C   UNL     1     -21.218  -6.009   8.844  1.00  0.00     0.000 C 
BRANCH  20  21
ATOM     21  C   UNL     1     -22.272  -6.579   7.875  1.00  0.00     0.000 C 
BRANCH  21  22
ATOM     22  C   UNL     1     -23.525  -7.107   8.595  1.00  0.00     0.000 C 
BRANCH  22  23
ATOM     23  C   UNL     1     -24.055  -8.425   7.997  1.00  0.00     0.000 C 
BRANCH  23  24
ATOM     24  C   UNL     1     -25.554  -8.429   7.643  1.00  0.00    -0.000 C 
BRANCH  24  25
ATOM     25  C   UNL     1     -26.300  -9.747   7.929  1.00  0.00    -0.000 C 
BRANCH  25  26
ATOM     26  C   UNL     1     -27.347  -9.648   9.062  1.00  0.00    -0.000 C 
BRANCH  26  27
ATOM     27  C   UNL     1     -27.231  -8.397   9.959  1.00  0.00    -0.000 C 
BRANCH  27  28
ATOM     28  C   UNL     1     -28.161  -8.371  11.188  1.00  0.00    -0.000 C 
BRANCH  28  29
ATOM     29  C   UNL     1     -27.805  -7.264  12.196  1.00  0.00    -0.000 C 
BRANCH  29  30
ATOM     30  C   UNL     1     -27.739  -5.873  11.546  1.00  0.00    -0.000 C 
BRANCH  30  31
ATOM     31  C   UNL     1     -28.910  -4.970  11.963  1.00  0.00    -0.003 C 
ATOM     32  C   UNL     1     -28.858  -3.630  11.234  1.00  0.00     0.004 C 
ENDBRANCH  30  31
ENDBRANCH  29  30
ENDBRANCH  28  29
ENDBRANCH  27  28
ENDBRANCH  26  27
ENDBRANCH  25  26
ENDBRANCH  24  25
ENDBRANCH  23  24
ENDBRANCH  22  23
ENDBRANCH  21  22
ENDBRANCH  20  21
ENDBRANCH  19  20
ENDBRANCH  18  19
ENDBRANCH   1  18
TORSDOF 28
ENDMDL
MODEL 4
REMARK VINA RESULT:     2.468      0.853      3.528
REMARK INTER + INTRA:           4.434
REMARK INTER:                   6.749
REMARK INTRA:                  -2.314
REMARK UNBOUND:                -2.075
REMARK SMILES CCCCCCCCCCCCCCCCCCCCCCCCCCCCCC(=O)[O-]
REMARK SMILES IDX 16 1 17 2 18 3 19 4 20 5 21 6 22 7 23 8 24 9 25 10 26 11
REMARK SMILES IDX 27 12 28 13 29 14 30 15 31 16 32 17 15 18 14 19 13 20 12 21
REMARK SMILES IDX 11 22 10 23 9 24 8 25 7 26 6 27 5 28 4 29 3 30 2 31 1 32
REMARK H PARENT
REMARK Flexibility Score: inf
ROOT
ATOM      1  C   UNL     1     -20.211  -5.051   7.850  1.00  0.00     0.000 C 
ENDROOT
BRANCH   1   2
ATOM      2  C   UNL     1     -21.300  -5.679   8.733  1.00  0.00     0.000 C 
BRANCH   2   3
ATOM      3  C   UNL     1     -22.125  -6.744   7.989  1.00  0.00     0.000 C 
BRANCH   3   4
ATOM      4  C   UNL     1     -23.442  -7.094   8.706  1.00  0.00     0.000 C 
BRANCH   4   5
ATOM      5  C   UNL     1     -24.609  -7.495   7.782  1.00  0.00     0.000 C 
BRANCH   5   6
ATOM      6  C   UNL     1     -25.112  -8.927   8.040  1.00  0.00     0.000 C 
BRANCH   6   7
ATOM      7  C   UNL     1     -26.645  -9.014   8.104  1.00  0.00     0.000 C 
BRANCH   7   8
ATOM      8  C   UNL     1     -27.144  -9.949   9.217  1.00  0.00     0.000 C 
BRANCH   8   9
ATOM      9  C   UNL     1     -27.824  -9.150  10.338  1.00  0.00     0.000 C 
BRANCH   9  10
ATOM     10  C   UNL     1     -27.390  -7.672  10.367  1.00  0.00     0.000 C 
BRANCH  10  11
ATOM     11  C   UNL     1     -27.438  -7.007  11.757  1.00  0.00     0.000 C 
BRANCH  11  12
ATOM     12  C   UNL     1     -28.533  -5.937  11.934  1.00  0.00     0.000 C 
BRANCH  12  13
ATOM     13  C   UNL     1     -28.155  -4.528  11.434  1.00  0.00     0.006 C 
BRANCH  13  14
ATOM     14  C   UNL     1     -29.329  -3.538  11.383  1.00  0.00     0.053 C 
BRANCH  14  15
ATOM     15  C   UNL     1     -28.868  -2.136  11.125  1.00  0.00     0.041 C 
ATOM     16  O   UNL     1     -29.359  -1.178  11.779  1.00  0.00    -0.550 OA
ATOM     17  O   UNL     1     -27.914  -1.884  10.145  1.00  0.00    -0.550 OA
ENDBRANCH  14  15
ENDBRANCH  13  14
ENDBRANCH  12  13
ENDBRANCH  11  12
ENDBRANCH  10  11
ENDBRANCH   9  10
ENDBRANCH   8   9
ENDBRANCH   7   8
ENDBRANCH   6   7
ENDBRANCH   5   6
ENDBRANCH   4   5
ENDBRANCH   3   4
ENDBRANCH   2   3
ENDBRANCH   1   2
BRANCH   1  18
ATOM     18  C   UNL     1     -20.188  -3.516   7.925  1.00  0.00     0.000 C 
BRANCH  18  19
ATOM     19  C   UNL     1     -19.798  -3.049   9.334  1.00  0.00     0.000 C 
BRANCH  19  20
ATOM     20  C   UNL     1     -20.648  -1.866   9.833  1.00  0.00     0.000 C 
BRANCH  20  21
ATOM     21  C   UNL     1     -21.300  -2.061  11.215  1.00  0.00     0.000 C 
BRANCH  21  22
ATOM     22  C   UNL     1     -20.368  -1.679  12.378  1.00  0.00     0.000 C 
BRANCH  22  23
ATOM     23  C   UNL     1     -21.114  -1.046  13.569  1.00  0.00     0.000 C 
BRANCH  23  24
ATOM     24  C   UNL     1     -22.183  -0.001  13.194  1.00  0.00    -0.000 C 
BRANCH  24  25
ATOM     25  C   UNL     1     -21.669   1.441  13.020  1.00  0.00    -0.000 C 
BRANCH  25  26
ATOM     26  C   UNL     1     -21.387   1.841  11.553  1.00  0.00    -0.000 C 
BRANCH  26  27
ATOM     27  C   UNL     1     -22.532   1.545  10.559  1.00  0.00    -0.000 C 
BRANCH  27  28
ATOM     28  C   UNL     1     -22.742   2.600   9.454  1.00  0.00    -0.000 C 
BRANCH  28  29
ATOM     29  C   UNL     1     -21.786   2.427   8.261  1.00  0.00    -0.000 C 
BRANCH  29  30
ATOM     30  C   UNL     1     -21.495   0.951   7.947  1.00  0.00    -0.000 C 
BRANCH  30  31
ATOM     31  C   UNL     1     -20.542   0.779   6.754  1.00  0.00    -0.003 C 
ATOM     32  C   UNL     1     -20.711  -0.595   6.109  1.00  0.00     0.004 C 
ENDBRANCH  30  31
ENDBRANCH  29  30
ENDBRANCH  28  29
ENDBRANCH  27  28
ENDBRANCH  26  27
ENDBRANCH  25  26
ENDBRANCH  24  25
ENDBRANCH  23  24
ENDBRANCH  22  23
ENDBRANCH  21  22
ENDBRANCH  20  21
ENDBRANCH  19  20
ENDBRANCH  18  19
ENDBRANCH   1  18
TORSDOF 28
ENDMDL
MODEL 5
REMARK VINA RESULT:     2.470      5.568      9.018
REMARK INTER + INTRA:           4.439
REMARK INTER:                   6.185
REMARK INTRA:                  -1.747
REMARK UNBOUND:                -2.075
REMARK SMILES CCCCCCCCCCCCCCCCCCCCCCCCCCCCCC(=O)[O-]
REMARK SMILES IDX 16 1 17 2 18 3 19 4 20 5 21 6 22 7 23 8 24 9 25 10 26 11
REMARK SMILES IDX 27 12 28 13 29 14 30 15 31 16 32 17 15 18 14 19 13 20 12 21
REMARK SMILES IDX 11 22 10 23 9 24 8 25 7 26 6 27 5 28 4 29 3 30 2 31 1 32
REMARK H PARENT
REMARK Flexibility Score: inf
ROOT
ATOM      1  C   UNL     1     -21.553   0.218   7.406  1.00  0.00     0.000 C 
ENDROOT
BRANCH   1   2
ATOM      2  C   UNL     1     -20.955   0.487   8.796  1.00  0.00     0.000 C 
BRANCH   2   3
ATOM      3  C   UNL     1     -22.027   0.828   9.846  1.00  0.00     0.000 C 
BRANCH   3   4
ATOM      4  C   UNL     1     -21.637   2.020  10.739  1.00  0.00     0.000 C 
BRANCH   4   5
ATOM      5  C   UNL     1     -22.011   1.879  12.227  1.00  0.00     0.000 C 
BRANCH   5   6
ATOM      6  C   UNL     1     -22.481   0.460  12.595  1.00  0.00     0.000 C 
BRANCH   6   7
ATOM      7  C   UNL     1     -21.803  -0.077  13.866  1.00  0.00     0.000 C 
BRANCH   7   8
ATOM      8  C   UNL     1     -21.410  -1.558  13.752  1.00  0.00     0.000 C 
BRANCH   8   9
ATOM      9  C   UNL     1     -21.321  -1.989  12.281  1.00  0.00     0.000 C 
BRANCH   9  10
ATOM     10  C   UNL     1     -19.873  -2.032  11.758  1.00  0.00     0.000 C 
BRANCH  10  11
ATOM     11  C   UNL     1     -19.733  -1.953  10.224  1.00  0.00     0.000 C 
BRANCH  11  12
ATOM     12  C   UNL     1     -20.859  -2.639   9.427  1.00  0.00     0.000 C 
BRANCH  12  13
ATOM     13  C   UNL     1     -20.441  -3.183   8.046  1.00  0.00     0.006 C 
BRANCH  13  14
ATOM     14  C   UNL     1     -19.562  -4.442   8.099  1.00  0.00     0.053 C 
BRANCH  14  15
ATOM     15  C   UNL     1     -20.381  -5.696   8.147  1.00  0.00     0.041 C 
ATOM     16  O   UNL     1     -20.149  -6.635   7.340  1.00  0.00    -0.550 OA
ATOM     17  O   UNL     1     -21.417  -5.817   9.066  1.00  0.00    -0.550 OA
ENDBRANCH  14  15
ENDBRANCH  13  14
ENDBRANCH  12  13
ENDBRANCH  11  12
ENDBRANCH  10  11
ENDBRANCH   9  10
ENDBRANCH   8   9
ENDBRANCH   7   8
ENDBRANCH   6   7
ENDBRANCH   5   6
ENDBRANCH   4   5
ENDBRANCH   3   4
ENDBRANCH   2   3
ENDBRANCH   1   2
BRANCH   1  18
ATOM     18  C   UNL     1     -21.502   1.446   6.483  1.00  0.00     0.000 C 
BRANCH  18  19
ATOM     19  C   UNL     1     -21.034   2.687   7.258  1.00  0.00     0.000 C 
BRANCH  19  20
ATOM     20  C   UNL     1     -22.078   3.818   7.270  1.00  0.00     0.000 C 
BRANCH  20  21
ATOM     21  C   UNL     1     -22.521   4.291   8.667  1.00  0.00     0.000 C 
BRANCH  21  22
ATOM     22  C   UNL     1     -22.124   5.748   8.962  1.00  0.00     0.000 C 
BRANCH  22  23
ATOM     23  C   UNL     1     -20.808   5.868   9.755  1.00  0.00     0.000 C 
BRANCH  23  24
ATOM     24  C   UNL     1     -19.689   6.661   9.053  1.00  0.00    -0.000 C 
BRANCH  24  25
ATOM     25  C   UNL     1     -18.470   7.006   9.930  1.00  0.00    -0.000 C 
BRANCH  25  26
ATOM     26  C   UNL     1     -17.771   8.331   9.548  1.00  0.00    -0.000 C 
BRANCH  26  27
ATOM     27  C   UNL     1     -16.247   8.229   9.319  1.00  0.00    -0.000 C 
BRANCH  27  28
ATOM     28  C   UNL     1     -15.462   9.547   9.475  1.00  0.00    -0.000 C 
BRANCH  28  29
ATOM     29  C   UNL     1     -15.521  10.124  10.900  1.00  0.00    -0.000 C 
BRANCH  29  30
ATOM     30  C   UNL     1     -14.159  10.089  11.609  1.00  0.00    -0.000 C 
BRANCH  30  31
ATOM     31  C   UNL     1     -14.287   9.855  13.122  1.00  0.00    -0.003 C 
ATOM     32  C   UNL     1     -12.959  10.108  13.832  1.00  0.00     0.004 C 
ENDBRANCH  30  31
ENDBRANCH  29  30
ENDBRANCH  28  29
ENDBRANCH  27  28
ENDBRANCH  26  27
ENDBRANCH  25  26
ENDBRANCH  24  25
ENDBRANCH  23  24
ENDBRANCH  22  23
ENDBRANCH  21  22
ENDBRANCH  20  21
ENDBRANCH  19  20
ENDBRANCH  18  19
ENDBRANCH   1  18
TORSDOF 28
ENDMDL
MODEL 6
REMARK VINA RESULT:     2.625      6.367     12.403
REMARK INTER + INTRA:           4.848
REMARK INTER:                   6.480
REMARK INTRA:                  -1.633
REMARK UNBOUND:                -2.075
REMARK SMILES CCCCCCCCCCCCCCCCCCCCCCCCCCCCCC(=O)[O-]
REMARK SMILES IDX 16 1 17 2 18 3 19 4 20 5 21 6 22 7 23 8 24 9 25 10 26 11
REMARK SMILES IDX 27 12 28 13 29 14 30 15 31 16 32 17 15 18 14 19 13 20 12 21
REMARK SMILES IDX 11 22 10 23 9 24 8 25 7 26 6 27 5 28 4 29 3 30 2 31 1 32
REMARK H PARENT
REMARK Flexibility Score: inf
ROOT
ATOM      1  C   UNL     1     -21.892   5.627   8.741  1.00  0.00     0.000 C 
ENDROOT
BRANCH   1   2
ATOM      2  C   UNL     1     -20.545   6.332   8.520  1.00  0.00     0.000 C 
BRANCH   2   3
ATOM      3  C   UNL     1     -19.815   6.640   9.839  1.00  0.00     0.000 C 
BRANCH   3   4
ATOM      4  C   UNL     1     -18.306   6.885   9.647  1.00  0.00     0.000 C 
BRANCH   4   5
ATOM      5  C   UNL     1     -17.858   8.355   9.753  1.00  0.00     0.000 C 
BRANCH   5   6
ATOM      6  C   UNL     1     -16.359   8.548   9.459  1.00  0.00     0.000 C 
BRANCH   6   7
ATOM      7  C   UNL     1     -15.741   9.702  10.264  1.00  0.00     0.000 C 
BRANCH   7   8
ATOM      8  C   UNL     1     -15.090   9.233  11.575  1.00  0.00     0.000 C 
BRANCH   8   9
ATOM      9  C   UNL     1     -15.487   7.785  11.896  1.00  0.00     0.000 C 
BRANCH   9  10
ATOM     10  C   UNL     1     -14.880   7.277  13.216  1.00  0.00     0.000 C 
BRANCH  10  11
ATOM     11  C   UNL     1     -15.442   5.931  13.716  1.00  0.00     0.000 C 
BRANCH  11  12
ATOM     12  C   UNL     1     -14.393   4.825  13.940  1.00  0.00     0.000 C 
BRANCH  12  13
ATOM     13  C   UNL     1     -14.342   3.743  12.842  1.00  0.00     0.006 C 
BRANCH  13  14
ATOM     14  C   UNL     1     -13.576   2.472  13.240  1.00  0.00     0.053 C 
BRANCH  14  15
ATOM     15  C   UNL     1     -14.006   1.283  12.436  1.00  0.00     0.041 C 
ATOM     16  O   UNL     1     -14.692   1.439  11.391  1.00  0.00    -0.550 OA
ATOM     17  O   UNL     1     -13.673  -0.000  12.856  1.00  0.00    -0.550 OA
ENDBRANCH  14  15
ENDBRANCH  13  14
ENDBRANCH  12  13
ENDBRANCH  11  12
ENDBRANCH  10  11
ENDBRANCH   9  10
ENDBRANCH   8   9
ENDBRANCH   7   8
ENDBRANCH   6   7
ENDBRANCH   5   6
ENDBRANCH   4   5
ENDBRANCH   3   4
ENDBRANCH   2   3
ENDBRANCH   1   2
BRANCH   1  18
ATOM     18  C   UNL     1     -21.777   4.377   9.627  1.00  0.00     0.000 C 
BRANCH  18  19
ATOM     19  C   UNL     1     -22.752   3.288   9.157  1.00  0.00     0.000 C 
BRANCH  19  20
ATOM     20  C   UNL     1     -22.363   1.880   9.642  1.00  0.00     0.000 C 
BRANCH  20  21
ATOM     21  C   UNL     1     -21.418   1.100   8.708  1.00  0.00     0.000 C 
BRANCH  21  22
ATOM     22  C   UNL     1     -21.425   1.633   7.265  1.00  0.00     0.000 C 
BRANCH  22  23
ATOM     23  C   UNL     1     -21.296   0.519   6.208  1.00  0.00     0.000 C 
BRANCH  23  24
ATOM     24  C   UNL     1     -20.338  -0.629   6.578  1.00  0.00    -0.000 C 
BRANCH  24  25
ATOM     25  C   UNL     1     -21.012  -1.925   7.067  1.00  0.00    -0.000 C 
BRANCH  25  26
ATOM     26  C   UNL     1     -20.250  -2.644   8.205  1.00  0.00    -0.000 C 
BRANCH  26  27
ATOM     27  C   UNL     1     -21.003  -2.730   9.550  1.00  0.00    -0.000 C 
BRANCH  27  28
ATOM     28  C   UNL     1     -20.487  -1.796  10.663  1.00  0.00    -0.000 C 
BRANCH  28  29
ATOM     29  C   UNL     1     -21.105  -2.093  12.040  1.00  0.00    -0.000 C 
BRANCH  29  30
ATOM     30  C   UNL     1     -21.624  -0.828  12.740  1.00  0.00    -0.000 C 
BRANCH  30  31
ATOM     31  C   UNL     1     -21.531  -0.921  14.271  1.00  0.00    -0.003 C 
ATOM     32  C   UNL     1     -20.823   0.300  14.854  1.00  0.00     0.004 C 
ENDBRANCH  30  31
ENDBRANCH  29  30
ENDBRANCH  28  29
ENDBRANCH  27  28
ENDBRANCH  26  27
ENDBRANCH  25  26
ENDBRANCH  24  25
ENDBRANCH  23  24
ENDBRANCH  22  23
ENDBRANCH  21  22
ENDBRANCH  20  21
ENDBRANCH  19  20
ENDBRANCH  18  19
ENDBRANCH   1  18
TORSDOF 28
ENDMDL
MODEL 7
REMARK VINA RESULT:     2.715      2.492      9.104
REMARK INTER + INTRA:           5.085
REMARK INTER:                   5.913
REMARK INTRA:                  -0.827
REMARK UNBOUND:                -2.075
REMARK SMILES CCCCCCCCCCCCCCCCCCCCCCCCCCCCCC(=O)[O-]
REMARK SMILES IDX 16 1 17 2 18 3 19 4 20 5 21 6 22 7 23 8 24 9 25 10 26 11
REMARK SMILES IDX 27 12 28 13 29 14 30 15 31 16 32 17 15 18 14 19 13 20 12 21
REMARK SMILES IDX 11 22 10 23 9 24 8 25 7 26 6 27 5 28 4 29 3 30 2 31 1 32
REMARK H PARENT
REMARK Flexibility Score: inf
ROOT
ATOM      1  C   UNL     1     -20.755  -1.714   7.481  1.00  0.00     0.000 C 
ENDROOT
BRANCH   1   2
ATOM      2  C   UNL     1     -20.945  -0.966   6.152  1.00  0.00     0.000 C 
BRANCH   2   3
ATOM      3  C   UNL     1     -21.730   0.346   6.319  1.00  0.00     0.000 C 
BRANCH   3   4
ATOM      4  C   UNL     1     -21.098   1.298   7.351  1.00  0.00     0.000 C 
BRANCH   4   5
ATOM      5  C   UNL     1     -21.744   2.695   7.443  1.00  0.00     0.000 C 
BRANCH   5   6
ATOM      6  C   UNL     1     -22.358   2.982   8.825  1.00  0.00     0.000 C 
BRANCH   6   7
ATOM      7  C   UNL     1     -22.245   1.785   9.783  1.00  0.00     0.000 C 
BRANCH   7   8
ATOM      8  C   UNL     1     -21.692   2.176  11.163  1.00  0.00     0.000 C 
BRANCH   8   9
ATOM      9  C   UNL     1     -22.078   1.132  12.222  1.00  0.00     0.000 C 
BRANCH   9  10
ATOM     10  C   UNL     1     -21.132   1.137  13.437  1.00  0.00     0.000 C 
BRANCH  10  11
ATOM     11  C   UNL     1     -21.374   0.003  14.453  1.00  0.00     0.000 C 
BRANCH  11  12
ATOM     12  C   UNL     1     -22.172  -1.200  13.915  1.00  0.00     0.000 C 
BRANCH  12  13
ATOM     13  C   UNL     1     -21.323  -2.298  13.243  1.00  0.00     0.006 C 
BRANCH  13  14
ATOM     14  C   UNL     1     -21.586  -2.471  11.739  1.00  0.00     0.053 C 
BRANCH  14  15
ATOM     15  C   UNL     1     -20.520  -1.825  10.907  1.00  0.00     0.041 C 
ATOM     16  O   UNL     1     -19.306  -1.976  11.204  1.00  0.00    -0.550 OA
ATOM     17  O   UNL     1     -20.870  -1.036   9.817  1.00  0.00    -0.550 OA
ENDBRANCH  14  15
ENDBRANCH  13  14
ENDBRANCH  12  13
ENDBRANCH  11  12
ENDBRANCH  10  11
ENDBRANCH   9  10
ENDBRANCH   8   9
ENDBRANCH   7   8
ENDBRANCH   6   7
ENDBRANCH   5   6
ENDBRANCH   4   5
ENDBRANCH   3   4
ENDBRANCH   2   3
ENDBRANCH   1   2
BRANCH   1  18
ATOM     18  C   UNL     1     -20.798  -3.242   7.321  1.00  0.00     0.000 C 
BRANCH  18  19
ATOM     19  C   UNL     1     -19.683  -3.904   8.143  1.00  0.00     0.000 C 
BRANCH  19  20
ATOM     20  C   UNL     1     -19.608  -5.428   7.939  1.00  0.00     0.000 C 
BRANCH  20  21
ATOM     21  C   UNL     1     -20.962  -6.163   7.962  1.00  0.00     0.000 C 
BRANCH  21  22
ATOM     22  C   UNL     1     -21.849  -5.750   9.149  1.00  0.00     0.000 C 
BRANCH  22  23
ATOM     23  C   UNL     1     -23.065  -6.677   9.347  1.00  0.00     0.000 C 
BRANCH  23  24
ATOM     24  C   UNL     1     -23.771  -7.120   8.052  1.00  0.00    -0.000 C 
BRANCH  24  25
ATOM     25  C   UNL     1     -24.384  -8.533   8.081  1.00  0.00    -0.000 C 
BRANCH  25  26
ATOM     26  C   UNL     1     -25.913  -8.564   7.852  1.00  0.00    -0.000 C 
BRANCH  26  27
ATOM     27  C   UNL     1     -26.552  -9.970   7.862  1.00  0.00    -0.000 C 
BRANCH  27  28
ATOM     28  C   UNL     1     -27.878 -10.093   8.640  1.00  0.00    -0.000 C 
BRANCH  28  29
ATOM     29  C   UNL     1     -27.685 -10.125  10.166  1.00  0.00    -0.000 C 
BRANCH  29  30
ATOM     30  C   UNL     1     -28.422  -8.981  10.879  1.00  0.00    -0.000 C 
BRANCH  30  31
ATOM     31  C   UNL     1     -27.593  -7.689  10.935  1.00  0.00    -0.003 C 
ATOM     32  C   UNL     1     -27.890  -6.899  12.207  1.00  0.00     0.004 C 
ENDBRANCH  30  31
ENDBRANCH  29  30
ENDBRANCH  28  29
ENDBRANCH  27  28
ENDBRANCH  26  27
ENDBRANCH  25  26
ENDBRANCH  24  25
ENDBRANCH  23  24
ENDBRANCH  22  23
ENDBRANCH  21  22
ENDBRANCH  20  21
ENDBRANCH  19  20
ENDBRANCH  18  19
ENDBRANCH   1  18
TORSDOF 28
ENDMDL
MODEL 8
REMARK VINA RESULT:     2.819      5.351     10.734
REMARK INTER + INTRA:           5.358
REMARK INTER:                   5.444
REMARK INTRA:                  -0.086
REMARK UNBOUND:                -2.075
REMARK SMILES CCCCCCCCCCCCCCCCCCCCCCCCCCCCCC(=O)[O-]
REMARK SMILES IDX 16 1 17 2 18 3 19 4 20 5 21 6 22 7 23 8 24 9 25 10 26 11
REMARK SMILES IDX 27 12 28 13 29 14 30 15 31 16 32 17 15 18 14 19 13 20 12 21
REMARK SMILES IDX 11 22 10 23 9 24 8 25 7 26 6 27 5 28 4 29 3 30 2 31 1 32
REMARK H PARENT
REMARK Flexibility Score: inf
ROOT
ATOM      1  C   UNL     1     -21.883  -0.682  13.782  1.00  0.00     0.000 C 
ENDROOT
BRANCH   1   2
ATOM      2  C   UNL     1     -21.035   0.598  13.833  1.00  0.00     0.000 C 
BRANCH   2   3
ATOM      3  C   UNL     1     -21.746   1.805  13.196  1.00  0.00     0.000 C 
BRANCH   3   4
ATOM      4  C   UNL     1     -21.696   1.788  11.657  1.00  0.00     0.000 C 
BRANCH   4   5
ATOM      5  C   UNL     1     -23.037   1.495  10.957  1.00  0.00     0.000 C 
BRANCH   5   6
ATOM      6  C   UNL     1     -23.367   2.508   9.845  1.00  0.00     0.000 C 
BRANCH   6   7
ATOM      7  C   UNL     1     -22.127   3.271   9.352  1.00  0.00     0.000 C 
BRANCH   7   8
ATOM      8  C   UNL     1     -22.456   4.304   8.262  1.00  0.00     0.000 C 
BRANCH   8   9
ATOM      9  C   UNL     1     -22.103   5.723   8.730  1.00  0.00     0.000 C 
BRANCH   9  10
ATOM     10  C   UNL     1     -20.840   5.766   9.610  1.00  0.00     0.000 C 
BRANCH  10  11
ATOM     11  C   UNL     1     -19.739   6.729   9.122  1.00  0.00     0.000 C 
BRANCH  11  12
ATOM     12  C   UNL     1     -18.468   6.766   9.992  1.00  0.00     0.000 C 
BRANCH  12  13
ATOM     13  C   UNL     1     -17.287   7.554   9.388  1.00  0.00     0.006 C 
BRANCH  13  14
ATOM     14  C   UNL     1     -17.184   9.009   9.870  1.00  0.00     0.053 C 
BRANCH  14  15
ATOM     15  C   UNL     1     -15.763   9.419  10.113  1.00  0.00     0.041 C 
ATOM     16  O   UNL     1     -15.305   9.451  11.286  1.00  0.00    -0.550 OA
ATOM     17  O   UNL     1     -14.953   9.791   9.046  1.00  0.00    -0.550 OA
ENDBRANCH  14  15
ENDBRANCH  13  14
ENDBRANCH  12  13
ENDBRANCH  11  12
ENDBRANCH  10  11
ENDBRANCH   9  10
ENDBRANCH   8   9
ENDBRANCH   7   8
ENDBRANCH   6   7
ENDBRANCH   5   6
ENDBRANCH   4   5
ENDBRANCH   3   4
ENDBRANCH   2   3
ENDBRANCH   1   2
BRANCH   1  18
ATOM     18  C   UNL     1     -21.072  -1.924  13.382  1.00  0.00     0.000 C 
BRANCH  18  19
ATOM     19  C   UNL     1     -21.373  -2.322  11.930  1.00  0.00     0.000 C 
BRANCH  19  20
ATOM     20  C   UNL     1     -20.381  -1.714  10.921  1.00  0.00     0.000 C 
BRANCH  20  21
ATOM     21  C   UNL     1     -20.958  -1.428   9.522  1.00  0.00     0.000 C 
BRANCH  21  22
ATOM     22  C   UNL     1     -21.139   0.074   9.242  1.00  0.00     0.000 C 
BRANCH  22  23
ATOM     23  C   UNL     1     -20.528   0.517   7.898  1.00  0.00     0.000 C 
BRANCH  23  24
ATOM     24  C   UNL     1     -21.395   0.231   6.657  1.00  0.00    -0.000 C 
BRANCH  24  25
ATOM     25  C   UNL     1     -21.721  -1.253   6.403  1.00  0.00    -0.000 C 
BRANCH  25  26
ATOM     26  C   UNL     1     -20.517  -2.206   6.585  1.00  0.00    -0.000 C 
BRANCH  26  27
ATOM     27  C   UNL     1     -20.716  -3.326   7.629  1.00  0.00    -0.000 C 
BRANCH  27  28
ATOM     28  C   UNL     1     -19.494  -4.236   7.869  1.00  0.00    -0.000 C 
BRANCH  28  29
ATOM     29  C   UNL     1     -19.875  -5.692   8.188  1.00  0.00    -0.000 C 
BRANCH  29  30
ATOM     30  C   UNL     1     -21.333  -6.015   7.825  1.00  0.00    -0.000 C 
BRANCH  30  31
ATOM     31  C   UNL     1     -22.209  -6.260   9.063  1.00  0.00    -0.003 C 
ATOM     32  C   UNL     1     -23.415  -7.131   8.719  1.00  0.00     0.004 C 
ENDBRANCH  30  31
ENDBRANCH  29  30
ENDBRANCH  28  29
ENDBRANCH  27  28
ENDBRANCH  26  27
ENDBRANCH  25  26
ENDBRANCH  24  25
ENDBRANCH  23  24
ENDBRANCH  22  23
ENDBRANCH  21  22
ENDBRANCH  20  21
ENDBRANCH  19  20
ENDBRANCH  18  19
ENDBRANCH   1  18
TORSDOF 28
ENDMDL
MODEL 9
REMARK VINA RESULT:     2.826      3.513      7.091
REMARK INTER + INTRA:           5.377
REMARK INTER:                   6.617
REMARK INTRA:                  -1.239
REMARK UNBOUND:                -2.075
REMARK SMILES CCCCCCCCCCCCCCCCCCCCCCCCCCCCCC(=O)[O-]
REMARK SMILES IDX 16 1 17 2 18 3 19 4 20 5 21 6 22 7 23 8 24 9 25 10 26 11
REMARK SMILES IDX 27 12 28 13 29 14 30 15 31 16 32 17 15 18 14 19 13 20 12 21
REMARK SMILES IDX 11 22 10 23 9 24 8 25 7 26 6 27 5 28 4 29 3 30 2 31 1 32
REMARK H PARENT
REMARK Flexibility Score: inf
ROOT
ATOM      1  C   UNL     1     -21.722   1.049  14.243  1.00  0.00     0.000 C 
ENDROOT
BRANCH   1   2
ATOM      2  C   UNL     1     -21.131  -0.367  14.324  1.00  0.00     0.000 C 
BRANCH   2   3
ATOM      3  C   UNL     1     -22.112  -1.446  13.833  1.00  0.00     0.000 C 
BRANCH   3   4
ATOM      4  C   UNL     1     -21.409  -2.626  13.135  1.00  0.00     0.000 C 
BRANCH   4   5
ATOM      5  C   UNL     1     -21.409  -2.575  11.595  1.00  0.00     0.000 C 
BRANCH   5   6
ATOM      6  C   UNL     1     -20.255  -1.732  11.023  1.00  0.00     0.000 C 
BRANCH   6   7
ATOM      7  C   UNL     1     -19.718  -2.287   9.694  1.00  0.00     0.000 C 
BRANCH   7   8
ATOM      8  C   UNL     1     -20.583  -3.426   9.130  1.00  0.00     0.000 C 
BRANCH   8   9
ATOM      9  C   UNL     1     -19.810  -4.225   8.071  1.00  0.00     0.000 C 
BRANCH   9  10
ATOM     10  C   UNL     1     -20.131  -5.731   8.107  1.00  0.00     0.000 C 
BRANCH  10  11
ATOM     11  C   UNL     1     -21.458  -6.097   8.802  1.00  0.00     0.000 C 
BRANCH  11  12
ATOM     12  C   UNL     1     -22.536  -6.701   7.881  1.00  0.00     0.000 C 
BRANCH  12  13
ATOM     13  C   UNL     1     -23.764  -7.283   8.609  1.00  0.00     0.006 C 
BRANCH  13  14
ATOM     14  C   UNL     1     -24.209  -8.662   8.098  1.00  0.00     0.053 C 
BRANCH  14  15
ATOM     15  C   UNL     1     -25.644  -8.663   7.668  1.00  0.00     0.041 C 
ATOM     16  O   UNL     1     -26.040  -7.865   6.778  1.00  0.00    -0.550 OA
ATOM     17  O   UNL     1     -26.551  -9.530   8.268  1.00  0.00    -0.550 OA
ENDBRANCH  14  15
ENDBRANCH  13  14
ENDBRANCH  12  13
ENDBRANCH  11  12
ENDBRANCH  10  11
ENDBRANCH   9  10
ENDBRANCH   8   9
ENDBRANCH   7   8
ENDBRANCH   6   7
ENDBRANCH   5   6
ENDBRANCH   4   5
ENDBRANCH   3   4
ENDBRANCH   2   3
ENDBRANCH   1   2
BRANCH   1  18
ATOM     18  C   UNL     1     -21.394   1.762  12.922  1.00  0.00     0.000 C 
BRANCH  18  19
ATOM     19  C   UNL     1     -22.313   1.267  11.797  1.00  0.00     0.000 C 
BRANCH  19  20
ATOM     20  C   UNL     1     -21.838   1.697  10.397  1.00  0.00     0.000 C 
BRANCH  20  21
ATOM     21  C   UNL     1     -21.422   0.546   9.461  1.00  0.00     0.000 C 
BRANCH  21  22
ATOM     22  C   UNL     1     -21.725   0.836   7.981  1.00  0.00     0.000 C 
BRANCH  22  23
ATOM     23  C   UNL     1     -21.133   2.174   7.494  1.00  0.00     0.000 C 
BRANCH  23  24
ATOM     24  C   UNL     1     -22.146   3.325   7.346  1.00  0.00    -0.000 C 
BRANCH  24  25
ATOM     25  C   UNL     1     -22.539   4.035   8.656  1.00  0.00    -0.000 C 
BRANCH  25  26
ATOM     26  C   UNL     1     -22.293   5.562   8.646  1.00  0.00    -0.000 C 
BRANCH  26  27
ATOM     27  C   UNL     1     -20.811   5.990   8.716  1.00  0.00    -0.000 C 
BRANCH  27  28
ATOM     28  C   UNL     1     -20.231   6.147  10.136  1.00  0.00    -0.000 C 
BRANCH  28  29
ATOM     29  C   UNL     1     -18.716   6.414  10.147  1.00  0.00    -0.000 C 
BRANCH  29  30
ATOM     30  C   UNL     1     -18.357   7.808   9.609  1.00  0.00    -0.000 C 
BRANCH  30  31
ATOM     31  C   UNL     1     -16.894   7.906   9.152  1.00  0.00    -0.003 C 
ATOM     32  C   UNL     1     -16.211   9.132   9.752  1.00  0.00     0.004 C 
ENDBRANCH  30  31
ENDBRANCH  29  30
ENDBRANCH  28  29
ENDBRANCH  27  28
ENDBRANCH  26  27
ENDBRANCH  25  26
ENDBRANCH  24  25
ENDBRANCH  23  24
ENDBRANCH  22  23
ENDBRANCH  21  22
ENDBRANCH  20  21
ENDBRANCH  19  20
ENDBRANCH  18  19
ENDBRANCH   1  18
TORSDOF 28
ENDMDL
