MODEL 1
REMARK VINA RESULT:    -7.032      0.000      0.000
REMARK INTER + INTRA:          -8.756
REMARK INTER:                  -8.471
REMARK INTRA:                  -0.285
REMARK UNBOUND:                -0.285
REMARK SMILES O=c1c(O)c(-c2ccc(O)c(O)c2)oc2cc(O)cc(O)c12
REMARK SMILES IDX 5 1 3 2 2 3 1 4 22 5 20 6 19 7 17 8 16 9 15 10 14 11 6 12
REMARK SMILES IDX 7 13 8 14 9 15 13 16 11 17 10 18 12 20 4 22 21 24 18 26
REMARK H PARENT 10 19 12 21 4 23 21 25 18 27
REMARK Flexibility Score: inf
ROOT
ATOM      1  C   UNL     1      20.388  47.434   6.273  1.00  0.00     0.180 A 
ATOM      2  C   UNL     1      19.600  46.362   5.818  1.00  0.00     0.208 A 
ATOM      3  C   UNL     1      18.570  45.878   6.639  1.00  0.00     0.238 A 
ATOM      4  O   UNL     1      17.833  44.955   6.204  1.00  0.00    -0.285 OA
ATOM      5  C   UNL     1      18.351  46.459   7.911  1.00  0.00     0.111 A 
ATOM      6  C   UNL     1      17.361  46.021   8.843  1.00  0.00     0.134 A 
ATOM      7  C   UNL     1      17.148  46.753  10.017  1.00  0.00     0.093 A 
ATOM      8  C   UNL     1      17.928  47.867  10.325  1.00  0.00     0.123 A 
ATOM      9  C   UNL     1      18.938  48.267   9.450  1.00  0.00     0.094 A 
ATOM     10  C   UNL     1      19.152  47.579   8.253  1.00  0.00     0.146 A 
ATOM     11  O   UNL     1      20.116  47.999   7.442  1.00  0.00    -0.452 OA
ENDROOT
BRANCH   1  12
ATOM     12  C   UNL     1      21.508  47.982   5.474  1.00  0.00     0.025 A 
ATOM     13  C   UNL     1      22.822  47.584   5.763  1.00  0.00     0.016 A 
ATOM     14  C   UNL     1      23.892  48.072   5.009  1.00  0.00     0.051 A 
ATOM     15  C   UNL     1      23.665  48.952   3.946  1.00  0.00     0.157 A 
ATOM     16  C   UNL     1      21.280  48.851   4.391  1.00  0.00     0.062 A 
ATOM     17  C   UNL     1      22.352  49.341   3.632  1.00  0.00     0.158 A 
BRANCH  15  18
ATOM     18  O   UNL     1      24.753  49.425   3.213  1.00  0.00    -0.504 OA
ATOM     19  H   UNL     1      25.363  48.804   2.696  1.00  0.00     0.293 HD
ENDBRANCH  15  18
BRANCH  17  20
ATOM     20  O   UNL     1      22.117  50.207   2.565  1.00  0.00    -0.504 OA
ATOM     21  H   UNL     1      22.880  50.635   2.051  1.00  0.00     0.293 HD
ENDBRANCH  17  20
ENDBRANCH   1  12
BRANCH   2  22
ATOM     22  O   UNL     1      19.819  45.818   4.548  1.00  0.00    -0.502 OA
ATOM     23  H   UNL     1      19.072  45.423   3.990  1.00  0.00     0.293 HD
ENDBRANCH   2  22
BRANCH   6  24
ATOM     24  O   UNL     1      16.589  44.868   8.676  1.00  0.00    -0.507 OA
ATOM     25  H   UNL     1      16.957  43.930   8.639  1.00  0.00     0.293 HD
ENDBRANCH   6  24
BRANCH   8  26
ATOM     26  O   UNL     1      17.699  48.562  11.510  1.00  0.00    -0.508 OA
ATOM     27  H   UNL     1      17.662  49.574  11.532  1.00  0.00     0.293 HD
ENDBRANCH   8  26
TORSDOF 6
ENDMDL
MODEL 2
REMARK VINA RESULT:    -6.797      2.385      7.646
REMARK INTER + INTRA:          -8.472
REMARK INTER:                  -8.219
REMARK INTRA:                  -0.253
REMARK UNBOUND:                -0.285
REMARK SMILES O=c1c(O)c(-c2ccc(O)c(O)c2)oc2cc(O)cc(O)c12
REMARK SMILES IDX 5 1 3 2 2 3 1 4 22 5 20 6 19 7 17 8 16 9 15 10 14 11 6 12
REMARK SMILES IDX 7 13 8 14 9 15 13 16 11 17 10 18 12 20 4 22 21 24 18 26
REMARK H PARENT 10 19 12 21 4 23 21 25 18 27
REMARK Flexibility Score: inf
ROOT
ATOM      1  C   UNL     1      21.166  48.666   4.808  1.00  0.00     0.180 A 
ATOM      2  C   UNL     1      20.717  49.994   4.695  1.00  0.00     0.208 A 
ATOM      3  C   UNL     1      21.494  50.915   3.976  1.00  0.00     0.238 A 
ATOM      4  O   UNL     1      21.060  52.089   3.831  1.00  0.00    -0.285 OA
ATOM      5  C   UNL     1      22.717  50.504   3.393  1.00  0.00     0.111 A 
ATOM      6  C   UNL     1      23.603  51.365   2.677  1.00  0.00     0.134 A 
ATOM      7  C   UNL     1      24.721  50.820   2.033  1.00  0.00     0.093 A 
ATOM      8  C   UNL     1      25.021  49.462   2.131  1.00  0.00     0.123 A 
ATOM      9  C   UNL     1      24.193  48.623   2.879  1.00  0.00     0.094 A 
ATOM     10  C   UNL     1      23.051  49.129   3.503  1.00  0.00     0.146 A 
ATOM     11  O   UNL     1      22.284  48.295   4.197  1.00  0.00    -0.452 OA
ENDROOT
BRANCH   1  12
ATOM     12  C   UNL     1      20.415  47.643   5.572  1.00  0.00     0.025 A 
ATOM     13  C   UNL     1      19.257  47.078   5.014  1.00  0.00     0.016 A 
ATOM     14  C   UNL     1      18.545  46.096   5.707  1.00  0.00     0.051 A 
ATOM     15  C   UNL     1      18.985  45.653   6.959  1.00  0.00     0.157 A 
ATOM     16  C   UNL     1      20.867  47.182   6.821  1.00  0.00     0.062 A 
ATOM     17  C   UNL     1      20.155  46.196   7.518  1.00  0.00     0.158 A 
BRANCH  15  18
ATOM     18  O   UNL     1      18.252  44.674   7.628  1.00  0.00    -0.504 OA
ATOM     19  H   UNL     1      18.696  43.880   8.072  1.00  0.00     0.293 HD
ENDBRANCH  15  18
BRANCH  17  20
ATOM     20  O   UNL     1      20.606  45.748   8.759  1.00  0.00    -0.504 OA
ATOM     21  H   UNL     1      21.059  44.847   8.865  1.00  0.00     0.293 HD
ENDBRANCH  17  20
ENDBRANCH   1  12
BRANCH   2  22
ATOM     22  O   UNL     1      19.495  50.373   5.259  1.00  0.00    -0.502 OA
ATOM     23  H   UNL     1      18.633  50.385   4.729  1.00  0.00     0.293 HD
ENDBRANCH   2  22
BRANCH   6  24
ATOM     24  O   UNL     1      23.447  52.751   2.594  1.00  0.00    -0.507 OA
ATOM     25  H   UNL     1      23.026  53.236   1.816  1.00  0.00     0.293 HD
ENDBRANCH   6  24
BRANCH   8  26
ATOM     26  O   UNL     1      26.150  48.958   1.490  1.00  0.00    -0.508 OA
ATOM     27  H   UNL     1      26.264  47.966   1.320  1.00  0.00     0.293 HD
ENDBRANCH   8  26
TORSDOF 6
ENDMDL
MODEL 3
REMARK VINA RESULT:    -6.665      1.612      7.113
REMARK INTER + INTRA:          -8.313
REMARK INTER:                  -8.126
REMARK INTRA:                  -0.187
REMARK UNBOUND:                -0.285
REMARK SMILES O=c1c(O)c(-c2ccc(O)c(O)c2)oc2cc(O)cc(O)c12
REMARK SMILES IDX 5 1 3 2 2 3 1 4 22 5 20 6 19 7 17 8 16 9 15 10 14 11 6 12
REMARK SMILES IDX 7 13 8 14 9 15 13 16 11 17 10 18 12 20 4 22 21 24 18 26
REMARK H PARENT 10 19 12 21 4 23 21 25 18 27
REMARK Flexibility Score: inf
ROOT
ATOM      1  C   UNL     1      20.590  47.538   7.277  1.00  0.00     0.180 A 
ATOM      2  C   UNL     1      21.843  47.461   7.911  1.00  0.00     0.208 A 
ATOM      3  C   UNL     1      22.946  48.092   7.315  1.00  0.00     0.238 A 
ATOM      4  O   UNL     1      24.053  48.067   7.915  1.00  0.00    -0.285 OA
ATOM      5  C   UNL     1      22.789  48.776   6.086  1.00  0.00     0.111 A 
ATOM      6  C   UNL     1      23.847  49.416   5.374  1.00  0.00     0.134 A 
ATOM      7  C   UNL     1      23.551  50.174   4.234  1.00  0.00     0.093 A 
ATOM      8  C   UNL     1      22.249  50.262   3.744  1.00  0.00     0.123 A 
ATOM      9  C   UNL     1      21.216  49.591   4.399  1.00  0.00     0.094 A 
ATOM     10  C   UNL     1      21.473  48.857   5.559  1.00  0.00     0.146 A 
ATOM     11  O   UNL     1      20.461  48.241   6.160  1.00  0.00    -0.452 OA
ENDROOT
BRANCH   1  12
ATOM     12  C   UNL     1      19.386  46.877   7.831  1.00  0.00     0.025 A 
ATOM     13  C   UNL     1      18.843  45.764   7.170  1.00  0.00     0.016 A 
ATOM     14  C   UNL     1      17.720  45.112   7.687  1.00  0.00     0.051 A 
ATOM     15  C   UNL     1      17.132  45.552   8.877  1.00  0.00     0.157 A 
ATOM     16  C   UNL     1      18.805  47.305   9.039  1.00  0.00     0.062 A 
ATOM     17  C   UNL     1      17.679  46.652   9.559  1.00  0.00     0.158 A 
BRANCH  15  18
ATOM     18  O   UNL     1      16.011  44.884   9.366  1.00  0.00    -0.504 OA
ATOM     19  H   UNL     1      15.774  44.881  10.351  1.00  0.00     0.293 HD
ENDBRANCH  15  18
BRANCH  17  20
ATOM     20  O   UNL     1      17.106  47.086  10.754  1.00  0.00    -0.504 OA
ATOM     21  H   UNL     1      17.675  47.342  11.554  1.00  0.00     0.293 HD
ENDBRANCH  17  20
ENDBRANCH   1  12
BRANCH   2  22
ATOM     22  O   UNL     1      21.972  46.800   9.136  1.00  0.00    -0.502 OA
ATOM     23  H   UNL     1      21.554  47.150   9.989  1.00  0.00     0.293 HD
ENDBRANCH   2  22
BRANCH   6  24
ATOM     24  O   UNL     1      25.196  49.316   5.724  1.00  0.00    -0.507 OA
ATOM     25  H   UNL     1      25.643  48.475   6.057  1.00  0.00     0.293 HD
ENDBRANCH   6  24
BRANCH   8  26
ATOM     26  O   UNL     1      21.993  51.012   2.598  1.00  0.00    -0.508 OA
ATOM     27  H   UNL     1      22.361  51.950   2.486  1.00  0.00     0.293 HD
ENDBRANCH   8  26
TORSDOF 6
ENDMDL
MODEL 4
REMARK VINA RESULT:    -6.497      4.529      7.787
REMARK INTER + INTRA:          -8.111
REMARK INTER:                  -7.821
REMARK INTRA:                  -0.290
REMARK UNBOUND:                -0.285
REMARK SMILES O=c1c(O)c(-c2ccc(O)c(O)c2)oc2cc(O)cc(O)c12
REMARK SMILES IDX 5 1 3 2 2 3 1 4 22 5 20 6 19 7 17 8 16 9 15 10 14 11 6 12
REMARK SMILES IDX 7 13 8 14 9 15 13 16 11 17 10 18 12 20 4 22 21 24 18 26
REMARK H PARENT 10 19 12 21 4 23 21 25 18 27
REMARK Flexibility Score: inf
ROOT
ATOM      1  C   UNL     1      17.480  49.196  12.249  1.00  0.00     0.180 A 
ATOM      2  C   UNL     1      18.670  49.470  12.946  1.00  0.00     0.208 A 
ATOM      3  C   UNL     1      18.592  49.911  14.276  1.00  0.00     0.238 A 
ATOM      4  O   UNL     1      19.662  50.103  14.913  1.00  0.00    -0.285 OA
ATOM      5  C   UNL     1      17.328  50.090  14.887  1.00  0.00     0.111 A 
ATOM      6  C   UNL     1      17.132  50.572  16.217  1.00  0.00     0.134 A 
ATOM      7  C   UNL     1      15.842  50.585  16.762  1.00  0.00     0.093 A 
ATOM      8  C   UNL     1      14.735  50.196  16.006  1.00  0.00     0.123 A 
ATOM      9  C   UNL     1      14.910  49.780  14.686  1.00  0.00     0.094 A 
ATOM     10  C   UNL     1      16.188  49.722  14.126  1.00  0.00     0.146 A 
ATOM     11  O   UNL     1      16.313  49.310  12.869  1.00  0.00    -0.452 OA
ENDROOT
BRANCH   1  12
ATOM     12  C   UNL     1      17.480  48.751  10.836  1.00  0.00     0.025 A 
ATOM     13  C   UNL     1      17.724  47.401  10.538  1.00  0.00     0.016 A 
ATOM     14  C   UNL     1      17.707  46.954   9.214  1.00  0.00     0.051 A 
ATOM     15  C   UNL     1      17.433  47.844   8.170  1.00  0.00     0.157 A 
ATOM     16  C   UNL     1      17.184  49.640   9.787  1.00  0.00     0.062 A 
ATOM     17  C   UNL     1      17.166  49.194   8.458  1.00  0.00     0.158 A 
BRANCH  15  18
ATOM     18  O   UNL     1      17.426  47.371   6.859  1.00  0.00    -0.504 OA
ATOM     19  H   UNL     1      16.695  47.615   6.203  1.00  0.00     0.293 HD
ENDBRANCH  15  18
BRANCH  17  20
ATOM     20  O   UNL     1      16.877  50.083   7.423  1.00  0.00    -0.504 OA
ATOM     21  H   UNL     1      17.533  50.805   7.146  1.00  0.00     0.293 HD
ENDBRANCH  17  20
ENDBRANCH   1  12
BRANCH   2  22
ATOM     22  O   UNL     1      19.909  49.265  12.331  1.00  0.00    -0.502 OA
ATOM     23  H   UNL     1      20.097  49.553  11.378  1.00  0.00     0.293 HD
ENDBRANCH   2  22
BRANCH   6  24
ATOM     24  O   UNL     1      18.156  51.071  17.025  1.00  0.00    -0.507 OA
ATOM     25  H   UNL     1      18.205  52.016  17.373  1.00  0.00     0.293 HD
ENDBRANCH   6  24
BRANCH   8  26
ATOM     26  O   UNL     1      13.465  50.237  16.576  1.00  0.00    -0.508 OA
ATOM     27  H   UNL     1      13.111  49.471  17.136  1.00  0.00     0.293 HD
ENDBRANCH   8  26
TORSDOF 6
ENDMDL
MODEL 5
REMARK VINA RESULT:    -6.468      3.330      4.378
REMARK INTER + INTRA:          -8.076
REMARK INTER:                  -7.743
REMARK INTRA:                  -0.333
REMARK UNBOUND:                -0.285
REMARK SMILES O=c1c(O)c(-c2ccc(O)c(O)c2)oc2cc(O)cc(O)c12
REMARK SMILES IDX 5 1 3 2 2 3 1 4 22 5 20 6 19 7 17 8 16 9 15 10 14 11 6 12
REMARK SMILES IDX 7 13 8 14 9 15 13 16 11 17 10 18 12 20 4 22 21 24 18 26
REMARK H PARENT 10 19 12 21 4 23 21 25 18 27
REMARK Flexibility Score: inf
ROOT
ATOM      1  C   UNL     1      22.374  47.215   7.788  1.00  0.00     0.180 A 
ATOM      2  C   UNL     1      22.221  46.988   6.409  1.00  0.00     0.208 A 
ATOM      3  C   UNL     1      20.959  46.622   5.916  1.00  0.00     0.238 A 
ATOM      4  O   UNL     1      20.816  46.473   4.674  1.00  0.00    -0.285 OA
ATOM      5  C   UNL     1      19.871  46.470   6.807  1.00  0.00     0.111 A 
ATOM      6  C   UNL     1      18.558  46.062   6.421  1.00  0.00     0.134 A 
ATOM      7  C   UNL     1      17.526  46.072   7.369  1.00  0.00     0.093 A 
ATOM      8  C   UNL     1      17.772  46.411   8.699  1.00  0.00     0.123 A 
ATOM      9  C   UNL     1      19.064  46.752   9.099  1.00  0.00     0.094 A 
ATOM     10  C   UNL     1      20.107  46.787   8.170  1.00  0.00     0.146 A 
ATOM     11  O   UNL     1      21.320  47.128   8.589  1.00  0.00    -0.452 OA
ENDROOT
BRANCH   1  12
ATOM     12  C   UNL     1      23.679  47.580   8.386  1.00  0.00     0.025 A 
ATOM     13  C   UNL     1      24.000  48.934   8.569  1.00  0.00     0.016 A 
ATOM     14  C   UNL     1      25.216  49.300   9.151  1.00  0.00     0.051 A 
ATOM     15  C   UNL     1      26.122  48.322   9.572  1.00  0.00     0.157 A 
ATOM     16  C   UNL     1      24.582  46.597   8.831  1.00  0.00     0.062 A 
ATOM     17  C   UNL     1      25.803  46.963   9.416  1.00  0.00     0.158 A 
BRANCH  15  18
ATOM     18  O   UNL     1      27.329  48.718  10.147  1.00  0.00    -0.504 OA
ATOM     19  H   UNL     1      27.614  48.407  11.067  1.00  0.00     0.293 HD
ENDBRANCH  15  18
BRANCH  17  20
ATOM     20  O   UNL     1      26.695  45.982   9.848  1.00  0.00    -0.504 OA
ATOM     21  H   UNL     1      27.538  45.766   9.327  1.00  0.00     0.293 HD
ENDBRANCH  17  20
ENDBRANCH   1  12
BRANCH   2  22
ATOM     22  O   UNL     1      23.305  47.165   5.543  1.00  0.00    -0.502 OA
ATOM     23  H   UNL     1      23.186  47.386   4.562  1.00  0.00     0.293 HD
ENDBRANCH   2  22
BRANCH   6  24
ATOM     24  O   UNL     1      18.224  45.617   5.140  1.00  0.00    -0.507 OA
ATOM     25  H   UNL     1      17.848  46.200   4.408  1.00  0.00     0.293 HD
ENDBRANCH   6  24
BRANCH   8  26
ATOM     26  O   UNL     1      16.725  46.394   9.618  1.00  0.00    -0.508 OA
ATOM     27  H   UNL     1      15.771  46.211   9.330  1.00  0.00     0.293 HD
ENDBRANCH   8  26
TORSDOF 6
ENDMDL
MODEL 6
REMARK VINA RESULT:    -6.406      1.720      2.630
REMARK INTER + INTRA:          -8.001
REMARK INTER:                  -7.744
REMARK INTRA:                  -0.258
REMARK UNBOUND:                -0.285
REMARK SMILES O=c1c(O)c(-c2ccc(O)c(O)c2)oc2cc(O)cc(O)c12
REMARK SMILES IDX 5 1 3 2 2 3 1 4 22 5 20 6 19 7 17 8 16 9 15 10 14 11 6 12
REMARK SMILES IDX 7 13 8 14 9 15 13 16 11 17 10 18 12 20 4 22 21 24 18 26
REMARK H PARENT 10 19 12 21 4 23 21 25 18 27
REMARK Flexibility Score: inf
ROOT
ATOM      1  C   UNL     1      21.674  48.339   4.763  1.00  0.00     0.180 A 
ATOM      2  C   UNL     1      20.889  47.286   4.263  1.00  0.00     0.208 A 
ATOM      3  C   UNL     1      20.094  46.548   5.154  1.00  0.00     0.238 A 
ATOM      4  O   UNL     1      19.352  45.641   4.692  1.00  0.00    -0.285 OA
ATOM      5  C   UNL     1      20.106  46.860   6.534  1.00  0.00     0.111 A 
ATOM      6  C   UNL     1      19.370  46.152   7.532  1.00  0.00     0.134 A 
ATOM      7  C   UNL     1      19.356  46.630   8.848  1.00  0.00     0.093 A 
ATOM      8  C   UNL     1      20.099  47.751   9.216  1.00  0.00     0.123 A 
ATOM      9  C   UNL     1      20.869  48.415   8.260  1.00  0.00     0.094 A 
ATOM     10  C   UNL     1      20.876  47.984   6.932  1.00  0.00     0.146 A 
ATOM     11  O   UNL     1      21.614  48.650   6.051  1.00  0.00    -0.452 OA
ENDROOT
BRANCH   1  12
ATOM     12  C   UNL     1      22.556  49.146   3.889  1.00  0.00     0.025 A 
ATOM     13  C   UNL     1      22.237  50.490   3.637  1.00  0.00     0.016 A 
ATOM     14  C   UNL     1      23.067  51.276   2.834  1.00  0.00     0.051 A 
ATOM     15  C   UNL     1      24.235  50.738   2.283  1.00  0.00     0.157 A 
ATOM     16  C   UNL     1      23.743  48.613   3.352  1.00  0.00     0.062 A 
ATOM     17  C   UNL     1      24.577  49.401   2.547  1.00  0.00     0.158 A 
BRANCH  15  18
ATOM     18  O   UNL     1      25.042  51.546   1.483  1.00  0.00    -0.504 OA
ATOM     19  H   UNL     1      25.896  51.965   1.830  1.00  0.00     0.293 HD
ENDBRANCH  15  18
BRANCH  17  20
ATOM     20  O   UNL     1      25.748  48.863   2.013  1.00  0.00    -0.504 OA
ATOM     21  H   UNL     1      26.569  48.706   2.586  1.00  0.00     0.293 HD
ENDBRANCH  17  20
ENDBRANCH   1  12
BRANCH   2  22
ATOM     22  O   UNL     1      20.875  47.008   2.892  1.00  0.00    -0.502 OA
ATOM     23  H   UNL     1      21.440  47.522   2.228  1.00  0.00     0.293 HD
ENDBRANCH   2  22
BRANCH   6  24
ATOM     24  O   UNL     1      18.667  44.968   7.290  1.00  0.00    -0.507 OA
ATOM     25  H   UNL     1      17.705  44.809   7.546  1.00  0.00     0.293 HD
ENDBRANCH   6  24
BRANCH   8  26
ATOM     26  O   UNL     1      20.074  48.190  10.538  1.00  0.00    -0.508 OA
ATOM     27  H   UNL     1      20.767  47.885  11.210  1.00  0.00     0.293 HD
ENDBRANCH   8  26
TORSDOF 6
ENDMDL
MODEL 7
REMARK VINA RESULT:    -6.296      2.532      4.577
REMARK INTER + INTRA:          -7.869
REMARK INTER:                  -7.547
REMARK INTRA:                  -0.322
REMARK UNBOUND:                -0.285
REMARK SMILES O=c1c(O)c(-c2ccc(O)c(O)c2)oc2cc(O)cc(O)c12
REMARK SMILES IDX 5 1 3 2 2 3 1 4 22 5 20 6 19 7 17 8 16 9 15 10 14 11 6 12
REMARK SMILES IDX 7 13 8 14 9 15 13 16 11 17 10 18 12 20 4 22 21 24 18 26
REMARK H PARENT 10 19 12 21 4 23 21 25 18 27
REMARK Flexibility Score: inf
ROOT
ATOM      1  C   UNL     1      23.203  48.826   4.448  1.00  0.00     0.180 A 
ATOM      2  C   UNL     1      23.768  48.687   5.728  1.00  0.00     0.208 A 
ATOM      3  C   UNL     1      23.070  47.958   6.704  1.00  0.00     0.238 A 
ATOM      4  O   UNL     1      23.606  47.790   7.831  1.00  0.00    -0.285 OA
ATOM      5  C   UNL     1      21.810  47.393   6.394  1.00  0.00     0.111 A 
ATOM      6  C   UNL     1      20.997  46.670   7.319  1.00  0.00     0.134 A 
ATOM      7  C   UNL     1      19.828  46.044   6.867  1.00  0.00     0.093 A 
ATOM      8  C   UNL     1      19.409  46.168   5.543  1.00  0.00     0.123 A 
ATOM      9  C   UNL     1      20.165  46.923   4.646  1.00  0.00     0.094 A 
ATOM     10  C   UNL     1      21.354  47.530   5.057  1.00  0.00     0.146 A 
ATOM     11  O   UNL     1      22.051  48.230   4.169  1.00  0.00    -0.452 OA
ENDROOT
BRANCH   1  12
ATOM     12  C   UNL     1      23.867  49.601   3.374  1.00  0.00     0.025 A 
ATOM     13  C   UNL     1      24.783  48.960   2.526  1.00  0.00     0.016 A 
ATOM     14  C   UNL     1      25.405  49.666   1.493  1.00  0.00     0.051 A 
ATOM     15  C   UNL     1      25.111  51.016   1.282  1.00  0.00     0.157 A 
ATOM     16  C   UNL     1      23.557  50.954   3.147  1.00  0.00     0.062 A 
ATOM     17  C   UNL     1      24.179  51.664   2.111  1.00  0.00     0.158 A 
BRANCH  15  18
ATOM     18  O   UNL     1      25.749  51.695   0.245  1.00  0.00    -0.504 OA
ATOM     19  H   UNL     1      25.292  51.880  -0.639  1.00  0.00     0.293 HD
ENDBRANCH  15  18
BRANCH  17  20
ATOM     20  O   UNL     1      23.871  53.007   1.896  1.00  0.00    -0.504 OA
ATOM     21  H   UNL     1      23.708  53.644   2.668  1.00  0.00     0.293 HD
ENDBRANCH  17  20
ENDBRANCH   1  12
BRANCH   2  22
ATOM     22  O   UNL     1      25.024  49.234   6.005  1.00  0.00    -0.502 OA
ATOM     23  H   UNL     1      25.627  48.869   6.732  1.00  0.00     0.293 HD
ENDBRANCH   2  22
BRANCH   6  24
ATOM     24  O   UNL     1      21.276  46.561   8.684  1.00  0.00    -0.507 OA
ATOM     25  H   UNL     1      20.602  46.704   9.421  1.00  0.00     0.293 HD
ENDBRANCH   6  24
BRANCH   8  26
ATOM     26  O   UNL     1      18.233  45.545   5.132  1.00  0.00    -0.508 OA
ATOM     27  H   UNL     1      17.497  46.060   4.664  1.00  0.00     0.293 HD
ENDBRANCH   8  26
TORSDOF 6
ENDMDL
MODEL 8
REMARK VINA RESULT:    -6.266      1.577      6.521
REMARK INTER + INTRA:          -7.833
REMARK INTER:                  -7.765
REMARK INTRA:                  -0.068
REMARK UNBOUND:                -0.285
REMARK SMILES O=c1c(O)c(-c2ccc(O)c(O)c2)oc2cc(O)cc(O)c12
REMARK SMILES IDX 5 1 3 2 2 3 1 4 22 5 20 6 19 7 17 8 16 9 15 10 14 11 6 12
REMARK SMILES IDX 7 13 8 14 9 15 13 16 11 17 10 18 12 20 4 22 21 24 18 26
REMARK H PARENT 10 19 12 21 4 23 21 25 18 27
REMARK Flexibility Score: inf
ROOT
ATOM      1  C   UNL     1      19.219  48.146   7.707  1.00  0.00     0.180 A 
ATOM      2  C   UNL     1      18.686  46.877   7.419  1.00  0.00     0.208 A 
ATOM      3  C   UNL     1      19.041  46.248   6.216  1.00  0.00     0.238 A 
ATOM      4  O   UNL     1      18.605  45.089   5.988  1.00  0.00    -0.285 OA
ATOM      5  C   UNL     1      19.910  46.900   5.308  1.00  0.00     0.111 A 
ATOM      6  C   UNL     1      20.304  46.371   4.042  1.00  0.00     0.134 A 
ATOM      7  C   UNL     1      21.271  47.045   3.284  1.00  0.00     0.093 A 
ATOM      8  C   UNL     1      21.809  48.258   3.715  1.00  0.00     0.123 A 
ATOM      9  C   UNL     1      21.385  48.812   4.923  1.00  0.00     0.094 A 
ATOM     10  C   UNL     1      20.450  48.147   5.719  1.00  0.00     0.146 A 
ATOM     11  O   UNL     1      20.081  48.703   6.867  1.00  0.00    -0.452 OA
ENDROOT
BRANCH   1  12
ATOM     12  C   UNL     1      18.872  48.883   8.943  1.00  0.00     0.025 A 
ATOM     13  C   UNL     1      18.259  50.143   8.848  1.00  0.00     0.016 A 
ATOM     14  C   UNL     1      17.903  50.847  10.001  1.00  0.00     0.051 A 
ATOM     15  C   UNL     1      18.139  50.298  11.265  1.00  0.00     0.157 A 
ATOM     16  C   UNL     1      19.088  48.324  10.216  1.00  0.00     0.062 A 
ATOM     17  C   UNL     1      18.731  49.028  11.375  1.00  0.00     0.158 A 
BRANCH  15  18
ATOM     18  O   UNL     1      17.775  51.025  12.398  1.00  0.00    -0.504 OA
ATOM     19  H   UNL     1      16.812  51.109  12.697  1.00  0.00     0.293 HD
ENDBRANCH  15  18
BRANCH  17  20
ATOM     20  O   UNL     1      18.955  48.469  12.632  1.00  0.00    -0.504 OA
ATOM     21  H   UNL     1      18.532  48.857  13.468  1.00  0.00     0.293 HD
ENDBRANCH  17  20
ENDBRANCH   1  12
BRANCH   2  22
ATOM     22  O   UNL     1      17.848  46.241   8.340  1.00  0.00    -0.502 OA
ATOM     23  H   UNL     1      17.665  45.246   8.310  1.00  0.00     0.293 HD
ENDBRANCH   2  22
BRANCH   6  24
ATOM     24  O   UNL     1      19.761  45.215   3.475  1.00  0.00    -0.507 OA
ATOM     25  H   UNL     1      18.954  44.726   3.831  1.00  0.00     0.293 HD
ENDBRANCH   6  24
BRANCH   8  26
ATOM     26  O   UNL     1      22.756  48.908   2.928  1.00  0.00    -0.508 OA
ATOM     27  H   UNL     1      22.511  49.321   2.036  1.00  0.00     0.293 HD
ENDBRANCH   8  26
TORSDOF 6
ENDMDL
MODEL 9
REMARK VINA RESULT:    -6.223      4.263      6.317
REMARK INTER + INTRA:          -7.781
REMARK INTER:                  -7.493
REMARK INTRA:                  -0.288
REMARK UNBOUND:                -0.285
REMARK SMILES O=c1c(O)c(-c2ccc(O)c(O)c2)oc2cc(O)cc(O)c12
REMARK SMILES IDX 5 1 3 2 2 3 1 4 22 5 20 6 19 7 17 8 16 9 15 10 14 11 6 12
REMARK SMILES IDX 7 13 8 14 9 15 13 16 11 17 10 18 12 20 4 22 21 24 18 26
REMARK H PARENT 10 19 12 21 4 23 21 25 18 27
REMARK Flexibility Score: inf
ROOT
ATOM      1  C   UNL     1      18.258  50.353   7.063  1.00  0.00     0.180 A 
ATOM      2  C   UNL     1      18.243  49.626   8.267  1.00  0.00     0.208 A 
ATOM      3  C   UNL     1      18.886  48.379   8.316  1.00  0.00     0.238 A 
ATOM      4  O   UNL     1      18.917  47.758   9.411  1.00  0.00    -0.285 OA
ATOM      5  C   UNL     1      19.522  47.867   7.160  1.00  0.00     0.111 A 
ATOM      6  C   UNL     1      20.170  46.597   7.086  1.00  0.00     0.134 A 
ATOM      7  C   UNL     1      20.877  46.250   5.929  1.00  0.00     0.093 A 
ATOM      8  C   UNL     1      20.908  47.097   4.821  1.00  0.00     0.123 A 
ATOM      9  C   UNL     1      20.228  48.314   4.861  1.00  0.00     0.094 A 
ATOM     10  C   UNL     1      19.543  48.705   6.014  1.00  0.00     0.146 A 
ATOM     11  O   UNL     1      18.917  49.876   6.015  1.00  0.00    -0.452 OA
ENDROOT
BRANCH   1  12
ATOM     12  C   UNL     1      17.580  51.662   6.926  1.00  0.00     0.025 A 
ATOM     13  C   UNL     1      18.213  52.821   7.404  1.00  0.00     0.016 A 
ATOM     14  C   UNL     1      17.601  54.070   7.266  1.00  0.00     0.051 A 
ATOM     15  C   UNL     1      16.358  54.183   6.637  1.00  0.00     0.157 A 
ATOM     16  C   UNL     1      16.339  51.781   6.274  1.00  0.00     0.062 A 
ATOM     17  C   UNL     1      15.724  53.033   6.134  1.00  0.00     0.158 A 
BRANCH  15  18
ATOM     18  O   UNL     1      15.771  55.442   6.516  1.00  0.00    -0.504 OA
ATOM     19  H   UNL     1      16.095  56.124   5.842  1.00  0.00     0.293 HD
ENDBRANCH  15  18
BRANCH  17  20
ATOM     20  O   UNL     1      14.491  53.142   5.492  1.00  0.00    -0.504 OA
ATOM     21  H   UNL     1      13.639  52.791   5.917  1.00  0.00     0.293 HD
ENDBRANCH  17  20
ENDBRANCH   1  12
BRANCH   2  22
ATOM     22  O   UNL     1      17.628  50.160   9.403  1.00  0.00    -0.502 OA
ATOM     23  H   UNL     1      17.142  51.048   9.392  1.00  0.00     0.293 HD
ENDBRANCH   2  22
BRANCH   6  24
ATOM     24  O   UNL     1      20.124  45.638   8.101  1.00  0.00    -0.507 OA
ATOM     25  H   UNL     1      19.539  44.816   8.090  1.00  0.00     0.293 HD
ENDBRANCH   6  24
BRANCH   8  26
ATOM     26  O   UNL     1      21.609  46.712   3.680  1.00  0.00    -0.508 OA
ATOM     27  H   UNL     1      22.209  47.359   3.184  1.00  0.00     0.293 HD
ENDBRANCH   8  26
TORSDOF 6
ENDMDL
