MODEL 1
REMARK VINA RESULT:    -5.051      0.000      0.000
REMARK INTER + INTRA:         -14.460
REMARK INTER:                 -10.956
REMARK INTRA:                  -3.504
REMARK UNBOUND:                -3.504
REMARK SMILES CCCCCCCCCCCCCCCCCCCCCC(=O)[O-]
REMARK SMILES IDX 12 1 11 2 10 3 9 4 8 5 7 6 6 7 5 8 4 9 3 10 2 11 1 12 13 13
REMARK SMILES IDX 14 14 15 15 16 16 17 17 18 18 19 19 20 20 21 21 22 22 23 23
REMARK SMILES IDX 24 24
REMARK H PARENT
REMARK Flexibility Score: inf
ROOT
ATOM      1  C   UNL     1      75.594  14.737  16.153  1.00  0.00     0.000 C 
ENDROOT
BRANCH   1   2
ATOM      2  C   UNL     1      74.797  15.905  15.544  1.00  0.00     0.000 C 
BRANCH   2   3
ATOM      3  C   UNL     1      75.304  17.274  16.025  1.00  0.00     0.000 C 
BRANCH   3   4
ATOM      4  C   UNL     1      76.160  17.993  14.970  1.00  0.00    -0.000 C 
BRANCH   4   5
ATOM      5  C   UNL     1      77.652  17.722  15.199  1.00  0.00    -0.000 C 
BRANCH   5   6
ATOM      6  C   UNL     1      77.977  17.655  16.699  1.00  0.00    -0.000 C 
BRANCH   6   7
ATOM      7  C   UNL     1      79.435  17.257  16.973  1.00  0.00    -0.000 C 
BRANCH   7   8
ATOM      8  C   UNL     1      79.560  15.881  17.644  1.00  0.00    -0.000 C 
BRANCH   8   9
ATOM      9  C   UNL     1      78.930  15.894  19.042  1.00  0.00    -0.000 C 
BRANCH   9  10
ATOM     10  C   UNL     1      80.004  16.038  20.129  1.00  0.00    -0.000 C 
BRANCH  10  11
ATOM     11  C   UNL     1      80.250  14.701  20.838  1.00  0.00    -0.003 C 
ATOM     12  C   UNL     1      81.678  14.212  20.612  1.00  0.00     0.004 C 
ENDBRANCH  10  11
ENDBRANCH   9  10
ENDBRANCH   8   9
ENDBRANCH   7   8
ENDBRANCH   6   7
ENDBRANCH   5   6
ENDBRANCH   4   5
ENDBRANCH   3   4
ENDBRANCH   2   3
ENDBRANCH   1   2
BRANCH   1  13
ATOM     13  C   UNL     1      75.750  14.862  17.677  1.00  0.00     0.000 C 
BRANCH  13  14
ATOM     14  C   UNL     1      74.486  14.426  18.440  1.00  0.00     0.000 C 
BRANCH  14  15
ATOM     15  C   UNL     1      74.112  12.955  18.158  1.00  0.00     0.000 C 
BRANCH  15  16
ATOM     16  C   UNL     1      74.239  12.034  19.386  1.00  0.00     0.000 C 
BRANCH  16  17
ATOM     17  C   UNL     1      75.505  11.160  19.410  1.00  0.00     0.000 C 
BRANCH  17  18
ATOM     18  C   UNL     1      76.516  11.606  20.477  1.00  0.00     0.000 C 
BRANCH  18  19
ATOM     19  C   UNL     1      77.555  12.566  19.880  1.00  0.00     0.000 C 
BRANCH  19  20
ATOM     20  C   UNL     1      78.548  11.860  18.938  1.00  0.00     0.006 C 
BRANCH  20  21
ATOM     21  C   UNL     1      78.506  12.359  17.485  1.00  0.00     0.053 C 
BRANCH  21  22
ATOM     22  C   UNL     1      77.920  11.339  16.558  1.00  0.00     0.041 C 
ATOM     23  O   UNL     1      76.764  11.501  16.087  1.00  0.00    -0.550 OA
ATOM     24  O   UNL     1      78.638  10.194  16.239  1.00  0.00    -0.550 OA
ENDBRANCH  21  22
ENDBRANCH  20  21
ENDBRANCH  19  20
ENDBRANCH  18  19
ENDBRANCH  17  18
ENDBRANCH  16  17
ENDBRANCH  15  16
ENDBRANCH  14  15
ENDBRANCH  13  14
ENDBRANCH   1  13
TORSDOF 20
ENDMDL
MODEL 2
REMARK VINA RESULT:    -5.017      2.326      5.909
REMARK INTER + INTRA:         -14.386
REMARK INTER:                 -11.242
REMARK INTRA:                  -3.144
REMARK UNBOUND:                -3.504
REMARK SMILES CCCCCCCCCCCCCCCCCCCCCC(=O)[O-]
REMARK SMILES IDX 12 1 11 2 10 3 9 4 8 5 7 6 6 7 5 8 4 9 3 10 2 11 1 12 13 13
REMARK SMILES IDX 14 14 15 15 16 16 17 17 18 18 19 19 20 20 21 21 22 22 23 23
REMARK SMILES IDX 24 24
REMARK H PARENT
REMARK Flexibility Score: inf
ROOT
ATOM      1  C   UNL     1      74.795  15.123  15.977  1.00  0.00     0.000 C 
ENDROOT
BRANCH   1   2
ATOM      2  C   UNL     1      74.865  15.272  17.507  1.00  0.00     0.000 C 
BRANCH   2   3
ATOM      3  C   UNL     1      75.270  13.964  18.206  1.00  0.00     0.000 C 
BRANCH   3   4
ATOM      4  C   UNL     1      74.058  13.123  18.638  1.00  0.00    -0.000 C 
BRANCH   4   5
ATOM      5  C   UNL     1      74.483  11.999  19.590  1.00  0.00    -0.000 C 
BRANCH   5   6
ATOM      6  C   UNL     1      75.982  12.089  19.915  1.00  0.00    -0.000 C 
BRANCH   6   7
ATOM      7  C   UNL     1      76.671  10.716  19.914  1.00  0.00    -0.000 C 
BRANCH   7   8
ATOM      8  C   UNL     1      76.351   9.890  18.659  1.00  0.00    -0.000 C 
BRANCH   8   9
ATOM      9  C   UNL     1      77.636   9.478  17.931  1.00  0.00    -0.000 C 
BRANCH   9  10
ATOM     10  C   UNL     1      77.683  10.072  16.517  1.00  0.00    -0.000 C 
BRANCH  10  11
ATOM     11  C   UNL     1      77.233  11.537  16.521  1.00  0.00    -0.003 C 
ATOM     12  C   UNL     1      76.604  11.924  15.186  1.00  0.00     0.004 C 
ENDBRANCH  10  11
ENDBRANCH   9  10
ENDBRANCH   8   9
ENDBRANCH   7   8
ENDBRANCH   6   7
ENDBRANCH   5   6
ENDBRANCH   4   5
ENDBRANCH   3   4
ENDBRANCH   2   3
ENDBRANCH   1   2
BRANCH   1  13
ATOM     13  C   UNL     1      74.852  16.476  15.251  1.00  0.00     0.000 C 
BRANCH  13  14
ATOM     14  C   UNL     1      75.500  17.581  16.105  1.00  0.00     0.000 C 
BRANCH  14  15
ATOM     15  C   UNL     1      76.883  18.003  15.565  1.00  0.00     0.000 C 
BRANCH  15  16
ATOM     16  C   UNL     1      78.033  17.792  16.568  1.00  0.00     0.000 C 
BRANCH  16  17
ATOM     17  C   UNL     1      78.462  16.327  16.762  1.00  0.00     0.000 C 
BRANCH  17  18
ATOM     18  C   UNL     1      78.521  15.915  18.240  1.00  0.00     0.000 C 
BRANCH  18  19
ATOM     19  C   UNL     1      78.596  14.388  18.381  1.00  0.00     0.000 C 
BRANCH  19  20
ATOM     20  C   UNL     1      79.185  13.941  19.732  1.00  0.00     0.006 C 
BRANCH  20  21
ATOM     21  C   UNL     1      80.004  15.023  20.454  1.00  0.00     0.053 C 
BRANCH  21  22
ATOM     22  C   UNL     1      81.477  14.829  20.269  1.00  0.00     0.041 C 
ATOM     23  O   UNL     1      82.026  15.144  19.181  1.00  0.00    -0.550 OA
ATOM     24  O   UNL     1      82.240  14.270  21.287  1.00  0.00    -0.550 OA
ENDBRANCH  21  22
ENDBRANCH  20  21
ENDBRANCH  19  20
ENDBRANCH  18  19
ENDBRANCH  17  18
ENDBRANCH  16  17
ENDBRANCH  15  16
ENDBRANCH  14  15
ENDBRANCH  13  14
ENDBRANCH   1  13
TORSDOF 20
ENDMDL
MODEL 3
REMARK VINA RESULT:    -5.017      2.385      3.662
REMARK INTER + INTRA:         -14.386
REMARK INTER:                 -10.503
REMARK INTRA:                  -3.882
REMARK UNBOUND:                -3.504
REMARK SMILES CCCCCCCCCCCCCCCCCCCCCC(=O)[O-]
REMARK SMILES IDX 12 1 11 2 10 3 9 4 8 5 7 6 6 7 5 8 4 9 3 10 2 11 1 12 13 13
REMARK SMILES IDX 14 14 15 15 16 16 17 17 18 18 19 19 20 20 21 21 22 22 23 23
REMARK SMILES IDX 24 24
REMARK H PARENT
REMARK Flexibility Score: inf
ROOT
ATOM      1  C   UNL     1      75.414  15.624  17.356  1.00  0.00     0.000 C 
ENDROOT
BRANCH   1   2
ATOM      2  C   UNL     1      74.701  15.364  16.017  1.00  0.00     0.000 C 
BRANCH   2   3
ATOM      3  C   UNL     1      75.077  16.398  14.942  1.00  0.00     0.000 C 
BRANCH   3   4
ATOM      4  C   UNL     1      75.475  17.756  15.541  1.00  0.00    -0.000 C 
BRANCH   4   5
ATOM      5  C   UNL     1      76.763  18.282  14.896  1.00  0.00    -0.000 C 
BRANCH   5   6
ATOM      6  C   UNL     1      77.922  18.290  15.904  1.00  0.00    -0.000 C 
BRANCH   6   7
ATOM      7  C   UNL     1      79.137  17.486  15.417  1.00  0.00    -0.000 C 
BRANCH   7   8
ATOM      8  C   UNL     1      78.742  16.248  14.598  1.00  0.00    -0.000 C 
BRANCH   8   9
ATOM      9  C   UNL     1      78.742  14.989  15.472  1.00  0.00    -0.000 C 
BRANCH   9  10
ATOM     10  C   UNL     1      77.763  13.940  14.929  1.00  0.00    -0.000 C 
BRANCH  10  11
ATOM     11  C   UNL     1      77.652  12.745  15.883  1.00  0.00    -0.003 C 
ATOM     12  C   UNL     1      76.902  11.587  15.232  1.00  0.00     0.004 C 
ENDBRANCH  10  11
ENDBRANCH   9  10
ENDBRANCH   8   9
ENDBRANCH   7   8
ENDBRANCH   6   7
ENDBRANCH   5   6
ENDBRANCH   4   5
ENDBRANCH   3   4
ENDBRANCH   2   3
ENDBRANCH   1   2
BRANCH   1  13
ATOM     13  C   UNL     1      75.473  14.370  18.243  1.00  0.00     0.000 C 
BRANCH  13  14
ATOM     14  C   UNL     1      74.497  13.271  17.784  1.00  0.00     0.000 C 
BRANCH  14  15
ATOM     15  C   UNL     1      74.789  11.912  18.455  1.00  0.00     0.000 C 
BRANCH  15  16
ATOM     16  C   UNL     1      74.960  11.997  19.984  1.00  0.00     0.000 C 
BRANCH  16  17
ATOM     17  C   UNL     1      76.363  11.633  20.499  1.00  0.00     0.000 C 
BRANCH  17  18
ATOM     18  C   UNL     1      77.252  11.011  19.412  1.00  0.00     0.000 C 
BRANCH  18  19
ATOM     19  C   UNL     1      78.508  11.863  19.178  1.00  0.00     0.000 C 
BRANCH  19  20
ATOM     20  C   UNL     1      78.541  13.131  20.053  1.00  0.00     0.006 C 
BRANCH  20  21
ATOM     21  C   UNL     1      79.045  14.387  19.326  1.00  0.00     0.053 C 
BRANCH  21  22
ATOM     22  C   UNL     1      80.065  15.131  20.132  1.00  0.00     0.041 C 
ATOM     23  O   UNL     1      80.552  14.612  21.171  1.00  0.00    -0.550 OA
ATOM     24  O   UNL     1      80.455  16.410  19.755  1.00  0.00    -0.550 OA
ENDBRANCH  21  22
ENDBRANCH  20  21
ENDBRANCH  19  20
ENDBRANCH  18  19
ENDBRANCH  17  18
ENDBRANCH  16  17
ENDBRANCH  15  16
ENDBRANCH  14  15
ENDBRANCH  13  14
ENDBRANCH   1  13
TORSDOF 20
ENDMDL
MODEL 4
REMARK VINA RESULT:    -5.007      2.157      6.107
REMARK INTER + INTRA:         -14.366
REMARK INTER:                 -10.339
REMARK INTRA:                  -4.026
REMARK UNBOUND:                -3.504
REMARK SMILES CCCCCCCCCCCCCCCCCCCCCC(=O)[O-]
REMARK SMILES IDX 12 1 11 2 10 3 9 4 8 5 7 6 6 7 5 8 4 9 3 10 2 11 1 12 13 13
REMARK SMILES IDX 14 14 15 15 16 16 17 17 18 18 19 19 20 20 21 21 22 22 23 23
REMARK SMILES IDX 24 24
REMARK H PARENT
REMARK Flexibility Score: inf
ROOT
ATOM      1  C   UNL     1      79.076  13.052  17.553  1.00  0.00     0.000 C 
ENDROOT
BRANCH   1   2
ATOM      2  C   UNL     1      77.635  13.575  17.694  1.00  0.00     0.000 C 
BRANCH   2   3
ATOM      3  C   UNL     1      76.802  13.352  16.421  1.00  0.00     0.000 C 
BRANCH   3   4
ATOM      4  C   UNL     1      75.315  13.111  16.721  1.00  0.00    -0.000 C 
BRANCH   4   5
ATOM      5  C   UNL     1      74.872  13.896  17.962  1.00  0.00    -0.000 C 
BRANCH   5   6
ATOM      6  C   UNL     1      74.024  13.019  18.896  1.00  0.00    -0.000 C 
BRANCH   6   7
ATOM      7  C   UNL     1      74.695  11.676  19.220  1.00  0.00    -0.000 C 
BRANCH   7   8
ATOM      8  C   UNL     1      75.819  11.809  20.259  1.00  0.00    -0.000 C 
BRANCH   8   9
ATOM      9  C   UNL     1      76.882  10.721  20.059  1.00  0.00    -0.000 C 
BRANCH   9  10
ATOM     10  C   UNL     1      76.538   9.828  18.860  1.00  0.00    -0.000 C 
BRANCH  10  11
ATOM     11  C   UNL     1      77.779   9.566  17.997  1.00  0.00    -0.003 C 
ATOM     12  C   UNL     1      77.474   9.773  16.516  1.00  0.00     0.004 C 
ENDBRANCH  10  11
ENDBRANCH   9  10
ENDBRANCH   8   9
ENDBRANCH   7   8
ENDBRANCH   6   7
ENDBRANCH   5   6
ENDBRANCH   4   5
ENDBRANCH   3   4
ENDBRANCH   2   3
ENDBRANCH   1   2
BRANCH   1  13
ATOM     13  C   UNL     1      79.748  12.807  18.913  1.00  0.00     0.000 C 
BRANCH  13  14
ATOM     14  C   UNL     1      79.105  13.623  20.049  1.00  0.00     0.000 C 
BRANCH  14  15
ATOM     15  C   UNL     1      80.101  14.609  20.697  1.00  0.00     0.000 C 
BRANCH  15  16
ATOM     16  C   UNL     1      80.649  15.670  19.723  1.00  0.00     0.000 C 
BRANCH  16  17
ATOM     17  C   UNL     1      79.710  16.862  19.471  1.00  0.00     0.000 C 
BRANCH  17  18
ATOM     18  C   UNL     1      79.976  17.554  18.126  1.00  0.00     0.000 C 
BRANCH  18  19
ATOM     19  C   UNL     1      79.608  16.632  16.953  1.00  0.00     0.000 C 
BRANCH  19  20
ATOM     20  C   UNL     1      78.742  17.335  15.892  1.00  0.00     0.006 C 
BRANCH  20  21
ATOM     21  C   UNL     1      77.706  16.422  15.216  1.00  0.00     0.053 C 
BRANCH  21  22
ATOM     22  C   UNL     1      76.303  16.886  15.462  1.00  0.00     0.041 C 
ATOM     23  O   UNL     1      75.347  16.380  14.820  1.00  0.00    -0.550 OA
ATOM     24  O   UNL     1      76.056  17.902  16.378  1.00  0.00    -0.550 OA
ENDBRANCH  21  22
ENDBRANCH  20  21
ENDBRANCH  19  20
ENDBRANCH  18  19
ENDBRANCH  17  18
ENDBRANCH  16  17
ENDBRANCH  15  16
ENDBRANCH  14  15
ENDBRANCH  13  14
ENDBRANCH   1  13
TORSDOF 20
ENDMDL
MODEL 5
REMARK VINA RESULT:    -4.999      2.324      6.143
REMARK INTER + INTRA:         -14.347
REMARK INTER:                 -11.129
REMARK INTRA:                  -3.218
REMARK UNBOUND:                -3.504
REMARK SMILES CCCCCCCCCCCCCCCCCCCCCC(=O)[O-]
REMARK SMILES IDX 12 1 11 2 10 3 9 4 8 5 7 6 6 7 5 8 4 9 3 10 2 11 1 12 13 13
REMARK SMILES IDX 14 14 15 15 16 16 17 17 18 18 19 19 20 20 21 21 22 22 23 23
REMARK SMILES IDX 24 24
REMARK H PARENT
REMARK Flexibility Score: inf
ROOT
ATOM      1  C   UNL     1      75.177  15.269  17.499  1.00  0.00     0.000 C 
ENDROOT
BRANCH   1   2
ATOM      2  C   UNL     1      75.505  13.976  18.267  1.00  0.00     0.000 C 
BRANCH   2   3
ATOM      3  C   UNL     1      74.243  13.181  18.641  1.00  0.00     0.000 C 
BRANCH   3   4
ATOM      4  C   UNL     1      74.552  11.962  19.524  1.00  0.00    -0.000 C 
BRANCH   4   5
ATOM      5  C   UNL     1      75.986  12.026  20.064  1.00  0.00    -0.000 C 
BRANCH   5   6
ATOM      6  C   UNL     1      76.679  10.659  19.952  1.00  0.00    -0.000 C 
BRANCH   6   7
ATOM      7  C   UNL     1      76.688  10.115  18.515  1.00  0.00    -0.000 C 
BRANCH   7   8
ATOM      8  C   UNL     1      77.595  10.926  17.578  1.00  0.00    -0.000 C 
BRANCH   8   9
ATOM      9  C   UNL     1      77.298  10.599  16.109  1.00  0.00    -0.000 C 
BRANCH   9  10
ATOM     10  C   UNL     1      76.773  11.833  15.365  1.00  0.00    -0.000 C 
BRANCH  10  11
ATOM     11  C   UNL     1      77.789  12.980  15.418  1.00  0.00    -0.003 C 
ATOM     12  C   UNL     1      77.929  13.656  14.057  1.00  0.00     0.004 C 
ENDBRANCH  10  11
ENDBRANCH   9  10
ENDBRANCH   8   9
ENDBRANCH   7   8
ENDBRANCH   6   7
ENDBRANCH   5   6
ENDBRANCH   4   5
ENDBRANCH   3   4
ENDBRANCH   2   3
ENDBRANCH   1   2
BRANCH   1  13
ATOM     13  C   UNL     1      74.955  15.022  15.998  1.00  0.00     0.000 C 
BRANCH  13  14
ATOM     14  C   UNL     1      74.567  16.302  15.237  1.00  0.00     0.000 C 
BRANCH  14  15
ATOM     15  C   UNL     1      75.215  17.564  15.847  1.00  0.00     0.000 C 
BRANCH  15  16
ATOM     16  C   UNL     1      76.620  17.871  15.296  1.00  0.00     0.000 C 
BRANCH  16  17
ATOM     17  C   UNL     1      77.740  17.885  16.351  1.00  0.00     0.000 C 
BRANCH  17  18
ATOM     18  C   UNL     1      78.604  16.616  16.318  1.00  0.00     0.000 C 
BRANCH  18  19
ATOM     19  C   UNL     1      78.708  15.987  17.714  1.00  0.00     0.000 C 
BRANCH  19  20
ATOM     20  C   UNL     1      79.566  16.821  18.683  1.00  0.00     0.006 C 
BRANCH  20  21
ATOM     21  C   UNL     1      79.744  16.192  20.074  1.00  0.00     0.053 C 
BRANCH  21  22
ATOM     22  C   UNL     1      80.959  15.320  20.145  1.00  0.00     0.041 C 
ATOM     23  O   UNL     1      81.095  14.499  21.090  1.00  0.00    -0.550 OA
ATOM     24  O   UNL     1      81.956  15.435  19.185  1.00  0.00    -0.550 OA
ENDBRANCH  21  22
ENDBRANCH  20  21
ENDBRANCH  19  20
ENDBRANCH  18  19
ENDBRANCH  17  18
ENDBRANCH  16  17
ENDBRANCH  15  16
ENDBRANCH  14  15
ENDBRANCH  13  14
ENDBRANCH   1  13
TORSDOF 20
ENDMDL
MODEL 6
REMARK VINA RESULT:    -4.980      2.020      5.081
REMARK INTER + INTRA:         -14.307
REMARK INTER:                 -10.886
REMARK INTRA:                  -3.421
REMARK UNBOUND:                -3.504
REMARK SMILES CCCCCCCCCCCCCCCCCCCCCC(=O)[O-]
REMARK SMILES IDX 12 1 11 2 10 3 9 4 8 5 7 6 6 7 5 8 4 9 3 10 2 11 1 12 13 13
REMARK SMILES IDX 14 14 15 15 16 16 17 17 18 18 19 19 20 20 21 21 22 22 23 23
REMARK SMILES IDX 24 24
REMARK H PARENT
REMARK Flexibility Score: inf
ROOT
ATOM      1  C   UNL     1      73.986  12.437  19.107  1.00  0.00     0.000 C 
ENDROOT
BRANCH   1   2
ATOM      2  C   UNL     1      75.129  11.412  19.218  1.00  0.00     0.000 C 
BRANCH   2   3
ATOM      3  C   UNL     1      76.097  11.736  20.367  1.00  0.00     0.000 C 
BRANCH   3   4
ATOM      4  C   UNL     1      77.536  11.281  20.076  1.00  0.00    -0.000 C 
BRANCH   4   5
ATOM      5  C   UNL     1      78.423  12.475  19.705  1.00  0.00    -0.000 C 
BRANCH   5   6
ATOM      6  C   UNL     1      78.543  12.621  18.181  1.00  0.00    -0.000 C 
BRANCH   6   7
ATOM      7  C   UNL     1      78.207  14.039  17.693  1.00  0.00    -0.000 C 
BRANCH   7   8
ATOM      8  C   UNL     1      78.033  15.039  18.846  1.00  0.00    -0.000 C 
BRANCH   8   9
ATOM      9  C   UNL     1      79.064  16.170  18.751  1.00  0.00    -0.000 C 
BRANCH   9  10
ATOM     10  C   UNL     1      79.918  16.245  20.023  1.00  0.00    -0.000 C 
BRANCH  10  11
ATOM     11  C   UNL     1      81.210  15.435  19.865  1.00  0.00    -0.003 C 
ATOM     12  C   UNL     1      81.320  14.357  20.941  1.00  0.00     0.004 C 
ENDBRANCH  10  11
ENDBRANCH   9  10
ENDBRANCH   8   9
ENDBRANCH   7   8
ENDBRANCH   6   7
ENDBRANCH   5   6
ENDBRANCH   4   5
ENDBRANCH   3   4
ENDBRANCH   2   3
ENDBRANCH   1   2
BRANCH   1  13
ATOM     13  C   UNL     1      74.327  13.598  18.159  1.00  0.00     0.000 C 
BRANCH  13  14
ATOM     14  C   UNL     1      75.039  13.128  16.877  1.00  0.00     0.000 C 
BRANCH  14  15
ATOM     15  C   UNL     1      74.906  14.149  15.727  1.00  0.00     0.000 C 
BRANCH  15  16
ATOM     16  C   UNL     1      75.007  15.617  16.183  1.00  0.00     0.000 C 
BRANCH  16  17
ATOM     17  C   UNL     1      74.973  16.651  15.045  1.00  0.00     0.000 C 
BRANCH  17  18
ATOM     18  C   UNL     1      75.866  17.870  15.322  1.00  0.00     0.000 C 
BRANCH  18  19
ATOM     19  C   UNL     1      77.236  17.433  15.863  1.00  0.00     0.000 C 
BRANCH  19  20
ATOM     20  C   UNL     1      78.252  17.136  14.745  1.00  0.00     0.006 C 
BRANCH  20  21
ATOM     21  C   UNL     1      78.528  15.640  14.522  1.00  0.00     0.053 C 
BRANCH  21  22
ATOM     22  C   UNL     1      79.992  15.353  14.392  1.00  0.00     0.041 C 
ATOM     23  O   UNL     1      80.686  15.972  13.543  1.00  0.00    -0.550 OA
ATOM     24  O   UNL     1      80.584  14.379  15.185  1.00  0.00    -0.550 OA
ENDBRANCH  21  22
ENDBRANCH  20  21
ENDBRANCH  19  20
ENDBRANCH  18  19
ENDBRANCH  17  18
ENDBRANCH  16  17
ENDBRANCH  15  16
ENDBRANCH  14  15
ENDBRANCH  13  14
ENDBRANCH   1  13
TORSDOF 20
ENDMDL
MODEL 7
REMARK VINA RESULT:    -4.974      1.488      4.987
REMARK INTER + INTRA:         -14.294
REMARK INTER:                 -10.650
REMARK INTRA:                  -3.644
REMARK UNBOUND:                -3.504
REMARK SMILES CCCCCCCCCCCCCCCCCCCCCC(=O)[O-]
REMARK SMILES IDX 12 1 11 2 10 3 9 4 8 5 7 6 6 7 5 8 4 9 3 10 2 11 1 12 13 13
REMARK SMILES IDX 14 14 15 15 16 16 17 17 18 18 19 19 20 20 21 21 22 22 23 23
REMARK SMILES IDX 24 24
REMARK H PARENT
REMARK Flexibility Score: inf
ROOT
ATOM      1  C   UNL     1      75.722  14.988  17.404  1.00  0.00     0.000 C 
ENDROOT
BRANCH   1   2
ATOM      2  C   UNL     1      74.939  14.592  18.669  1.00  0.00     0.000 C 
BRANCH   2   3
ATOM      3  C   UNL     1      74.044  13.363  18.444  1.00  0.00     0.000 C 
BRANCH   3   4
ATOM      4  C   UNL     1      74.324  12.234  19.448  1.00  0.00    -0.000 C 
BRANCH   4   5
ATOM      5  C   UNL     1      75.254  11.178  18.838  1.00  0.00    -0.000 C 
BRANCH   5   6
ATOM      6  C   UNL     1      76.437  10.881  19.771  1.00  0.00    -0.000 C 
BRANCH   6   7
ATOM      7  C   UNL     1      77.125  12.156  20.281  1.00  0.00    -0.000 C 
BRANCH   7   8
ATOM      8  C   UNL     1      78.158  12.712  19.289  1.00  0.00    -0.000 C 
BRANCH   8   9
ATOM      9  C   UNL     1      79.018  13.799  19.945  1.00  0.00    -0.000 C 
BRANCH   9  10
ATOM     10  C   UNL     1      78.879  15.135  19.204  1.00  0.00    -0.000 C 
BRANCH  10  11
ATOM     11  C   UNL     1      80.067  16.056  19.503  1.00  0.00    -0.003 C 
ATOM     12  C   UNL     1      81.259  15.264  20.034  1.00  0.00     0.004 C 
ENDBRANCH  10  11
ENDBRANCH   9  10
ENDBRANCH   8   9
ENDBRANCH   7   8
ENDBRANCH   6   7
ENDBRANCH   5   6
ENDBRANCH   4   5
ENDBRANCH   3   4
ENDBRANCH   2   3
ENDBRANCH   1   2
BRANCH   1  13
ATOM     13  C   UNL     1      75.115  14.387  16.125  1.00  0.00     0.000 C 
BRANCH  13  14
ATOM     14  C   UNL     1      75.100  15.382  14.951  1.00  0.00     0.000 C 
BRANCH  14  15
ATOM     15  C   UNL     1      74.920  16.841  15.424  1.00  0.00     0.000 C 
BRANCH  15  16
ATOM     16  C   UNL     1      76.081  17.772  15.027  1.00  0.00     0.000 C 
BRANCH  16  17
ATOM     17  C   UNL     1      76.916  18.301  16.206  1.00  0.00     0.000 C 
BRANCH  17  18
ATOM     18  C   UNL     1      78.223  17.519  16.408  1.00  0.00     0.000 C 
BRANCH  18  19
ATOM     19  C   UNL     1      78.616  16.769  15.127  1.00  0.00     0.000 C 
BRANCH  19  20
ATOM     20  C   UNL     1      78.845  15.264  15.364  1.00  0.00     0.006 C 
BRANCH  20  21
ATOM     21  C   UNL     1      78.543  14.379  14.144  1.00  0.00     0.053 C 
BRANCH  21  22
ATOM     22  C   UNL     1      78.341  12.946  14.527  1.00  0.00     0.041 C 
ATOM     23  O   UNL     1      78.178  12.629  15.734  1.00  0.00    -0.550 OA
ATOM     24  O   UNL     1      78.366  11.955  13.554  1.00  0.00    -0.550 OA
ENDBRANCH  21  22
ENDBRANCH  20  21
ENDBRANCH  19  20
ENDBRANCH  18  19
ENDBRANCH  17  18
ENDBRANCH  16  17
ENDBRANCH  15  16
ENDBRANCH  14  15
ENDBRANCH  13  14
ENDBRANCH   1  13
TORSDOF 20
ENDMDL
MODEL 8
REMARK VINA RESULT:    -4.962      2.161      4.494
REMARK INTER + INTRA:         -14.267
REMARK INTER:                 -10.543
REMARK INTRA:                  -3.725
REMARK UNBOUND:                -3.504
REMARK SMILES CCCCCCCCCCCCCCCCCCCCCC(=O)[O-]
REMARK SMILES IDX 12 1 11 2 10 3 9 4 8 5 7 6 6 7 5 8 4 9 3 10 2 11 1 12 13 13
REMARK SMILES IDX 14 14 15 15 16 16 17 17 18 18 19 19 20 20 21 21 22 22 23 23
REMARK SMILES IDX 24 24
REMARK H PARENT
REMARK Flexibility Score: inf
ROOT
ATOM      1  C   UNL     1      78.708  11.892  18.888  1.00  0.00     0.000 C 
ENDROOT
BRANCH   1   2
ATOM      2  C   UNL     1      78.200  11.170  17.627  1.00  0.00     0.000 C 
BRANCH   2   3
ATOM      3  C   UNL     1      77.542  12.133  16.625  1.00  0.00     0.000 C 
BRANCH   3   4
ATOM      4  C   UNL     1      78.568  12.870  15.750  1.00  0.00    -0.000 C 
BRANCH   4   5
ATOM      5  C   UNL     1      78.509  14.382  15.995  1.00  0.00    -0.000 C 
BRANCH   5   6
ATOM      6  C   UNL     1      79.599  14.824  16.983  1.00  0.00    -0.000 C 
BRANCH   6   7
ATOM      7  C   UNL     1      79.210  16.084  17.771  1.00  0.00    -0.000 C 
BRANCH   7   8
ATOM      8  C   UNL     1      78.780  15.775  19.212  1.00  0.00    -0.000 C 
BRANCH   8   9
ATOM      9  C   UNL     1      79.951  15.958  20.185  1.00  0.00    -0.000 C 
BRANCH   9  10
ATOM     10  C   UNL     1      80.261  14.652  20.928  1.00  0.00    -0.000 C 
BRANCH  10  11
ATOM     11  C   UNL     1      81.767  14.365  20.929  1.00  0.00    -0.003 C 
ATOM     12  C   UNL     1      82.382  14.643  19.560  1.00  0.00     0.004 C 
ENDBRANCH  10  11
ENDBRANCH   9  10
ENDBRANCH   8   9
ENDBRANCH   7   8
ENDBRANCH   6   7
ENDBRANCH   5   6
ENDBRANCH   4   5
ENDBRANCH   3   4
ENDBRANCH   2   3
ENDBRANCH   1   2
BRANCH   1  13
ATOM     13  C   UNL     1      77.564  12.482  19.729  1.00  0.00     0.000 C 
BRANCH  13  14
ATOM     14  C   UNL     1      76.545  11.418  20.174  1.00  0.00     0.000 C 
BRANCH  14  15
ATOM     15  C   UNL     1      75.090  11.929  20.087  1.00  0.00     0.000 C 
BRANCH  15  16
ATOM     16  C   UNL     1      74.638  12.281  18.657  1.00  0.00     0.000 C 
BRANCH  16  17
ATOM     17  C   UNL     1      74.137  13.724  18.474  1.00  0.00     0.000 C 
BRANCH  17  18
ATOM     18  C   UNL     1      75.117  14.596  17.675  1.00  0.00     0.000 C 
BRANCH  18  19
ATOM     19  C   UNL     1      74.807  14.533  16.173  1.00  0.00     0.000 C 
BRANCH  19  20
ATOM     20  C   UNL     1      75.087  15.864  15.450  1.00  0.00     0.006 C 
BRANCH  20  21
ATOM     21  C   UNL     1      75.500  17.015  16.380  1.00  0.00     0.053 C 
BRANCH  21  22
ATOM     22  C   UNL     1      76.669  17.781  15.841  1.00  0.00     0.041 C 
ATOM     23  O   UNL     1      77.173  17.468  14.731  1.00  0.00    -0.550 OA
ATOM     24  O   UNL     1      77.221  18.820  16.579  1.00  0.00    -0.550 OA
ENDBRANCH  21  22
ENDBRANCH  20  21
ENDBRANCH  19  20
ENDBRANCH  18  19
ENDBRANCH  17  18
ENDBRANCH  16  17
ENDBRANCH  15  16
ENDBRANCH  14  15
ENDBRANCH  13  14
ENDBRANCH   1  13
TORSDOF 20
ENDMDL
MODEL 9
REMARK VINA RESULT:    -4.860      1.565      4.454
REMARK INTER + INTRA:         -14.047
REMARK INTER:                 -10.035
REMARK INTRA:                  -4.012
REMARK UNBOUND:                -3.504
REMARK SMILES CCCCCCCCCCCCCCCCCCCCCC(=O)[O-]
REMARK SMILES IDX 12 1 11 2 10 3 9 4 8 5 7 6 6 7 5 8 4 9 3 10 2 11 1 12 13 13
REMARK SMILES IDX 14 14 15 15 16 16 17 17 18 18 19 19 20 20 21 21 22 22 23 23
REMARK SMILES IDX 24 24
REMARK H PARENT
REMARK Flexibility Score: inf
ROOT
ATOM      1  C   UNL     1      77.981  11.735  19.754  1.00  0.00     0.000 C 
ENDROOT
BRANCH   1   2
ATOM      2  C   UNL     1      78.136  12.533  18.446  1.00  0.00     0.000 C 
BRANCH   2   3
ATOM      3  C   UNL     1      79.565  12.469  17.886  1.00  0.00     0.000 C 
BRANCH   3   4
ATOM      4  C   UNL     1      80.635  12.467  18.989  1.00  0.00    -0.000 C 
BRANCH   4   5
ATOM      5  C   UNL     1      81.610  13.637  18.808  1.00  0.00    -0.000 C 
BRANCH   5   6
ATOM      6  C   UNL     1      81.739  14.452  20.104  1.00  0.00    -0.000 C 
BRANCH   6   7
ATOM      7  C   UNL     1      80.407  14.585  20.857  1.00  0.00    -0.000 C 
BRANCH   7   8
ATOM      8  C   UNL     1      79.437  15.565  20.180  1.00  0.00    -0.000 C 
BRANCH   8   9
ATOM      9  C   UNL     1      80.169  16.831  19.718  1.00  0.00    -0.000 C 
BRANCH   9  10
ATOM     10  C   UNL     1      79.822  17.169  18.262  1.00  0.00    -0.000 C 
BRANCH  10  11
ATOM     11  C   UNL     1      78.803  16.173  17.695  1.00  0.00    -0.003 C 
ATOM     12  C   UNL     1      79.186  15.736  16.284  1.00  0.00     0.004 C 
ENDBRANCH  10  11
ENDBRANCH   9  10
ENDBRANCH   8   9
ENDBRANCH   7   8
ENDBRANCH   6   7
ENDBRANCH   5   6
ENDBRANCH   4   5
ENDBRANCH   3   4
ENDBRANCH   2   3
ENDBRANCH   1   2
BRANCH   1  13
ATOM     13  C   UNL     1      76.535  11.737  20.276  1.00  0.00     0.000 C 
BRANCH  13  14
ATOM     14  C   UNL     1      75.503  11.475  19.165  1.00  0.00     0.000 C 
BRANCH  14  15
ATOM     15  C   UNL     1      74.227  12.328  19.340  1.00  0.00     0.000 C 
BRANCH  15  16
ATOM     16  C   UNL     1      74.034  13.391  18.242  1.00  0.00     0.000 C 
BRANCH  16  17
ATOM     17  C   UNL     1      75.044  14.551  18.280  1.00  0.00     0.000 C 
BRANCH  17  18
ATOM     18  C   UNL     1      75.340  15.128  16.888  1.00  0.00     0.000 C 
BRANCH  18  19
ATOM     19  C   UNL     1      75.116  14.070  15.798  1.00  0.00     0.000 C 
BRANCH  19  20
ATOM     20  C   UNL     1      76.434  13.527  15.215  1.00  0.00     0.006 C 
BRANCH  20  21
ATOM     21  C   UNL     1      76.560  11.996  15.256  1.00  0.00     0.053 C 
BRANCH  21  22
ATOM     22  C   UNL     1      77.760  11.510  14.503  1.00  0.00     0.041 C 
ATOM     23  O   UNL     1      77.766  10.358  13.996  1.00  0.00    -0.550 OA
ATOM     24  O   UNL     1      78.884  12.318  14.388  1.00  0.00    -0.550 OA
ENDBRANCH  21  22
ENDBRANCH  20  21
ENDBRANCH  19  20
ENDBRANCH  18  19
ENDBRANCH  17  18
ENDBRANCH  16  17
ENDBRANCH  15  16
ENDBRANCH  14  15
ENDBRANCH  13  14
ENDBRANCH   1  13
TORSDOF 20
ENDMDL
