MODEL 1
REMARK VINA RESULT:    -7.292      0.000      0.000
REMARK INTER + INTRA:          -8.858
REMARK INTER:                  -8.571
REMARK INTRA:                  -0.287
REMARK UNBOUND:                -0.287
REMARK SMILES O=c1cc(-c2ccc(O)c(O)c2)oc2cc(O)cc(O)c12
REMARK SMILES IDX 4 1 3 2 2 3 1 4 21 5 19 6 18 7 16 8 15 9 14 10 13 11 5 12
REMARK SMILES IDX 6 13 7 14 8 15 12 16 10 17 9 18 11 20 20 22 17 24
REMARK H PARENT 9 19 11 21 20 23 17 25
REMARK Flexibility Score: inf
ROOT
ATOM      1  C   UNL     1      15.764  19.586  18.848  1.00  0.00     0.138 A 
ATOM      2  C   UNL     1      16.276  20.856  19.146  1.00  0.00     0.100 A 
ATOM      3  C   UNL     1      15.587  21.687  20.031  1.00  0.00     0.197 A 
ATOM      4  O   UNL     1      16.102  22.796  20.327  1.00  0.00    -0.289 OA
ATOM      5  C   UNL     1      14.363  21.255  20.593  1.00  0.00     0.107 A 
ATOM      6  C   UNL     1      13.554  22.033  21.475  1.00  0.00     0.134 A 
ATOM      7  C   UNL     1      12.420  21.456  22.062  1.00  0.00     0.093 A 
ATOM      8  C   UNL     1      12.034  20.152  21.753  1.00  0.00     0.123 A 
ATOM      9  C   UNL     1      12.787  19.401  20.851  1.00  0.00     0.094 A 
ATOM     10  C   UNL     1      13.942  19.936  20.276  1.00  0.00     0.146 A 
ATOM     11  O   UNL     1      14.641  19.182  19.432  1.00  0.00    -0.456 OA
ENDROOT
BRANCH   1  12
ATOM     12  C   UNL     1      16.455  18.663  17.913  1.00  0.00     0.021 A 
ATOM     13  C   UNL     1      16.856  19.130  16.649  1.00  0.00     0.016 A 
ATOM     14  C   UNL     1      17.513  18.282  15.753  1.00  0.00     0.051 A 
ATOM     15  C   UNL     1      17.791  16.958  16.110  1.00  0.00     0.157 A 
ATOM     16  C   UNL     1      16.749  17.332  18.269  1.00  0.00     0.062 A 
ATOM     17  C   UNL     1      17.411  16.482  17.371  1.00  0.00     0.158 A 
BRANCH  15  18
ATOM     18  O   UNL     1      18.446  16.109  15.219  1.00  0.00    -0.504 OA
ATOM     19  H   UNL     1      19.311  16.382  14.766  1.00  0.00     0.293 HD
ENDBRANCH  15  18
BRANCH  17  20
ATOM     20  O   UNL     1      17.699  15.166  17.726  1.00  0.00    -0.504 OA
ATOM     21  H   UNL     1      16.993  14.558  18.126  1.00  0.00     0.293 HD
ENDBRANCH  17  20
ENDBRANCH   1  12
BRANCH   6  22
ATOM     22  O   UNL     1      13.802  23.373  21.785  1.00  0.00    -0.507 OA
ATOM     23  H   UNL     1      14.216  24.044  21.155  1.00  0.00     0.293 HD
ENDBRANCH   6  22
BRANCH   8  24
ATOM     24  O   UNL     1      10.892  19.616  22.344  1.00  0.00    -0.508 OA
ATOM     25  H   UNL     1       9.991  20.075  22.270  1.00  0.00     0.293 HD
ENDBRANCH   8  24
TORSDOF 5
ENDMDL
MODEL 2
REMARK VINA RESULT:    -7.286      4.138      7.371
REMARK INTER + INTRA:          -8.851
REMARK INTER:                  -8.586
REMARK INTRA:                  -0.265
REMARK UNBOUND:                -0.287
REMARK SMILES O=c1cc(-c2ccc(O)c(O)c2)oc2cc(O)cc(O)c12
REMARK SMILES IDX 4 1 3 2 2 3 1 4 21 5 19 6 18 7 16 8 15 9 14 10 13 11 5 12
REMARK SMILES IDX 6 13 7 14 8 15 12 16 10 17 9 18 11 20 20 22 17 24
REMARK H PARENT 9 19 11 21 20 23 17 25
REMARK Flexibility Score: inf
ROOT
ATOM      1  C   UNL     1      16.963  13.981  17.862  1.00  0.00     0.138 A 
ATOM      2  C   UNL     1      17.326  13.913  16.510  1.00  0.00     0.100 A 
ATOM      3  C   UNL     1      17.662  15.083  15.827  1.00  0.00     0.197 A 
ATOM      4  O   UNL     1      18.043  14.984  14.632  1.00  0.00    -0.289 OA
ATOM      5  C   UNL     1      17.601  16.329  16.494  1.00  0.00     0.107 A 
ATOM      6  C   UNL     1      17.883  17.590  15.887  1.00  0.00     0.134 A 
ATOM      7  C   UNL     1      17.904  18.747  16.677  1.00  0.00     0.093 A 
ATOM      8  C   UNL     1      17.597  18.697  18.036  1.00  0.00     0.123 A 
ATOM      9  C   UNL     1      17.269  17.477  18.629  1.00  0.00     0.094 A 
ATOM     10  C   UNL     1      17.272  16.302  17.876  1.00  0.00     0.146 A 
ATOM     11  O   UNL     1      16.968  15.157  18.481  1.00  0.00    -0.456 OA
ENDROOT
BRANCH   1  12
ATOM     12  C   UNL     1      16.595  12.769  18.636  1.00  0.00     0.021 A 
ATOM     13  C   UNL     1      15.296  12.651  19.163  1.00  0.00     0.016 A 
ATOM     14  C   UNL     1      14.923  11.518  19.889  1.00  0.00     0.051 A 
ATOM     15  C   UNL     1      15.838  10.478  20.093  1.00  0.00     0.157 A 
ATOM     16  C   UNL     1      17.505  11.712  18.835  1.00  0.00     0.062 A 
ATOM     17  C   UNL     1      17.130  10.574  19.563  1.00  0.00     0.158 A 
BRANCH  15  18
ATOM     18  O   UNL     1      15.469   9.346  20.818  1.00  0.00    -0.504 OA
ATOM     19  H   UNL     1      14.763   8.703  20.476  1.00  0.00     0.293 HD
ENDBRANCH  15  18
BRANCH  17  20
ATOM     20  O   UNL     1      18.033   9.531  19.759  1.00  0.00    -0.504 OA
ATOM     21  H   UNL     1      17.826   8.585  19.458  1.00  0.00     0.293 HD
ENDBRANCH  17  20
ENDBRANCH   1  12
BRANCH   6  22
ATOM     22  O   UNL     1      18.119  17.764  14.521  1.00  0.00    -0.507 OA
ATOM     23  H   UNL     1      18.609  17.109  13.931  1.00  0.00     0.293 HD
ENDBRANCH   6  22
BRANCH   8  24
ATOM     24  O   UNL     1      17.614  19.870  18.787  1.00  0.00    -0.508 OA
ATOM     25  H   UNL     1      18.446  20.445  18.854  1.00  0.00     0.293 HD
ENDBRANCH   8  24
TORSDOF 5
ENDMDL
MODEL 3
REMARK VINA RESULT:    -7.254      2.752      6.971
REMARK INTER + INTRA:          -8.813
REMARK INTER:                  -8.520
REMARK INTRA:                  -0.293
REMARK UNBOUND:                -0.287
REMARK SMILES O=c1cc(-c2ccc(O)c(O)c2)oc2cc(O)cc(O)c12
REMARK SMILES IDX 4 1 3 2 2 3 1 4 21 5 19 6 18 7 16 8 15 9 14 10 13 11 5 12
REMARK SMILES IDX 6 13 7 14 8 15 12 16 10 17 9 18 11 20 20 22 17 24
REMARK H PARENT 9 19 11 21 20 23 17 25
REMARK Flexibility Score: inf
ROOT
ATOM      1  C   UNL     1      16.920  19.211  17.731  1.00  0.00     0.138 A 
ATOM      2  C   UNL     1      17.456  18.984  16.456  1.00  0.00     0.100 A 
ATOM      3  C   UNL     1      17.760  17.681  16.058  1.00  0.00     0.197 A 
ATOM      4  O   UNL     1      18.182  17.502  14.886  1.00  0.00    -0.289 OA
ATOM      5  C   UNL     1      17.557  16.606  16.955  1.00  0.00     0.107 A 
ATOM      6  C   UNL     1      17.869  15.242  16.672  1.00  0.00     0.134 A 
ATOM      7  C   UNL     1      17.515  14.248  17.593  1.00  0.00     0.093 A 
ATOM      8  C   UNL     1      16.916  14.573  18.810  1.00  0.00     0.123 A 
ATOM      9  C   UNL     1      16.655  15.908  19.119  1.00  0.00     0.094 A 
ATOM     10  C   UNL     1      16.964  16.919  18.207  1.00  0.00     0.146 A 
ATOM     11  O   UNL     1      16.686  18.178  18.534  1.00  0.00    -0.456 OA
ENDROOT
BRANCH   1  12
ATOM     12  C   UNL     1      16.579  20.575  18.206  1.00  0.00     0.021 A 
ATOM     13  C   UNL     1      16.417  20.808  19.583  1.00  0.00     0.016 A 
ATOM     14  C   UNL     1      16.102  22.085  20.057  1.00  0.00     0.051 A 
ATOM     15  C   UNL     1      15.956  23.152  19.163  1.00  0.00     0.157 A 
ATOM     16  C   UNL     1      16.442  21.657  17.315  1.00  0.00     0.062 A 
ATOM     17  C   UNL     1      16.129  22.939  17.791  1.00  0.00     0.158 A 
BRANCH  15  18
ATOM     18  O   UNL     1      15.642  24.427  19.632  1.00  0.00    -0.504 OA
ATOM     19  H   UNL     1      15.736  24.670  20.612  1.00  0.00     0.293 HD
ENDBRANCH  15  18
BRANCH  17  20
ATOM     20  O   UNL     1      15.992  24.007  16.906  1.00  0.00    -0.504 OA
ATOM     21  H   UNL     1      15.517  23.901  16.016  1.00  0.00     0.293 HD
ENDBRANCH  17  20
ENDBRANCH   1  12
BRANCH   6  22
ATOM     22  O   UNL     1      18.543  14.817  15.524  1.00  0.00    -0.507 OA
ATOM     23  H   UNL     1      19.196  14.048  15.489  1.00  0.00     0.293 HD
ENDBRANCH   6  22
BRANCH   8  24
ATOM     24  O   UNL     1      16.592  13.559  19.708  1.00  0.00    -0.508 OA
ATOM     25  H   UNL     1      16.945  13.559  20.658  1.00  0.00     0.293 HD
ENDBRANCH   8  24
TORSDOF 5
ENDMDL
MODEL 4
REMARK VINA RESULT:    -7.057      3.875      6.932
REMARK INTER + INTRA:          -8.582
REMARK INTER:                  -8.312
REMARK INTRA:                  -0.270
REMARK UNBOUND:                -0.287
REMARK SMILES O=c1cc(-c2ccc(O)c(O)c2)oc2cc(O)cc(O)c12
REMARK SMILES IDX 4 1 3 2 2 3 1 4 21 5 19 6 18 7 16 8 15 9 14 10 13 11 5 12
REMARK SMILES IDX 6 13 7 14 8 15 12 16 10 17 9 18 11 20 20 22 17 24
REMARK H PARENT 9 19 11 21 20 23 17 25
REMARK Flexibility Score: inf
ROOT
ATOM      1  C   UNL     1      18.086  14.512  15.406  1.00  0.00     0.138 A 
ATOM      2  C   UNL     1      17.590  13.934  16.582  1.00  0.00     0.100 A 
ATOM      3  C   UNL     1      17.058  14.750  17.580  1.00  0.00     0.197 A 
ATOM      4  O   UNL     1      16.564  14.199  18.598  1.00  0.00    -0.289 OA
ATOM      5  C   UNL     1      17.053  16.155  17.413  1.00  0.00     0.107 A 
ATOM      6  C   UNL     1      16.573  17.088  18.381  1.00  0.00     0.134 A 
ATOM      7  C   UNL     1      16.510  18.449  18.056  1.00  0.00     0.093 A 
ATOM      8  C   UNL     1      16.965  18.918  16.824  1.00  0.00     0.123 A 
ATOM      9  C   UNL     1      17.485  18.021  15.890  1.00  0.00     0.094 A 
ATOM     10  C   UNL     1      17.529  16.654  16.170  1.00  0.00     0.146 A 
ATOM     11  O   UNL     1      18.020  15.830  15.249  1.00  0.00    -0.456 OA
ENDROOT
BRANCH   1  12
ATOM     12  C   UNL     1      18.664  13.691  14.312  1.00  0.00     0.021 A 
ATOM     13  C   UNL     1      18.132  13.792  13.015  1.00  0.00     0.016 A 
ATOM     14  C   UNL     1      18.662  13.036  11.967  1.00  0.00     0.051 A 
ATOM     15  C   UNL     1      19.741  12.173  12.196  1.00  0.00     0.157 A 
ATOM     16  C   UNL     1      19.758  12.831  14.531  1.00  0.00     0.062 A 
ATOM     17  C   UNL     1      20.292  12.073  13.478  1.00  0.00     0.158 A 
BRANCH  15  18
ATOM     18  O   UNL     1      20.272  11.417  11.152  1.00  0.00    -0.504 OA
ATOM     19  H   UNL     1      20.268  11.754  10.197  1.00  0.00     0.293 HD
ENDBRANCH  15  18
BRANCH  17  20
ATOM     20  O   UNL     1      21.372  11.221  13.699  1.00  0.00    -0.504 OA
ATOM     21  H   UNL     1      21.350  10.511  14.423  1.00  0.00     0.293 HD
ENDBRANCH  17  20
ENDBRANCH   1  12
BRANCH   6  22
ATOM     22  O   UNL     1      16.174  16.737  19.673  1.00  0.00    -0.507 OA
ATOM     23  H   UNL     1      16.627  17.044  20.521  1.00  0.00     0.293 HD
ENDBRANCH   6  22
BRANCH   8  24
ATOM     24  O   UNL     1      16.901  20.280  16.541  1.00  0.00    -0.508 OA
ATOM     25  H   UNL     1      16.513  20.623  15.670  1.00  0.00     0.293 HD
ENDBRANCH   8  24
TORSDOF 5
ENDMDL
MODEL 5
REMARK VINA RESULT:    -6.946      2.980      8.647
REMARK INTER + INTRA:          -8.452
REMARK INTER:                  -8.161
REMARK INTRA:                  -0.291
REMARK UNBOUND:                -0.287
REMARK SMILES O=c1cc(-c2ccc(O)c(O)c2)oc2cc(O)cc(O)c12
REMARK SMILES IDX 4 1 3 2 2 3 1 4 21 5 19 6 18 7 16 8 15 9 14 10 13 11 5 12
REMARK SMILES IDX 6 13 7 14 8 15 12 16 10 17 9 18 11 20 20 22 17 24
REMARK H PARENT 9 19 11 21 20 23 17 25
REMARK Flexibility Score: inf
ROOT
ATOM      1  C   UNL     1      17.216  16.185  16.619  1.00  0.00     0.138 A 
ATOM      2  C   UNL     1      17.168  15.118  17.526  1.00  0.00     0.100 A 
ATOM      3  C   UNL     1      17.413  13.820  17.078  1.00  0.00     0.197 A 
ATOM      4  O   UNL     1      17.424  12.891  17.927  1.00  0.00    -0.289 OA
ATOM      5  C   UNL     1      17.674  13.586  15.707  1.00  0.00     0.107 A 
ATOM      6  C   UNL     1      17.899  12.300  15.130  1.00  0.00     0.134 A 
ATOM      7  C   UNL     1      18.264  12.202  13.781  1.00  0.00     0.093 A 
ATOM      8  C   UNL     1      18.355  13.337  12.976  1.00  0.00     0.123 A 
ATOM      9  C   UNL     1      18.086  14.595  13.517  1.00  0.00     0.094 A 
ATOM     10  C   UNL     1      17.753  14.728  14.866  1.00  0.00     0.146 A 
ATOM     11  O   UNL     1      17.518  15.946  15.347  1.00  0.00    -0.456 OA
ENDROOT
BRANCH   1  12
ATOM     12  C   UNL     1      16.962  17.585  17.041  1.00  0.00     0.021 A 
ATOM     13  C   UNL     1      17.501  18.644  16.288  1.00  0.00     0.016 A 
ATOM     14  C   UNL     1      17.272  19.970  16.660  1.00  0.00     0.051 A 
ATOM     15  C   UNL     1      16.491  20.262  17.785  1.00  0.00     0.157 A 
ATOM     16  C   UNL     1      16.168  17.888  18.164  1.00  0.00     0.062 A 
ATOM     17  C   UNL     1      15.936  19.220  18.536  1.00  0.00     0.158 A 
BRANCH  15  18
ATOM     18  O   UNL     1      16.261  21.585  18.159  1.00  0.00    -0.504 OA
ATOM     19  H   UNL     1      16.834  22.344  17.807  1.00  0.00     0.293 HD
ENDBRANCH  15  18
BRANCH  17  20
ATOM     20  O   UNL     1      15.151  19.516  19.649  1.00  0.00    -0.504 OA
ATOM     21  H   UNL     1      14.934  20.473  19.906  1.00  0.00     0.293 HD
ENDBRANCH  17  20
ENDBRANCH   1  12
BRANCH   6  22
ATOM     22  O   UNL     1      17.751  11.096  15.824  1.00  0.00    -0.507 OA
ATOM     23  H   UNL     1      16.914  10.808  16.310  1.00  0.00     0.293 HD
ENDBRANCH   6  22
BRANCH   8  24
ATOM     24  O   UNL     1      18.706  13.201  11.635  1.00  0.00    -0.508 OA
ATOM     25  H   UNL     1      18.324  12.459  11.059  1.00  0.00     0.293 HD
ENDBRANCH   8  24
TORSDOF 5
ENDMDL
MODEL 6
REMARK VINA RESULT:    -6.909      2.878      7.752
REMARK INTER + INTRA:          -8.408
REMARK INTER:                  -8.101
REMARK INTRA:                  -0.307
REMARK UNBOUND:                -0.287
REMARK SMILES O=c1cc(-c2ccc(O)c(O)c2)oc2cc(O)cc(O)c12
REMARK SMILES IDX 4 1 3 2 2 3 1 4 21 5 19 6 18 7 16 8 15 9 14 10 13 11 5 12
REMARK SMILES IDX 6 13 7 14 8 15 12 16 10 17 9 18 11 20 20 22 17 24
REMARK H PARENT 9 19 11 21 20 23 17 25
REMARK Flexibility Score: inf
ROOT
ATOM      1  C   UNL     1      17.072  16.219  17.265  1.00  0.00     0.138 A 
ATOM      2  C   UNL     1      17.243  15.647  15.997  1.00  0.00     0.100 A 
ATOM      3  C   UNL     1      17.434  14.270  15.882  1.00  0.00     0.197 A 
ATOM      4  O   UNL     1      17.522  13.778  14.728  1.00  0.00    -0.289 OA
ATOM      5  C   UNL     1      17.486  13.467  17.046  1.00  0.00     0.107 A 
ATOM      6  C   UNL     1      17.715  12.058  17.051  1.00  0.00     0.134 A 
ATOM      7  C   UNL     1      17.629  11.349  18.257  1.00  0.00     0.093 A 
ATOM      8  C   UNL     1      17.381  12.005  19.462  1.00  0.00     0.123 A 
ATOM      9  C   UNL     1      17.208  13.390  19.475  1.00  0.00     0.094 A 
ATOM     10  C   UNL     1      17.254  14.120  18.286  1.00  0.00     0.146 A 
ATOM     11  O   UNL     1      17.069  15.436  18.339  1.00  0.00    -0.456 OA
ENDROOT
BRANCH   1  12
ATOM     12  C   UNL     1      16.867  17.678  17.446  1.00  0.00     0.021 A 
ATOM     13  C   UNL     1      17.411  18.575  16.509  1.00  0.00     0.016 A 
ATOM     14  C   UNL     1      17.227  19.952  16.653  1.00  0.00     0.051 A 
ATOM     15  C   UNL     1      16.487  20.457  17.729  1.00  0.00     0.157 A 
ATOM     16  C   UNL     1      16.113  18.193  18.519  1.00  0.00     0.062 A 
ATOM     17  C   UNL     1      15.927  19.576  18.661  1.00  0.00     0.158 A 
BRANCH  15  18
ATOM     18  O   UNL     1      16.302  21.830  17.875  1.00  0.00    -0.504 OA
ATOM     19  H   UNL     1      15.584  22.207  18.484  1.00  0.00     0.293 HD
ENDBRANCH  15  18
BRANCH  17  20
ATOM     20  O   UNL     1      15.182  20.082  19.725  1.00  0.00    -0.504 OA
ATOM     21  H   UNL     1      14.203  19.846  19.847  1.00  0.00     0.293 HD
ENDBRANCH  17  20
ENDBRANCH   1  12
BRANCH   6  22
ATOM     22  O   UNL     1      18.055  11.317  15.916  1.00  0.00    -0.507 OA
ATOM     23  H   UNL     1      17.629  10.442  15.649  1.00  0.00     0.293 HD
ENDBRANCH   6  22
BRANCH   8  24
ATOM     24  O   UNL     1      17.316  11.270  20.643  1.00  0.00    -0.508 OA
ATOM     25  H   UNL     1      16.429  11.019  21.064  1.00  0.00     0.293 HD
ENDBRANCH   8  24
TORSDOF 5
ENDMDL
MODEL 7
REMARK VINA RESULT:    -6.791      5.022     10.081
REMARK INTER + INTRA:          -8.269
REMARK INTER:                  -7.979
REMARK INTRA:                  -0.290
REMARK UNBOUND:                -0.287
REMARK SMILES O=c1cc(-c2ccc(O)c(O)c2)oc2cc(O)cc(O)c12
REMARK SMILES IDX 4 1 3 2 2 3 1 4 21 5 19 6 18 7 16 8 15 9 14 10 13 11 5 12
REMARK SMILES IDX 6 13 7 14 8 15 12 16 10 17 9 18 11 20 20 22 17 24
REMARK H PARENT 9 19 11 21 20 23 17 25
REMARK Flexibility Score: inf
ROOT
ATOM      1  C   UNL     1      17.454  14.070  14.505  1.00  0.00     0.138 A 
ATOM      2  C   UNL     1      18.554  13.837  13.669  1.00  0.00     0.100 A 
ATOM      3  C   UNL     1      18.456  12.890  12.649  1.00  0.00     0.197 A 
ATOM      4  O   UNL     1      19.439  12.746  11.876  1.00  0.00    -0.289 OA
ATOM      5  C   UNL     1      17.260  12.151  12.487  1.00  0.00     0.107 A 
ATOM      6  C   UNL     1      17.061  11.133  11.507  1.00  0.00     0.134 A 
ATOM      7  C   UNL     1      15.794  10.550  11.365  1.00  0.00     0.093 A 
ATOM      8  C   UNL     1      14.739  10.906  12.204  1.00  0.00     0.123 A 
ATOM      9  C   UNL     1      14.938  11.863  13.200  1.00  0.00     0.094 A 
ATOM     10  C   UNL     1      16.179  12.486  13.345  1.00  0.00     0.146 A 
ATOM     11  O   UNL     1      16.324  13.403  14.297  1.00  0.00    -0.456 OA
ENDROOT
BRANCH   1  12
ATOM     12  C   UNL     1      17.504  15.065  15.606  1.00  0.00     0.021 A 
ATOM     13  C   UNL     1      18.020  16.349  15.357  1.00  0.00     0.016 A 
ATOM     14  C   UNL     1      18.072  17.304  16.375  1.00  0.00     0.051 A 
ATOM     15  C   UNL     1      17.598  16.997  17.656  1.00  0.00     0.157 A 
ATOM     16  C   UNL     1      17.018  14.767  16.895  1.00  0.00     0.062 A 
ATOM     17  C   UNL     1      17.068  15.728  17.916  1.00  0.00     0.158 A 
BRANCH  15  18
ATOM     18  O   UNL     1      17.649  17.948  18.673  1.00  0.00    -0.504 OA
ATOM     19  H   UNL     1      17.208  18.856  18.574  1.00  0.00     0.293 HD
ENDBRANCH  15  18
BRANCH  17  20
ATOM     20  O   UNL     1      16.589  15.430  19.190  1.00  0.00    -0.504 OA
ATOM     21  H   UNL     1      17.161  14.945  19.872  1.00  0.00     0.293 HD
ENDBRANCH  17  20
ENDBRANCH   1  12
BRANCH   6  22
ATOM     22  O   UNL     1      18.069  10.641  10.674  1.00  0.00    -0.507 OA
ATOM     23  H   UNL     1      18.222   9.666  10.465  1.00  0.00     0.293 HD
ENDBRANCH   6  22
BRANCH   8  24
ATOM     24  O   UNL     1      13.498  10.295  12.043  1.00  0.00    -0.508 OA
ATOM     25  H   UNL     1      13.118   9.672  12.747  1.00  0.00     0.293 HD
ENDBRANCH   8  24
TORSDOF 5
ENDMDL
MODEL 8
REMARK VINA RESULT:    -6.774      1.763      7.214
REMARK INTER + INTRA:          -8.249
REMARK INTER:                  -7.958
REMARK INTRA:                  -0.292
REMARK UNBOUND:                -0.287
REMARK SMILES O=c1cc(-c2ccc(O)c(O)c2)oc2cc(O)cc(O)c12
REMARK SMILES IDX 4 1 3 2 2 3 1 4 21 5 19 6 18 7 16 8 15 9 14 10 13 11 5 12
REMARK SMILES IDX 6 13 7 14 8 15 12 16 10 17 9 18 11 20 20 22 17 24
REMARK H PARENT 9 19 11 21 20 23 17 25
REMARK Flexibility Score: inf
ROOT
ATOM      1  C   UNL     1      16.607  18.102  18.103  1.00  0.00     0.138 A 
ATOM      2  C   UNL     1      17.134  18.215  16.810  1.00  0.00     0.100 A 
ATOM      3  C   UNL     1      17.630  17.080  16.166  1.00  0.00     0.197 A 
ATOM      4  O   UNL     1      18.040  17.201  14.983  1.00  0.00    -0.289 OA
ATOM      5  C   UNL     1      17.628  15.834  16.835  1.00  0.00     0.107 A 
ATOM      6  C   UNL     1      18.145  14.619  16.293  1.00  0.00     0.134 A 
ATOM      7  C   UNL     1      17.981  13.422  17.002  1.00  0.00     0.093 A 
ATOM      8  C   UNL     1      17.375  13.405  18.257  1.00  0.00     0.123 A 
ATOM      9  C   UNL     1      16.913  14.595  18.820  1.00  0.00     0.094 A 
ATOM     10  C   UNL     1      17.030  15.799  18.124  1.00  0.00     0.146 A 
ATOM     11  O   UNL     1      16.565  16.910  18.689  1.00  0.00    -0.456 OA
ENDROOT
BRANCH   1  12
ATOM     12  C   UNL     1      16.068  19.276  18.834  1.00  0.00     0.021 A 
ATOM     13  C   UNL     1      16.794  20.480  18.843  1.00  0.00     0.016 A 
ATOM     14  C   UNL     1      16.305  21.601  19.518  1.00  0.00     0.051 A 
ATOM     15  C   UNL     1      15.076  21.541  20.187  1.00  0.00     0.157 A 
ATOM     16  C   UNL     1      14.827  19.228  19.499  1.00  0.00     0.062 A 
ATOM     17  C   UNL     1      14.335  20.354  20.175  1.00  0.00     0.158 A 
BRANCH  15  18
ATOM     18  O   UNL     1      14.586  22.657  20.862  1.00  0.00    -0.504 OA
ATOM     19  H   UNL     1      15.106  23.093  21.615  1.00  0.00     0.293 HD
ENDBRANCH  15  18
BRANCH  17  20
ATOM     20  O   UNL     1      13.107  20.302  20.834  1.00  0.00    -0.504 OA
ATOM     21  H   UNL     1      12.438  19.562  20.651  1.00  0.00     0.293 HD
ENDBRANCH  17  20
ENDBRANCH   1  12
BRANCH   6  22
ATOM     22  O   UNL     1      18.844  14.537  15.085  1.00  0.00    -0.507 OA
ATOM     23  H   UNL     1      18.552  14.964  14.219  1.00  0.00     0.293 HD
ENDBRANCH   6  22
BRANCH   8  24
ATOM     24  O   UNL     1      17.243  12.198  18.940  1.00  0.00    -0.508 OA
ATOM     25  H   UNL     1      16.339  11.858  19.247  1.00  0.00     0.293 HD
ENDBRANCH   8  24
TORSDOF 5
ENDMDL
MODEL 9
REMARK VINA RESULT:    -6.740      2.964      3.919
REMARK INTER + INTRA:          -8.209
REMARK INTER:                  -7.905
REMARK INTRA:                  -0.304
REMARK UNBOUND:                -0.287
REMARK SMILES O=c1cc(-c2ccc(O)c(O)c2)oc2cc(O)cc(O)c12
REMARK SMILES IDX 4 1 3 2 2 3 1 4 21 5 19 6 18 7 16 8 15 9 14 10 13 11 5 12
REMARK SMILES IDX 6 13 7 14 8 15 12 16 10 17 9 18 11 20 20 22 17 24
REMARK H PARENT 9 19 11 21 20 23 17 25
REMARK Flexibility Score: inf
ROOT
ATOM      1  C   UNL     1      16.464  21.740  18.864  1.00  0.00     0.138 A 
ATOM      2  C   UNL     1      16.025  22.862  18.149  1.00  0.00     0.100 A 
ATOM      3  C   UNL     1      15.971  24.105  18.780  1.00  0.00     0.197 A 
ATOM      4  O   UNL     1      15.632  25.105  18.095  1.00  0.00    -0.289 OA
ATOM      5  C   UNL     1      16.329  24.218  20.145  1.00  0.00     0.107 A 
ATOM      6  C   UNL     1      16.275  25.426  20.902  1.00  0.00     0.134 A 
ATOM      7  C   UNL     1      16.765  25.441  22.214  1.00  0.00     0.093 A 
ATOM      8  C   UNL     1      17.251  24.280  22.815  1.00  0.00     0.123 A 
ATOM      9  C   UNL     1      17.260  23.081  22.101  1.00  0.00     0.094 A 
ATOM     10  C   UNL     1      16.810  23.041  20.780  1.00  0.00     0.146 A 
ATOM     11  O   UNL     1      16.847  21.882  20.129  1.00  0.00    -0.456 OA
ENDROOT
BRANCH   1  12
ATOM     12  C   UNL     1      16.539  20.394  18.242  1.00  0.00     0.021 A 
ATOM     13  C   UNL     1      16.829  20.281  16.871  1.00  0.00     0.016 A 
ATOM     14  C   UNL     1      16.912  19.025  16.263  1.00  0.00     0.051 A 
ATOM     15  C   UNL     1      16.718  17.862  17.018  1.00  0.00     0.157 A 
ATOM     16  C   UNL     1      16.358  19.219  18.997  1.00  0.00     0.062 A 
ATOM     17  C   UNL     1      16.444  17.959  18.387  1.00  0.00     0.158 A 
BRANCH  15  18
ATOM     18  O   UNL     1      16.800  16.608  16.415  1.00  0.00    -0.504 OA
ATOM     19  H   UNL     1      17.543  15.958  16.642  1.00  0.00     0.293 HD
ENDBRANCH  15  18
BRANCH  17  20
ATOM     20  O   UNL     1      16.262  16.798  19.136  1.00  0.00    -0.504 OA
ATOM     21  H   UNL     1      15.423  16.235  19.048  1.00  0.00     0.293 HD
ENDBRANCH  17  20
ENDBRANCH   1  12
BRANCH   6  22
ATOM     22  O   UNL     1      15.729  26.622  20.427  1.00  0.00    -0.507 OA
ATOM     23  H   UNL     1      15.132  27.236  20.960  1.00  0.00     0.293 HD
ENDBRANCH   6  22
BRANCH   8  24
ATOM     24  O   UNL     1      17.717  24.329  24.126  1.00  0.00    -0.508 OA
ATOM     25  H   UNL     1      17.852  25.210  24.609  1.00  0.00     0.293 HD
ENDBRANCH   8  24
TORSDOF 5
ENDMDL
