MODEL 1
REMARK VINA RESULT:    -5.728      0.000      0.000
REMARK INTER + INTRA:          -7.143
REMARK INTER:                  -6.901
REMARK INTRA:                  -0.243
REMARK UNBOUND:                -0.243
REMARK SMILES O=c1c(O)c(-c2ccc(O)c(O)c2)oc2cc(O)cc(O)c12
REMARK SMILES IDX 5 1 3 2 2 3 1 4 22 5 20 6 19 7 17 8 16 9 15 10 14 11 6 12
REMARK SMILES IDX 7 13 8 14 9 15 13 16 11 17 10 18 12 20 4 22 21 24 18 26
REMARK H PARENT 10 19 12 21 4 23 21 25 18 27
REMARK Flexibility Score: inf
ROOT
ATOM      1  C   UNL     1      21.000  39.620   4.847  1.00  0.00     0.180 A 
ATOM      2  C   UNL     1      20.742  40.510   5.903  1.00  0.00     0.208 A 
ATOM      3  C   UNL     1      20.702  40.015   7.217  1.00  0.00     0.238 A 
ATOM      4  O   UNL     1      20.545  40.829   8.163  1.00  0.00    -0.285 OA
ATOM      5  C   UNL     1      20.864  38.628   7.454  1.00  0.00     0.111 A 
ATOM      6  C   UNL     1      20.797  38.009   8.738  1.00  0.00     0.134 A 
ATOM      7  C   UNL     1      21.078  36.643   8.863  1.00  0.00     0.093 A 
ATOM      8  C   UNL     1      21.359  35.861   7.744  1.00  0.00     0.123 A 
ATOM      9  C   UNL     1      21.374  36.443   6.477  1.00  0.00     0.094 A 
ATOM     10  C   UNL     1      21.135  37.811   6.324  1.00  0.00     0.146 A 
ATOM     11  O   UNL     1      21.180  38.330   5.103  1.00  0.00    -0.452 OA
ENDROOT
BRANCH   1  12
ATOM     12  C   UNL     1      21.072  40.068   3.437  1.00  0.00     0.025 A 
ATOM     13  C   UNL     1      22.145  40.847   2.971  1.00  0.00     0.016 A 
ATOM     14  C   UNL     1      22.205  41.238   1.631  1.00  0.00     0.051 A 
ATOM     15  C   UNL     1      21.201  40.846   0.736  1.00  0.00     0.157 A 
ATOM     16  C   UNL     1      20.080  39.660   2.531  1.00  0.00     0.062 A 
ATOM     17  C   UNL     1      20.139  40.053   1.186  1.00  0.00     0.158 A 
BRANCH  15  18
ATOM     18  O   UNL     1      21.256  41.234  -0.601  1.00  0.00    -0.504 OA
ATOM     19  H   UNL     1      21.414  40.562  -1.342  1.00  0.00     0.293 HD
ENDBRANCH  15  18
BRANCH  17  20
ATOM     20  O   UNL     1      19.146  39.656   0.292  1.00  0.00    -0.504 OA
ATOM     21  H   UNL     1      18.341  39.119   0.596  1.00  0.00     0.293 HD
ENDBRANCH  17  20
ENDBRANCH   1  12
BRANCH   2  22
ATOM     22  O   UNL     1      20.510  41.863   5.643  1.00  0.00    -0.502 OA
ATOM     23  H   UNL     1      19.730  42.370   6.046  1.00  0.00     0.293 HD
ENDBRANCH   2  22
BRANCH   6  24
ATOM     24  O   UNL     1      20.436  38.679   9.912  1.00  0.00    -0.507 OA
ATOM     25  H   UNL     1      20.392  39.680  10.015  1.00  0.00     0.293 HD
ENDBRANCH   6  24
BRANCH   8  26
ATOM     26  O   UNL     1      21.617  34.501   7.904  1.00  0.00    -0.508 OA
ATOM     27  H   UNL     1      21.547  33.854   7.127  1.00  0.00     0.293 HD
ENDBRANCH   8  26
TORSDOF 6
ENDMDL
MODEL 2
REMARK VINA RESULT:    -5.684      1.656      6.705
REMARK INTER + INTRA:          -7.090
REMARK INTER:                  -6.934
REMARK INTRA:                  -0.156
REMARK UNBOUND:                -0.243
REMARK SMILES O=c1c(O)c(-c2ccc(O)c(O)c2)oc2cc(O)cc(O)c12
REMARK SMILES IDX 5 1 3 2 2 3 1 4 22 5 20 6 19 7 17 8 16 9 15 10 14 11 6 12
REMARK SMILES IDX 7 13 8 14 9 15 13 16 11 17 10 18 12 20 4 22 21 24 18 26
REMARK H PARENT 10 19 12 21 4 23 21 25 18 27
REMARK Flexibility Score: inf
ROOT
ATOM      1  C   UNL     1      20.384  39.271   5.443  1.00  0.00     0.180 A 
ATOM      2  C   UNL     1      19.208  40.038   5.507  1.00  0.00     0.208 A 
ATOM      3  C   UNL     1      18.882  40.875   4.428  1.00  0.00     0.238 A 
ATOM      4  O   UNL     1      17.790  41.501   4.459  1.00  0.00    -0.285 OA
ATOM      5  C   UNL     1      19.762  40.979   3.323  1.00  0.00     0.111 A 
ATOM      6  C   UNL     1      19.555  41.829   2.196  1.00  0.00     0.134 A 
ATOM      7  C   UNL     1      20.441  41.769   1.113  1.00  0.00     0.093 A 
ATOM      8  C   UNL     1      21.560  40.939   1.144  1.00  0.00     0.123 A 
ATOM      9  C   UNL     1      21.803  40.144   2.263  1.00  0.00     0.094 A 
ATOM     10  C   UNL     1      20.917  40.153   3.343  1.00  0.00     0.146 A 
ATOM     11  O   UNL     1      21.174  39.365   4.380  1.00  0.00    -0.452 OA
ENDROOT
BRANCH   1  12
ATOM     12  C   UNL     1      20.789  38.355   6.534  1.00  0.00     0.025 A 
ATOM     13  C   UNL     1      21.094  38.837   7.819  1.00  0.00     0.016 A 
ATOM     14  C   UNL     1      21.449  37.952   8.840  1.00  0.00     0.051 A 
ATOM     15  C   UNL     1      21.491  36.574   8.596  1.00  0.00     0.157 A 
ATOM     16  C   UNL     1      20.811  36.971   6.301  1.00  0.00     0.062 A 
ATOM     17  C   UNL     1      21.168  36.082   7.325  1.00  0.00     0.158 A 
BRANCH  15  18
ATOM     18  O   UNL     1      21.846  35.687   9.611  1.00  0.00    -0.504 OA
ATOM     19  H   UNL     1      22.227  34.771   9.406  1.00  0.00     0.293 HD
ENDBRANCH  15  18
BRANCH  17  20
ATOM     20  O   UNL     1      21.203  34.709   7.087  1.00  0.00    -0.504 OA
ATOM     21  H   UNL     1      21.285  34.335   6.148  1.00  0.00     0.293 HD
ENDBRANCH  17  20
ENDBRANCH   1  12
BRANCH   2  22
ATOM     22  O   UNL     1      18.390  39.980   6.639  1.00  0.00    -0.502 OA
ATOM     23  H   UNL     1      17.711  40.700   6.858  1.00  0.00     0.293 HD
ENDBRANCH   2  22
BRANCH   6  24
ATOM     24  O   UNL     1      18.518  42.762   2.099  1.00  0.00    -0.507 OA
ATOM     25  H   UNL     1      18.538  43.691   2.489  1.00  0.00     0.293 HD
ENDBRANCH   6  24
BRANCH   8  26
ATOM     26  O   UNL     1      22.430  40.918   0.055  1.00  0.00    -0.508 OA
ATOM     27  H   UNL     1      22.087  40.856  -0.896  1.00  0.00     0.293 HD
ENDBRANCH   8  26
TORSDOF 6
ENDMDL
MODEL 3
REMARK VINA RESULT:    -5.562      1.244      2.922
REMARK INTER + INTRA:          -6.942
REMARK INTER:                  -6.636
REMARK INTRA:                  -0.306
REMARK UNBOUND:                -0.243
REMARK SMILES O=c1c(O)c(-c2ccc(O)c(O)c2)oc2cc(O)cc(O)c12
REMARK SMILES IDX 5 1 3 2 2 3 1 4 22 5 20 6 19 7 17 8 16 9 15 10 14 11 6 12
REMARK SMILES IDX 7 13 8 14 9 15 13 16 11 17 10 18 12 20 4 22 21 24 18 26
REMARK H PARENT 10 19 12 21 4 23 21 25 18 27
REMARK Flexibility Score: inf
ROOT
ATOM      1  C   UNL     1      20.897  39.314   4.766  1.00  0.00     0.180 A 
ATOM      2  C   UNL     1      21.327  38.017   5.097  1.00  0.00     0.208 A 
ATOM      3  C   UNL     1      21.175  37.567   6.419  1.00  0.00     0.238 A 
ATOM      4  O   UNL     1      21.492  36.380   6.691  1.00  0.00    -0.285 OA
ATOM      5  C   UNL     1      20.649  38.437   7.405  1.00  0.00     0.111 A 
ATOM      6  C   UNL     1      20.493  38.103   8.784  1.00  0.00     0.134 A 
ATOM      7  C   UNL     1      19.862  39.008   9.647  1.00  0.00     0.093 A 
ATOM      8  C   UNL     1      19.441  40.257   9.197  1.00  0.00     0.123 A 
ATOM      9  C   UNL     1      19.638  40.617   7.865  1.00  0.00     0.094 A 
ATOM     10  C   UNL     1      20.229  39.721   6.970  1.00  0.00     0.146 A 
ATOM     11  O   UNL     1      20.378  40.095   5.705  1.00  0.00    -0.452 OA
ENDROOT
BRANCH   1  12
ATOM     12  C   UNL     1      21.011  39.854   3.392  1.00  0.00     0.025 A 
ATOM     13  C   UNL     1      22.107  40.645   3.004  1.00  0.00     0.016 A 
ATOM     14  C   UNL     1      22.206  41.123   1.696  1.00  0.00     0.051 A 
ATOM     15  C   UNL     1      21.219  40.809   0.753  1.00  0.00     0.157 A 
ATOM     16  C   UNL     1      20.036  39.524   2.437  1.00  0.00     0.062 A 
ATOM     17  C   UNL     1      20.133  40.005   1.124  1.00  0.00     0.158 A 
BRANCH  15  18
ATOM     18  O   UNL     1      21.312  41.285  -0.553  1.00  0.00    -0.504 OA
ATOM     19  H   UNL     1      20.931  40.766  -1.335  1.00  0.00     0.293 HD
ENDBRANCH  15  18
BRANCH  17  20
ATOM     20  O   UNL     1      19.157  39.687   0.181  1.00  0.00    -0.504 OA
ATOM     21  H   UNL     1      19.254  38.886  -0.433  1.00  0.00     0.293 HD
ENDBRANCH  17  20
ENDBRANCH   1  12
BRANCH   2  22
ATOM     22  O   UNL     1      21.913  37.200   4.128  1.00  0.00    -0.502 OA
ATOM     23  H   UNL     1      22.747  37.470   3.619  1.00  0.00     0.293 HD
ENDBRANCH   2  22
BRANCH   6  24
ATOM     24  O   UNL     1      20.958  36.916   9.360  1.00  0.00    -0.507 OA
ATOM     25  H   UNL     1      21.749  36.846   9.980  1.00  0.00     0.293 HD
ENDBRANCH   6  24
BRANCH   8  26
ATOM     26  O   UNL     1      18.833  41.139  10.089  1.00  0.00    -0.508 OA
ATOM     27  H   UNL     1      17.860  41.404   9.991  1.00  0.00     0.293 HD
ENDBRANCH   8  26
TORSDOF 6
ENDMDL
MODEL 4
REMARK VINA RESULT:    -5.382      2.181      6.949
REMARK INTER + INTRA:          -6.725
REMARK INTER:                  -6.718
REMARK INTRA:                  -0.007
REMARK UNBOUND:                -0.243
REMARK SMILES O=c1c(O)c(-c2ccc(O)c(O)c2)oc2cc(O)cc(O)c12
REMARK SMILES IDX 5 1 3 2 2 3 1 4 22 5 20 6 19 7 17 8 16 9 15 10 14 11 6 12
REMARK SMILES IDX 7 13 8 14 9 15 13 16 11 17 10 18 12 20 4 22 21 24 18 26
REMARK H PARENT 10 19 12 21 4 23 21 25 18 27
REMARK Flexibility Score: inf
ROOT
ATOM      1  C   UNL     1      20.733  38.153   6.256  1.00  0.00     0.180 A 
ATOM      2  C   UNL     1      21.245  38.184   4.947  1.00  0.00     0.208 A 
ATOM      3  C   UNL     1      20.750  39.139   4.044  1.00  0.00     0.238 A 
ATOM      4  O   UNL     1      21.265  39.210   2.899  1.00  0.00    -0.285 OA
ATOM      5  C   UNL     1      19.710  40.015   4.442  1.00  0.00     0.111 A 
ATOM      6  C   UNL     1      19.101  40.991   3.598  1.00  0.00     0.134 A 
ATOM      7  C   UNL     1      18.154  41.873   4.133  1.00  0.00     0.093 A 
ATOM      8  C   UNL     1      17.747  41.773   5.462  1.00  0.00     0.123 A 
ATOM      9  C   UNL     1      18.295  40.788   6.283  1.00  0.00     0.094 A 
ATOM     10  C   UNL     1      19.269  39.918   5.789  1.00  0.00     0.146 A 
ATOM     11  O   UNL     1      19.781  39.008   6.609  1.00  0.00    -0.452 OA
ENDROOT
BRANCH   1  12
ATOM     12  C   UNL     1      21.214  37.186   7.268  1.00  0.00     0.025 A 
ATOM     13  C   UNL     1      21.635  37.606   8.541  1.00  0.00     0.016 A 
ATOM     14  C   UNL     1      22.061  36.673   9.489  1.00  0.00     0.051 A 
ATOM     15  C   UNL     1      22.060  35.306   9.183  1.00  0.00     0.157 A 
ATOM     16  C   UNL     1      21.195  35.812   6.974  1.00  0.00     0.062 A 
ATOM     17  C   UNL     1      21.624  34.875   7.924  1.00  0.00     0.158 A 
BRANCH  15  18
ATOM     18  O   UNL     1      22.486  34.371  10.125  1.00  0.00    -0.504 OA
ATOM     19  H   UNL     1      22.215  33.397  10.065  1.00  0.00     0.293 HD
ENDBRANCH  15  18
BRANCH  17  20
ATOM     20  O   UNL     1      21.616  33.513   7.626  1.00  0.00    -0.504 OA
ATOM     21  H   UNL     1      20.776  32.954   7.721  1.00  0.00     0.293 HD
ENDBRANCH  17  20
ENDBRANCH   1  12
BRANCH   2  22
ATOM     22  O   UNL     1      22.217  37.262   4.549  1.00  0.00    -0.502 OA
ATOM     23  H   UNL     1      23.066  37.104   5.078  1.00  0.00     0.293 HD
ENDBRANCH   2  22
BRANCH   6  24
ATOM     24  O   UNL     1      19.368  41.120   2.231  1.00  0.00    -0.507 OA
ATOM     25  H   UNL     1      19.012  41.854   1.640  1.00  0.00     0.293 HD
ENDBRANCH   6  24
BRANCH   8  26
ATOM     26  O   UNL     1      16.789  42.658   5.955  1.00  0.00    -0.508 OA
ATOM     27  H   UNL     1      16.560  42.694   6.942  1.00  0.00     0.293 HD
ENDBRANCH   8  26
TORSDOF 6
ENDMDL
MODEL 5
REMARK VINA RESULT:    -5.306      3.816      6.126
REMARK INTER + INTRA:          -6.634
REMARK INTER:                  -6.804
REMARK INTRA:                   0.170
REMARK UNBOUND:                -0.243
REMARK SMILES O=c1c(O)c(-c2ccc(O)c(O)c2)oc2cc(O)cc(O)c12
REMARK SMILES IDX 5 1 3 2 2 3 1 4 22 5 20 6 19 7 17 8 16 9 15 10 14 11 6 12
REMARK SMILES IDX 7 13 8 14 9 15 13 16 11 17 10 18 12 20 4 22 21 24 18 26
REMARK H PARENT 10 19 12 21 4 23 21 25 18 27
REMARK Flexibility Score: inf
ROOT
ATOM      1  C   UNL     1      18.035  40.530   5.887  1.00  0.00     0.180 A 
ATOM      2  C   UNL     1      18.319  40.940   4.573  1.00  0.00     0.208 A 
ATOM      3  C   UNL     1      19.334  40.281   3.859  1.00  0.00     0.238 A 
ATOM      4  O   UNL     1      19.532  40.602   2.659  1.00  0.00    -0.285 OA
ATOM      5  C   UNL     1      20.089  39.261   4.486  1.00  0.00     0.111 A 
ATOM      6  C   UNL     1      21.170  38.557   3.874  1.00  0.00     0.134 A 
ATOM      7  C   UNL     1      21.776  37.493   4.555  1.00  0.00     0.093 A 
ATOM      8  C   UNL     1      21.384  37.150   5.847  1.00  0.00     0.123 A 
ATOM      9  C   UNL     1      20.367  37.865   6.477  1.00  0.00     0.094 A 
ATOM     10  C   UNL     1      19.717  38.907   5.810  1.00  0.00     0.146 A 
ATOM     11  O   UNL     1      18.739  39.548   6.437  1.00  0.00    -0.452 OA
ENDROOT
BRANCH   1  12
ATOM     12  C   UNL     1      16.971  41.166   6.698  1.00  0.00     0.025 A 
ATOM     13  C   UNL     1      16.731  42.550   6.636  1.00  0.00     0.016 A 
ATOM     14  C   UNL     1      15.706  43.124   7.391  1.00  0.00     0.051 A 
ATOM     15  C   UNL     1      14.898  42.323   8.208  1.00  0.00     0.157 A 
ATOM     16  C   UNL     1      16.144  40.365   7.502  1.00  0.00     0.062 A 
ATOM     17  C   UNL     1      15.116  40.941   8.262  1.00  0.00     0.158 A 
BRANCH  15  18
ATOM     18  O   UNL     1      13.875  42.891   8.965  1.00  0.00    -0.504 OA
ATOM     19  H   UNL     1      12.921  42.554   8.905  1.00  0.00     0.293 HD
ENDBRANCH  15  18
BRANCH  17  20
ATOM     20  O   UNL     1      14.305  40.145   9.070  1.00  0.00    -0.504 OA
ATOM     21  H   UNL     1      14.285  39.136   8.971  1.00  0.00     0.293 HD
ENDBRANCH  17  20
ENDBRANCH   1  12
BRANCH   2  22
ATOM     22  O   UNL     1      17.614  42.000   3.998  1.00  0.00    -0.502 OA
ATOM     23  H   UNL     1      16.755  42.362   4.394  1.00  0.00     0.293 HD
ENDBRANCH   2  22
BRANCH   6  24
ATOM     24  O   UNL     1      21.702  38.875   2.620  1.00  0.00    -0.507 OA
ATOM     25  H   UNL     1      22.209  38.236   2.029  1.00  0.00     0.293 HD
ENDBRANCH   6  24
BRANCH   8  26
ATOM     26  O   UNL     1      22.022  36.096   6.501  1.00  0.00    -0.508 OA
ATOM     27  H   UNL     1      21.717  35.778   7.413  1.00  0.00     0.293 HD
ENDBRANCH   8  26
TORSDOF 6
ENDMDL
MODEL 6
REMARK VINA RESULT:    -5.296      1.338      6.673
REMARK INTER + INTRA:          -6.623
REMARK INTER:                  -6.764
REMARK INTRA:                   0.142
REMARK UNBOUND:                -0.243
REMARK SMILES O=c1c(O)c(-c2ccc(O)c(O)c2)oc2cc(O)cc(O)c12
REMARK SMILES IDX 5 1 3 2 2 3 1 4 22 5 20 6 19 7 17 8 16 9 15 10 14 11 6 12
REMARK SMILES IDX 7 13 8 14 9 15 13 16 11 17 10 18 12 20 4 22 21 24 18 26
REMARK H PARENT 10 19 12 21 4 23 21 25 18 27
REMARK Flexibility Score: inf
ROOT
ATOM      1  C   UNL     1      21.084  39.204   5.655  1.00  0.00     0.180 A 
ATOM      2  C   UNL     1      21.638  40.492   5.761  1.00  0.00     0.208 A 
ATOM      3  C   UNL     1      21.594  41.346   4.646  1.00  0.00     0.238 A 
ATOM      4  O   UNL     1      22.023  42.522   4.771  1.00  0.00    -0.285 OA
ATOM      5  C   UNL     1      21.050  40.883   3.423  1.00  0.00     0.111 A 
ATOM      6  C   UNL     1      20.994  41.644   2.218  1.00  0.00     0.134 A 
ATOM      7  C   UNL     1      20.337  41.120   1.098  1.00  0.00     0.093 A 
ATOM      8  C   UNL     1      19.790  39.839   1.119  1.00  0.00     0.123 A 
ATOM      9  C   UNL     1      19.885  39.063   2.274  1.00  0.00     0.094 A 
ATOM     10  C   UNL     1      20.502  39.573   3.419  1.00  0.00     0.146 A 
ATOM     11  O   UNL     1      20.552  38.810   4.505  1.00  0.00    -0.452 OA
ENDROOT
BRANCH   1  12
ATOM     12  C   UNL     1      21.080  38.253   6.789  1.00  0.00     0.025 A 
ATOM     13  C   UNL     1      20.852  38.686   8.108  1.00  0.00     0.016 A 
ATOM     14  C   UNL     1      20.828  37.767   9.159  1.00  0.00     0.051 A 
ATOM     15  C   UNL     1      21.017  36.402   8.908  1.00  0.00     0.157 A 
ATOM     16  C   UNL     1      21.247  36.881   6.541  1.00  0.00     0.062 A 
ATOM     17  C   UNL     1      21.224  35.958   7.596  1.00  0.00     0.158 A 
BRANCH  15  18
ATOM     18  O   UNL     1      20.994  35.482   9.954  1.00  0.00    -0.504 OA
ATOM     19  H   UNL     1      21.732  34.798  10.074  1.00  0.00     0.293 HD
ENDBRANCH  15  18
BRANCH  17  20
ATOM     20  O   UNL     1      21.403  34.598   7.348  1.00  0.00    -0.504 OA
ATOM     21  H   UNL     1      20.719  33.910   7.643  1.00  0.00     0.293 HD
ENDBRANCH  17  20
ENDBRANCH   1  12
BRANCH   2  22
ATOM     22  O   UNL     1      22.239  40.905   6.953  1.00  0.00    -0.502 OA
ATOM     23  H   UNL     1      23.184  40.642   7.206  1.00  0.00     0.293 HD
ENDBRANCH   2  22
BRANCH   6  24
ATOM     24  O   UNL     1      21.587  42.901   2.058  1.00  0.00    -0.507 OA
ATOM     25  H   UNL     1      21.349  43.724   2.589  1.00  0.00     0.293 HD
ENDBRANCH   6  24
BRANCH   8  26
ATOM     26  O   UNL     1      19.158  39.342  -0.020  1.00  0.00    -0.508 OA
ATOM     27  H   UNL     1      18.752  39.961  -0.712  1.00  0.00     0.293 HD
ENDBRANCH   8  26
TORSDOF 6
ENDMDL
MODEL 7
REMARK VINA RESULT:    -5.096      2.304      3.503
REMARK INTER + INTRA:          -6.381
REMARK INTER:                  -6.255
REMARK INTRA:                  -0.127
REMARK UNBOUND:                -0.243
REMARK SMILES O=c1c(O)c(-c2ccc(O)c(O)c2)oc2cc(O)cc(O)c12
REMARK SMILES IDX 5 1 3 2 2 3 1 4 22 5 20 6 19 7 17 8 16 9 15 10 14 11 6 12
REMARK SMILES IDX 7 13 8 14 9 15 13 16 11 17 10 18 12 20 4 22 21 24 18 26
REMARK H PARENT 10 19 12 21 4 23 21 25 18 27
REMARK Flexibility Score: inf
ROOT
ATOM      1  C   UNL     1      20.553  40.887   1.757  1.00  0.00     0.180 A 
ATOM      2  C   UNL     1      19.595  41.587   2.510  1.00  0.00     0.208 A 
ATOM      3  C   UNL     1      19.261  41.119   3.792  1.00  0.00     0.238 A 
ATOM      4  O   UNL     1      18.459  41.792   4.489  1.00  0.00    -0.285 OA
ATOM      5  C   UNL     1      19.847  39.926   4.282  1.00  0.00     0.111 A 
ATOM      6  C   UNL     1      19.550  39.334   5.546  1.00  0.00     0.134 A 
ATOM      7  C   UNL     1      20.270  38.210   5.970  1.00  0.00     0.093 A 
ATOM      8  C   UNL     1      21.229  37.619   5.151  1.00  0.00     0.123 A 
ATOM      9  C   UNL     1      21.490  38.156   3.890  1.00  0.00     0.094 A 
ATOM     10  C   UNL     1      20.815  39.299   3.454  1.00  0.00     0.146 A 
ATOM     11  O   UNL     1      21.109  39.790   2.257  1.00  0.00    -0.452 OA
ENDROOT
BRANCH   1  12
ATOM     12  C   UNL     1      20.968  41.326   0.405  1.00  0.00     0.025 A 
ATOM     13  C   UNL     1      22.302  41.670   0.123  1.00  0.00     0.016 A 
ATOM     14  C   UNL     1      22.674  42.057  -1.166  1.00  0.00     0.051 A 
ATOM     15  C   UNL     1      21.724  42.094  -2.194  1.00  0.00     0.157 A 
ATOM     16  C   UNL     1      20.024  41.344  -0.635  1.00  0.00     0.062 A 
ATOM     17  C   UNL     1      20.397  41.735  -1.929  1.00  0.00     0.158 A 
BRANCH  15  18
ATOM     18  O   UNL     1      22.091  42.482  -3.482  1.00  0.00    -0.504 OA
ATOM     19  H   UNL     1      22.090  43.455  -3.763  1.00  0.00     0.293 HD
ENDBRANCH  15  18
BRANCH  17  20
ATOM     20  O   UNL     1      19.455  41.764  -2.956  1.00  0.00    -0.504 OA
ATOM     21  H   UNL     1      18.801  42.533  -3.054  1.00  0.00     0.293 HD
ENDBRANCH  17  20
ENDBRANCH   1  12
BRANCH   2  22
ATOM     22  O   UNL     1      18.972  42.719   1.979  1.00  0.00    -0.502 OA
ATOM     23  H   UNL     1      18.612  42.749   1.032  1.00  0.00     0.293 HD
ENDBRANCH   2  22
BRANCH   6  24
ATOM     24  O   UNL     1      18.547  39.791   6.408  1.00  0.00    -0.507 OA
ATOM     25  H   UNL     1      18.589  39.755   7.414  1.00  0.00     0.293 HD
ENDBRANCH   6  24
BRANCH   8  26
ATOM     26  O   UNL     1      21.914  36.491   5.598  1.00  0.00    -0.508 OA
ATOM     27  H   UNL     1      21.656  35.559   5.294  1.00  0.00     0.293 HD
ENDBRANCH   8  26
TORSDOF 6
ENDMDL
MODEL 8
REMARK VINA RESULT:    -4.951      3.384      6.437
REMARK INTER + INTRA:          -6.207
REMARK INTER:                  -5.891
REMARK INTRA:                  -0.315
REMARK UNBOUND:                -0.243
REMARK SMILES O=c1c(O)c(-c2ccc(O)c(O)c2)oc2cc(O)cc(O)c12
REMARK SMILES IDX 5 1 3 2 2 3 1 4 22 5 20 6 19 7 17 8 16 9 15 10 14 11 6 12
REMARK SMILES IDX 7 13 8 14 9 15 13 16 11 17 10 18 12 20 4 22 21 24 18 26
REMARK H PARENT 10 19 12 21 4 23 21 25 18 27
REMARK Flexibility Score: inf
ROOT
ATOM      1  C   UNL     1      18.681  40.217   6.720  1.00  0.00     0.180 A 
ATOM      2  C   UNL     1      19.527  39.299   7.367  1.00  0.00     0.208 A 
ATOM      3  C   UNL     1      20.498  38.619   6.613  1.00  0.00     0.238 A 
ATOM      4  O   UNL     1      21.300  37.856   7.212  1.00  0.00    -0.285 OA
ATOM      5  C   UNL     1      20.575  38.823   5.214  1.00  0.00     0.111 A 
ATOM      6  C   UNL     1      21.489  38.155   4.344  1.00  0.00     0.134 A 
ATOM      7  C   UNL     1      21.546  38.515   2.992  1.00  0.00     0.093 A 
ATOM      8  C   UNL     1      20.680  39.471   2.465  1.00  0.00     0.123 A 
ATOM      9  C   UNL     1      19.745  40.091   3.293  1.00  0.00     0.094 A 
ATOM     10  C   UNL     1      19.689  39.781   4.654  1.00  0.00     0.146 A 
ATOM     11  O   UNL     1      18.799  40.410   5.412  1.00  0.00    -0.452 OA
ENDROOT
BRANCH   1  12
ATOM     12  C   UNL     1      17.644  40.981   7.448  1.00  0.00     0.025 A 
ATOM     13  C   UNL     1      17.869  42.303   7.871  1.00  0.00     0.016 A 
ATOM     14  C   UNL     1      16.867  43.014   8.535  1.00  0.00     0.051 A 
ATOM     15  C   UNL     1      15.621  42.420   8.773  1.00  0.00     0.157 A 
ATOM     16  C   UNL     1      16.385  40.399   7.671  1.00  0.00     0.062 A 
ATOM     17  C   UNL     1      15.379  41.111   8.338  1.00  0.00     0.158 A 
BRANCH  15  18
ATOM     18  O   UNL     1      14.618  43.125   9.436  1.00  0.00    -0.504 OA
ATOM     19  H   UNL     1      14.385  42.933  10.404  1.00  0.00     0.293 HD
ENDBRANCH  15  18
BRANCH  17  20
ATOM     20  O   UNL     1      14.135  40.526   8.569  1.00  0.00    -0.504 OA
ATOM     21  H   UNL     1      13.301  41.087   8.704  1.00  0.00     0.293 HD
ENDBRANCH  17  20
ENDBRANCH   1  12
BRANCH   2  22
ATOM     22  O   UNL     1      19.385  39.055   8.735  1.00  0.00    -0.502 OA
ATOM     23  H   UNL     1      18.498  39.145   9.216  1.00  0.00     0.293 HD
ENDBRANCH   2  22
BRANCH   6  24
ATOM     24  O   UNL     1      22.339  37.120   4.748  1.00  0.00    -0.507 OA
ATOM     25  H   UNL     1      22.932  37.144   5.562  1.00  0.00     0.293 HD
ENDBRANCH   6  24
BRANCH   8  26
ATOM     26  O   UNL     1      20.753  39.792   1.111  1.00  0.00    -0.508 OA
ATOM     27  H   UNL     1      20.035  39.498   0.458  1.00  0.00     0.293 HD
ENDBRANCH   8  26
TORSDOF 6
ENDMDL
MODEL 9
REMARK VINA RESULT:    -4.846      1.726      3.303
REMARK INTER + INTRA:          -6.081
REMARK INTER:                  -5.795
REMARK INTRA:                  -0.285
REMARK UNBOUND:                -0.243
REMARK SMILES O=c1c(O)c(-c2ccc(O)c(O)c2)oc2cc(O)cc(O)c12
REMARK SMILES IDX 5 1 3 2 2 3 1 4 22 5 20 6 19 7 17 8 16 9 15 10 14 11 6 12
REMARK SMILES IDX 7 13 8 14 9 15 13 16 11 17 10 18 12 20 4 22 21 24 18 26
REMARK H PARENT 10 19 12 21 4 23 21 25 18 27
REMARK Flexibility Score: inf
ROOT
ATOM      1  C   UNL     1      21.099  40.251   3.425  1.00  0.00     0.180 A 
ATOM      2  C   UNL     1      21.547  38.933   3.622  1.00  0.00     0.208 A 
ATOM      3  C   UNL     1      21.340  38.322   4.869  1.00  0.00     0.238 A 
ATOM      4  O   UNL     1      21.676  37.118   5.014  1.00  0.00    -0.285 OA
ATOM      5  C   UNL     1      20.740  39.054   5.923  1.00  0.00     0.111 A 
ATOM      6  C   UNL     1      20.523  38.552   7.241  1.00  0.00     0.134 A 
ATOM      7  C   UNL     1      19.823  39.331   8.171  1.00  0.00     0.093 A 
ATOM      8  C   UNL     1      19.391  40.616   7.853  1.00  0.00     0.123 A 
ATOM      9  C   UNL     1      19.645  41.140   6.585  1.00  0.00     0.094 A 
ATOM     10  C   UNL     1      20.307  40.373   5.624  1.00  0.00     0.146 A 
ATOM     11  O   UNL     1      20.510  40.900   4.423  1.00  0.00    -0.452 OA
ENDROOT
BRANCH   1  12
ATOM     12  C   UNL     1      21.268  40.957   2.135  1.00  0.00     0.025 A 
ATOM     13  C   UNL     1      22.318  41.868   1.931  1.00  0.00     0.016 A 
ATOM     14  C   UNL     1      22.473  42.504   0.696  1.00  0.00     0.051 A 
ATOM     15  C   UNL     1      21.588  42.229  -0.354  1.00  0.00     0.157 A 
ATOM     16  C   UNL     1      20.397  40.669   1.071  1.00  0.00     0.062 A 
ATOM     17  C   UNL     1      20.551  41.307  -0.168  1.00  0.00     0.158 A 
BRANCH  15  18
ATOM     18  O   UNL     1      21.738  42.862  -1.587  1.00  0.00    -0.504 OA
ATOM     19  H   UNL     1      21.842  42.333  -2.445  1.00  0.00     0.293 HD
ENDBRANCH  15  18
BRANCH  17  20
ATOM     20  O   UNL     1      19.677  41.029  -1.218  1.00  0.00    -0.504 OA
ATOM     21  H   UNL     1      19.003  41.713  -1.542  1.00  0.00     0.293 HD
ENDBRANCH  17  20
ENDBRANCH   1  12
BRANCH   2  22
ATOM     22  O   UNL     1      22.206  38.253   2.594  1.00  0.00    -0.502 OA
ATOM     23  H   UNL     1      22.344  38.657   1.675  1.00  0.00     0.293 HD
ENDBRANCH   2  22
BRANCH   6  24
ATOM     24  O   UNL     1      20.991  37.314   7.695  1.00  0.00    -0.507 OA
ATOM     25  H   UNL     1      20.545  36.752   8.402  1.00  0.00     0.293 HD
ENDBRANCH   6  24
BRANCH   8  26
ATOM     26  O   UNL     1      18.713  41.370   8.810  1.00  0.00    -0.508 OA
ATOM     27  H   UNL     1      18.589  41.034   9.758  1.00  0.00     0.293 HD
ENDBRANCH   8  26
TORSDOF 6
ENDMDL
