MODEL 1
REMARK VINA RESULT:    -1.957      0.000      0.000
REMARK INTER + INTRA:          -6.087
REMARK INTER:                  -4.475
REMARK INTRA:                  -1.612
REMARK UNBOUND:                -1.612
REMARK SMILES CCCCCCCCCCCCCCCCCCCCCCCC(=O)[O-]
REMARK SMILES IDX 13 1 14 2 15 3 16 4 17 5 18 6 19 7 20 8 21 9 22 10 23 11
REMARK SMILES IDX 24 12 25 13 26 14 12 15 11 16 10 17 9 18 8 19 7 20 6 21 5 22
REMARK SMILES IDX 4 23 3 24 2 25 1 26
REMARK H PARENT
REMARK Flexibility Score: inf
ROOT
ATOM      1  C   UNL     1     -14.005  13.288   7.977  1.00  0.00     0.000 C 
ENDROOT
BRANCH   1   2
ATOM      2  C   UNL     1     -15.120  12.769   7.055  1.00  0.00     0.000 C 
BRANCH   2   3
ATOM      3  C   UNL     1     -15.857  11.557   7.650  1.00  0.00     0.000 C 
BRANCH   3   4
ATOM      4  C   UNL     1     -15.676  10.283   6.798  1.00  0.00     0.000 C 
BRANCH   4   5
ATOM      5  C   UNL     1     -14.349  10.243   6.022  1.00  0.00     0.000 C 
BRANCH   5   6
ATOM      6  C   UNL     1     -14.517   9.758   4.575  1.00  0.00     0.000 C 
BRANCH   6   7
ATOM      7  C   UNL     1     -13.187   9.819   3.814  1.00  0.00     0.000 C 
BRANCH   7   8
ATOM      8  C   UNL     1     -13.416   9.733   2.298  1.00  0.00     0.000 C 
BRANCH   8   9
ATOM      9  C   UNL     1     -14.512   8.710   1.932  1.00  0.00     0.000 C 
BRANCH   9  10
ATOM     10  C   UNL     1     -14.166   7.849   0.705  1.00  0.00     0.006 C 
BRANCH  10  11
ATOM     11  C   UNL     1     -12.760   8.126   0.161  1.00  0.00     0.053 C 
BRANCH  11  12
ATOM     12  C   UNL     1     -12.397   7.121  -0.886  1.00  0.00     0.041 C 
ATOM     13  O   UNL     1     -13.124   6.107  -1.068  1.00  0.00    -0.550 OA
ATOM     14  O   UNL     1     -11.282   7.321  -1.688  1.00  0.00    -0.550 OA
ENDBRANCH  11  12
ENDBRANCH  10  11
ENDBRANCH   9  10
ENDBRANCH   8   9
ENDBRANCH   7   8
ENDBRANCH   6   7
ENDBRANCH   5   6
ENDBRANCH   4   5
ENDBRANCH   3   4
ENDBRANCH   2   3
ENDBRANCH   1   2
BRANCH   1  15
ATOM     15  C   UNL     1     -14.375  13.177   9.465  1.00  0.00     0.000 C 
BRANCH  15  16
ATOM     16  C   UNL     1     -14.007  14.441  10.264  1.00  0.00     0.000 C 
BRANCH  16  17
ATOM     17  C   UNL     1     -14.307  14.359  11.774  1.00  0.00     0.000 C 
BRANCH  17  18
ATOM     18  C   UNL     1     -14.420  12.931  12.348  1.00  0.00    -0.000 C 
BRANCH  18  19
ATOM     19  C   UNL     1     -15.810  12.552  12.894  1.00  0.00    -0.000 C 
BRANCH  19  20
ATOM     20  C   UNL     1     -16.475  11.417  12.098  1.00  0.00    -0.000 C 
BRANCH  20  21
ATOM     21  C   UNL     1     -16.288  10.037  12.753  1.00  0.00    -0.000 C 
BRANCH  21  22
ATOM     22  C   UNL     1     -16.617   8.835  11.849  1.00  0.00    -0.000 C 
BRANCH  22  23
ATOM     23  C   UNL     1     -16.294   9.095  10.367  1.00  0.00    -0.000 C 
BRANCH  23  24
ATOM     24  C   UNL     1     -15.750   7.847   9.654  1.00  0.00    -0.000 C 
BRANCH  24  25
ATOM     25  C   UNL     1     -15.988   6.558  10.453  1.00  0.00    -0.003 C 
ATOM     26  C   UNL     1     -14.782   6.224  11.326  1.00  0.00     0.004 C 
ENDBRANCH  24  25
ENDBRANCH  23  24
ENDBRANCH  22  23
ENDBRANCH  21  22
ENDBRANCH  20  21
ENDBRANCH  19  20
ENDBRANCH  18  19
ENDBRANCH  17  18
ENDBRANCH  16  17
ENDBRANCH  15  16
ENDBRANCH   1  15
TORSDOF 22
ENDMDL
MODEL 2
REMARK VINA RESULT:    -1.897      4.585     10.407
REMARK INTER + INTRA:          -5.948
REMARK INTER:                  -4.434
REMARK INTRA:                  -1.514
REMARK UNBOUND:                -1.612
REMARK SMILES CCCCCCCCCCCCCCCCCCCCCCCC(=O)[O-]
REMARK SMILES IDX 13 1 14 2 15 3 16 4 17 5 18 6 19 7 20 8 21 9 22 10 23 11
REMARK SMILES IDX 24 12 25 13 26 14 12 15 11 16 10 17 9 18 8 19 7 20 6 21 5 22
REMARK SMILES IDX 4 23 3 24 2 25 1 26
REMARK H PARENT
REMARK Flexibility Score: inf
ROOT
ATOM      1  C   UNL     1     -15.543  10.445   7.839  1.00  0.00     0.000 C 
ENDROOT
BRANCH   1   2
ATOM      2  C   UNL     1     -15.400   9.139   8.637  1.00  0.00     0.000 C 
BRANCH   2   3
ATOM      3  C   UNL     1     -16.702   8.320   8.662  1.00  0.00     0.000 C 
BRANCH   3   4
ATOM      4  C   UNL     1     -16.636   7.142   9.656  1.00  0.00     0.000 C 
BRANCH   4   5
ATOM      5  C   UNL     1     -15.332   7.095  10.472  1.00  0.00     0.000 C 
BRANCH   5   6
ATOM      6  C   UNL     1     -15.502   7.626  11.902  1.00  0.00     0.000 C 
BRANCH   6   7
ATOM      7  C   UNL     1     -16.847   8.342  12.068  1.00  0.00     0.000 C 
BRANCH   7   8
ATOM      8  C   UNL     1     -16.645   9.791  12.537  1.00  0.00     0.000 C 
BRANCH   8   9
ATOM      9  C   UNL     1     -16.717  10.797  11.369  1.00  0.00     0.000 C 
BRANCH   9  10
ATOM     10  C   UNL     1     -16.219  12.205  11.737  1.00  0.00     0.006 C 
BRANCH  10  11
ATOM     11  C   UNL     1     -15.454  12.884  10.595  1.00  0.00     0.053 C 
BRANCH  11  12
ATOM     12  C   UNL     1     -15.011  14.253  11.004  1.00  0.00     0.041 C 
ATOM     13  O   UNL     1     -13.828  14.628  10.785  1.00  0.00    -0.550 OA
ATOM     14  O   UNL     1     -15.913  15.131  11.590  1.00  0.00    -0.550 OA
ENDBRANCH  11  12
ENDBRANCH  10  11
ENDBRANCH   9  10
ENDBRANCH   8   9
ENDBRANCH   7   8
ENDBRANCH   6   7
ENDBRANCH   5   6
ENDBRANCH   4   5
ENDBRANCH   3   4
ENDBRANCH   2   3
ENDBRANCH   1   2
BRANCH   1  15
ATOM     15  C   UNL     1     -15.596  10.203   6.322  1.00  0.00     0.000 C 
BRANCH  15  16
ATOM     16  C   UNL     1     -14.196  10.116   5.686  1.00  0.00     0.000 C 
BRANCH  16  17
ATOM     17  C   UNL     1     -14.169   9.520   4.264  1.00  0.00     0.000 C 
BRANCH  17  18
ATOM     18  C   UNL     1     -13.007   9.999   3.369  1.00  0.00    -0.000 C 
BRANCH  18  19
ATOM     19  C   UNL     1     -13.237   9.840   1.854  1.00  0.00    -0.000 C 
BRANCH  19  20
ATOM     20  C   UNL     1     -14.128   8.635   1.508  1.00  0.00    -0.000 C 
BRANCH  20  21
ATOM     21  C   UNL     1     -13.573   7.797   0.342  1.00  0.00    -0.000 C 
BRANCH  21  22
ATOM     22  C   UNL     1     -14.381   6.529   0.008  1.00  0.00    -0.000 C 
BRANCH  22  23
ATOM     23  C   UNL     1     -13.706   5.654  -1.063  1.00  0.00    -0.000 C 
BRANCH  23  24
ATOM     24  C   UNL     1     -14.680   4.656  -1.709  1.00  0.00    -0.000 C 
BRANCH  24  25
ATOM     25  C   UNL     1     -15.997   4.528  -0.931  1.00  0.00    -0.003 C 
ATOM     26  C   UNL     1     -17.125   4.044  -1.838  1.00  0.00     0.004 C 
ENDBRANCH  24  25
ENDBRANCH  23  24
ENDBRANCH  22  23
ENDBRANCH  21  22
ENDBRANCH  20  21
ENDBRANCH  19  20
ENDBRANCH  18  19
ENDBRANCH  17  18
ENDBRANCH  16  17
ENDBRANCH  15  16
ENDBRANCH   1  15
TORSDOF 22
ENDMDL
MODEL 3
REMARK VINA RESULT:    -1.759      3.566      9.418
REMARK INTER + INTRA:          -5.634
REMARK INTER:                  -4.193
REMARK INTRA:                  -1.440
REMARK UNBOUND:                -1.612
REMARK SMILES CCCCCCCCCCCCCCCCCCCCCCCC(=O)[O-]
REMARK SMILES IDX 13 1 14 2 15 3 16 4 17 5 18 6 19 7 20 8 21 9 22 10 23 11
REMARK SMILES IDX 24 12 25 13 26 14 12 15 11 16 10 17 9 18 8 19 7 20 6 21 5 22
REMARK SMILES IDX 4 23 3 24 2 25 1 26
REMARK H PARENT
REMARK Flexibility Score: inf
ROOT
ATOM      1  C   UNL     1     -16.446  12.939   7.687  1.00  0.00     0.000 C 
ENDROOT
BRANCH   1   2
ATOM      2  C   UNL     1     -14.985  13.234   7.311  1.00  0.00     0.000 C 
BRANCH   2   3
ATOM      3  C   UNL     1     -14.010  12.932   8.463  1.00  0.00     0.000 C 
BRANCH   3   4
ATOM      4  C   UNL     1     -14.120  13.959   9.609  1.00  0.00     0.000 C 
BRANCH   4   5
ATOM      5  C   UNL     1     -14.239  13.318  11.003  1.00  0.00     0.000 C 
BRANCH   5   6
ATOM      6  C   UNL     1     -15.469  12.409  11.140  1.00  0.00     0.000 C 
BRANCH   6   7
ATOM      7  C   UNL     1     -15.543  11.789  12.541  1.00  0.00     0.000 C 
BRANCH   7   8
ATOM      8  C   UNL     1     -16.355  10.485  12.523  1.00  0.00     0.000 C 
BRANCH   8   9
ATOM      9  C   UNL     1     -15.568   9.301  13.124  1.00  0.00     0.000 C 
BRANCH   9  10
ATOM     10  C   UNL     1     -16.152   7.926  12.760  1.00  0.00     0.006 C 
BRANCH  10  11
ATOM     11  C   UNL     1     -15.118   6.797  12.846  1.00  0.00     0.053 C 
BRANCH  11  12
ATOM     12  C   UNL     1     -14.546   6.508  11.494  1.00  0.00     0.041 C 
ATOM     13  O   UNL     1     -13.568   5.722  11.376  1.00  0.00    -0.550 OA
ATOM     14  O   UNL     1     -15.117   7.071  10.361  1.00  0.00    -0.550 OA
ENDBRANCH  11  12
ENDBRANCH  10  11
ENDBRANCH   9  10
ENDBRANCH   8   9
ENDBRANCH   7   8
ENDBRANCH   6   7
ENDBRANCH   5   6
ENDBRANCH   4   5
ENDBRANCH   3   4
ENDBRANCH   2   3
ENDBRANCH   1   2
BRANCH   1  15
ATOM     15  C   UNL     1     -16.692  11.446   7.959  1.00  0.00     0.000 C 
BRANCH  15  16
ATOM     16  C   UNL     1     -16.550  10.580   6.694  1.00  0.00     0.000 C 
BRANCH  16  17
ATOM     17  C   UNL     1     -15.234   9.782   6.603  1.00  0.00     0.000 C 
BRANCH  17  18
ATOM     18  C   UNL     1     -14.214  10.304   5.570  1.00  0.00    -0.000 C 
BRANCH  18  19
ATOM     19  C   UNL     1     -14.161   9.519   4.246  1.00  0.00    -0.000 C 
BRANCH  19  20
ATOM     20  C   UNL     1     -12.996   9.955   3.340  1.00  0.00    -0.000 C 
BRANCH  20  21
ATOM     21  C   UNL     1     -13.389  10.026   1.853  1.00  0.00    -0.000 C 
BRANCH  21  22
ATOM     22  C   UNL     1     -12.978   8.803   1.012  1.00  0.00    -0.000 C 
BRANCH  22  23
ATOM     23  C   UNL     1     -14.174   7.916   0.622  1.00  0.00    -0.000 C 
BRANCH  23  24
ATOM     24  C   UNL     1     -13.742   6.611  -0.064  1.00  0.00    -0.000 C 
BRANCH  24  25
ATOM     25  C   UNL     1     -14.906   5.626  -0.246  1.00  0.00    -0.003 C 
ATOM     26  C   UNL     1     -14.801   4.893  -1.580  1.00  0.00     0.004 C 
ENDBRANCH  24  25
ENDBRANCH  23  24
ENDBRANCH  22  23
ENDBRANCH  21  22
ENDBRANCH  20  21
ENDBRANCH  19  20
ENDBRANCH  18  19
ENDBRANCH  17  18
ENDBRANCH  16  17
ENDBRANCH  15  16
ENDBRANCH   1  15
TORSDOF 22
ENDMDL
MODEL 4
REMARK VINA RESULT:    -1.699      3.356      9.513
REMARK INTER + INTRA:          -5.496
REMARK INTER:                  -3.905
REMARK INTRA:                  -1.591
REMARK UNBOUND:                -1.612
REMARK SMILES CCCCCCCCCCCCCCCCCCCCCCCC(=O)[O-]
REMARK SMILES IDX 13 1 14 2 15 3 16 4 17 5 18 6 19 7 20 8 21 9 22 10 23 11
REMARK SMILES IDX 24 12 25 13 26 14 12 15 11 16 10 17 9 18 8 19 7 20 6 21 5 22
REMARK SMILES IDX 4 23 3 24 2 25 1 26
REMARK H PARENT
REMARK Flexibility Score: inf
ROOT
ATOM      1  C   UNL     1     -16.653  11.016   7.641  1.00  0.00     0.000 C 
ENDROOT
BRANCH   1   2
ATOM      2  C   UNL     1     -16.669  10.067   8.849  1.00  0.00     0.000 C 
BRANCH   2   3
ATOM      3  C   UNL     1     -15.975  10.674  10.082  1.00  0.00     0.000 C 
BRANCH   3   4
ATOM      4  C   UNL     1     -16.968  11.390  11.021  1.00  0.00     0.000 C 
BRANCH   4   5
ATOM      5  C   UNL     1     -16.685  11.154  12.514  1.00  0.00     0.000 C 
BRANCH   5   6
ATOM      6  C   UNL     1     -15.275  11.591  12.933  1.00  0.00     0.000 C 
BRANCH   6   7
ATOM      7  C   UNL     1     -15.195  13.113  13.100  1.00  0.00     0.000 C 
BRANCH   7   8
ATOM      8  C   UNL     1     -14.123  13.712  12.177  1.00  0.00     0.000 C 
BRANCH   8   9
ATOM      9  C   UNL     1     -14.731  14.306  10.888  1.00  0.00     0.000 C 
BRANCH   9  10
ATOM     10  C   UNL     1     -13.840  14.125   9.648  1.00  0.00     0.006 C 
BRANCH  10  11
ATOM     11  C   UNL     1     -14.440  13.160   8.619  1.00  0.00     0.053 C 
BRANCH  11  12
ATOM     12  C   UNL     1     -13.931  13.475   7.248  1.00  0.00     0.041 C 
ATOM     13  O   UNL     1     -12.694  13.605   7.047  1.00  0.00    -0.550 OA
ATOM     14  O   UNL     1     -14.816  13.583   6.184  1.00  0.00    -0.550 OA
ENDBRANCH  11  12
ENDBRANCH  10  11
ENDBRANCH   9  10
ENDBRANCH   8   9
ENDBRANCH   7   8
ENDBRANCH   6   7
ENDBRANCH   5   6
ENDBRANCH   4   5
ENDBRANCH   3   4
ENDBRANCH   2   3
ENDBRANCH   1   2
BRANCH   1  15
ATOM     15  C   UNL     1     -16.363  10.282   6.322  1.00  0.00     0.000 C 
BRANCH  15  16
ATOM     16  C   UNL     1     -14.859  10.051   6.089  1.00  0.00     0.000 C 
BRANCH  16  17
ATOM     17  C   UNL     1     -14.493   9.555   4.676  1.00  0.00     0.000 C 
BRANCH  17  18
ATOM     18  C   UNL     1     -13.092   9.962   4.175  1.00  0.00    -0.000 C 
BRANCH  18  19
ATOM     19  C   UNL     1     -13.015  10.356   2.688  1.00  0.00    -0.000 C 
BRANCH  19  20
ATOM     20  C   UNL     1     -13.715   9.344   1.765  1.00  0.00    -0.000 C 
BRANCH  20  21
ATOM     21  C   UNL     1     -12.751   8.682   0.764  1.00  0.00    -0.000 C 
BRANCH  21  22
ATOM     22  C   UNL     1     -13.363   7.545  -0.076  1.00  0.00    -0.000 C 
BRANCH  22  23
ATOM     23  C   UNL     1     -14.793   7.182   0.359  1.00  0.00    -0.000 C 
BRANCH  23  24
ATOM     24  C   UNL     1     -15.190   5.755  -0.047  1.00  0.00    -0.000 C 
BRANCH  24  25
ATOM     25  C   UNL     1     -14.332   5.208  -1.197  1.00  0.00    -0.003 C 
ATOM     26  C   UNL     1     -15.140   4.264  -2.083  1.00  0.00     0.004 C 
ENDBRANCH  24  25
ENDBRANCH  23  24
ENDBRANCH  22  23
ENDBRANCH  21  22
ENDBRANCH  20  21
ENDBRANCH  19  20
ENDBRANCH  18  19
ENDBRANCH  17  18
ENDBRANCH  16  17
ENDBRANCH  15  16
ENDBRANCH   1  15
TORSDOF 22
ENDMDL
MODEL 5
REMARK VINA RESULT:    -1.593      1.532      2.154
REMARK INTER + INTRA:          -5.253
REMARK INTER:                  -3.999
REMARK INTRA:                  -1.254
REMARK UNBOUND:                -1.612
REMARK SMILES CCCCCCCCCCCCCCCCCCCCCCCC(=O)[O-]
REMARK SMILES IDX 13 1 14 2 15 3 16 4 17 5 18 6 19 7 20 8 21 9 22 10 23 11
REMARK SMILES IDX 24 12 25 13 26 14 12 15 11 16 10 17 9 18 8 19 7 20 6 21 5 22
REMARK SMILES IDX 4 23 3 24 2 25 1 26
REMARK H PARENT
REMARK Flexibility Score: inf
ROOT
ATOM      1  C   UNL     1     -14.130  13.298   7.958  1.00  0.00     0.000 C 
ENDROOT
BRANCH   1   2
ATOM      2  C   UNL     1     -14.515  12.466   6.725  1.00  0.00     0.000 C 
BRANCH   2   3
ATOM      3  C   UNL     1     -15.208  11.144   7.101  1.00  0.00     0.000 C 
BRANCH   3   4
ATOM      4  C   UNL     1     -15.012  10.053   6.028  1.00  0.00     0.000 C 
BRANCH   4   5
ATOM      5  C   UNL     1     -13.841  10.331   5.070  1.00  0.00     0.000 C 
BRANCH   5   6
ATOM      6  C   UNL     1     -13.899   9.483   3.792  1.00  0.00     0.000 C 
BRANCH   6   7
ATOM      7  C   UNL     1     -13.105  10.139   2.657  1.00  0.00     0.000 C 
BRANCH   7   8
ATOM      8  C   UNL     1     -13.151   9.280   1.384  1.00  0.00     0.000 C 
BRANCH   8   9
ATOM      9  C   UNL     1     -14.390   8.360   1.347  1.00  0.00     0.000 C 
BRANCH   9  10
ATOM     10  C   UNL     1     -14.250   7.179   0.373  1.00  0.00     0.006 C 
BRANCH  10  11
ATOM     11  C   UNL     1     -15.594   6.518   0.040  1.00  0.00     0.053 C 
BRANCH  11  12
ATOM     12  C   UNL     1     -15.378   5.250  -0.722  1.00  0.00     0.041 C 
ATOM     13  O   UNL     1     -14.377   5.128  -1.478  1.00  0.00    -0.550 OA
ATOM     14  O   UNL     1     -16.257   4.186  -0.569  1.00  0.00    -0.550 OA
ENDBRANCH  11  12
ENDBRANCH  10  11
ENDBRANCH   9  10
ENDBRANCH   8   9
ENDBRANCH   7   8
ENDBRANCH   6   7
ENDBRANCH   5   6
ENDBRANCH   4   5
ENDBRANCH   3   4
ENDBRANCH   2   3
ENDBRANCH   1   2
BRANCH   1  15
ATOM     15  C   UNL     1     -14.668  12.694   9.265  1.00  0.00     0.000 C 
BRANCH  15  16
ATOM     16  C   UNL     1     -15.839  13.502   9.854  1.00  0.00     0.000 C 
BRANCH  16  17
ATOM     17  C   UNL     1     -16.216  13.129  11.302  1.00  0.00     0.000 C 
BRANCH  17  18
ATOM     18  C   UNL     1     -15.144  12.338  12.080  1.00  0.00    -0.000 C 
BRANCH  18  19
ATOM     19  C   UNL     1     -15.691  11.304  13.083  1.00  0.00    -0.000 C 
BRANCH  19  20
ATOM     20  C   UNL     1     -17.020  10.678  12.630  1.00  0.00    -0.000 C 
BRANCH  20  21
ATOM     21  C   UNL     1     -17.023   9.141  12.731  1.00  0.00    -0.000 C 
BRANCH  21  22
ATOM     22  C   UNL     1     -15.969   8.430  11.862  1.00  0.00    -0.000 C 
BRANCH  22  23
ATOM     23  C   UNL     1     -15.416   7.152  12.518  1.00  0.00    -0.000 C 
BRANCH  23  24
ATOM     24  C   UNL     1     -14.379   6.438  11.638  1.00  0.00    -0.000 C 
BRANCH  24  25
ATOM     25  C   UNL     1     -13.485   5.480  12.438  1.00  0.00    -0.003 C 
ATOM     26  C   UNL     1     -13.406   4.112  11.765  1.00  0.00     0.004 C 
ENDBRANCH  24  25
ENDBRANCH  23  24
ENDBRANCH  22  23
ENDBRANCH  21  22
ENDBRANCH  20  21
ENDBRANCH  19  20
ENDBRANCH  18  19
ENDBRANCH  17  18
ENDBRANCH  16  17
ENDBRANCH  15  16
ENDBRANCH   1  15
TORSDOF 22
ENDMDL
MODEL 6
REMARK VINA RESULT:    -1.460      1.632      4.516
REMARK INTER + INTRA:          -4.949
REMARK INTER:                  -3.141
REMARK INTRA:                  -1.809
REMARK UNBOUND:                -1.612
REMARK SMILES CCCCCCCCCCCCCCCCCCCCCCCC(=O)[O-]
REMARK SMILES IDX 13 1 14 2 15 3 16 4 17 5 18 6 19 7 20 8 21 9 22 10 23 11
REMARK SMILES IDX 24 12 25 13 26 14 12 15 11 16 10 17 9 18 8 19 7 20 6 21 5 22
REMARK SMILES IDX 4 23 3 24 2 25 1 26
REMARK H PARENT
REMARK Flexibility Score: inf
ROOT
ATOM      1  C   UNL     1     -15.081  10.316   6.357  1.00  0.00     0.000 C 
ENDROOT
BRANCH   1   2
ATOM      2  C   UNL     1     -14.733   9.580   5.054  1.00  0.00     0.000 C 
BRANCH   2   3
ATOM      3  C   UNL     1     -13.407  10.065   4.442  1.00  0.00     0.000 C 
BRANCH   3   4
ATOM      4  C   UNL     1     -13.293   9.723   2.941  1.00  0.00     0.000 C 
BRANCH   4   5
ATOM      5  C   UNL     1     -14.450   8.855   2.416  1.00  0.00     0.000 C 
BRANCH   5   6
ATOM      6  C   UNL     1     -14.247   8.403   0.963  1.00  0.00     0.000 C 
BRANCH   6   7
ATOM      7  C   UNL     1     -12.892   8.876   0.422  1.00  0.00     0.000 C 
BRANCH   7   8
ATOM      8  C   UNL     1     -12.060   7.690  -0.087  1.00  0.00     0.000 C 
BRANCH   8   9
ATOM      9  C   UNL     1     -12.789   6.898  -1.193  1.00  0.00     0.000 C 
BRANCH   9  10
ATOM     10  C   UNL     1     -13.301   5.523  -0.730  1.00  0.00     0.006 C 
BRANCH  10  11
ATOM     11  C   UNL     1     -14.825   5.482  -0.558  1.00  0.00     0.053 C 
BRANCH  11  12
ATOM     12  C   UNL     1     -15.442   4.582  -1.581  1.00  0.00     0.041 C 
ATOM     13  O   UNL     1     -14.731   4.077  -2.491  1.00  0.00    -0.550 OA
ATOM     14  O   UNL     1     -16.792   4.267  -1.508  1.00  0.00    -0.550 OA
ENDBRANCH  11  12
ENDBRANCH  10  11
ENDBRANCH   9  10
ENDBRANCH   8   9
ENDBRANCH   7   8
ENDBRANCH   6   7
ENDBRANCH   5   6
ENDBRANCH   4   5
ENDBRANCH   3   4
ENDBRANCH   2   3
ENDBRANCH   1   2
BRANCH   1  15
ATOM     15  C   UNL     1     -16.589  10.306   6.653  1.00  0.00     0.000 C 
BRANCH  15  16
ATOM     16  C   UNL     1     -16.921   9.683   8.022  1.00  0.00     0.000 C 
BRANCH  16  17
ATOM     17  C   UNL     1     -15.732   9.000   8.726  1.00  0.00     0.000 C 
BRANCH  17  18
ATOM     18  C   UNL     1     -15.927   8.721  10.230  1.00  0.00    -0.000 C 
BRANCH  18  19
ATOM     19  C   UNL     1     -17.094   9.477  10.893  1.00  0.00    -0.000 C 
BRANCH  19  20
ATOM     20  C   UNL     1     -16.785   9.907  12.337  1.00  0.00    -0.000 C 
BRANCH  20  21
ATOM     21  C   UNL     1     -16.726  11.436  12.506  1.00  0.00    -0.000 C 
BRANCH  21  22
ATOM     22  C   UNL     1     -15.308  12.038  12.508  1.00  0.00    -0.000 C 
BRANCH  22  23
ATOM     23  C   UNL     1     -15.227  13.381  11.762  1.00  0.00    -0.000 C 
BRANCH  23  24
ATOM     24  C   UNL     1     -14.185  13.368  10.633  1.00  0.00    -0.000 C 
BRANCH  24  25
ATOM     25  C   UNL     1     -14.669  12.606   9.392  1.00  0.00    -0.003 C 
ATOM     26  C   UNL     1     -14.188  13.281   8.111  1.00  0.00     0.004 C 
ENDBRANCH  24  25
ENDBRANCH  23  24
ENDBRANCH  22  23
ENDBRANCH  21  22
ENDBRANCH  20  21
ENDBRANCH  19  20
ENDBRANCH  18  19
ENDBRANCH  17  18
ENDBRANCH  16  17
ENDBRANCH  15  16
ENDBRANCH   1  15
TORSDOF 22
ENDMDL
MODEL 7
REMARK VINA RESULT:    -1.342      1.235      4.127
REMARK INTER + INTRA:          -4.679
REMARK INTER:                  -2.362
REMARK INTRA:                  -2.317
REMARK UNBOUND:                -1.612
REMARK SMILES CCCCCCCCCCCCCCCCCCCCCCCC(=O)[O-]
REMARK SMILES IDX 13 1 14 2 15 3 16 4 17 5 18 6 19 7 20 8 21 9 22 10 23 11
REMARK SMILES IDX 24 12 25 13 26 14 12 15 11 16 10 17 9 18 8 19 7 20 6 21 5 22
REMARK SMILES IDX 4 23 3 24 2 25 1 26
REMARK H PARENT
REMARK Flexibility Score: inf
ROOT
ATOM      1  C   UNL     1     -16.258   9.081   9.581  1.00  0.00     0.000 C 
ENDROOT
BRANCH   1   2
ATOM      2  C   UNL     1     -15.566   9.267   8.222  1.00  0.00     0.000 C 
BRANCH   2   3
ATOM      3  C   UNL     1     -16.491   9.917   7.177  1.00  0.00     0.000 C 
BRANCH   3   4
ATOM      4  C   UNL     1     -15.888   9.881   5.757  1.00  0.00     0.000 C 
BRANCH   4   5
ATOM      5  C   UNL     1     -14.353   9.780   5.740  1.00  0.00     0.000 C 
BRANCH   5   6
ATOM      6  C   UNL     1     -13.718  10.527   4.558  1.00  0.00     0.000 C 
BRANCH   6   7
ATOM      7  C   UNL     1     -13.012   9.554   3.606  1.00  0.00     0.000 C 
BRANCH   7   8
ATOM      8  C   UNL     1     -13.869   9.287   2.359  1.00  0.00     0.000 C 
BRANCH   8   9
ATOM      9  C   UNL     1     -13.038   9.342   1.059  1.00  0.00     0.000 C 
BRANCH   9  10
ATOM     10  C   UNL     1     -13.185   8.087   0.181  1.00  0.00     0.006 C 
BRANCH  10  11
ATOM     11  C   UNL     1     -14.481   7.315   0.458  1.00  0.00     0.053 C 
BRANCH  11  12
ATOM     12  C   UNL     1     -14.504   6.037  -0.319  1.00  0.00     0.041 C 
ATOM     13  O   UNL     1     -13.523   5.720  -1.044  1.00  0.00    -0.550 OA
ATOM     14  O   UNL     1     -15.588   5.176  -0.213  1.00  0.00    -0.550 OA
ENDBRANCH  11  12
ENDBRANCH  10  11
ENDBRANCH   9  10
ENDBRANCH   8   9
ENDBRANCH   7   8
ENDBRANCH   6   7
ENDBRANCH   5   6
ENDBRANCH   4   5
ENDBRANCH   3   4
ENDBRANCH   2   3
ENDBRANCH   1   2
BRANCH   1  15
ATOM     15  C   UNL     1     -16.082   7.660  10.140  1.00  0.00     0.000 C 
BRANCH  15  16
ATOM     16  C   UNL     1     -16.591   7.523  11.587  1.00  0.00     0.000 C 
BRANCH  16  17
ATOM     17  C   UNL     1     -16.925   8.858  12.282  1.00  0.00     0.000 C 
BRANCH  17  18
ATOM     18  C   UNL     1     -15.772   9.488  13.090  1.00  0.00    -0.000 C 
BRANCH  18  19
ATOM     19  C   UNL     1     -15.745  11.029  13.104  1.00  0.00    -0.000 C 
BRANCH  19  20
ATOM     20  C   UNL     1     -16.730  11.652  12.100  1.00  0.00    -0.000 C 
BRANCH  20  21
ATOM     21  C   UNL     1     -16.475  13.152  11.865  1.00  0.00    -0.000 C 
BRANCH  21  22
ATOM     22  C   UNL     1     -16.297  13.561  10.391  1.00  0.00    -0.000 C 
BRANCH  22  23
ATOM     23  C   UNL     1     -14.822  13.747   9.996  1.00  0.00    -0.000 C 
BRANCH  23  24
ATOM     24  C   UNL     1     -14.333  12.672   9.014  1.00  0.00    -0.000 C 
BRANCH  24  25
ATOM     25  C   UNL     1     -13.922  13.255   7.654  1.00  0.00    -0.003 C 
ATOM     26  C   UNL     1     -15.099  13.264   6.683  1.00  0.00     0.004 C 
ENDBRANCH  24  25
ENDBRANCH  23  24
ENDBRANCH  22  23
ENDBRANCH  21  22
ENDBRANCH  20  21
ENDBRANCH  19  20
ENDBRANCH  18  19
ENDBRANCH  17  18
ENDBRANCH  16  17
ENDBRANCH  15  16
ENDBRANCH   1  15
TORSDOF 22
ENDMDL
MODEL 8
REMARK VINA RESULT:    -1.268      3.833      9.286
REMARK INTER + INTRA:          -4.511
REMARK INTER:                  -3.350
REMARK INTRA:                  -1.161
REMARK UNBOUND:                -1.612
REMARK SMILES CCCCCCCCCCCCCCCCCCCCCCCC(=O)[O-]
REMARK SMILES IDX 13 1 14 2 15 3 16 4 17 5 18 6 19 7 20 8 21 9 22 10 23 11
REMARK SMILES IDX 24 12 25 13 26 14 12 15 11 16 10 17 9 18 8 19 7 20 6 21 5 22
REMARK SMILES IDX 4 23 3 24 2 25 1 26
REMARK H PARENT
REMARK Flexibility Score: inf
ROOT
ATOM      1  C   UNL     1     -14.584  12.996   7.676  1.00  0.00     0.000 C 
ENDROOT
BRANCH   1   2
ATOM      2  C   UNL     1     -14.319  13.612   9.058  1.00  0.00     0.000 C 
BRANCH   2   3
ATOM      3  C   UNL     1     -14.492  12.592  10.198  1.00  0.00     0.000 C 
BRANCH   3   4
ATOM      4  C   UNL     1     -15.887  12.676  10.854  1.00  0.00     0.000 C 
BRANCH   4   5
ATOM      5  C   UNL     1     -16.459  11.308  11.265  1.00  0.00     0.000 C 
BRANCH   5   6
ATOM      6  C   UNL     1     -15.935  10.824  12.624  1.00  0.00     0.000 C 
BRANCH   6   7
ATOM      7  C   UNL     1     -16.319   9.360  12.874  1.00  0.00     0.000 C 
BRANCH   7   8
ATOM      8  C   UNL     1     -16.581   8.627  11.550  1.00  0.00     0.000 C 
BRANCH   8   9
ATOM      9  C   UNL     1     -16.226   7.127  11.634  1.00  0.00     0.000 C 
BRANCH   9  10
ATOM     10  C   UNL     1     -14.894   6.771  10.953  1.00  0.00     0.006 C 
BRANCH  10  11
ATOM     11  C   UNL     1     -13.875   6.156  11.920  1.00  0.00     0.053 C 
BRANCH  11  12
ATOM     12  C   UNL     1     -14.001   4.666  11.933  1.00  0.00     0.041 C 
ATOM     13  O   UNL     1     -15.056   4.123  12.357  1.00  0.00    -0.550 OA
ATOM     14  O   UNL     1     -12.972   3.875  11.438  1.00  0.00    -0.550 OA
ENDBRANCH  11  12
ENDBRANCH  10  11
ENDBRANCH   9  10
ENDBRANCH   8   9
ENDBRANCH   7   8
ENDBRANCH   6   7
ENDBRANCH   5   6
ENDBRANCH   4   5
ENDBRANCH   3   4
ENDBRANCH   2   3
ENDBRANCH   1   2
BRANCH   1  15
ATOM     15  C   UNL     1     -16.067  12.655   7.459  1.00  0.00     0.000 C 
BRANCH  15  16
ATOM     16  C   UNL     1     -16.329  11.138   7.427  1.00  0.00     0.000 C 
BRANCH  16  17
ATOM     17  C   UNL     1     -15.975  10.451   6.092  1.00  0.00     0.000 C 
BRANCH  17  18
ATOM     18  C   UNL     1     -14.519   9.955   5.971  1.00  0.00    -0.000 C 
BRANCH  18  19
ATOM     19  C   UNL     1     -14.130   9.396   4.589  1.00  0.00    -0.000 C 
BRANCH  19  20
ATOM     20  C   UNL     1     -13.322  10.397   3.746  1.00  0.00    -0.000 C 
BRANCH  20  21
ATOM     21  C   UNL     1     -12.949   9.845   2.358  1.00  0.00    -0.000 C 
BRANCH  21  22
ATOM     22  C   UNL     1     -13.971   8.867   1.749  1.00  0.00    -0.000 C 
BRANCH  22  23
ATOM     23  C   UNL     1     -13.418   8.104   0.533  1.00  0.00    -0.000 C 
BRANCH  23  24
ATOM     24  C   UNL     1     -14.375   7.009   0.038  1.00  0.00    -0.000 C 
BRANCH  24  25
ATOM     25  C   UNL     1     -13.661   5.928  -0.786  1.00  0.00    -0.003 C 
ATOM     26  C   UNL     1     -14.653   4.895  -1.314  1.00  0.00     0.004 C 
ENDBRANCH  24  25
ENDBRANCH  23  24
ENDBRANCH  22  23
ENDBRANCH  21  22
ENDBRANCH  20  21
ENDBRANCH  19  20
ENDBRANCH  18  19
ENDBRANCH  17  18
ENDBRANCH  16  17
ENDBRANCH  15  16
ENDBRANCH   1  15
TORSDOF 22
ENDMDL
MODEL 9
REMARK VINA RESULT:    -0.948      4.385     10.520
REMARK INTER + INTRA:          -3.778
REMARK INTER:                  -2.787
REMARK INTRA:                  -0.991
REMARK UNBOUND:                -1.612
REMARK SMILES CCCCCCCCCCCCCCCCCCCCCCCC(=O)[O-]
REMARK SMILES IDX 13 1 14 2 15 3 16 4 17 5 18 6 19 7 20 8 21 9 22 10 23 11
REMARK SMILES IDX 24 12 25 13 26 14 12 15 11 16 10 17 9 18 8 19 7 20 6 21 5 22
REMARK SMILES IDX 4 23 3 24 2 25 1 26
REMARK H PARENT
REMARK Flexibility Score: inf
ROOT
ATOM      1  C   UNL     1     -14.470  10.834   5.962  1.00  0.00     0.000 C 
ENDROOT
BRANCH   1   2
ATOM      2  C   UNL     1     -15.290  10.276   7.135  1.00  0.00     0.000 C 
BRANCH   2   3
ATOM      3  C   UNL     1     -16.735  10.805   7.145  1.00  0.00     0.000 C 
BRANCH   3   4
ATOM      4  C   UNL     1     -16.966  11.862   8.245  1.00  0.00     0.000 C 
BRANCH   4   5
ATOM      5  C   UNL     1     -15.843  12.908   8.342  1.00  0.00     0.000 C 
BRANCH   5   6
ATOM      6  C   UNL     1     -14.619  12.403   9.120  1.00  0.00     0.000 C 
BRANCH   6   7
ATOM      7  C   UNL     1     -14.337  13.287  10.340  1.00  0.00     0.000 C 
BRANCH   7   8
ATOM      8  C   UNL     1     -15.565  14.136  10.701  1.00  0.00     0.000 C 
BRANCH   8   9
ATOM      9  C   UNL     1     -15.739  14.291  12.226  1.00  0.00     0.000 C 
BRANCH   9  10
ATOM     10  C   UNL     1     -15.949  12.956  12.960  1.00  0.00     0.006 C 
BRANCH  10  11
ATOM     11  C   UNL     1     -16.967  12.046  12.262  1.00  0.00     0.053 C 
BRANCH  11  12
ATOM     12  C   UNL     1     -16.407  10.669  12.091  1.00  0.00     0.041 C 
ATOM     13  O   UNL     1     -15.681  10.166  12.989  1.00  0.00    -0.550 OA
ATOM     14  O   UNL     1     -16.717   9.926  10.961  1.00  0.00    -0.550 OA
ENDBRANCH  11  12
ENDBRANCH  10  11
ENDBRANCH   9  10
ENDBRANCH   8   9
ENDBRANCH   7   8
ENDBRANCH   6   7
ENDBRANCH   5   6
ENDBRANCH   4   5
ENDBRANCH   3   4
ENDBRANCH   2   3
ENDBRANCH   1   2
BRANCH   1  15
ATOM     15  C   UNL     1     -14.350   9.834   4.801  1.00  0.00     0.000 C 
BRANCH  15  16
ATOM     16  C   UNL     1     -13.003   9.940   4.062  1.00  0.00     0.000 C 
BRANCH  16  17
ATOM     17  C   UNL     1     -13.116  10.062   2.529  1.00  0.00     0.000 C 
BRANCH  17  18
ATOM     18  C   UNL     1     -14.128   9.106   1.864  1.00  0.00    -0.000 C 
BRANCH  18  19
ATOM     19  C   UNL     1     -13.533   8.144   0.818  1.00  0.00    -0.000 C 
BRANCH  19  20
ATOM     20  C   UNL     1     -14.585   7.203   0.206  1.00  0.00    -0.000 C 
BRANCH  20  21
ATOM     21  C   UNL     1     -16.013   7.503   0.695  1.00  0.00    -0.000 C 
BRANCH  21  22
ATOM     22  C   UNL     1     -17.077   6.475   0.270  1.00  0.00    -0.000 C 
BRANCH  22  23
ATOM     23  C   UNL     1     -16.492   5.074   0.023  1.00  0.00    -0.000 C 
BRANCH  23  24
ATOM     24  C   UNL     1     -17.125   4.375  -1.190  1.00  0.00    -0.000 C 
BRANCH  24  25
ATOM     25  C   UNL     1     -16.080   3.894  -2.207  1.00  0.00    -0.003 C 
ATOM     26  C   UNL     1     -14.721   4.535  -1.942  1.00  0.00     0.004 C 
ENDBRANCH  24  25
ENDBRANCH  23  24
ENDBRANCH  22  23
ENDBRANCH  21  22
ENDBRANCH  20  21
ENDBRANCH  19  20
ENDBRANCH  18  19
ENDBRANCH  17  18
ENDBRANCH  16  17
ENDBRANCH  15  16
ENDBRANCH   1  15
TORSDOF 22
ENDMDL
