MODEL 1
REMARK VINA RESULT:    -5.508      0.000      0.000
REMARK INTER + INTRA:         -17.158
REMARK INTER:                 -13.881
REMARK INTRA:                  -3.277
REMARK UNBOUND:                -3.277
REMARK SMILES CCCCCCCCCCCCCCCCCCCCCCCCCCCC(=O)[O-]
REMARK SMILES IDX 15 1 16 2 17 3 18 4 19 5 20 6 21 7 22 8 23 9 24 10 25 11
REMARK SMILES IDX 26 12 27 13 28 14 29 15 30 16 14 17 13 18 12 19 11 20 10 21
REMARK SMILES IDX 9 22 8 23 7 24 6 25 5 26 4 27 3 28 2 29 1 30
REMARK H PARENT
REMARK Flexibility Score: inf
ROOT
ATOM      1  C   UNL     1       8.900  21.537  -5.288  1.00  0.00     0.000 C 
ENDROOT
BRANCH   1   2
ATOM      2  C   UNL     1       9.847  21.121  -6.429  1.00  0.00     0.000 C 
BRANCH   2   3
ATOM      3  C   UNL     1      10.073  22.252  -7.445  1.00  0.00     0.000 C 
BRANCH   3   4
ATOM      4  C   UNL     1       9.875  21.784  -8.895  1.00  0.00     0.000 C 
BRANCH   4   5
ATOM      5  C   UNL     1      10.537  22.751  -9.885  1.00  0.00     0.000 C 
BRANCH   5   6
ATOM      6  C   UNL     1      10.794  24.141  -9.276  1.00  0.00     0.000 C 
BRANCH   6   7
ATOM      7  C   UNL     1      12.253  24.627  -9.365  1.00  0.00     0.000 C 
BRANCH   7   8
ATOM      8  C   UNL     1      13.154  24.211  -8.184  1.00  0.00     0.000 C 
BRANCH   8   9
ATOM      9  C   UNL     1      13.493  22.711  -8.119  1.00  0.00     0.000 C 
BRANCH   9  10
ATOM     10  C   UNL     1      14.418  22.360  -6.939  1.00  0.00     0.000 C 
BRANCH  10  11
ATOM     11  C   UNL     1      13.764  22.618  -5.573  1.00  0.00     0.000 C 
BRANCH  11  12
ATOM     12  C   UNL     1      14.646  23.466  -4.638  1.00  0.00     0.006 C 
BRANCH  12  13
ATOM     13  C   UNL     1      14.180  23.395  -3.178  1.00  0.00     0.053 C 
BRANCH  13  14
ATOM     14  C   UNL     1      14.169  24.744  -2.529  1.00  0.00     0.041 C 
ATOM     15  O   UNL     1      13.256  25.050  -1.715  1.00  0.00    -0.550 OA
ATOM     16  O   UNL     1      15.153  25.674  -2.843  1.00  0.00    -0.550 OA
ENDBRANCH  13  14
ENDBRANCH  12  13
ENDBRANCH  11  12
ENDBRANCH  10  11
ENDBRANCH   9  10
ENDBRANCH   8   9
ENDBRANCH   7   8
ENDBRANCH   6   7
ENDBRANCH   5   6
ENDBRANCH   4   5
ENDBRANCH   3   4
ENDBRANCH   2   3
ENDBRANCH   1   2
BRANCH   1  17
ATOM     17  C   UNL     1       8.223  22.901  -5.541  1.00  0.00     0.000 C 
BRANCH  17  18
ATOM     18  C   UNL     1       6.683  22.844  -5.560  1.00  0.00     0.000 C 
BRANCH  18  19
ATOM     19  C   UNL     1       5.998  23.904  -6.445  1.00  0.00     0.000 C 
BRANCH  19  20
ATOM     20  C   UNL     1       6.947  24.927  -7.099  1.00  0.00     0.000 C 
BRANCH  20  21
ATOM     21  C   UNL     1       7.226  24.706  -8.598  1.00  0.00     0.000 C 
BRANCH  21  22
ATOM     22  C   UNL     1       6.753  23.339  -9.134  1.00  0.00    -0.000 C 
BRANCH  22  23
ATOM     23  C   UNL     1       5.781  23.466 -10.322  1.00  0.00    -0.000 C 
BRANCH  23  24
ATOM     24  C   UNL     1       4.308  23.357  -9.883  1.00  0.00    -0.000 C 
BRANCH  24  25
ATOM     25  C   UNL     1       4.030  22.150  -8.968  1.00  0.00    -0.000 C 
BRANCH  25  26
ATOM     26  C   UNL     1       3.053  22.496  -7.831  1.00  0.00    -0.000 C 
BRANCH  26  27
ATOM     27  C   UNL     1       1.667  21.861  -8.031  1.00  0.00    -0.000 C 
BRANCH  27  28
ATOM     28  C   UNL     1       1.739  20.344  -8.280  1.00  0.00    -0.000 C 
BRANCH  28  29
ATOM     29  C   UNL     1       0.355  19.677  -8.259  1.00  0.00    -0.003 C 
ATOM     30  C   UNL     1      -0.723  20.525  -8.931  1.00  0.00     0.004 C 
ENDBRANCH  28  29
ENDBRANCH  27  28
ENDBRANCH  26  27
ENDBRANCH  25  26
ENDBRANCH  24  25
ENDBRANCH  23  24
ENDBRANCH  22  23
ENDBRANCH  21  22
ENDBRANCH  20  21
ENDBRANCH  19  20
ENDBRANCH  18  19
ENDBRANCH  17  18
ENDBRANCH   1  17
TORSDOF 26
ENDMDL
MODEL 2
REMARK VINA RESULT:    -5.463      1.124      2.630
REMARK INTER + INTRA:         -17.044
REMARK INTER:                 -13.932
REMARK INTRA:                  -3.112
REMARK UNBOUND:                -3.277
REMARK SMILES CCCCCCCCCCCCCCCCCCCCCCCCCCCC(=O)[O-]
REMARK SMILES IDX 15 1 16 2 17 3 18 4 19 5 20 6 21 7 22 8 23 9 24 10 25 11
REMARK SMILES IDX 26 12 27 13 28 14 29 15 30 16 14 17 13 18 12 19 11 20 10 21
REMARK SMILES IDX 9 22 8 23 7 24 6 25 5 26 4 27 3 28 2 29 1 30
REMARK H PARENT
REMARK Flexibility Score: inf
ROOT
ATOM      1  C   UNL     1      10.446  20.908  -8.253  1.00  0.00     0.000 C 
ENDROOT
BRANCH   1   2
ATOM      2  C   UNL     1       9.521  21.747  -9.154  1.00  0.00     0.000 C 
BRANCH   2   3
ATOM      3  C   UNL     1      10.286  22.836  -9.925  1.00  0.00     0.000 C 
BRANCH   3   4
ATOM      4  C   UNL     1      10.774  23.968  -9.007  1.00  0.00     0.000 C 
BRANCH   4   5
ATOM      5  C   UNL     1      12.161  24.466  -9.433  1.00  0.00     0.000 C 
BRANCH   5   6
ATOM      6  C   UNL     1      13.208  24.336  -8.312  1.00  0.00     0.000 C 
BRANCH   6   7
ATOM      7  C   UNL     1      13.118  23.036  -7.490  1.00  0.00     0.000 C 
BRANCH   7   8
ATOM      8  C   UNL     1      14.441  22.581  -6.840  1.00  0.00     0.000 C 
BRANCH   8   9
ATOM      9  C   UNL     1      15.675  23.425  -7.211  1.00  0.00     0.000 C 
BRANCH   9  10
ATOM     10  C   UNL     1      16.571  23.734  -5.999  1.00  0.00     0.000 C 
BRANCH  10  11
ATOM     11  C   UNL     1      15.977  23.230  -4.675  1.00  0.00     0.000 C 
BRANCH  11  12
ATOM     12  C   UNL     1      16.226  24.195  -3.501  1.00  0.00     0.006 C 
BRANCH  12  13
ATOM     13  C   UNL     1      15.662  25.595  -3.772  1.00  0.00     0.053 C 
BRANCH  13  14
ATOM     14  C   UNL     1      14.772  26.062  -2.661  1.00  0.00     0.041 C 
ATOM     15  O   UNL     1      13.823  25.335  -2.260  1.00  0.00    -0.550 OA
ATOM     16  O   UNL     1      14.975  27.310  -2.085  1.00  0.00    -0.550 OA
ENDBRANCH  13  14
ENDBRANCH  12  13
ENDBRANCH  11  12
ENDBRANCH  10  11
ENDBRANCH   9  10
ENDBRANCH   8   9
ENDBRANCH   7   8
ENDBRANCH   6   7
ENDBRANCH   5   6
ENDBRANCH   4   5
ENDBRANCH   3   4
ENDBRANCH   2   3
ENDBRANCH   1   2
BRANCH   1  17
ATOM     17  C   UNL     1       9.886  20.726  -6.826  1.00  0.00     0.000 C 
BRANCH  17  18
ATOM     18  C   UNL     1       9.505  22.045  -6.128  1.00  0.00     0.000 C 
BRANCH  18  19
ATOM     19  C   UNL     1       8.382  21.932  -5.078  1.00  0.00     0.000 C 
BRANCH  19  20
ATOM     20  C   UNL     1       7.075  22.668  -5.432  1.00  0.00     0.000 C 
BRANCH  20  21
ATOM     21  C   UNL     1       7.185  24.203  -5.522  1.00  0.00     0.000 C 
BRANCH  21  22
ATOM     22  C   UNL     1       6.787  24.785  -6.895  1.00  0.00    -0.000 C 
BRANCH  22  23
ATOM     23  C   UNL     1       7.148  23.855  -8.068  1.00  0.00    -0.000 C 
BRANCH  23  24
ATOM     24  C   UNL     1       6.562  24.348  -9.405  1.00  0.00    -0.000 C 
BRANCH  24  25
ATOM     25  C   UNL     1       6.251  23.209 -10.393  1.00  0.00    -0.000 C 
BRANCH  25  26
ATOM     26  C   UNL     1       5.216  22.219  -9.832  1.00  0.00    -0.000 C 
BRANCH  26  27
ATOM     27  C   UNL     1       3.985  22.925  -9.240  1.00  0.00    -0.000 C 
BRANCH  27  28
ATOM     28  C   UNL     1       3.451  22.227  -7.977  1.00  0.00    -0.000 C 
BRANCH  28  29
ATOM     29  C   UNL     1       1.918  22.113  -7.969  1.00  0.00    -0.003 C 
ATOM     30  C   UNL     1       1.431  20.666  -8.029  1.00  0.00     0.004 C 
ENDBRANCH  28  29
ENDBRANCH  27  28
ENDBRANCH  26  27
ENDBRANCH  25  26
ENDBRANCH  24  25
ENDBRANCH  23  24
ENDBRANCH  22  23
ENDBRANCH  21  22
ENDBRANCH  20  21
ENDBRANCH  19  20
ENDBRANCH  18  19
ENDBRANCH  17  18
ENDBRANCH   1  17
TORSDOF 26
ENDMDL
MODEL 3
REMARK VINA RESULT:    -5.395      4.541     10.824
REMARK INTER + INTRA:         -16.873
REMARK INTER:                 -13.886
REMARK INTRA:                  -2.987
REMARK UNBOUND:                -3.277
REMARK SMILES CCCCCCCCCCCCCCCCCCCCCCCCCCCC(=O)[O-]
REMARK SMILES IDX 15 1 16 2 17 3 18 4 19 5 20 6 21 7 22 8 23 9 24 10 25 11
REMARK SMILES IDX 26 12 27 13 28 14 29 15 30 16 14 17 13 18 12 19 11 20 10 21
REMARK SMILES IDX 9 22 8 23 7 24 6 25 5 26 4 27 3 28 2 29 1 30
REMARK H PARENT
REMARK Flexibility Score: inf
ROOT
ATOM      1  C   UNL     1       7.477  23.246  -5.537  1.00  0.00     0.000 C 
ENDROOT
BRANCH   1   2
ATOM      2  C   UNL     1       6.948  23.222  -6.983  1.00  0.00     0.000 C 
BRANCH   2   3
ATOM      3  C   UNL     1       7.156  24.564  -7.705  1.00  0.00     0.000 C 
BRANCH   3   4
ATOM      4  C   UNL     1       6.777  24.491  -9.192  1.00  0.00     0.000 C 
BRANCH   4   5
ATOM      5  C   UNL     1       6.731  23.038  -9.681  1.00  0.00     0.000 C 
BRANCH   5   6
ATOM      6  C   UNL     1       5.424  22.702 -10.421  1.00  0.00     0.000 C 
BRANCH   6   7
ATOM      7  C   UNL     1       4.137  23.096  -9.672  1.00  0.00     0.000 C 
BRANCH   7   8
ATOM      8  C   UNL     1       3.889  22.335  -8.353  1.00  0.00     0.000 C 
BRANCH   8   9
ATOM      9  C   UNL     1       2.433  22.356  -7.851  1.00  0.00     0.000 C 
BRANCH   9  10
ATOM     10  C   UNL     1       1.684  21.044  -8.145  1.00  0.00     0.000 C 
BRANCH  10  11
ATOM     11  C   UNL     1       0.406  20.887  -7.306  1.00  0.00     0.000 C 
BRANCH  11  12
ATOM     12  C   UNL     1       0.090  22.134  -6.459  1.00  0.00     0.006 C 
BRANCH  12  13
ATOM     13  C   UNL     1      -1.352  22.619  -6.657  1.00  0.00     0.053 C 
BRANCH  13  14
ATOM     14  C   UNL     1      -1.618  23.015  -8.077  1.00  0.00     0.041 C 
ATOM     15  O   UNL     1      -1.899  22.138  -8.938  1.00  0.00    -0.550 OA
ATOM     16  O   UNL     1      -1.530  24.350  -8.454  1.00  0.00    -0.550 OA
ENDBRANCH  13  14
ENDBRANCH  12  13
ENDBRANCH  11  12
ENDBRANCH  10  11
ENDBRANCH   9  10
ENDBRANCH   8   9
ENDBRANCH   7   8
ENDBRANCH   6   7
ENDBRANCH   5   6
ENDBRANCH   4   5
ENDBRANCH   3   4
ENDBRANCH   2   3
ENDBRANCH   1   2
BRANCH   1  17
ATOM     17  C   UNL     1       8.472  22.102  -5.245  1.00  0.00     0.000 C 
BRANCH  17  18
ATOM     18  C   UNL     1       9.756  22.154  -6.094  1.00  0.00     0.000 C 
BRANCH  18  19
ATOM     19  C   UNL     1       9.967  20.956  -7.040  1.00  0.00     0.000 C 
BRANCH  19  20
ATOM     20  C   UNL     1       9.895  21.285  -8.543  1.00  0.00     0.000 C 
BRANCH  20  21
ATOM     21  C   UNL     1      10.083  22.771  -8.905  1.00  0.00     0.000 C 
BRANCH  21  22
ATOM     22  C   UNL     1      11.417  23.084  -9.615  1.00  0.00    -0.000 C 
BRANCH  22  23
ATOM     23  C   UNL     1      12.069  24.387  -9.118  1.00  0.00    -0.000 C 
BRANCH  23  24
ATOM     24  C   UNL     1      13.273  24.121  -8.194  1.00  0.00    -0.000 C 
BRANCH  24  25
ATOM     25  C   UNL     1      13.359  22.661  -7.708  1.00  0.00    -0.000 C 
BRANCH  25  26
ATOM     26  C   UNL     1      13.661  22.567  -6.203  1.00  0.00    -0.000 C 
BRANCH  26  27
ATOM     27  C   UNL     1      14.794  23.510  -5.768  1.00  0.00    -0.000 C 
BRANCH  27  28
ATOM     28  C   UNL     1      16.179  22.840  -5.824  1.00  0.00    -0.000 C 
BRANCH  28  29
ATOM     29  C   UNL     1      16.959  23.205  -7.097  1.00  0.00    -0.003 C 
ATOM     30  C   UNL     1      17.049  22.047  -8.089  1.00  0.00     0.004 C 
ENDBRANCH  28  29
ENDBRANCH  27  28
ENDBRANCH  26  27
ENDBRANCH  25  26
ENDBRANCH  24  25
ENDBRANCH  23  24
ENDBRANCH  22  23
ENDBRANCH  21  22
ENDBRANCH  20  21
ENDBRANCH  19  20
ENDBRANCH  18  19
ENDBRANCH  17  18
ENDBRANCH   1  17
TORSDOF 26
ENDMDL
MODEL 4
REMARK VINA RESULT:    -5.385      2.754      9.211
REMARK INTER + INTRA:         -16.848
REMARK INTER:                 -13.543
REMARK INTRA:                  -3.305
REMARK UNBOUND:                -3.277
REMARK SMILES CCCCCCCCCCCCCCCCCCCCCCCCCCCC(=O)[O-]
REMARK SMILES IDX 15 1 16 2 17 3 18 4 19 5 20 6 21 7 22 8 23 9 24 10 25 11
REMARK SMILES IDX 26 12 27 13 28 14 29 15 30 16 14 17 13 18 12 19 11 20 10 21
REMARK SMILES IDX 9 22 8 23 7 24 6 25 5 26 4 27 3 28 2 29 1 30
REMARK H PARENT
REMARK Flexibility Score: inf
ROOT
ATOM      1  C   UNL     1       9.154  22.608  -9.787  1.00  0.00     0.000 C 
ENDROOT
BRANCH   1   2
ATOM      2  C   UNL     1       7.647  22.868  -9.610  1.00  0.00     0.000 C 
BRANCH   2   3
ATOM      3  C   UNL     1       6.815  22.308 -10.776  1.00  0.00     0.000 C 
BRANCH   3   4
ATOM      4  C   UNL     1       5.316  22.247 -10.446  1.00  0.00     0.000 C 
BRANCH   4   5
ATOM      5  C   UNL     1       4.960  23.206  -9.303  1.00  0.00     0.000 C 
BRANCH   5   6
ATOM      6  C   UNL     1       3.994  22.581  -8.282  1.00  0.00     0.000 C 
BRANCH   6   7
ATOM      7  C   UNL     1       4.337  22.867  -6.807  1.00  0.00     0.000 C 
BRANCH   7   8
ATOM      8  C   UNL     1       5.662  23.624  -6.580  1.00  0.00     0.000 C 
BRANCH   8   9
ATOM      9  C   UNL     1       6.638  22.950  -5.598  1.00  0.00     0.000 C 
BRANCH   9  10
ATOM     10  C   UNL     1       8.107  23.067  -6.044  1.00  0.00     0.000 C 
BRANCH  10  11
ATOM     11  C   UNL     1       8.989  21.936  -5.493  1.00  0.00     0.000 C 
BRANCH  11  12
ATOM     12  C   UNL     1      10.243  21.684  -6.350  1.00  0.00     0.006 C 
BRANCH  12  13
ATOM     13  C   UNL     1      10.035  20.549  -7.362  1.00  0.00     0.053 C 
BRANCH  13  14
ATOM     14  C   UNL     1      11.328  20.102  -7.971  1.00  0.00     0.041 C 
ATOM     15  O   UNL     1      12.029  20.910  -8.637  1.00  0.00    -0.550 OA
ATOM     16  O   UNL     1      11.746  18.785  -7.824  1.00  0.00    -0.550 OA
ENDBRANCH  13  14
ENDBRANCH  12  13
ENDBRANCH  11  12
ENDBRANCH  10  11
ENDBRANCH   9  10
ENDBRANCH   8   9
ENDBRANCH   7   8
ENDBRANCH   6   7
ENDBRANCH   5   6
ENDBRANCH   4   5
ENDBRANCH   3   4
ENDBRANCH   2   3
ENDBRANCH   1   2
BRANCH   1  17
ATOM     17  C   UNL     1      10.026  23.771  -9.268  1.00  0.00     0.000 C 
BRANCH  17  18
ATOM     18  C   UNL     1      11.343  23.964 -10.045  1.00  0.00     0.000 C 
BRANCH  18  19
ATOM     19  C   UNL     1      12.460  24.694  -9.273  1.00  0.00     0.000 C 
BRANCH  19  20
ATOM     20  C   UNL     1      12.915  24.007  -7.971  1.00  0.00     0.000 C 
BRANCH  20  21
ATOM     21  C   UNL     1      14.438  23.843  -7.807  1.00  0.00     0.000 C 
BRANCH  21  22
ATOM     22  C   UNL     1      14.905  22.379  -7.660  1.00  0.00    -0.000 C 
BRANCH  22  23
ATOM     23  C   UNL     1      16.374  22.176  -8.071  1.00  0.00    -0.000 C 
BRANCH  23  24
ATOM     24  C   UNL     1      17.293  23.283  -7.518  1.00  0.00    -0.000 C 
BRANCH  24  25
ATOM     25  C   UNL     1      17.662  23.086  -6.035  1.00  0.00    -0.000 C 
BRANCH  25  26
ATOM     26  C   UNL     1      16.904  24.058  -5.114  1.00  0.00    -0.000 C 
BRANCH  26  27
ATOM     27  C   UNL     1      16.191  23.339  -3.957  1.00  0.00    -0.000 C 
BRANCH  27  28
ATOM     28  C   UNL     1      15.045  24.173  -3.357  1.00  0.00    -0.000 C 
BRANCH  28  29
ATOM     29  C   UNL     1      13.816  23.320  -3.004  1.00  0.00    -0.003 C 
ATOM     30  C   UNL     1      13.296  22.510  -4.191  1.00  0.00     0.004 C 
ENDBRANCH  28  29
ENDBRANCH  27  28
ENDBRANCH  26  27
ENDBRANCH  25  26
ENDBRANCH  24  25
ENDBRANCH  23  24
ENDBRANCH  22  23
ENDBRANCH  21  22
ENDBRANCH  20  21
ENDBRANCH  19  20
ENDBRANCH  18  19
ENDBRANCH  17  18
ENDBRANCH   1  17
TORSDOF 26
ENDMDL
MODEL 5
REMARK VINA RESULT:    -5.321      4.098     10.896
REMARK INTER + INTRA:         -16.687
REMARK INTER:                 -13.525
REMARK INTRA:                  -3.162
REMARK UNBOUND:                -3.277
REMARK SMILES CCCCCCCCCCCCCCCCCCCCCCCCCCCC(=O)[O-]
REMARK SMILES IDX 15 1 16 2 17 3 18 4 19 5 20 6 21 7 22 8 23 9 24 10 25 11
REMARK SMILES IDX 26 12 27 13 28 14 29 15 30 16 14 17 13 18 12 19 11 20 10 21
REMARK SMILES IDX 9 22 8 23 7 24 6 25 5 26 4 27 3 28 2 29 1 30
REMARK H PARENT
REMARK Flexibility Score: inf
ROOT
ATOM      1  C   UNL     1      11.171  23.255  -9.971  1.00  0.00     0.000 C 
ENDROOT
BRANCH   1   2
ATOM      2  C   UNL     1       9.784  23.277  -9.303  1.00  0.00     0.000 C 
BRANCH   2   3
ATOM      3  C   UNL     1       9.178  21.871  -9.164  1.00  0.00     0.000 C 
BRANCH   3   4
ATOM      4  C   UNL     1       9.640  21.160  -7.883  1.00  0.00     0.000 C 
BRANCH   4   5
ATOM      5  C   UNL     1       9.811  22.156  -6.728  1.00  0.00     0.000 C 
BRANCH   5   6
ATOM      6  C   UNL     1       8.969  21.785  -5.495  1.00  0.00     0.000 C 
BRANCH   6   7
ATOM      7  C   UNL     1       7.750  22.695  -5.246  1.00  0.00     0.000 C 
BRANCH   7   8
ATOM      8  C   UNL     1       7.387  23.634  -6.416  1.00  0.00     0.000 C 
BRANCH   8   9
ATOM      9  C   UNL     1       5.946  23.493  -6.942  1.00  0.00     0.000 C 
BRANCH   9  10
ATOM     10  C   UNL     1       5.887  23.277  -8.465  1.00  0.00     0.000 C 
BRANCH  10  11
ATOM     11  C   UNL     1       4.484  22.888  -8.957  1.00  0.00     0.000 C 
BRANCH  11  12
ATOM     12  C   UNL     1       3.504  22.601  -7.805  1.00  0.00     0.006 C 
BRANCH  12  13
ATOM     13  C   UNL     1       2.474  21.525  -8.175  1.00  0.00     0.053 C 
BRANCH  13  14
ATOM     14  C   UNL     1       1.087  21.922  -7.777  1.00  0.00     0.041 C 
ATOM     15  O   UNL     1       0.128  21.775  -8.582  1.00  0.00    -0.550 OA
ATOM     16  O   UNL     1       0.855  22.478  -6.524  1.00  0.00    -0.550 OA
ENDBRANCH  13  14
ENDBRANCH  12  13
ENDBRANCH  11  12
ENDBRANCH  10  11
ENDBRANCH   9  10
ENDBRANCH   8   9
ENDBRANCH   7   8
ENDBRANCH   6   7
ENDBRANCH   5   6
ENDBRANCH   4   5
ENDBRANCH   3   4
ENDBRANCH   2   3
ENDBRANCH   1   2
BRANCH   1  17
ATOM     17  C   UNL     1      12.021  24.496  -9.627  1.00  0.00     0.000 C 
BRANCH  17  18
ATOM     18  C   UNL     1      12.888  24.334  -8.364  1.00  0.00     0.000 C 
BRANCH  18  19
ATOM     19  C   UNL     1      13.194  22.879  -7.959  1.00  0.00     0.000 C 
BRANCH  19  20
ATOM     20  C   UNL     1      13.580  22.675  -6.481  1.00  0.00     0.000 C 
BRANCH  20  21
ATOM     21  C   UNL     1      15.089  22.739  -6.177  1.00  0.00     0.000 C 
BRANCH  21  22
ATOM     22  C   UNL     1      15.990  22.655  -7.428  1.00  0.00    -0.000 C 
BRANCH  22  23
ATOM     23  C   UNL     1      16.927  23.868  -7.573  1.00  0.00    -0.000 C 
BRANCH  23  24
ATOM     24  C   UNL     1      16.354  25.130  -6.900  1.00  0.00    -0.000 C 
BRANCH  24  25
ATOM     25  C   UNL     1      17.440  26.091  -6.379  1.00  0.00    -0.000 C 
BRANCH  25  26
ATOM     26  C   UNL     1      17.358  26.289  -4.856  1.00  0.00    -0.000 C 
BRANCH  26  27
ATOM     27  C   UNL     1      17.029  24.986  -4.109  1.00  0.00    -0.000 C 
BRANCH  27  28
ATOM     28  C   UNL     1      15.650  25.024  -3.427  1.00  0.00    -0.000 C 
BRANCH  28  29
ATOM     29  C   UNL     1      15.201  26.453  -3.081  1.00  0.00    -0.003 C 
ATOM     30  C   UNL     1      15.155  26.712  -1.577  1.00  0.00     0.004 C 
ENDBRANCH  28  29
ENDBRANCH  27  28
ENDBRANCH  26  27
ENDBRANCH  25  26
ENDBRANCH  24  25
ENDBRANCH  23  24
ENDBRANCH  22  23
ENDBRANCH  21  22
ENDBRANCH  20  21
ENDBRANCH  19  20
ENDBRANCH  18  19
ENDBRANCH  17  18
ENDBRANCH   1  17
TORSDOF 26
ENDMDL
MODEL 6
REMARK VINA RESULT:    -5.292      1.675      4.584
REMARK INTER + INTRA:         -16.613
REMARK INTER:                 -12.900
REMARK INTRA:                  -3.712
REMARK UNBOUND:                -3.277
REMARK SMILES CCCCCCCCCCCCCCCCCCCCCCCCCCCC(=O)[O-]
REMARK SMILES IDX 15 1 16 2 17 3 18 4 19 5 20 6 21 7 22 8 23 9 24 10 25 11
REMARK SMILES IDX 26 12 27 13 28 14 29 15 30 16 14 17 13 18 12 19 11 20 10 21
REMARK SMILES IDX 9 22 8 23 7 24 6 25 5 26 4 27 3 28 2 29 1 30
REMARK H PARENT
REMARK Flexibility Score: inf
ROOT
ATOM      1  C   UNL     1       8.808  21.539  -5.156  1.00  0.00     0.000 C 
ENDROOT
BRANCH   1   2
ATOM      2  C   UNL     1       9.334  21.639  -6.599  1.00  0.00     0.000 C 
BRANCH   2   3
ATOM      3  C   UNL     1      10.866  21.768  -6.657  1.00  0.00     0.000 C 
BRANCH   3   4
ATOM      4  C   UNL     1      11.477  20.948  -7.803  1.00  0.00     0.000 C 
BRANCH   4   5
ATOM      5  C   UNL     1      12.959  21.294  -8.002  1.00  0.00     0.000 C 
BRANCH   5   6
ATOM      6  C   UNL     1      13.448  22.386  -7.034  1.00  0.00     0.000 C 
BRANCH   6   7
ATOM      7  C   UNL     1      14.596  23.262  -7.574  1.00  0.00     0.000 C 
BRANCH   7   8
ATOM      8  C   UNL     1      15.062  24.385  -6.625  1.00  0.00     0.000 C 
BRANCH   8   9
ATOM      9  C   UNL     1      16.585  24.607  -6.575  1.00  0.00     0.000 C 
BRANCH   9  10
ATOM     10  C   UNL     1      17.042  25.309  -5.284  1.00  0.00     0.000 C 
BRANCH  10  11
ATOM     11  C   UNL     1      15.878  25.616  -4.329  1.00  0.00     0.000 C 
BRANCH  11  12
ATOM     12  C   UNL     1      16.056  24.969  -2.943  1.00  0.00     0.006 C 
BRANCH  12  13
ATOM     13  C   UNL     1      15.493  23.542  -2.892  1.00  0.00     0.053 C 
BRANCH  13  14
ATOM     14  C   UNL     1      13.996  23.532  -2.909  1.00  0.00     0.041 C 
ATOM     15  O   UNL     1      13.348  24.393  -2.255  1.00  0.00    -0.550 OA
ATOM     16  O   UNL     1      13.315  22.556  -3.627  1.00  0.00    -0.550 OA
ENDBRANCH  13  14
ENDBRANCH  12  13
ENDBRANCH  11  12
ENDBRANCH  10  11
ENDBRANCH   9  10
ENDBRANCH   8   9
ENDBRANCH   7   8
ENDBRANCH   6   7
ENDBRANCH   5   6
ENDBRANCH   4   5
ENDBRANCH   3   4
ENDBRANCH   2   3
ENDBRANCH   1   2
BRANCH   1  17
ATOM     17  C   UNL     1       7.710  22.580  -4.846  1.00  0.00     0.000 C 
BRANCH  17  18
ATOM     18  C   UNL     1       7.606  23.712  -5.886  1.00  0.00     0.000 C 
BRANCH  18  19
ATOM     19  C   UNL     1       6.173  24.059  -6.336  1.00  0.00     0.000 C 
BRANCH  19  20
ATOM     20  C   UNL     1       5.207  22.863  -6.435  1.00  0.00     0.000 C 
BRANCH  20  21
ATOM     21  C   UNL     1       3.842  23.168  -7.082  1.00  0.00     0.000 C 
BRANCH  21  22
ATOM     22  C   UNL     1       3.449  22.199  -8.217  1.00  0.00    -0.000 C 
BRANCH  22  23
ATOM     23  C   UNL     1       4.507  22.125  -9.333  1.00  0.00    -0.000 C 
BRANCH  23  24
ATOM     24  C   UNL     1       4.873  23.518  -9.881  1.00  0.00    -0.000 C 
BRANCH  24  25
ATOM     25  C   UNL     1       6.389  23.725 -10.059  1.00  0.00    -0.000 C 
BRANCH  25  26
ATOM     26  C   UNL     1       7.207  22.553  -9.489  1.00  0.00    -0.000 C 
BRANCH  26  27
ATOM     27  C   UNL     1       8.611  22.457 -10.108  1.00  0.00    -0.000 C 
BRANCH  27  28
ATOM     28  C   UNL     1       9.590  23.490  -9.523  1.00  0.00    -0.000 C 
BRANCH  28  29
ATOM     29  C   UNL     1      10.932  23.522 -10.271  1.00  0.00    -0.003 C 
ATOM     30  C   UNL     1      11.919  24.525  -9.675  1.00  0.00     0.004 C 
ENDBRANCH  28  29
ENDBRANCH  27  28
ENDBRANCH  26  27
ENDBRANCH  25  26
ENDBRANCH  24  25
ENDBRANCH  23  24
ENDBRANCH  22  23
ENDBRANCH  21  22
ENDBRANCH  20  21
ENDBRANCH  19  20
ENDBRANCH  18  19
ENDBRANCH  17  18
ENDBRANCH   1  17
TORSDOF 26
ENDMDL
MODEL 7
REMARK VINA RESULT:    -5.211      2.519      3.837
REMARK INTER + INTRA:         -16.408
REMARK INTER:                 -13.887
REMARK INTRA:                  -2.521
REMARK UNBOUND:                -3.277
REMARK SMILES CCCCCCCCCCCCCCCCCCCCCCCCCCCC(=O)[O-]
REMARK SMILES IDX 15 1 16 2 17 3 18 4 19 5 20 6 21 7 22 8 23 9 24 10 25 11
REMARK SMILES IDX 26 12 27 13 28 14 29 15 30 16 14 17 13 18 12 19 11 20 10 21
REMARK SMILES IDX 9 22 8 23 7 24 6 25 5 26 4 27 3 28 2 29 1 30
REMARK H PARENT
REMARK Flexibility Score: inf
ROOT
ATOM      1  C   UNL     1       9.884  20.705  -7.119  1.00  0.00     0.000 C 
ENDROOT
BRANCH   1   2
ATOM      2  C   UNL     1      10.796  20.983  -8.328  1.00  0.00     0.000 C 
BRANCH   2   3
ATOM      3  C   UNL     1      12.012  21.848  -7.958  1.00  0.00     0.000 C 
BRANCH   3   4
ATOM      4  C   UNL     1      11.910  23.272  -8.525  1.00  0.00     0.000 C 
BRANCH   4   5
ATOM      5  C   UNL     1      13.213  24.051  -8.303  1.00  0.00     0.000 C 
BRANCH   5   6
ATOM      6  C   UNL     1      14.033  23.511  -7.119  1.00  0.00     0.000 C 
BRANCH   6   7
ATOM      7  C   UNL     1      15.428  24.145  -6.956  1.00  0.00     0.000 C 
BRANCH   7   8
ATOM      8  C   UNL     1      15.426  25.616  -6.491  1.00  0.00     0.000 C 
BRANCH   8   9
ATOM      9  C   UNL     1      16.468  25.959  -5.410  1.00  0.00     0.000 C 
BRANCH   9  10
ATOM     10  C   UNL     1      16.098  25.395  -4.026  1.00  0.00     0.000 C 
BRANCH  10  11
ATOM     11  C   UNL     1      15.146  26.313  -3.244  1.00  0.00     0.000 C 
BRANCH  11  12
ATOM     12  C   UNL     1      14.160  25.534  -2.354  1.00  0.00     0.006 C 
BRANCH  12  13
ATOM     13  C   UNL     1      14.635  24.101  -2.079  1.00  0.00     0.053 C 
BRANCH  13  14
ATOM     14  C   UNL     1      13.581  23.090  -2.412  1.00  0.00     0.041 C 
ATOM     15  O   UNL     1      12.926  22.530  -1.492  1.00  0.00    -0.550 OA
ATOM     16  O   UNL     1      13.339  22.749  -3.737  1.00  0.00    -0.550 OA
ENDBRANCH  13  14
ENDBRANCH  12  13
ENDBRANCH  11  12
ENDBRANCH  10  11
ENDBRANCH   9  10
ENDBRANCH   8   9
ENDBRANCH   7   8
ENDBRANCH   6   7
ENDBRANCH   5   6
ENDBRANCH   4   5
ENDBRANCH   3   4
ENDBRANCH   2   3
ENDBRANCH   1   2
BRANCH   1  17
ATOM     17  C   UNL     1       9.643  21.958  -6.250  1.00  0.00     0.000 C 
BRANCH  17  18
ATOM     18  C   UNL     1       8.686  21.728  -5.065  1.00  0.00     0.000 C 
BRANCH  18  19
ATOM     19  C   UNL     1       7.355  22.501  -5.137  1.00  0.00     0.000 C 
BRANCH  19  20
ATOM     20  C   UNL     1       7.419  23.853  -5.875  1.00  0.00     0.000 C 
BRANCH  20  21
ATOM     21  C   UNL     1       6.521  23.968  -7.122  1.00  0.00     0.000 C 
BRANCH  21  22
ATOM     22  C   UNL     1       7.252  24.480  -8.382  1.00  0.00    -0.000 C 
BRANCH  22  23
ATOM     23  C   UNL     1       8.176  23.421  -9.010  1.00  0.00    -0.000 C 
BRANCH  23  24
ATOM     24  C   UNL     1       7.587  22.829 -10.305  1.00  0.00    -0.000 C 
BRANCH  24  25
ATOM     25  C   UNL     1       6.302  22.012 -10.074  1.00  0.00    -0.000 C 
BRANCH  25  26
ATOM     26  C   UNL     1       5.053  22.730 -10.614  1.00  0.00    -0.000 C 
BRANCH  26  27
ATOM     27  C   UNL     1       5.402  23.909 -11.538  1.00  0.00    -0.000 C 
BRANCH  27  28
ATOM     28  C   UNL     1       4.330  24.159 -12.612  1.00  0.00    -0.000 C 
BRANCH  28  29
ATOM     29  C   UNL     1       3.490  25.415 -12.327  1.00  0.00    -0.003 C 
ATOM     30  C   UNL     1       4.175  26.702 -12.783  1.00  0.00     0.004 C 
ENDBRANCH  28  29
ENDBRANCH  27  28
ENDBRANCH  26  27
ENDBRANCH  25  26
ENDBRANCH  24  25
ENDBRANCH  23  24
ENDBRANCH  22  23
ENDBRANCH  21  22
ENDBRANCH  20  21
ENDBRANCH  19  20
ENDBRANCH  18  19
ENDBRANCH  17  18
ENDBRANCH   1  17
TORSDOF 26
ENDMDL
MODEL 8
REMARK VINA RESULT:    -5.208      2.880      9.776
REMARK INTER + INTRA:         -16.400
REMARK INTER:                 -12.963
REMARK INTRA:                  -3.437
REMARK UNBOUND:                -3.277
REMARK SMILES CCCCCCCCCCCCCCCCCCCCCCCCCCCC(=O)[O-]
REMARK SMILES IDX 15 1 16 2 17 3 18 4 19 5 20 6 21 7 22 8 23 9 24 10 25 11
REMARK SMILES IDX 26 12 27 13 28 14 29 15 30 16 14 17 13 18 12 19 11 20 10 21
REMARK SMILES IDX 9 22 8 23 7 24 6 25 5 26 4 27 3 28 2 29 1 30
REMARK H PARENT
REMARK Flexibility Score: inf
ROOT
ATOM      1  C   UNL     1       9.291  23.399  -9.639  1.00  0.00     0.000 C 
ENDROOT
BRANCH   1   2
ATOM      2  C   UNL     1       8.414  22.138  -9.745  1.00  0.00     0.000 C 
BRANCH   2   3
ATOM      3  C   UNL     1       7.094  22.403 -10.489  1.00  0.00     0.000 C 
BRANCH   3   4
ATOM      4  C   UNL     1       6.456  23.741 -10.087  1.00  0.00     0.000 C 
BRANCH   4   5
ATOM      5  C   UNL     1       4.971  23.564  -9.742  1.00  0.00     0.000 C 
BRANCH   5   6
ATOM      6  C   UNL     1       4.733  22.460  -8.697  1.00  0.00     0.000 C 
BRANCH   6   7
ATOM      7  C   UNL     1       4.069  22.938  -7.391  1.00  0.00     0.000 C 
BRANCH   7   8
ATOM      8  C   UNL     1       4.986  22.928  -6.150  1.00  0.00     0.000 C 
BRANCH   8   9
ATOM      9  C   UNL     1       6.053  24.037  -6.119  1.00  0.00     0.000 C 
BRANCH   9  10
ATOM     10  C   UNL     1       7.451  23.529  -6.515  1.00  0.00     0.000 C 
BRANCH  10  11
ATOM     11  C   UNL     1       8.172  22.810  -5.365  1.00  0.00     0.000 C 
BRANCH  11  12
ATOM     12  C   UNL     1       8.855  21.504  -5.810  1.00  0.00     0.006 C 
BRANCH  12  13
ATOM     13  C   UNL     1      10.192  21.761  -6.517  1.00  0.00     0.053 C 
BRANCH  13  14
ATOM     14  C   UNL     1      10.619  20.589  -7.345  1.00  0.00     0.041 C 
ATOM     15  O   UNL     1       9.895  19.559  -7.410  1.00  0.00    -0.550 OA
ATOM     16  O   UNL     1      11.831  20.623  -8.026  1.00  0.00    -0.550 OA
ENDBRANCH  13  14
ENDBRANCH  12  13
ENDBRANCH  11  12
ENDBRANCH  10  11
ENDBRANCH   9  10
ENDBRANCH   8   9
ENDBRANCH   7   8
ENDBRANCH   6   7
ENDBRANCH   5   6
ENDBRANCH   4   5
ENDBRANCH   3   4
ENDBRANCH   2   3
ENDBRANCH   1   2
BRANCH   1  17
ATOM     17  C   UNL     1      10.744  23.157 -10.099  1.00  0.00     0.000 C 
BRANCH  17  18
ATOM     18  C   UNL     1      11.735  24.251  -9.655  1.00  0.00     0.000 C 
BRANCH  18  19
ATOM     19  C   UNL     1      12.317  24.074  -8.239  1.00  0.00     0.000 C 
BRANCH  19  20
ATOM     20  C   UNL     1      13.852  23.955  -8.171  1.00  0.00     0.000 C 
BRANCH  20  21
ATOM     21  C   UNL     1      14.388  22.863  -7.224  1.00  0.00     0.000 C 
BRANCH  21  22
ATOM     22  C   UNL     1      15.890  22.555  -7.402  1.00  0.00    -0.000 C 
BRANCH  22  23
ATOM     23  C   UNL     1      16.717  23.800  -7.771  1.00  0.00    -0.000 C 
BRANCH  23  24
ATOM     24  C   UNL     1      17.826  24.089  -6.742  1.00  0.00    -0.000 C 
BRANCH  24  25
ATOM     25  C   UNL     1      17.653  25.439  -6.020  1.00  0.00    -0.000 C 
BRANCH  25  26
ATOM     26  C   UNL     1      16.220  25.983  -6.142  1.00  0.00    -0.000 C 
BRANCH  26  27
ATOM     27  C   UNL     1      15.466  25.968  -4.802  1.00  0.00    -0.000 C 
BRANCH  27  28
ATOM     28  C   UNL     1      16.318  25.407  -3.649  1.00  0.00    -0.000 C 
BRANCH  28  29
ATOM     29  C   UNL     1      16.432  26.385  -2.469  1.00  0.00    -0.003 C 
ATOM     30  C   UNL     1      15.147  27.175  -2.228  1.00  0.00     0.004 C 
ENDBRANCH  28  29
ENDBRANCH  27  28
ENDBRANCH  26  27
ENDBRANCH  25  26
ENDBRANCH  24  25
ENDBRANCH  23  24
ENDBRANCH  22  23
ENDBRANCH  21  22
ENDBRANCH  20  21
ENDBRANCH  19  20
ENDBRANCH  18  19
ENDBRANCH  17  18
ENDBRANCH   1  17
TORSDOF 26
ENDMDL
MODEL 9
REMARK VINA RESULT:    -5.153      2.572      5.452
REMARK INTER + INTRA:         -16.261
REMARK INTER:                 -12.999
REMARK INTRA:                  -3.262
REMARK UNBOUND:                -3.277
REMARK SMILES CCCCCCCCCCCCCCCCCCCCCCCCCCCC(=O)[O-]
REMARK SMILES IDX 15 1 16 2 17 3 18 4 19 5 20 6 21 7 22 8 23 9 24 10 25 11
REMARK SMILES IDX 26 12 27 13 28 14 29 15 30 16 14 17 13 18 12 19 11 20 10 21
REMARK SMILES IDX 9 22 8 23 7 24 6 25 5 26 4 27 3 28 2 29 1 30
REMARK H PARENT
REMARK Flexibility Score: inf
ROOT
ATOM      1  C   UNL     1      13.064  23.133  -7.492  1.00  0.00     0.000 C 
ENDROOT
BRANCH   1   2
ATOM      2  C   UNL     1      14.353  22.345  -7.787  1.00  0.00     0.000 C 
BRANCH   2   3
ATOM      3  C   UNL     1      15.621  23.180  -7.541  1.00  0.00     0.000 C 
BRANCH   3   4
ATOM      4  C   UNL     1      16.907  22.371  -7.768  1.00  0.00     0.000 C 
BRANCH   4   5
ATOM      5  C   UNL     1      18.057  22.906  -6.906  1.00  0.00     0.000 C 
BRANCH   5   6
ATOM      6  C   UNL     1      17.895  22.558  -5.416  1.00  0.00     0.000 C 
BRANCH   6   7
ATOM      7  C   UNL     1      17.705  23.771  -4.485  1.00  0.00     0.000 C 
BRANCH   7   8
ATOM      8  C   UNL     1      16.542  23.647  -3.479  1.00  0.00     0.000 C 
BRANCH   8   9
ATOM      9  C   UNL     1      15.225  23.107  -4.067  1.00  0.00     0.000 C 
BRANCH   9  10
ATOM     10  C   UNL     1      13.982  23.669  -3.355  1.00  0.00     0.000 C 
BRANCH  10  11
ATOM     11  C   UNL     1      13.994  23.408  -1.841  1.00  0.00     0.000 C 
BRANCH  11  12
ATOM     12  C   UNL     1      13.630  24.656  -1.016  1.00  0.00     0.006 C 
BRANCH  12  13
ATOM     13  C   UNL     1      14.751  25.060  -0.049  1.00  0.00     0.053 C 
BRANCH  13  14
ATOM     14  C   UNL     1      15.659  26.090  -0.647  1.00  0.00     0.041 C 
ATOM     15  O   UNL     1      15.341  26.670  -1.720  1.00  0.00    -0.550 OA
ATOM     16  O   UNL     1      16.868  26.392  -0.031  1.00  0.00    -0.550 OA
ENDBRANCH  13  14
ENDBRANCH  12  13
ENDBRANCH  11  12
ENDBRANCH  10  11
ENDBRANCH   9  10
ENDBRANCH   8   9
ENDBRANCH   7   8
ENDBRANCH   6   7
ENDBRANCH   5   6
ENDBRANCH   4   5
ENDBRANCH   3   4
ENDBRANCH   2   3
ENDBRANCH   1   2
BRANCH   1  17
ATOM     17  C   UNL     1      12.922  24.396  -8.368  1.00  0.00     0.000 C 
BRANCH  17  18
ATOM     18  C   UNL     1      11.996  24.216  -9.586  1.00  0.00     0.000 C 
BRANCH  18  19
ATOM     19  C   UNL     1      10.555  23.781  -9.256  1.00  0.00     0.000 C 
BRANCH  19  20
ATOM     20  C   UNL     1      10.259  22.282  -9.456  1.00  0.00     0.000 C 
BRANCH  20  21
ATOM     21  C   UNL     1       9.504  21.598  -8.300  1.00  0.00     0.000 C 
BRANCH  21  22
ATOM     22  C   UNL     1       9.806  22.193  -6.908  1.00  0.00    -0.000 C 
BRANCH  22  23
ATOM     23  C   UNL     1       8.792  21.754  -5.837  1.00  0.00    -0.000 C 
BRANCH  23  24
ATOM     24  C   UNL     1       7.967  22.938  -5.295  1.00  0.00    -0.000 C 
BRANCH  24  25
ATOM     25  C   UNL     1       6.768  23.307  -6.188  1.00  0.00    -0.000 C 
BRANCH  25  26
ATOM     26  C   UNL     1       6.990  24.630  -6.941  1.00  0.00    -0.000 C 
BRANCH  26  27
ATOM     27  C   UNL     1       7.081  24.434  -8.463  1.00  0.00    -0.000 C 
BRANCH  27  28
ATOM     28  C   UNL     1       6.191  23.284  -8.968  1.00  0.00    -0.000 C 
BRANCH  28  29
ATOM     29  C   UNL     1       6.507  22.886 -10.419  1.00  0.00    -0.003 C 
ATOM     30  C   UNL     1       5.450  23.370 -11.410  1.00  0.00     0.004 C 
ENDBRANCH  28  29
ENDBRANCH  27  28
ENDBRANCH  26  27
ENDBRANCH  25  26
ENDBRANCH  24  25
ENDBRANCH  23  24
ENDBRANCH  22  23
ENDBRANCH  21  22
ENDBRANCH  20  21
ENDBRANCH  19  20
ENDBRANCH  18  19
ENDBRANCH  17  18
ENDBRANCH   1  17
TORSDOF 26
ENDMDL
