MODEL 1
REMARK VINA RESULT:    -3.777      0.000      0.000
REMARK INTER + INTRA:          -6.911
REMARK INTER:                  -5.985
REMARK INTRA:                  -0.926
REMARK UNBOUND:                -0.926
REMARK SMILES CCCCCCCCCCCC(=O)[O-]
REMARK SMILES IDX 7 1 8 2 9 3 10 4 11 5 12 6 13 7 14 8 6 9 5 10 4 11 3 12 2 13
REMARK SMILES IDX 1 14
REMARK H PARENT
REMARK Flexibility Score: inf
ROOT
ATOM      1  C   UNL     1     -44.034 -48.396  36.604  1.00  0.00     0.000 C 
ENDROOT
BRANCH   1   2
ATOM      2  C   UNL     1     -44.807 -48.810  37.868  1.00  0.00     0.000 C 
BRANCH   2   3
ATOM      3  C   UNL     1     -44.014 -48.545  39.157  1.00  0.00     0.000 C 
BRANCH   3   4
ATOM      4  C   UNL     1     -42.912 -47.491  38.966  1.00  0.00     0.006 C 
BRANCH   4   5
ATOM      5  C   UNL     1     -42.508 -46.871  40.307  1.00  0.00     0.053 C 
BRANCH   5   6
ATOM      6  C   UNL     1     -42.898 -45.427  40.355  1.00  0.00     0.041 C 
ATOM      7  O   UNL     1     -42.021 -44.541  40.529  1.00  0.00    -0.550 OA
ATOM      8  O   UNL     1     -44.222 -45.057  40.157  1.00  0.00    -0.550 OA
ENDBRANCH   5   6
ENDBRANCH   4   5
ENDBRANCH   3   4
ENDBRANCH   2   3
ENDBRANCH   1   2
BRANCH   1   9
ATOM      9  C   UNL     1     -43.883 -49.548  35.595  1.00  0.00     0.000 C 
BRANCH   9  10
ATOM     10  C   UNL     1     -43.113 -49.191  34.307  1.00  0.00    -0.000 C 
BRANCH  10  11
ATOM     11  C   UNL     1     -42.412 -47.820  34.320  1.00  0.00    -0.000 C 
BRANCH  11  12
ATOM     12  C   UNL     1     -40.885 -47.929  34.172  1.00  0.00    -0.000 C 
BRANCH  12  13
ATOM     13  C   UNL     1     -40.233 -48.674  35.347  1.00  0.00    -0.003 C 
ATOM     14  C   UNL     1     -40.260 -47.870  36.647  1.00  0.00     0.004 C 
ENDBRANCH  12  13
ENDBRANCH  11  12
ENDBRANCH  10  11
ENDBRANCH   9  10
ENDBRANCH   1   9
TORSDOF 10
ENDMDL
MODEL 2
REMARK VINA RESULT:    -3.751      2.903      4.323
REMARK INTER + INTRA:          -6.870
REMARK INTER:                  -5.387
REMARK INTRA:                  -1.483
REMARK UNBOUND:                -0.926
REMARK SMILES CCCCCCCCCCCC(=O)[O-]
REMARK SMILES IDX 7 1 8 2 9 3 10 4 11 5 12 6 13 7 14 8 6 9 5 10 4 11 3 12 2 13
REMARK SMILES IDX 1 14
REMARK H PARENT
REMARK Flexibility Score: inf
ROOT
ATOM      1  C   UNL     1     -41.347 -49.292  37.819  1.00  0.00     0.000 C 
ENDROOT
BRANCH   1   2
ATOM      2  C   UNL     1     -42.165 -48.028  38.129  1.00  0.00     0.000 C 
BRANCH   2   3
ATOM      3  C   UNL     1     -43.663 -48.209  37.839  1.00  0.00     0.000 C 
BRANCH   3   4
ATOM      4  C   UNL     1     -44.014 -49.647  37.426  1.00  0.00     0.006 C 
BRANCH   4   5
ATOM      5  C   UNL     1     -45.172 -49.663  36.425  1.00  0.00     0.053 C 
BRANCH   5   6
ATOM      6  C   UNL     1     -46.485 -49.714  37.143  1.00  0.00     0.041 C 
ATOM      7  O   UNL     1     -47.252 -48.717  37.130  1.00  0.00    -0.550 OA
ATOM      8  O   UNL     1     -46.881 -50.881  37.784  1.00  0.00    -0.550 OA
ENDBRANCH   5   6
ENDBRANCH   4   5
ENDBRANCH   3   4
ENDBRANCH   2   3
ENDBRANCH   1   2
BRANCH   1   9
ATOM      9  C   UNL     1     -40.267 -49.053  36.747  1.00  0.00     0.000 C 
BRANCH   9  10
ATOM     10  C   UNL     1     -40.434 -47.756  35.930  1.00  0.00    -0.000 C 
BRANCH  10  11
ATOM     11  C   UNL     1     -40.850 -47.953  34.461  1.00  0.00    -0.000 C 
BRANCH  11  12
ATOM     12  C   UNL     1     -42.368 -47.822  34.248  1.00  0.00    -0.000 C 
BRANCH  12  13
ATOM     13  C   UNL     1     -42.989 -49.091  33.643  1.00  0.00    -0.003 C 
ATOM     14  C   UNL     1     -42.037 -50.286  33.669  1.00  0.00     0.004 C 
ENDBRANCH  12  13
ENDBRANCH  11  12
ENDBRANCH  10  11
ENDBRANCH   9  10
ENDBRANCH   1   9
TORSDOF 10
ENDMDL
MODEL 3
REMARK VINA RESULT:    -3.716      4.262      5.549
REMARK INTER + INTRA:          -6.815
REMARK INTER:                  -6.099
REMARK INTRA:                  -0.716
REMARK UNBOUND:                -0.926
REMARK SMILES CCCCCCCCCCCC(=O)[O-]
REMARK SMILES IDX 7 1 8 2 9 3 10 4 11 5 12 6 13 7 14 8 6 9 5 10 4 11 3 12 2 13
REMARK SMILES IDX 1 14
REMARK H PARENT
REMARK Flexibility Score: inf
ROOT
ATOM      1  C   UNL     1     -45.132 -48.280  37.354  1.00  0.00     0.000 C 
ENDROOT
BRANCH   1   2
ATOM      2  C   UNL     1     -46.300 -49.120  36.810  1.00  0.00     0.000 C 
BRANCH   2   3
ATOM      3  C   UNL     1     -46.838 -50.121  37.844  1.00  0.00     0.000 C 
BRANCH   3   4
ATOM      4  C   UNL     1     -46.200 -51.512  37.706  1.00  0.00     0.006 C 
BRANCH   4   5
ATOM      5  C   UNL     1     -47.267 -52.583  37.464  1.00  0.00     0.053 C 
BRANCH   5   6
ATOM      6  C   UNL     1     -47.242 -53.604  38.558  1.00  0.00     0.041 C 
ATOM      7  O   UNL     1     -47.498 -54.810  38.303  1.00  0.00    -0.550 OA
ATOM      8  O   UNL     1     -46.887 -53.232  39.848  1.00  0.00    -0.550 OA
ENDBRANCH   5   6
ENDBRANCH   4   5
ENDBRANCH   3   4
ENDBRANCH   2   3
ENDBRANCH   1   2
BRANCH   1   9
ATOM      9  C   UNL     1     -43.842 -48.453  36.530  1.00  0.00     0.000 C 
BRANCH   9  10
ATOM     10  C   UNL     1     -43.923 -49.502  35.403  1.00  0.00    -0.000 C 
BRANCH  10  11
ATOM     11  C   UNL     1     -43.052 -49.208  34.168  1.00  0.00    -0.000 C 
BRANCH  11  12
ATOM     12  C   UNL     1     -42.330 -47.853  34.254  1.00  0.00    -0.000 C 
BRANCH  12  13
ATOM     13  C   UNL     1     -40.811 -48.006  34.431  1.00  0.00    -0.003 C 
ATOM     14  C   UNL     1     -40.337 -49.449  34.260  1.00  0.00     0.004 C 
ENDBRANCH  12  13
ENDBRANCH  11  12
ENDBRANCH  10  11
ENDBRANCH   9  10
ENDBRANCH   1   9
TORSDOF 10
ENDMDL
MODEL 4
REMARK VINA RESULT:    -3.708      3.317      4.415
REMARK INTER + INTRA:          -6.801
REMARK INTER:                  -5.301
REMARK INTRA:                  -1.500
REMARK UNBOUND:                -0.926
REMARK SMILES CCCCCCCCCCCC(=O)[O-]
REMARK SMILES IDX 7 1 8 2 9 3 10 4 11 5 12 6 13 7 14 8 6 9 5 10 4 11 3 12 2 13
REMARK SMILES IDX 1 14
REMARK H PARENT
REMARK Flexibility Score: inf
ROOT
ATOM      1  C   UNL     1     -42.997 -50.583  37.056  1.00  0.00     0.000 C 
ENDROOT
BRANCH   1   2
ATOM      2  C   UNL     1     -43.474 -49.215  37.575  1.00  0.00     0.000 C 
BRANCH   2   3
ATOM      3  C   UNL     1     -44.552 -48.588  36.679  1.00  0.00     0.000 C 
BRANCH   3   4
ATOM      4  C   UNL     1     -45.911 -48.469  37.387  1.00  0.00     0.006 C 
BRANCH   4   5
ATOM      5  C   UNL     1     -46.892 -49.526  36.873  1.00  0.00     0.053 C 
BRANCH   5   6
ATOM      6  C   UNL     1     -46.793 -50.775  37.693  1.00  0.00     0.041 C 
ATOM      7  O   UNL     1     -46.850 -51.903  37.137  1.00  0.00    -0.550 OA
ATOM      8  O   UNL     1     -46.587 -50.691  39.064  1.00  0.00    -0.550 OA
ENDBRANCH   5   6
ENDBRANCH   4   5
ENDBRANCH   3   4
ENDBRANCH   2   3
ENDBRANCH   1   2
BRANCH   1   9
ATOM      9  C   UNL     1     -43.582 -50.932  35.675  1.00  0.00     0.000 C 
BRANCH   9  10
ATOM     10  C   UNL     1     -42.554 -51.424  34.637  1.00  0.00    -0.000 C 
BRANCH  10  11
ATOM     11  C   UNL     1     -41.887 -50.319  33.797  1.00  0.00    -0.000 C 
BRANCH  11  12
ATOM     12  C   UNL     1     -42.809 -49.111  33.560  1.00  0.00    -0.000 C 
BRANCH  12  13
ATOM     13  C   UNL     1     -42.163 -47.785  33.990  1.00  0.00    -0.003 C 
ATOM     14  C   UNL     1     -40.983 -47.982  34.942  1.00  0.00     0.004 C 
ENDBRANCH  12  13
ENDBRANCH  11  12
ENDBRANCH  10  11
ENDBRANCH   9  10
ENDBRANCH   1   9
TORSDOF 10
ENDMDL
MODEL 5
REMARK VINA RESULT:    -3.684      1.455      2.272
REMARK INTER + INTRA:          -6.764
REMARK INTER:                  -5.926
REMARK INTRA:                  -0.838
REMARK UNBOUND:                -0.926
REMARK SMILES CCCCCCCCCCCC(=O)[O-]
REMARK SMILES IDX 7 1 8 2 9 3 10 4 11 5 12 6 13 7 14 8 6 9 5 10 4 11 3 12 2 13
REMARK SMILES IDX 1 14
REMARK H PARENT
REMARK Flexibility Score: inf
ROOT
ATOM      1  C   UNL     1     -42.307 -48.917  38.281  1.00  0.00     0.000 C 
ENDROOT
BRANCH   1   2
ATOM      2  C   UNL     1     -42.160 -47.467  38.771  1.00  0.00     0.000 C 
BRANCH   2   3
ATOM      3  C   UNL     1     -43.222 -47.087  39.814  1.00  0.00     0.000 C 
BRANCH   3   4
ATOM      4  C   UNL     1     -43.237 -45.580  40.118  1.00  0.00     0.006 C 
BRANCH   4   5
ATOM      5  C   UNL     1     -42.395 -45.262  41.356  1.00  0.00     0.053 C 
BRANCH   5   6
ATOM      6  C   UNL     1     -41.111 -44.603  40.961  1.00  0.00     0.041 C 
ATOM      7  O   UNL     1     -40.098 -45.300  40.692  1.00  0.00    -0.550 OA
ATOM      8  O   UNL     1     -41.047 -43.221  40.841  1.00  0.00    -0.550 OA
ENDBRANCH   5   6
ENDBRANCH   4   5
ENDBRANCH   3   4
ENDBRANCH   2   3
ENDBRANCH   1   2
BRANCH   1   9
ATOM      9  C   UNL     1     -43.673 -49.187  37.623  1.00  0.00     0.000 C 
BRANCH   9  10
ATOM     10  C   UNL     1     -43.933 -48.407  36.317  1.00  0.00    -0.000 C 
BRANCH  10  11
ATOM     11  C   UNL     1     -43.275 -48.998  35.057  1.00  0.00    -0.000 C 
BRANCH  11  12
ATOM     12  C   UNL     1     -42.401 -47.980  34.307  1.00  0.00    -0.000 C 
BRANCH  12  13
ATOM     13  C   UNL     1     -41.045 -47.752  34.993  1.00  0.00    -0.003 C 
ATOM     14  C   UNL     1     -39.908 -48.532  34.332  1.00  0.00     0.004 C 
ENDBRANCH  12  13
ENDBRANCH  11  12
ENDBRANCH  10  11
ENDBRANCH   9  10
ENDBRANCH   1   9
TORSDOF 10
ENDMDL
MODEL 6
REMARK VINA RESULT:    -3.661      2.230      4.117
REMARK INTER + INTRA:          -6.726
REMARK INTER:                  -5.377
REMARK INTRA:                  -1.349
REMARK UNBOUND:                -0.926
REMARK SMILES CCCCCCCCCCCC(=O)[O-]
REMARK SMILES IDX 7 1 8 2 9 3 10 4 11 5 12 6 13 7 14 8 6 9 5 10 4 11 3 12 2 13
REMARK SMILES IDX 1 14
REMARK H PARENT
REMARK Flexibility Score: inf
ROOT
ATOM      1  C   UNL     1     -44.493 -49.154  36.557  1.00  0.00     0.000 C 
ENDROOT
BRANCH   1   2
ATOM      2  C   UNL     1     -43.479 -48.366  37.403  1.00  0.00     0.000 C 
BRANCH   2   3
ATOM      3  C   UNL     1     -44.103 -47.781  38.679  1.00  0.00     0.000 C 
BRANCH   3   4
ATOM      4  C   UNL     1     -43.103 -47.702  39.843  1.00  0.00     0.006 C 
BRANCH   4   5
ATOM      5  C   UNL     1     -42.256 -46.430  39.752  1.00  0.00     0.053 C 
BRANCH   5   6
ATOM      6  C   UNL     1     -42.860 -45.338  40.579  1.00  0.00     0.041 C 
ATOM      7  O   UNL     1     -42.337 -45.011  41.676  1.00  0.00    -0.550 OA
ATOM      8  O   UNL     1     -43.972 -44.648  40.113  1.00  0.00    -0.550 OA
ENDBRANCH   5   6
ENDBRANCH   4   5
ENDBRANCH   3   4
ENDBRANCH   2   3
ENDBRANCH   1   2
BRANCH   1   9
ATOM      9  C   UNL     1     -45.952 -48.876  36.965  1.00  0.00     0.000 C 
BRANCH   9  10
ATOM     10  C   UNL     1     -46.850 -50.126  37.066  1.00  0.00    -0.000 C 
BRANCH  10  11
ATOM     11  C   UNL     1     -46.421 -51.161  38.122  1.00  0.00    -0.000 C 
BRANCH  11  12
ATOM     12  C   UNL     1     -46.539 -50.630  39.561  1.00  0.00    -0.000 C 
BRANCH  12  13
ATOM     13  C   UNL     1     -45.243 -50.816  40.365  1.00  0.00    -0.003 C 
ATOM     14  C   UNL     1     -44.124 -51.457  39.545  1.00  0.00     0.004 C 
ENDBRANCH  12  13
ENDBRANCH  11  12
ENDBRANCH  10  11
ENDBRANCH   9  10
ENDBRANCH   1   9
TORSDOF 10
ENDMDL
MODEL 7
REMARK VINA RESULT:    -3.660      6.005      7.310
REMARK INTER + INTRA:          -6.726
REMARK INTER:                  -6.289
REMARK INTRA:                  -0.436
REMARK UNBOUND:                -0.926
REMARK SMILES CCCCCCCCCCCC(=O)[O-]
REMARK SMILES IDX 7 1 8 2 9 3 10 4 11 5 12 6 13 7 14 8 6 9 5 10 4 11 3 12 2 13
REMARK SMILES IDX 1 14
REMARK H PARENT
REMARK Flexibility Score: inf
ROOT
ATOM      1  C   UNL     1     -46.435 -50.665  37.844  1.00  0.00     0.000 C 
ENDROOT
BRANCH   1   2
ATOM      2  C   UNL     1     -46.906 -51.963  37.167  1.00  0.00     0.000 C 
BRANCH   2   3
ATOM      3  C   UNL     1     -47.649 -52.896  38.135  1.00  0.00     0.000 C 
BRANCH   3   4
ATOM      4  C   UNL     1     -46.782 -54.078  38.597  1.00  0.00     0.006 C 
BRANCH   4   5
ATOM      5  C   UNL     1     -47.475 -54.861  39.716  1.00  0.00     0.053 C 
BRANCH   5   6
ATOM      6  C   UNL     1     -47.420 -56.331  39.439  1.00  0.00     0.041 C 
ATOM      7  O   UNL     1     -46.792 -57.098  40.214  1.00  0.00    -0.550 OA
ATOM      8  O   UNL     1     -48.105 -56.859  38.352  1.00  0.00    -0.550 OA
ENDBRANCH   5   6
ENDBRANCH   4   5
ENDBRANCH   3   4
ENDBRANCH   2   3
ENDBRANCH   1   2
BRANCH   1   9
ATOM      9  C   UNL     1     -46.300 -49.493  36.854  1.00  0.00     0.000 C 
BRANCH   9  10
ATOM     10  C   UNL     1     -45.256 -48.427  37.244  1.00  0.00    -0.000 C 
BRANCH  10  11
ATOM     11  C   UNL     1     -43.925 -48.497  36.472  1.00  0.00    -0.000 C 
BRANCH  11  12
ATOM     12  C   UNL     1     -43.907 -49.611  35.413  1.00  0.00    -0.000 C 
BRANCH  12  13
ATOM     13  C   UNL     1     -43.127 -49.210  34.151  1.00  0.00    -0.003 C 
ATOM     14  C   UNL     1     -42.348 -47.907  34.325  1.00  0.00     0.004 C 
ENDBRANCH  12  13
ENDBRANCH  11  12
ENDBRANCH  10  11
ENDBRANCH   9  10
ENDBRANCH   1   9
TORSDOF 10
ENDMDL
MODEL 8
REMARK VINA RESULT:    -3.659      3.273      4.392
REMARK INTER + INTRA:          -6.724
REMARK INTER:                  -5.491
REMARK INTRA:                  -1.232
REMARK UNBOUND:                -0.926
REMARK SMILES CCCCCCCCCCCC(=O)[O-]
REMARK SMILES IDX 7 1 8 2 9 3 10 4 11 5 12 6 13 7 14 8 6 9 5 10 4 11 3 12 2 13
REMARK SMILES IDX 1 14
REMARK H PARENT
REMARK Flexibility Score: inf
ROOT
ATOM      1  C   UNL     1     -43.110 -49.311  34.268  1.00  0.00     0.000 C 
ENDROOT
BRANCH   1   2
ATOM      2  C   UNL     1     -44.050 -49.583  35.456  1.00  0.00     0.000 C 
BRANCH   2   3
ATOM      3  C   UNL     1     -44.090 -48.416  36.455  1.00  0.00     0.000 C 
BRANCH   3   4
ATOM      4  C   UNL     1     -45.051 -48.676  37.626  1.00  0.00     0.006 C 
BRANCH   4   5
ATOM      5  C   UNL     1     -46.372 -49.269  37.130  1.00  0.00     0.053 C 
BRANCH   5   6
ATOM      6  C   UNL     1     -46.688 -50.533  37.866  1.00  0.00     0.041 C 
ATOM      7  O   UNL     1     -46.671 -50.554  39.124  1.00  0.00    -0.550 OA
ATOM      8  O   UNL     1     -47.050 -51.675  37.163  1.00  0.00    -0.550 OA
ENDBRANCH   5   6
ENDBRANCH   4   5
ENDBRANCH   3   4
ENDBRANCH   2   3
ENDBRANCH   1   2
BRANCH   1   9
ATOM      9  C   UNL     1     -42.359 -47.973  34.398  1.00  0.00     0.000 C 
BRANCH   9  10
ATOM     10  C   UNL     1     -40.822 -48.089  34.438  1.00  0.00    -0.000 C 
BRANCH  10  11
ATOM     11  C   UNL     1     -40.164 -47.652  35.760  1.00  0.00    -0.000 C 
BRANCH  11  12
ATOM     12  C   UNL     1     -40.546 -48.556  36.944  1.00  0.00    -0.000 C 
BRANCH  12  13
ATOM     13  C   UNL     1     -40.065 -50.004  36.758  1.00  0.00    -0.003 C 
ATOM     14  C   UNL     1     -41.134 -51.035  37.120  1.00  0.00     0.004 C 
ENDBRANCH  12  13
ENDBRANCH  11  12
ENDBRANCH  10  11
ENDBRANCH   9  10
ENDBRANCH   1   9
TORSDOF 10
ENDMDL
MODEL 9
REMARK VINA RESULT:    -3.634      0.855      2.825
REMARK INTER + INTRA:          -6.684
REMARK INTER:                  -5.330
REMARK INTRA:                  -1.354
REMARK UNBOUND:                -0.926
REMARK SMILES CCCCCCCCCCCC(=O)[O-]
REMARK SMILES IDX 7 1 8 2 9 3 10 4 11 5 12 6 13 7 14 8 6 9 5 10 4 11 3 12 2 13
REMARK SMILES IDX 1 14
REMARK H PARENT
REMARK Flexibility Score: inf
ROOT
ATOM      1  C   UNL     1     -40.229 -48.004  36.632  1.00  0.00     0.000 C 
ENDROOT
BRANCH   1   2
ATOM      2  C   UNL     1     -40.538 -49.178  37.577  1.00  0.00     0.000 C 
BRANCH   2   3
ATOM      3  C   UNL     1     -41.461 -48.774  38.737  1.00  0.00     0.000 C 
BRANCH   3   4
ATOM      4  C   UNL     1     -41.809 -47.277  38.720  1.00  0.00     0.006 C 
BRANCH   4   5
ATOM      5  C   UNL     1     -42.988 -46.978  39.650  1.00  0.00     0.053 C 
BRANCH   5   6
ATOM      6  C   UNL     1     -42.886 -45.588  40.196  1.00  0.00     0.041 C 
ATOM      7  O   UNL     1     -43.896 -44.837  40.207  1.00  0.00    -0.550 OA
ATOM      8  O   UNL     1     -41.688 -45.141  40.737  1.00  0.00    -0.550 OA
ENDBRANCH   5   6
ENDBRANCH   4   5
ENDBRANCH   3   4
ENDBRANCH   2   3
ENDBRANCH   1   2
BRANCH   1   9
ATOM      9  C   UNL     1     -40.230 -48.419  35.149  1.00  0.00     0.000 C 
BRANCH   9  10
ATOM     10  C   UNL     1     -41.186 -47.612  34.247  1.00  0.00    -0.000 C 
BRANCH  10  11
ATOM     11  C   UNL     1     -42.670 -48.013  34.337  1.00  0.00    -0.000 C 
BRANCH  11  12
ATOM     12  C   UNL     1     -42.873 -49.536  34.417  1.00  0.00    -0.000 C 
BRANCH  12  13
ATOM     13  C   UNL     1     -43.784 -49.946  35.585  1.00  0.00    -0.003 C 
ATOM     14  C   UNL     1     -44.328 -48.748  36.362  1.00  0.00     0.004 C 
ENDBRANCH  12  13
ENDBRANCH  11  12
ENDBRANCH  10  11
ENDBRANCH   9  10
ENDBRANCH   1   9
TORSDOF 10
ENDMDL
