MODEL 1
REMARK VINA RESULT:    -3.014      0.000      0.000
REMARK INTER + INTRA:          -7.708
REMARK INTER:                  -5.480
REMARK INTRA:                  -2.228
REMARK UNBOUND:                -2.228
REMARK SMILES CCCCCCCCCCCCCCCC(=O)[O-]
REMARK SMILES IDX 9 1 10 2 11 3 12 4 13 5 14 6 15 7 16 8 17 9 18 10 8 11 7 12
REMARK SMILES IDX 6 13 5 14 4 15 3 16 2 17 1 18
REMARK H PARENT
REMARK Flexibility Score: inf
ROOT
ATOM      1  C   UNL     1       9.879  -2.337  19.658  1.00  0.00     0.000 C 
ENDROOT
BRANCH   1   2
ATOM      2  C   UNL     1       8.516  -1.740  20.054  1.00  0.00     0.000 C 
BRANCH   2   3
ATOM      3  C   UNL     1       7.416  -2.802  20.194  1.00  0.00     0.000 C 
BRANCH   3   4
ATOM      4  C   UNL     1       6.527  -2.837  18.941  1.00  0.00     0.000 C 
BRANCH   4   5
ATOM      5  C   UNL     1       6.544  -1.511  18.165  1.00  0.00     0.000 C 
BRANCH   5   6
ATOM      6  C   UNL     1       5.891  -1.627  16.780  1.00  0.00     0.006 C 
BRANCH   6   7
ATOM      7  C   UNL     1       5.362  -0.270  16.308  1.00  0.00     0.053 C 
BRANCH   7   8
ATOM      8  C   UNL     1       4.720  -0.395  14.962  1.00  0.00     0.041 C 
ATOM      9  O   UNL     1       4.597  -1.526  14.422  1.00  0.00    -0.550 OA
ATOM     10  O   UNL     1       4.305   0.742  14.282  1.00  0.00    -0.550 OA
ENDBRANCH   7   8
ENDBRANCH   6   7
ENDBRANCH   5   6
ENDBRANCH   4   5
ENDBRANCH   3   4
ENDBRANCH   2   3
ENDBRANCH   1   2
BRANCH   1  11
ATOM     11  C   UNL     1      10.541  -3.225  20.732  1.00  0.00     0.000 C 
BRANCH  11  12
ATOM     12  C   UNL     1      11.118  -4.554  20.213  1.00  0.00    -0.000 C 
BRANCH  12  13
ATOM     13  C   UNL     1      10.111  -5.713  20.299  1.00  0.00    -0.000 C 
BRANCH  13  14
ATOM     14  C   UNL     1       9.819  -6.344  18.929  1.00  0.00    -0.000 C 
BRANCH  14  15
ATOM     15  C   UNL     1       8.430  -5.963  18.387  1.00  0.00    -0.000 C 
BRANCH  15  16
ATOM     16  C   UNL     1       8.501  -5.380  16.959  1.00  0.00    -0.000 C 
BRANCH  16  17
ATOM     17  C   UNL     1       9.653  -4.380  16.761  1.00  0.00    -0.003 C 
ATOM     18  C   UNL     1       9.219  -3.101  16.050  1.00  0.00     0.004 C 
ENDBRANCH  16  17
ENDBRANCH  15  16
ENDBRANCH  14  15
ENDBRANCH  13  14
ENDBRANCH  12  13
ENDBRANCH  11  12
ENDBRANCH   1  11
TORSDOF 14
ENDMDL
MODEL 2
REMARK VINA RESULT:    -2.946      3.672      5.659
REMARK INTER + INTRA:          -7.586
REMARK INTER:                  -5.424
REMARK INTRA:                  -2.162
REMARK UNBOUND:                -2.228
REMARK SMILES CCCCCCCCCCCCCCCC(=O)[O-]
REMARK SMILES IDX 9 1 10 2 11 3 12 4 13 5 14 6 15 7 16 8 17 9 18 10 8 11 7 12
REMARK SMILES IDX 6 13 5 14 4 15 3 16 2 17 1 18
REMARK H PARENT
REMARK Flexibility Score: inf
ROOT
ATOM      1  C   UNL     1      10.629  -3.058  21.133  1.00  0.00     0.000 C 
ENDROOT
BRANCH   1   2
ATOM      2  C   UNL     1      11.120  -4.235  20.269  1.00  0.00     0.000 C 
BRANCH   2   3
ATOM      3  C   UNL     1      10.704  -5.602  20.829  1.00  0.00     0.000 C 
BRANCH   3   4
ATOM      4  C   UNL     1      10.131  -6.497  19.719  1.00  0.00     0.000 C 
BRANCH   4   5
ATOM      5  C   UNL     1       9.353  -5.702  18.659  1.00  0.00     0.000 C 
BRANCH   5   6
ATOM      6  C   UNL     1       8.131  -6.464  18.127  1.00  0.00     0.006 C 
BRANCH   6   7
ATOM      7  C   UNL     1       8.497  -7.293  16.892  1.00  0.00     0.053 C 
BRANCH   7   8
ATOM      8  C   UNL     1       8.560  -8.748  17.236  1.00  0.00     0.041 C 
ATOM      9  O   UNL     1       9.661  -9.280  17.537  1.00  0.00    -0.550 OA
ATOM     10  O   UNL     1       7.412  -9.527  17.175  1.00  0.00    -0.550 OA
ENDBRANCH   7   8
ENDBRANCH   6   7
ENDBRANCH   5   6
ENDBRANCH   4   5
ENDBRANCH   3   4
ENDBRANCH   2   3
ENDBRANCH   1   2
BRANCH   1  11
ATOM     11  C   UNL     1       9.582  -2.146  20.461  1.00  0.00     0.000 C 
BRANCH  11  12
ATOM     12  C   UNL     1       8.117  -2.481  20.795  1.00  0.00    -0.000 C 
BRANCH  12  13
ATOM     13  C   UNL     1       7.133  -1.979  19.725  1.00  0.00    -0.000 C 
BRANCH  13  14
ATOM     14  C   UNL     1       6.742  -3.076  18.723  1.00  0.00    -0.000 C 
BRANCH  14  15
ATOM     15  C   UNL     1       6.968  -2.649  17.261  1.00  0.00    -0.000 C 
BRANCH  15  16
ATOM     16  C   UNL     1       8.245  -1.797  17.093  1.00  0.00    -0.000 C 
BRANCH  16  17
ATOM     17  C   UNL     1       9.489  -2.622  16.722  1.00  0.00    -0.003 C 
ATOM     18  C   UNL     1       9.226  -3.633  15.610  1.00  0.00     0.004 C 
ENDBRANCH  16  17
ENDBRANCH  15  16
ENDBRANCH  14  15
ENDBRANCH  13  14
ENDBRANCH  12  13
ENDBRANCH  11  12
ENDBRANCH   1  11
TORSDOF 14
ENDMDL
MODEL 3
REMARK VINA RESULT:    -2.931      2.400      3.520
REMARK INTER + INTRA:          -7.558
REMARK INTER:                  -6.060
REMARK INTRA:                  -1.499
REMARK UNBOUND:                -2.228
REMARK SMILES CCCCCCCCCCCCCCCC(=O)[O-]
REMARK SMILES IDX 9 1 10 2 11 3 12 4 13 5 14 6 15 7 16 8 17 9 18 10 8 11 7 12
REMARK SMILES IDX 6 13 5 14 4 15 3 16 2 17 1 18
REMARK H PARENT
REMARK Flexibility Score: inf
ROOT
ATOM      1  C   UNL     1      10.027  -5.122  19.932  1.00  0.00     0.000 C 
ENDROOT
BRANCH   1   2
ATOM      2  C   UNL     1       9.240  -3.810  19.758  1.00  0.00     0.000 C 
BRANCH   2   3
ATOM      3  C   UNL     1       8.400  -3.784  18.473  1.00  0.00     0.000 C 
BRANCH   3   4
ATOM      4  C   UNL     1       6.906  -3.633  18.800  1.00  0.00     0.000 C 
BRANCH   4   5
ATOM      5  C   UNL     1       6.516  -2.186  19.136  1.00  0.00     0.000 C 
BRANCH   5   6
ATOM      6  C   UNL     1       5.258  -1.723  18.386  1.00  0.00     0.006 C 
BRANCH   6   7
ATOM      7  C   UNL     1       5.617  -0.738  17.270  1.00  0.00     0.053 C 
BRANCH   7   8
ATOM      8  C   UNL     1       5.879  -1.466  15.990  1.00  0.00     0.041 C 
ATOM      9  O   UNL     1       7.049  -1.823  15.692  1.00  0.00    -0.550 OA
ATOM     10  O   UNL     1       4.838  -1.707  15.102  1.00  0.00    -0.550 OA
ENDBRANCH   7   8
ENDBRANCH   6   7
ENDBRANCH   5   6
ENDBRANCH   4   5
ENDBRANCH   3   4
ENDBRANCH   2   3
ENDBRANCH   1   2
BRANCH   1  11
ATOM     11  C   UNL     1       9.423  -6.348  19.216  1.00  0.00     0.000 C 
BRANCH  11  12
ATOM     12  C   UNL     1      10.210  -6.838  17.987  1.00  0.00    -0.000 C 
BRANCH  12  13
ATOM     13  C   UNL     1       9.330  -6.976  16.734  1.00  0.00    -0.000 C 
BRANCH  13  14
ATOM     14  C   UNL     1       7.875  -7.334  17.071  1.00  0.00    -0.000 C 
BRANCH  14  15
ATOM     15  C   UNL     1       7.417  -8.644  16.402  1.00  0.00    -0.000 C 
BRANCH  15  16
ATOM     16  C   UNL     1       7.721  -9.881  17.275  1.00  0.00    -0.000 C 
BRANCH  16  17
ATOM     17  C   UNL     1       8.880 -10.738  16.742  1.00  0.00    -0.003 C 
ATOM     18  C   UNL     1      10.160 -10.588  17.560  1.00  0.00     0.004 C 
ENDBRANCH  16  17
ENDBRANCH  15  16
ENDBRANCH  14  15
ENDBRANCH  13  14
ENDBRANCH  12  13
ENDBRANCH  11  12
ENDBRANCH   1  11
TORSDOF 14
ENDMDL
MODEL 4
REMARK VINA RESULT:    -2.909      9.606     11.947
REMARK INTER + INTRA:          -7.517
REMARK INTER:                  -5.088
REMARK INTRA:                  -2.430
REMARK UNBOUND:                -2.228
REMARK SMILES CCCCCCCCCCCCCCCC(=O)[O-]
REMARK SMILES IDX 9 1 10 2 11 3 12 4 13 5 14 6 15 7 16 8 17 9 18 10 8 11 7 12
REMARK SMILES IDX 6 13 5 14 4 15 3 16 2 17 1 18
REMARK H PARENT
REMARK Flexibility Score: inf
ROOT
ATOM      1  C   UNL     1      -2.856  -0.916  24.234  1.00  0.00     0.000 C 
ENDROOT
BRANCH   1   2
ATOM      2  C   UNL     1      -1.746  -1.972  24.385  1.00  0.00     0.000 C 
BRANCH   2   3
ATOM      3  C   UNL     1      -0.433  -1.386  24.923  1.00  0.00     0.000 C 
BRANCH   3   4
ATOM      4  C   UNL     1       0.775  -1.987  24.188  1.00  0.00     0.000 C 
BRANCH   4   5
ATOM      5  C   UNL     1       0.479  -3.373  23.593  1.00  0.00     0.000 C 
BRANCH   5   6
ATOM      6  C   UNL     1       1.370  -4.474  24.186  1.00  0.00     0.006 C 
BRANCH   6   7
ATOM      7  C   UNL     1       0.823  -5.863  23.845  1.00  0.00     0.053 C 
BRANCH   7   8
ATOM      8  C   UNL     1       0.033  -6.413  24.991  1.00  0.00     0.041 C 
ATOM      9  O   UNL     1      -0.171  -7.652  25.083  1.00  0.00    -0.550 OA
ATOM     10  O   UNL     1      -0.520  -5.552  25.930  1.00  0.00    -0.550 OA
ENDBRANCH   7   8
ENDBRANCH   6   7
ENDBRANCH   5   6
ENDBRANCH   4   5
ENDBRANCH   3   4
ENDBRANCH   2   3
ENDBRANCH   1   2
BRANCH   1  11
ATOM     11  C   UNL     1      -3.370  -0.708  22.794  1.00  0.00     0.000 C 
BRANCH  11  12
ATOM     12  C   UNL     1      -2.701  -1.596  21.730  1.00  0.00    -0.000 C 
BRANCH  12  13
ATOM     13  C   UNL     1      -1.854  -0.791  20.730  1.00  0.00    -0.000 C 
BRANCH  13  14
ATOM     14  C   UNL     1      -0.368  -1.179  20.770  1.00  0.00    -0.000 C 
BRANCH  14  15
ATOM     15  C   UNL     1       0.547   0.020  21.081  1.00  0.00    -0.000 C 
BRANCH  15  16
ATOM     16  C   UNL     1      -0.253   1.271  21.502  1.00  0.00    -0.000 C 
BRANCH  16  17
ATOM     17  C   UNL     1      -0.036   1.675  22.969  1.00  0.00    -0.003 C 
ATOM     18  C   UNL     1      -1.253   2.356  23.589  1.00  0.00     0.004 C 
ENDBRANCH  16  17
ENDBRANCH  15  16
ENDBRANCH  14  15
ENDBRANCH  13  14
ENDBRANCH  12  13
ENDBRANCH  11  12
ENDBRANCH   1  11
TORSDOF 14
ENDMDL
MODEL 5
REMARK VINA RESULT:    -2.867      1.218      2.579
REMARK INTER + INTRA:          -7.442
REMARK INTER:                  -5.664
REMARK INTRA:                  -1.777
REMARK UNBOUND:                -2.228
REMARK SMILES CCCCCCCCCCCCCCCC(=O)[O-]
REMARK SMILES IDX 9 1 10 2 11 3 12 4 13 5 14 6 15 7 16 8 17 9 18 10 8 11 7 12
REMARK SMILES IDX 6 13 5 14 4 15 3 16 2 17 1 18
REMARK H PARENT
REMARK Flexibility Score: inf
ROOT
ATOM      1  C   UNL     1       7.993  -1.902  20.340  1.00  0.00     0.000 C 
ENDROOT
BRANCH   1   2
ATOM      2  C   UNL     1       6.825  -1.232  19.593  1.00  0.00     0.000 C 
BRANCH   2   3
ATOM      3  C   UNL     1       5.917  -2.240  18.877  1.00  0.00     0.000 C 
BRANCH   3   4
ATOM      4  C   UNL     1       5.164  -1.570  17.717  1.00  0.00     0.000 C 
BRANCH   4   5
ATOM      5  C   UNL     1       5.853  -1.781  16.361  1.00  0.00     0.000 C 
BRANCH   5   6
ATOM      6  C   UNL     1       6.107  -0.463  15.615  1.00  0.00     0.006 C 
BRANCH   6   7
ATOM      7  C   UNL     1       4.787   0.205  15.219  1.00  0.00     0.053 C 
BRANCH   7   8
ATOM      8  C   UNL     1       4.436  -0.122  13.801  1.00  0.00     0.041 C 
ATOM      9  O   UNL     1       5.225   0.183  12.868  1.00  0.00    -0.550 OA
ATOM     10  O   UNL     1       3.217  -0.716  13.506  1.00  0.00    -0.550 OA
ENDBRANCH   7   8
ENDBRANCH   6   7
ENDBRANCH   5   6
ENDBRANCH   4   5
ENDBRANCH   3   4
ENDBRANCH   2   3
ENDBRANCH   1   2
BRANCH   1  11
ATOM     11  C   UNL     1       8.548  -3.179  19.674  1.00  0.00     0.000 C 
BRANCH  11  12
ATOM     12  C   UNL     1       9.737  -2.952  18.723  1.00  0.00    -0.000 C 
BRANCH  12  13
ATOM     13  C   UNL     1       9.401  -3.287  17.261  1.00  0.00    -0.000 C 
BRANCH  13  14
ATOM     14  C   UNL     1       8.314  -4.365  17.137  1.00  0.00    -0.000 C 
BRANCH  14  15
ATOM     15  C   UNL     1       8.899  -5.778  16.961  1.00  0.00    -0.000 C 
BRANCH  15  16
ATOM     16  C   UNL     1       8.775  -6.626  18.245  1.00  0.00    -0.000 C 
BRANCH  16  17
ATOM     17  C   UNL     1      10.121  -6.885  18.942  1.00  0.00    -0.003 C 
ATOM     18  C   UNL     1      10.179  -6.321  20.359  1.00  0.00     0.004 C 
ENDBRANCH  16  17
ENDBRANCH  15  16
ENDBRANCH  14  15
ENDBRANCH  13  14
ENDBRANCH  12  13
ENDBRANCH  11  12
ENDBRANCH   1  11
TORSDOF 14
ENDMDL
MODEL 6
REMARK VINA RESULT:    -2.823      3.298      6.000
REMARK INTER + INTRA:          -7.361
REMARK INTER:                  -4.964
REMARK INTRA:                  -2.397
REMARK UNBOUND:                -2.228
REMARK SMILES CCCCCCCCCCCCCCCC(=O)[O-]
REMARK SMILES IDX 9 1 10 2 11 3 12 4 13 5 14 6 15 7 16 8 17 9 18 10 8 11 7 12
REMARK SMILES IDX 6 13 5 14 4 15 3 16 2 17 1 18
REMARK H PARENT
REMARK Flexibility Score: inf
ROOT
ATOM      1  C   UNL     1       9.886  -1.881  17.397  1.00  0.00     0.000 C 
ENDROOT
BRANCH   1   2
ATOM      2  C   UNL     1      10.783  -2.461  18.506  1.00  0.00     0.000 C 
BRANCH   2   3
ATOM      3  C   UNL     1      10.756  -3.995  18.554  1.00  0.00     0.000 C 
BRANCH   3   4
ATOM      4  C   UNL     1      10.079  -4.490  19.841  1.00  0.00     0.000 C 
BRANCH   4   5
ATOM      5  C   UNL     1       9.602  -5.947  19.739  1.00  0.00     0.000 C 
BRANCH   5   6
ATOM      6  C   UNL     1       9.602  -6.470  18.295  1.00  0.00     0.006 C 
BRANCH   6   7
ATOM      7  C   UNL     1       8.172  -6.649  17.777  1.00  0.00     0.053 C 
BRANCH   7   8
ATOM      8  C   UNL     1       7.972  -8.038  17.258  1.00  0.00     0.041 C 
ATOM      9  O   UNL     1       8.754  -8.962  17.602  1.00  0.00    -0.550 OA
ATOM     10  O   UNL     1       6.951  -8.301  16.354  1.00  0.00    -0.550 OA
ENDBRANCH   7   8
ENDBRANCH   6   7
ENDBRANCH   5   6
ENDBRANCH   4   5
ENDBRANCH   3   4
ENDBRANCH   2   3
ENDBRANCH   1   2
BRANCH   1  11
ATOM     11  C   UNL     1       8.983  -2.907  16.682  1.00  0.00     0.000 C 
BRANCH  11  12
ATOM     12  C   UNL     1       7.472  -2.704  16.894  1.00  0.00    -0.000 C 
BRANCH  12  13
ATOM     13  C   UNL     1       6.988  -3.221  18.259  1.00  0.00    -0.000 C 
BRANCH  13  14
ATOM     14  C   UNL     1       5.975  -2.276  18.922  1.00  0.00    -0.000 C 
BRANCH  14  15
ATOM     15  C   UNL     1       6.294  -0.792  18.664  1.00  0.00    -0.000 C 
BRANCH  15  16
ATOM     16  C   UNL     1       6.800  -0.075  19.934  1.00  0.00    -0.000 C 
BRANCH  16  17
ATOM     17  C   UNL     1       8.310  -0.239  20.171  1.00  0.00    -0.003 C 
ATOM     18  C   UNL     1       8.636  -1.213  21.301  1.00  0.00     0.004 C 
ENDBRANCH  16  17
ENDBRANCH  15  16
ENDBRANCH  14  15
ENDBRANCH  13  14
ENDBRANCH  12  13
ENDBRANCH  11  12
ENDBRANCH   1  11
TORSDOF 14
ENDMDL
MODEL 7
REMARK VINA RESULT:    -2.814      1.653      2.589
REMARK INTER + INTRA:          -7.346
REMARK INTER:                  -5.700
REMARK INTRA:                  -1.646
REMARK UNBOUND:                -2.228
REMARK SMILES CCCCCCCCCCCCCCCC(=O)[O-]
REMARK SMILES IDX 9 1 10 2 11 3 12 4 13 5 14 6 15 7 16 8 17 9 18 10 8 11 7 12
REMARK SMILES IDX 6 13 5 14 4 15 3 16 2 17 1 18
REMARK H PARENT
REMARK Flexibility Score: inf
ROOT
ATOM      1  C   UNL     1      10.231  -2.505  19.584  1.00  0.00     0.000 C 
ENDROOT
BRANCH   1   2
ATOM      2  C   UNL     1       9.087  -1.477  19.658  1.00  0.00     0.000 C 
BRANCH   2   3
ATOM      3  C   UNL     1       7.826  -2.034  20.333  1.00  0.00     0.000 C 
BRANCH   3   4
ATOM      4  C   UNL     1       6.590  -1.818  19.447  1.00  0.00     0.000 C 
BRANCH   4   5
ATOM      5  C   UNL     1       6.532  -2.795  18.262  1.00  0.00     0.000 C 
BRANCH   5   6
ATOM      6  C   UNL     1       6.727  -2.095  16.909  1.00  0.00     0.006 C 
BRANCH   6   7
ATOM      7  C   UNL     1       6.011  -0.742  16.883  1.00  0.00     0.053 C 
BRANCH   7   8
ATOM      8  C   UNL     1       5.252  -0.573  15.605  1.00  0.00     0.041 C 
ATOM      9  O   UNL     1       5.029   0.578  15.148  1.00  0.00    -0.550 OA
ATOM     10  O   UNL     1       4.748  -1.686  14.945  1.00  0.00    -0.550 OA
ENDBRANCH   7   8
ENDBRANCH   6   7
ENDBRANCH   5   6
ENDBRANCH   4   5
ENDBRANCH   3   4
ENDBRANCH   2   3
ENDBRANCH   1   2
BRANCH   1  11
ATOM     11  C   UNL     1       9.974  -3.825  20.339  1.00  0.00     0.000 C 
BRANCH  11  12
ATOM     12  C   UNL     1       9.682  -5.042  19.442  1.00  0.00    -0.000 C 
BRANCH  12  13
ATOM     13  C   UNL     1       9.881  -4.740  17.948  1.00  0.00    -0.000 C 
BRANCH  13  14
ATOM     14  C   UNL     1       8.808  -5.397  17.066  1.00  0.00    -0.000 C 
BRANCH  14  15
ATOM     15  C   UNL     1       8.040  -6.511  17.800  1.00  0.00    -0.000 C 
BRANCH  15  16
ATOM     16  C   UNL     1       8.485  -7.919  17.352  1.00  0.00    -0.000 C 
BRANCH  16  17
ATOM     17  C   UNL     1       7.374  -8.722  16.656  1.00  0.00    -0.003 C 
ATOM     18  C   UNL     1       7.341 -10.189  17.078  1.00  0.00     0.004 C 
ENDBRANCH  16  17
ENDBRANCH  15  16
ENDBRANCH  14  15
ENDBRANCH  13  14
ENDBRANCH  12  13
ENDBRANCH  11  12
ENDBRANCH   1  11
TORSDOF 14
ENDMDL
MODEL 8
REMARK VINA RESULT:    -2.809      8.492     10.417
REMARK INTER + INTRA:          -7.337
REMARK INTER:                  -4.784
REMARK INTRA:                  -2.553
REMARK UNBOUND:                -2.228
REMARK SMILES CCCCCCCCCCCCCCCC(=O)[O-]
REMARK SMILES IDX 9 1 10 2 11 3 12 4 13 5 14 6 15 7 16 8 17 9 18 10 8 11 7 12
REMARK SMILES IDX 6 13 5 14 4 15 3 16 2 17 1 18
REMARK H PARENT
REMARK Flexibility Score: inf
ROOT
ATOM      1  C   UNL     1      -2.453  -2.134  25.307  1.00  0.00     0.000 C 
ENDROOT
BRANCH   1   2
ATOM      2  C   UNL     1      -2.520  -1.266  24.037  1.00  0.00     0.000 C 
BRANCH   2   3
ATOM      3  C   UNL     1      -2.440  -2.091  22.745  1.00  0.00     0.000 C 
BRANCH   3   4
ATOM      4  C   UNL     1      -1.497  -1.427  21.730  1.00  0.00     0.000 C 
BRANCH   4   5
ATOM      5  C   UNL     1      -1.473   0.105  21.857  1.00  0.00     0.000 C 
BRANCH   5   6
ATOM      6  C   UNL     1      -0.110   0.707  21.489  1.00  0.00     0.006 C 
BRANCH   6   7
ATOM      7  C   UNL     1       0.553  -0.085  20.358  1.00  0.00     0.053 C 
BRANCH   7   8
ATOM      8  C   UNL     1       1.468   0.795  19.566  1.00  0.00     0.041 C 
ATOM      9  O   UNL     1       2.617   0.391  19.250  1.00  0.00    -0.550 OA
ATOM     10  O   UNL     1       1.071   2.080  19.222  1.00  0.00    -0.550 OA
ENDBRANCH   7   8
ENDBRANCH   6   7
ENDBRANCH   5   6
ENDBRANCH   4   5
ENDBRANCH   3   4
ENDBRANCH   2   3
ENDBRANCH   1   2
BRANCH   1  11
ATOM     11  C   UNL     1      -2.213  -3.638  25.060  1.00  0.00     0.000 C 
BRANCH  11  12
ATOM     12  C   UNL     1      -0.950  -4.214  25.726  1.00  0.00    -0.000 C 
BRANCH  12  13
ATOM     13  C   UNL     1       0.027  -4.834  24.714  1.00  0.00    -0.000 C 
BRANCH  13  14
ATOM     14  C   UNL     1       0.699  -3.779  23.821  1.00  0.00    -0.000 C 
BRANCH  14  15
ATOM     15  C   UNL     1       1.525  -2.761  24.627  1.00  0.00    -0.000 C 
BRANCH  15  16
ATOM     16  C   UNL     1       1.190  -1.304  24.244  1.00  0.00    -0.000 C 
BRANCH  16  17
ATOM     17  C   UNL     1       1.043  -0.368  25.455  1.00  0.00    -0.003 C 
ATOM     18  C   UNL     1       0.821  -1.117  26.766  1.00  0.00     0.004 C 
ENDBRANCH  16  17
ENDBRANCH  15  16
ENDBRANCH  14  15
ENDBRANCH  13  14
ENDBRANCH  12  13
ENDBRANCH  11  12
ENDBRANCH   1  11
TORSDOF 14
ENDMDL
MODEL 9
REMARK VINA RESULT:    -2.747      7.865     10.211
REMARK INTER + INTRA:          -7.223
REMARK INTER:                  -5.669
REMARK INTRA:                  -1.554
REMARK UNBOUND:                -2.228
REMARK SMILES CCCCCCCCCCCCCCCC(=O)[O-]
REMARK SMILES IDX 9 1 10 2 11 3 12 4 13 5 14 6 15 7 16 8 17 9 18 10 8 11 7 12
REMARK SMILES IDX 6 13 5 14 4 15 3 16 2 17 1 18
REMARK H PARENT
REMARK Flexibility Score: inf
ROOT
ATOM      1  C   UNL     1      -2.640   0.160  21.843  1.00  0.00     0.000 C 
ENDROOT
BRANCH   1   2
ATOM      2  C   UNL     1      -1.135   0.360  21.584  1.00  0.00     0.000 C 
BRANCH   2   3
ATOM      3  C   UNL     1      -0.453  -0.897  21.026  1.00  0.00     0.000 C 
BRANCH   3   4
ATOM      4  C   UNL     1       0.647  -0.521  20.022  1.00  0.00     0.000 C 
BRANCH   4   5
ATOM      5  C   UNL     1       1.056   0.957  20.113  1.00  0.00     0.000 C 
BRANCH   5   6
ATOM      6  C   UNL     1       2.014   1.377  18.990  1.00  0.00     0.006 C 
BRANCH   6   7
ATOM      7  C   UNL     1       1.347   2.384  18.049  1.00  0.00     0.053 C 
BRANCH   7   8
ATOM      8  C   UNL     1       1.787   2.155  16.637  1.00  0.00     0.041 C 
ATOM      9  O   UNL     1       2.973   1.810  16.392  1.00  0.00    -0.550 OA
ATOM     10  O   UNL     1       0.902   2.372  15.589  1.00  0.00    -0.550 OA
ENDBRANCH   7   8
ENDBRANCH   6   7
ENDBRANCH   5   6
ENDBRANCH   4   5
ENDBRANCH   3   4
ENDBRANCH   2   3
ENDBRANCH   1   2
BRANCH   1  11
ATOM     11  C   UNL     1      -3.239  -1.135  21.255  1.00  0.00     0.000 C 
BRANCH  11  12
ATOM     12  C   UNL     1      -3.718  -2.162  22.296  1.00  0.00    -0.000 C 
BRANCH  12  13
ATOM     13  C   UNL     1      -3.249  -1.827  23.722  1.00  0.00    -0.000 C 
BRANCH  13  14
ATOM     14  C   UNL     1      -2.171  -2.796  24.231  1.00  0.00    -0.000 C 
BRANCH  14  15
ATOM     15  C   UNL     1      -0.997  -2.070  24.912  1.00  0.00    -0.000 C 
BRANCH  15  16
ATOM     16  C   UNL     1       0.346  -2.334  24.197  1.00  0.00    -0.000 C 
BRANCH  16  17
ATOM     17  C   UNL     1       0.355  -3.628  23.367  1.00  0.00    -0.003 C 
ATOM     18  C   UNL     1       0.997  -4.804  24.099  1.00  0.00     0.004 C 
ENDBRANCH  16  17
ENDBRANCH  15  16
ENDBRANCH  14  15
ENDBRANCH  13  14
ENDBRANCH  12  13
ENDBRANCH  11  12
ENDBRANCH   1  11
TORSDOF 14
ENDMDL
