MODEL 1
REMARK VINA RESULT:    -3.722      0.000      0.000
REMARK INTER + INTRA:          -9.812
REMARK INTER:                  -7.203
REMARK INTRA:                  -2.609
REMARK UNBOUND:                -2.609
REMARK SMILES CCCCCCCCCCCCCCCCCC(=O)[O-]
REMARK SMILES IDX 10 1 11 2 12 3 13 4 14 5 15 6 16 7 17 8 18 9 19 10 20 11
REMARK SMILES IDX 9 12 8 13 7 14 6 15 5 16 4 17 3 18 2 19 1 20
REMARK H PARENT
REMARK Flexibility Score: inf
ROOT
ATOM      1  C   UNL     1     -13.425 -12.170  28.355  1.00  0.00     0.000 C 
ENDROOT
BRANCH   1   2
ATOM      2  C   UNL     1     -13.689 -10.920  29.214  1.00  0.00     0.000 C 
BRANCH   2   3
ATOM      3  C   UNL     1     -12.444 -10.498  30.022  1.00  0.00     0.000 C 
BRANCH   3   4
ATOM      4  C   UNL     1     -11.371  -9.791  29.176  1.00  0.00     0.000 C 
BRANCH   4   5
ATOM      5  C   UNL     1     -11.959  -8.730  28.232  1.00  0.00     0.000 C 
BRANCH   5   6
ATOM      6  C   UNL     1     -11.230  -8.673  26.879  1.00  0.00     0.000 C 
BRANCH   6   7
ATOM      7  C   UNL     1     -12.197  -8.622  25.686  1.00  0.00     0.006 C 
BRANCH   7   8
ATOM      8  C   UNL     1     -13.542  -8.015  26.099  1.00  0.00     0.053 C 
BRANCH   8   9
ATOM      9  C   UNL     1     -14.192  -7.341  24.932  1.00  0.00     0.041 C 
ATOM     10  O   UNL     1     -14.672  -6.183  25.055  1.00  0.00    -0.550 OA
ATOM     11  O   UNL     1     -14.224  -7.971  23.694  1.00  0.00    -0.550 OA
ENDBRANCH   8   9
ENDBRANCH   7   8
ENDBRANCH   6   7
ENDBRANCH   5   6
ENDBRANCH   4   5
ENDBRANCH   3   4
ENDBRANCH   2   3
ENDBRANCH   1   2
BRANCH   1  12
ATOM     12  C   UNL     1     -13.878 -11.996  26.896  1.00  0.00     0.000 C 
BRANCH  12  13
ATOM     13  C   UNL     1     -12.742 -12.252  25.890  1.00  0.00    -0.000 C 
BRANCH  13  14
ATOM     14  C   UNL     1     -11.385 -12.474  26.578  1.00  0.00    -0.000 C 
BRANCH  14  15
ATOM     15  C   UNL     1     -10.547 -13.568  25.897  1.00  0.00    -0.000 C 
BRANCH  15  16
ATOM     16  C   UNL     1     -11.057 -13.845  24.478  1.00  0.00    -0.000 C 
BRANCH  16  17
ATOM     17  C   UNL     1     -11.322 -15.344  24.271  1.00  0.00    -0.000 C 
BRANCH  17  18
ATOM     18  C   UNL     1     -11.147 -16.168  25.560  1.00  0.00    -0.000 C 
BRANCH  18  19
ATOM     19  C   UNL     1     -12.415 -16.897  26.039  1.00  0.00    -0.003 C 
ATOM     20  C   UNL     1     -13.652 -15.998  26.053  1.00  0.00     0.004 C 
ENDBRANCH  18  19
ENDBRANCH  17  18
ENDBRANCH  16  17
ENDBRANCH  15  16
ENDBRANCH  14  15
ENDBRANCH  13  14
ENDBRANCH  12  13
ENDBRANCH   1  12
TORSDOF 16
ENDMDL
MODEL 2
REMARK VINA RESULT:    -3.705      2.990      6.107
REMARK INTER + INTRA:          -9.780
REMARK INTER:                  -6.989
REMARK INTRA:                  -2.791
REMARK UNBOUND:                -2.609
REMARK SMILES CCCCCCCCCCCCCCCCCC(=O)[O-]
REMARK SMILES IDX 10 1 11 2 12 3 13 4 14 5 15 6 16 7 17 8 18 9 19 10 20 11
REMARK SMILES IDX 9 12 8 13 7 14 6 15 5 16 4 17 3 18 2 19 1 20
REMARK H PARENT
REMARK Flexibility Score: inf
ROOT
ATOM      1  C   UNL     1     -14.133  -8.223  26.870  1.00  0.00     0.000 C 
ENDROOT
BRANCH   1   2
ATOM      2  C   UNL     1     -14.999  -9.495  26.817  1.00  0.00     0.000 C 
BRANCH   2   3
ATOM      3  C   UNL     1     -15.446  -9.834  25.380  1.00  0.00     0.000 C 
BRANCH   3   4
ATOM      4  C   UNL     1     -15.104 -11.271  24.950  1.00  0.00     0.000 C 
BRANCH   4   5
ATOM      5  C   UNL     1     -13.709 -11.717  25.416  1.00  0.00     0.000 C 
BRANCH   5   6
ATOM      6  C   UNL     1     -13.760 -12.927  26.362  1.00  0.00     0.000 C 
BRANCH   6   7
ATOM      7  C   UNL     1     -12.416 -13.667  26.452  1.00  0.00     0.006 C 
BRANCH   7   8
ATOM      8  C   UNL     1     -12.607 -15.173  26.244  1.00  0.00     0.053 C 
BRANCH   8   9
ATOM      9  C   UNL     1     -11.774 -15.652  25.097  1.00  0.00     0.041 C 
ATOM     10  O   UNL     1     -11.097 -16.710  25.204  1.00  0.00    -0.550 OA
ATOM     11  O   UNL     1     -11.782 -14.960  23.893  1.00  0.00    -0.550 OA
ENDBRANCH   8   9
ENDBRANCH   7   8
ENDBRANCH   6   7
ENDBRANCH   5   6
ENDBRANCH   4   5
ENDBRANCH   3   4
ENDBRANCH   2   3
ENDBRANCH   1   2
BRANCH   1  12
ATOM     12  C   UNL     1     -13.524  -7.860  25.505  1.00  0.00     0.000 C 
BRANCH  12  13
ATOM     13  C   UNL     1     -12.015  -8.152  25.436  1.00  0.00    -0.000 C 
BRANCH  13  14
ATOM     14  C   UNL     1     -11.436  -8.586  26.793  1.00  0.00    -0.000 C 
BRANCH  14  15
ATOM     15  C   UNL     1     -10.880 -10.019  26.770  1.00  0.00    -0.000 C 
BRANCH  15  16
ATOM     16  C   UNL     1     -10.917 -10.643  28.170  1.00  0.00    -0.000 C 
BRANCH  16  17
ATOM     17  C   UNL     1     -11.618  -9.711  29.170  1.00  0.00    -0.000 C 
BRANCH  17  18
ATOM     18  C   UNL     1     -12.427 -10.472  30.235  1.00  0.00    -0.000 C 
BRANCH  18  19
ATOM     19  C   UNL     1     -13.678 -11.193  29.703  1.00  0.00    -0.003 C 
ATOM     20  C   UNL     1     -13.777 -12.644  30.174  1.00  0.00     0.004 C 
ENDBRANCH  18  19
ENDBRANCH  17  18
ENDBRANCH  16  17
ENDBRANCH  15  16
ENDBRANCH  14  15
ENDBRANCH  13  14
ENDBRANCH  12  13
ENDBRANCH   1  12
TORSDOF 16
ENDMDL
MODEL 3
REMARK VINA RESULT:    -3.681      2.419      3.654
REMARK INTER + INTRA:          -9.734
REMARK INTER:                  -7.518
REMARK INTRA:                  -2.215
REMARK UNBOUND:                -2.609
REMARK SMILES CCCCCCCCCCCCCCCCCC(=O)[O-]
REMARK SMILES IDX 10 1 11 2 12 3 13 4 14 5 15 6 16 7 17 8 18 9 19 10 20 11
REMARK SMILES IDX 9 12 8 13 7 14 6 15 5 16 4 17 3 18 2 19 1 20
REMARK H PARENT
REMARK Flexibility Score: inf
ROOT
ATOM      1  C   UNL     1     -14.279 -12.036  26.488  1.00  0.00     0.000 C 
ENDROOT
BRANCH   1   2
ATOM      2  C   UNL     1     -14.578 -10.533  26.636  1.00  0.00     0.000 C 
BRANCH   2   3
ATOM      3  C   UNL     1     -14.203  -9.739  25.366  1.00  0.00     0.000 C 
BRANCH   3   4
ATOM      4  C   UNL     1     -13.871  -8.261  25.639  1.00  0.00     0.000 C 
BRANCH   4   5
ATOM      5  C   UNL     1     -12.377  -7.944  25.469  1.00  0.00     0.000 C 
BRANCH   5   6
ATOM      6  C   UNL     1     -11.475  -8.900  26.265  1.00  0.00     0.000 C 
BRANCH   6   7
ATOM      7  C   UNL     1     -11.552  -8.664  27.782  1.00  0.00     0.006 C 
BRANCH   7   8
ATOM      8  C   UNL     1     -11.273  -9.959  28.551  1.00  0.00     0.053 C 
BRANCH   8   9
ATOM      9  C   UNL     1     -12.043  -9.983  29.833  1.00  0.00     0.041 C 
ATOM     10  O   UNL     1     -11.637  -9.325  30.828  1.00  0.00    -0.550 OA
ATOM     11  O   UNL     1     -13.236 -10.690  29.916  1.00  0.00    -0.550 OA
ENDBRANCH   8   9
ENDBRANCH   7   8
ENDBRANCH   6   7
ENDBRANCH   5   6
ENDBRANCH   4   5
ENDBRANCH   3   4
ENDBRANCH   2   3
ENDBRANCH   1   2
BRANCH   1  12
ATOM     12  C   UNL     1     -12.802 -12.321  26.170  1.00  0.00     0.000 C 
BRANCH  12  13
ATOM     13  C   UNL     1     -12.601 -12.884  24.752  1.00  0.00    -0.000 C 
BRANCH  13  14
ATOM     14  C   UNL     1     -11.320 -13.725  24.628  1.00  0.00    -0.000 C 
BRANCH  14  15
ATOM     15  C   UNL     1     -11.606 -15.194  24.279  1.00  0.00    -0.000 C 
BRANCH  15  16
ATOM     16  C   UNL     1     -11.122 -16.127  25.396  1.00  0.00    -0.000 C 
BRANCH  16  17
ATOM     17  C   UNL     1     -12.283 -16.959  25.960  1.00  0.00    -0.000 C 
BRANCH  17  18
ATOM     18  C   UNL     1     -13.495 -16.101  26.367  1.00  0.00    -0.000 C 
BRANCH  18  19
ATOM     19  C   UNL     1     -14.813 -16.468  25.663  1.00  0.00    -0.003 C 
ATOM     20  C   UNL     1     -15.534 -15.255  25.075  1.00  0.00     0.004 C 
ENDBRANCH  18  19
ENDBRANCH  17  18
ENDBRANCH  16  17
ENDBRANCH  15  16
ENDBRANCH  14  15
ENDBRANCH  13  14
ENDBRANCH  12  13
ENDBRANCH   1  12
TORSDOF 16
ENDMDL
MODEL 4
REMARK VINA RESULT:    -3.680      1.437      2.598
REMARK INTER + INTRA:          -9.731
REMARK INTER:                  -6.812
REMARK INTRA:                  -2.919
REMARK UNBOUND:                -2.609
REMARK SMILES CCCCCCCCCCCCCCCCCC(=O)[O-]
REMARK SMILES IDX 10 1 11 2 12 3 13 4 14 5 15 6 16 7 17 8 18 9 19 10 20 11
REMARK SMILES IDX 9 12 8 13 7 14 6 15 5 16 4 17 3 18 2 19 1 20
REMARK H PARENT
REMARK Flexibility Score: inf
ROOT
ATOM      1  C   UNL     1     -14.013 -11.951  27.422  1.00  0.00     0.000 C 
ENDROOT
BRANCH   1   2
ATOM      2  C   UNL     1     -12.707 -11.839  28.230  1.00  0.00     0.000 C 
BRANCH   2   3
ATOM      3  C   UNL     1     -12.668 -10.563  29.098  1.00  0.00     0.000 C 
BRANCH   3   4
ATOM      4  C   UNL     1     -11.382  -9.737  28.922  1.00  0.00     0.000 C 
BRANCH   4   5
ATOM      5  C   UNL     1     -11.655  -8.305  28.433  1.00  0.00     0.000 C 
BRANCH   5   6
ATOM      6  C   UNL     1     -12.582  -8.266  27.207  1.00  0.00     0.000 C 
BRANCH   6   7
ATOM      7  C   UNL     1     -11.813  -8.355  25.879  1.00  0.00     0.006 C 
BRANCH   7   8
ATOM      8  C   UNL     1     -12.542  -7.585  24.774  1.00  0.00     0.053 C 
BRANCH   8   9
ATOM      9  C   UNL     1     -13.424  -8.504  23.990  1.00  0.00     0.041 C 
ATOM     10  O   UNL     1     -14.672  -8.489  24.166  1.00  0.00    -0.550 OA
ATOM     11  O   UNL     1     -12.876  -9.342  23.028  1.00  0.00    -0.550 OA
ENDBRANCH   8   9
ENDBRANCH   7   8
ENDBRANCH   6   7
ENDBRANCH   5   6
ENDBRANCH   4   5
ENDBRANCH   3   4
ENDBRANCH   2   3
ENDBRANCH   1   2
BRANCH   1  12
ATOM     12  C   UNL     1     -13.846 -11.516  25.957  1.00  0.00     0.000 C 
BRANCH  12  13
ATOM     13  C   UNL     1     -14.737 -12.322  24.997  1.00  0.00    -0.000 C 
BRANCH  13  14
ATOM     14  C   UNL     1     -14.680 -13.834  25.269  1.00  0.00    -0.000 C 
BRANCH  14  15
ATOM     15  C   UNL     1     -13.458 -14.508  24.625  1.00  0.00    -0.000 C 
BRANCH  15  16
ATOM     16  C   UNL     1     -12.421 -14.891  25.686  1.00  0.00    -0.000 C 
BRANCH  16  17
ATOM     17  C   UNL     1     -11.071 -14.215  25.406  1.00  0.00    -0.000 C 
BRANCH  17  18
ATOM     18  C   UNL     1     -11.064 -13.409  24.094  1.00  0.00    -0.000 C 
BRANCH  18  19
ATOM     19  C   UNL     1     -10.489 -11.986  24.213  1.00  0.00    -0.003 C 
ATOM     20  C   UNL     1     -10.102 -11.615  25.644  1.00  0.00     0.004 C 
ENDBRANCH  18  19
ENDBRANCH  17  18
ENDBRANCH  16  17
ENDBRANCH  15  16
ENDBRANCH  14  15
ENDBRANCH  13  14
ENDBRANCH  12  13
ENDBRANCH   1  12
TORSDOF 16
ENDMDL
MODEL 5
REMARK VINA RESULT:    -3.677      3.054      6.378
REMARK INTER + INTRA:          -9.725
REMARK INTER:                  -7.141
REMARK INTRA:                  -2.584
REMARK UNBOUND:                -2.609
REMARK SMILES CCCCCCCCCCCCCCCCCC(=O)[O-]
REMARK SMILES IDX 10 1 11 2 12 3 13 4 14 5 15 6 16 7 17 8 18 9 19 10 20 11
REMARK SMILES IDX 9 12 8 13 7 14 6 15 5 16 4 17 3 18 2 19 1 20
REMARK H PARENT
REMARK Flexibility Score: inf
ROOT
ATOM      1  C   UNL     1     -15.992  -6.930  25.076  1.00  0.00     0.000 C 
ENDROOT
BRANCH   1   2
ATOM      2  C   UNL     1     -15.804  -7.495  26.497  1.00  0.00     0.000 C 
BRANCH   2   3
ATOM      3  C   UNL     1     -15.571  -9.020  26.489  1.00  0.00     0.000 C 
BRANCH   3   4
ATOM      4  C   UNL     1     -15.718  -9.659  25.097  1.00  0.00     0.000 C 
BRANCH   4   5
ATOM      5  C   UNL     1     -15.242 -11.120  25.058  1.00  0.00     0.000 C 
BRANCH   5   6
ATOM      6  C   UNL     1     -14.287 -11.462  26.213  1.00  0.00     0.000 C 
BRANCH   6   7
ATOM      7  C   UNL     1     -13.062 -12.268  25.751  1.00  0.00     0.006 C 
BRANCH   7   8
ATOM      8  C   UNL     1     -13.259 -13.763  26.021  1.00  0.00     0.053 C 
BRANCH   8   9
ATOM      9  C   UNL     1     -13.496 -14.499  24.741  1.00  0.00     0.041 C 
ATOM     10  O   UNL     1     -14.666 -14.629  24.292  1.00  0.00    -0.550 OA
ATOM     11  O   UNL     1     -12.422 -15.000  24.017  1.00  0.00    -0.550 OA
ENDBRANCH   8   9
ENDBRANCH   7   8
ENDBRANCH   6   7
ENDBRANCH   5   6
ENDBRANCH   4   5
ENDBRANCH   3   4
ENDBRANCH   2   3
ENDBRANCH   1   2
BRANCH   1  12
ATOM     12  C   UNL     1     -15.017  -5.786  24.757  1.00  0.00     0.000 C 
BRANCH  12  13
ATOM     13  C   UNL     1     -14.318  -5.968  23.398  1.00  0.00    -0.000 C 
BRANCH  13  14
ATOM     14  C   UNL     1     -13.342  -7.155  23.392  1.00  0.00    -0.000 C 
BRANCH  14  15
ATOM     15  C   UNL     1     -12.382  -7.141  24.593  1.00  0.00    -0.000 C 
BRANCH  15  16
ATOM     16  C   UNL     1     -12.200  -8.551  25.166  1.00  0.00    -0.000 C 
BRANCH  16  17
ATOM     17  C   UNL     1     -11.771  -8.495  26.640  1.00  0.00    -0.000 C 
BRANCH  17  18
ATOM     18  C   UNL     1     -10.873  -9.676  27.049  1.00  0.00    -0.000 C 
BRANCH  18  19
ATOM     19  C   UNL     1     -11.272 -10.366  28.366  1.00  0.00    -0.003 C 
ATOM     20  C   UNL     1     -11.603  -9.377  29.482  1.00  0.00     0.004 C 
ENDBRANCH  18  19
ENDBRANCH  17  18
ENDBRANCH  16  17
ENDBRANCH  15  16
ENDBRANCH  14  15
ENDBRANCH  13  14
ENDBRANCH  12  13
ENDBRANCH   1  12
TORSDOF 16
ENDMDL
MODEL 6
REMARK VINA RESULT:    -3.673      2.571      6.610
REMARK INTER + INTRA:          -9.718
REMARK INTER:                  -6.689
REMARK INTRA:                  -3.029
REMARK UNBOUND:                -2.609
REMARK SMILES CCCCCCCCCCCCCCCCCC(=O)[O-]
REMARK SMILES IDX 10 1 11 2 12 3 13 4 14 5 15 6 16 7 17 8 18 9 19 10 20 11
REMARK SMILES IDX 9 12 8 13 7 14 6 15 5 16 4 17 3 18 2 19 1 20
REMARK H PARENT
REMARK Flexibility Score: inf
ROOT
ATOM      1  C   UNL     1     -12.300  -8.280  25.507  1.00  0.00     0.000 C 
ENDROOT
BRANCH   1   2
ATOM      2  C   UNL     1     -11.329  -8.878  26.542  1.00  0.00     0.000 C 
BRANCH   2   3
ATOM      3  C   UNL     1     -11.787  -8.608  27.991  1.00  0.00     0.000 C 
BRANCH   3   4
ATOM      4  C   UNL     1     -12.096  -9.888  28.787  1.00  0.00     0.000 C 
BRANCH   4   5
ATOM      5  C   UNL     1     -13.507 -10.435  28.514  1.00  0.00     0.000 C 
BRANCH   5   6
ATOM      6  C   UNL     1     -13.525 -11.961  28.333  1.00  0.00     0.000 C 
BRANCH   6   7
ATOM      7  C   UNL     1     -13.681 -12.382  26.863  1.00  0.00     0.006 C 
BRANCH   7   8
ATOM      8  C   UNL     1     -12.567 -13.349  26.451  1.00  0.00     0.053 C 
BRANCH   8   9
ATOM      9  C   UNL     1     -11.357 -12.592  26.001  1.00  0.00     0.041 C 
ATOM     10  O   UNL     1     -11.286 -12.153  24.822  1.00  0.00    -0.550 OA
ATOM     11  O   UNL     1     -10.329 -12.327  26.897  1.00  0.00    -0.550 OA
ENDBRANCH   8   9
ENDBRANCH   7   8
ENDBRANCH   6   7
ENDBRANCH   5   6
ENDBRANCH   4   5
ENDBRANCH   3   4
ENDBRANCH   2   3
ENDBRANCH   1   2
BRANCH   1  12
ATOM     12  C   UNL     1     -13.287  -9.318  24.948  1.00  0.00     0.000 C 
BRANCH  12  13
ATOM     13  C   UNL     1     -14.755  -8.923  25.184  1.00  0.00    -0.000 C 
BRANCH  13  14
ATOM     14  C   UNL     1     -14.895  -7.673  26.066  1.00  0.00    -0.000 C 
BRANCH  14  15
ATOM     15  C   UNL     1     -15.623  -6.522  25.354  1.00  0.00    -0.000 C 
BRANCH  15  16
ATOM     16  C   UNL     1     -14.627  -5.611  24.626  1.00  0.00    -0.000 C 
BRANCH  16  17
ATOM     17  C   UNL     1     -14.751  -5.766  23.103  1.00  0.00    -0.000 C 
BRANCH  17  18
ATOM     18  C   UNL     1     -13.491  -6.370  22.456  1.00  0.00    -0.000 C 
BRANCH  18  19
ATOM     19  C   UNL     1     -13.717  -7.700  21.717  1.00  0.00    -0.003 C 
ATOM     20  C   UNL     1     -15.194  -8.082  21.613  1.00  0.00     0.004 C 
ENDBRANCH  18  19
ENDBRANCH  17  18
ENDBRANCH  16  17
ENDBRANCH  15  16
ENDBRANCH  14  15
ENDBRANCH  13  14
ENDBRANCH  12  13
ENDBRANCH   1  12
TORSDOF 16
ENDMDL
MODEL 7
REMARK VINA RESULT:    -3.670      2.861      6.722
REMARK INTER + INTRA:          -9.712
REMARK INTER:                  -7.200
REMARK INTRA:                  -2.512
REMARK UNBOUND:                -2.609
REMARK SMILES CCCCCCCCCCCCCCCCCC(=O)[O-]
REMARK SMILES IDX 10 1 11 2 12 3 13 4 14 5 15 6 16 7 17 8 18 9 19 10 20 11
REMARK SMILES IDX 9 12 8 13 7 14 6 15 5 16 4 17 3 18 2 19 1 20
REMARK H PARENT
REMARK Flexibility Score: inf
ROOT
ATOM      1  C   UNL     1     -11.259  -8.725  27.019  1.00  0.00     0.000 C 
ENDROOT
BRANCH   1   2
ATOM      2  C   UNL     1     -11.662  -8.202  28.410  1.00  0.00     0.000 C 
BRANCH   2   3
ATOM      3  C   UNL     1     -11.598  -9.306  29.486  1.00  0.00     0.000 C 
BRANCH   3   4
ATOM      4  C   UNL     1     -12.546 -10.487  29.215  1.00  0.00     0.000 C 
BRANCH   4   5
ATOM      5  C   UNL     1     -11.805 -11.823  29.054  1.00  0.00     0.000 C 
BRANCH   5   6
ATOM      6  C   UNL     1     -11.821 -12.338  27.606  1.00  0.00     0.000 C 
BRANCH   6   7
ATOM      7  C   UNL     1     -13.200 -12.199  26.943  1.00  0.00     0.006 C 
BRANCH   7   8
ATOM      8  C   UNL     1     -13.082 -12.262  25.417  1.00  0.00     0.053 C 
BRANCH   8   9
ATOM      9  C   UNL     1     -13.332 -13.654  24.929  1.00  0.00     0.041 C 
ATOM     10  O   UNL     1     -13.022 -13.977  23.751  1.00  0.00    -0.550 OA
ATOM     11  O   UNL     1     -13.860 -14.608  25.789  1.00  0.00    -0.550 OA
ENDBRANCH   8   9
ENDBRANCH   7   8
ENDBRANCH   6   7
ENDBRANCH   5   6
ENDBRANCH   4   5
ENDBRANCH   3   4
ENDBRANCH   2   3
ENDBRANCH   1   2
BRANCH   1  12
ATOM     12  C   UNL     1     -12.366  -8.538  25.968  1.00  0.00     0.000 C 
BRANCH  12  13
ATOM     13  C   UNL     1     -13.733  -8.222  26.601  1.00  0.00    -0.000 C 
BRANCH  13  14
ATOM     14  C   UNL     1     -14.874  -9.038  25.974  1.00  0.00    -0.000 C 
BRANCH  14  15
ATOM     15  C   UNL     1     -15.919  -8.156  25.272  1.00  0.00    -0.000 C 
BRANCH  15  16
ATOM     16  C   UNL     1     -15.939  -6.746  25.876  1.00  0.00    -0.000 C 
BRANCH  16  17
ATOM     17  C   UNL     1     -15.784  -5.678  24.784  1.00  0.00    -0.000 C 
BRANCH  17  18
ATOM     18  C   UNL     1     -14.337  -5.547  24.273  1.00  0.00    -0.000 C 
BRANCH  18  19
ATOM     19  C   UNL     1     -14.140  -5.909  22.790  1.00  0.00    -0.003 C 
ATOM     20  C   UNL     1     -13.193  -7.091  22.584  1.00  0.00     0.004 C 
ENDBRANCH  18  19
ENDBRANCH  17  18
ENDBRANCH  16  17
ENDBRANCH  15  16
ENDBRANCH  14  15
ENDBRANCH  13  14
ENDBRANCH  12  13
ENDBRANCH   1  12
TORSDOF 16
ENDMDL
MODEL 8
REMARK VINA RESULT:    -3.651      2.873      6.373
REMARK INTER + INTRA:          -9.674
REMARK INTER:                  -6.703
REMARK INTRA:                  -2.972
REMARK UNBOUND:                -2.609
REMARK SMILES CCCCCCCCCCCCCCCCCC(=O)[O-]
REMARK SMILES IDX 10 1 11 2 12 3 13 4 14 5 15 6 16 7 17 8 18 9 19 10 20 11
REMARK SMILES IDX 9 12 8 13 7 14 6 15 5 16 4 17 3 18 2 19 1 20
REMARK H PARENT
REMARK Flexibility Score: inf
ROOT
ATOM      1  C   UNL     1     -13.848 -12.370  26.870  1.00  0.00     0.000 C 
ENDROOT
BRANCH   1   2
ATOM      2  C   UNL     1     -14.265 -11.387  25.761  1.00  0.00     0.000 C 
BRANCH   2   3
ATOM      3  C   UNL     1     -13.716 -11.802  24.380  1.00  0.00     0.000 C 
BRANCH   3   4
ATOM      4  C   UNL     1     -12.463 -11.017  23.954  1.00  0.00     0.000 C 
BRANCH   4   5
ATOM      5  C   UNL     1     -11.240 -11.921  23.728  1.00  0.00     0.000 C 
BRANCH   5   6
ATOM      6  C   UNL     1     -10.299 -11.958  24.943  1.00  0.00     0.000 C 
BRANCH   6   7
ATOM      7  C   UNL     1     -10.494 -13.214  25.807  1.00  0.00     0.006 C 
BRANCH   7   8
ATOM      8  C   UNL     1     -10.518 -14.475  24.939  1.00  0.00     0.053 C 
BRANCH   8   9
ATOM      9  C   UNL     1     -11.682 -15.340  25.306  1.00  0.00     0.041 C 
ATOM     10  O   UNL     1     -12.806 -15.153  24.766  1.00  0.00    -0.550 OA
ATOM     11  O   UNL     1     -11.517 -16.386  26.205  1.00  0.00    -0.550 OA
ENDBRANCH   8   9
ENDBRANCH   7   8
ENDBRANCH   6   7
ENDBRANCH   5   6
ENDBRANCH   4   5
ENDBRANCH   3   4
ENDBRANCH   2   3
ENDBRANCH   1   2
BRANCH   1  12
ATOM     12  C   UNL     1     -13.704 -11.694  28.243  1.00  0.00     0.000 C 
BRANCH  12  13
ATOM     13  C   UNL     1     -12.298 -11.870  28.843  1.00  0.00    -0.000 C 
BRANCH  13  14
ATOM     14  C   UNL     1     -11.330 -10.756  28.415  1.00  0.00    -0.000 C 
BRANCH  14  15
ATOM     15  C   UNL     1     -11.619  -9.418  29.114  1.00  0.00    -0.000 C 
BRANCH  15  16
ATOM     16  C   UNL     1     -11.637  -8.265  28.103  1.00  0.00    -0.000 C 
BRANCH  16  17
ATOM     17  C   UNL     1     -11.417  -8.782  26.674  1.00  0.00    -0.000 C 
BRANCH  17  18
ATOM     18  C   UNL     1     -12.067  -7.886  25.604  1.00  0.00    -0.000 C 
BRANCH  18  19
ATOM     19  C   UNL     1     -13.605  -7.847  25.640  1.00  0.00    -0.003 C 
ATOM     20  C   UNL     1     -14.220  -7.340  24.336  1.00  0.00     0.004 C 
ENDBRANCH  18  19
ENDBRANCH  17  18
ENDBRANCH  16  17
ENDBRANCH  15  16
ENDBRANCH  14  15
ENDBRANCH  13  14
ENDBRANCH  12  13
ENDBRANCH   1  12
TORSDOF 16
ENDMDL
MODEL 9
REMARK VINA RESULT:    -3.649      3.051      6.963
REMARK INTER + INTRA:          -9.672
REMARK INTER:                  -7.208
REMARK INTRA:                  -2.463
REMARK UNBOUND:                -2.609
REMARK SMILES CCCCCCCCCCCCCCCCCC(=O)[O-]
REMARK SMILES IDX 10 1 11 2 12 3 13 4 14 5 15 6 16 7 17 8 18 9 19 10 20 11
REMARK SMILES IDX 9 12 8 13 7 14 6 15 5 16 4 17 3 18 2 19 1 20
REMARK H PARENT
REMARK Flexibility Score: inf
ROOT
ATOM      1  C   UNL     1     -11.760 -10.322  28.990  1.00  0.00     0.000 C 
ENDROOT
BRANCH   1   2
ATOM      2  C   UNL     1     -13.184 -10.725  29.415  1.00  0.00     0.000 C 
BRANCH   2   3
ATOM      3  C   UNL     1     -13.906 -11.542  28.323  1.00  0.00     0.000 C 
BRANCH   3   4
ATOM      4  C   UNL     1     -12.956 -12.139  27.271  1.00  0.00     0.000 C 
BRANCH   4   5
ATOM      5  C   UNL     1     -13.425 -11.886  25.829  1.00  0.00     0.000 C 
BRANCH   5   6
ATOM      6  C   UNL     1     -12.256 -11.754  24.841  1.00  0.00     0.000 C 
BRANCH   6   7
ATOM      7  C   UNL     1     -10.965 -12.407  25.359  1.00  0.00     0.006 C 
BRANCH   7   8
ATOM      8  C   UNL     1     -10.625 -13.663  24.550  1.00  0.00     0.053 C 
BRANCH   8   9
ATOM      9  C   UNL     1     -10.677 -14.877  25.422  1.00  0.00     0.041 C 
ATOM     10  O   UNL     1     -11.762 -15.224  25.962  1.00  0.00    -0.550 OA
ATOM     11  O   UNL     1      -9.541 -15.656  25.599  1.00  0.00    -0.550 OA
ENDBRANCH   8   9
ENDBRANCH   7   8
ENDBRANCH   6   7
ENDBRANCH   5   6
ENDBRANCH   4   5
ENDBRANCH   3   4
ENDBRANCH   2   3
ENDBRANCH   1   2
BRANCH   1  12
ATOM     12  C   UNL     1     -11.690  -8.895  28.421  1.00  0.00     0.000 C 
BRANCH  12  13
ATOM     13  C   UNL     1     -11.192  -8.865  26.965  1.00  0.00    -0.000 C 
BRANCH  13  14
ATOM     14  C   UNL     1     -12.195  -8.194  26.013  1.00  0.00    -0.000 C 
BRANCH  14  15
ATOM     15  C   UNL     1     -13.636  -8.235  26.545  1.00  0.00    -0.000 C 
BRANCH  15  16
ATOM     16  C   UNL     1     -14.647  -8.119  25.397  1.00  0.00    -0.000 C 
BRANCH  16  17
ATOM     17  C   UNL     1     -15.743  -7.096  25.730  1.00  0.00    -0.000 C 
BRANCH  17  18
ATOM     18  C   UNL     1     -15.551  -5.753  25.004  1.00  0.00    -0.000 C 
BRANCH  18  19
ATOM     19  C   UNL     1     -14.266  -5.649  24.163  1.00  0.00    -0.003 C 
ATOM     20  C   UNL     1     -14.540  -5.556  22.662  1.00  0.00     0.004 C 
ENDBRANCH  18  19
ENDBRANCH  17  18
ENDBRANCH  16  17
ENDBRANCH  15  16
ENDBRANCH  14  15
ENDBRANCH  13  14
ENDBRANCH  12  13
ENDBRANCH   1  12
TORSDOF 16
ENDMDL
