MODEL 1
REMARK VINA RESULT:    -3.453      0.000      0.000
REMARK INTER + INTRA:          -4.617
REMARK INTER:                  -4.260
REMARK INTRA:                  -0.357
REMARK UNBOUND:                -0.357
REMARK SMILES Oc1cc(O)c2cc(O)c(-c3cc(O)c(O)c(O)c3)[o+]c2c1.[Cl-]
REMARK SMILES IDX 10 1 20 2 21 3 22 4 2 5 3 6 4 7 6 8 7 9 8 10 11 11 12 12
REMARK SMILES IDX 13 13 19 14 15 15 17 16 14 17 16 19 18 21 9 23 1 25 5 27
REMARK H PARENT 14 18 16 20 18 22 9 24 1 26 5 28
REMARK Flexibility Score: inf
ROOT
ATOM      1  C   UNL     1      11.088  21.883  27.751  1.00  0.00     0.402 A 
ATOM      2  O   UNL     1      10.591  21.026  28.638  1.00  0.00    -0.202 OA
ATOM      3  C   UNL     1      10.266  19.772  28.340  1.00  0.00     0.368 A 
ATOM      4  C   UNL     1       9.747  18.947  29.342  1.00  0.00     0.162 A 
ATOM      5  C   UNL     1       9.394  17.628  29.056  1.00  0.00     0.128 A 
ATOM      6  C   UNL     1       9.562  17.126  27.760  1.00  0.00     0.093 A 
ATOM      7  C   UNL     1      10.080  17.933  26.738  1.00  0.00     0.136 A 
ATOM      8  C   UNL     1      10.442  19.275  27.026  1.00  0.00     0.125 A 
ATOM      9  C   UNL     1      10.980  20.151  26.069  1.00  0.00     0.078 A 
ATOM     10  C   UNL     1      11.317  21.460  26.428  1.00  0.00     0.223 A 
ENDROOT
BRANCH   1  11
ATOM     11  C   UNL     1      11.401  23.258  28.204  1.00  0.00     0.091 A 
ATOM     12  C   UNL     1      10.399  24.236  28.318  1.00  0.00     0.068 A 
ATOM     13  C   UNL     1      10.712  25.526  28.770  1.00  0.00     0.162 A 
ATOM     14  C   UNL     1      12.714  23.578  28.580  1.00  0.00     0.068 A 
ATOM     15  C   UNL     1      12.033  25.844  29.124  1.00  0.00     0.200 A 
ATOM     16  C   UNL     1      13.035  24.863  29.031  1.00  0.00     0.162 A 
BRANCH  13  17
ATOM     17  O   UNL     1       9.710  26.490  28.873  1.00  0.00    -0.504 OA
ATOM     18  H   UNL     1       9.612  27.231  28.188  1.00  0.00     0.293 HD
ENDBRANCH  13  17
BRANCH  15  19
ATOM     19  O   UNL     1      12.363  27.124  29.571  1.00  0.00    -0.502 OA
ATOM     20  H   UNL     1      12.283  27.392  30.545  1.00  0.00     0.293 HD
ENDBRANCH  15  19
BRANCH  16  21
ATOM     21  O   UNL     1      14.355  25.144  29.382  1.00  0.00    -0.504 OA
ATOM     22  H   UNL     1      15.110  25.117  28.707  1.00  0.00     0.293 HD
ENDBRANCH  16  21
ENDBRANCH   1  11
BRANCH  10  23
ATOM     23  O   UNL     1      11.898  22.314  25.492  1.00  0.00    -0.500 OA
ATOM     24  H   UNL     1      11.506  22.436  24.566  1.00  0.00     0.294 HD
ENDBRANCH  10  23
BRANCH   5  25
ATOM     25  O   UNL     1       8.879  16.821  30.068  1.00  0.00    -0.507 OA
ATOM     26  H   UNL     1       8.607  15.861  29.893  1.00  0.00     0.293 HD
ENDBRANCH   5  25
BRANCH   7  27
ATOM     27  O   UNL     1      10.212  17.360  25.471  1.00  0.00    -0.507 OA
ATOM     28  H   UNL     1       9.747  17.698  24.641  1.00  0.00     0.293 HD
ENDBRANCH   7  27
TORSDOF 7
ENDMDL
MODEL 2
REMARK VINA RESULT:    -3.442      1.177      3.345
REMARK INTER + INTRA:          -4.603
REMARK INTER:                  -4.224
REMARK INTRA:                  -0.380
REMARK UNBOUND:                -0.357
REMARK SMILES Oc1cc(O)c2cc(O)c(-c3cc(O)c(O)c(O)c3)[o+]c2c1.[Cl-]
REMARK SMILES IDX 10 1 20 2 21 3 22 4 2 5 3 6 4 7 6 8 7 9 8 10 11 11 12 12
REMARK SMILES IDX 13 13 19 14 15 15 17 16 14 17 16 19 18 21 9 23 1 25 5 27
REMARK H PARENT 14 18 16 20 18 22 9 24 1 26 5 28
REMARK Flexibility Score: inf
ROOT
ATOM      1  C   UNL     1      10.988  21.760  27.962  1.00  0.00     0.402 A 
ATOM      2  O   UNL     1      11.225  21.475  26.684  1.00  0.00    -0.202 OA
ATOM      3  C   UNL     1      10.980  20.287  26.142  1.00  0.00     0.368 A 
ATOM      4  C   UNL     1      11.266  20.084  24.789  1.00  0.00     0.162 A 
ATOM      5  C   UNL     1      11.021  18.845  24.196  1.00  0.00     0.128 A 
ATOM      6  C   UNL     1      10.485  17.800  24.957  1.00  0.00     0.093 A 
ATOM      7  C   UNL     1      10.190  17.978  26.315  1.00  0.00     0.136 A 
ATOM      8  C   UNL     1      10.436  19.238  26.922  1.00  0.00     0.125 A 
ATOM      9  C   UNL     1      10.158  19.511  28.272  1.00  0.00     0.078 A 
ATOM     10  C   UNL     1      10.423  20.779  28.799  1.00  0.00     0.223 A 
ENDROOT
BRANCH   1  11
ATOM     11  C   UNL     1      11.315  23.119  28.450  1.00  0.00     0.091 A 
ATOM     12  C   UNL     1      12.596  23.436  28.928  1.00  0.00     0.068 A 
ATOM     13  C   UNL     1      12.892  24.735  29.365  1.00  0.00     0.162 A 
ATOM     14  C   UNL     1      10.341  24.128  28.383  1.00  0.00     0.068 A 
ATOM     15  C   UNL     1      11.906  25.734  29.316  1.00  0.00     0.200 A 
ATOM     16  C   UNL     1      10.627  25.426  28.818  1.00  0.00     0.162 A 
BRANCH  13  17
ATOM     17  O   UNL     1      14.167  25.037  29.844  1.00  0.00    -0.504 OA
ATOM     18  H   UNL     1      14.931  25.262  29.217  1.00  0.00     0.293 HD
ENDBRANCH  13  17
BRANCH  15  19
ATOM     19  O   UNL     1      12.182  27.030  29.750  1.00  0.00    -0.502 OA
ATOM     20  H   UNL     1      12.093  27.834  29.141  1.00  0.00     0.293 HD
ENDBRANCH  15  19
BRANCH  16  21
ATOM     21  O   UNL     1       9.629  26.397  28.748  1.00  0.00    -0.504 OA
ATOM     22  H   UNL     1       8.804  26.281  28.171  1.00  0.00     0.293 HD
ENDBRANCH  16  21
ENDBRANCH   1  11
BRANCH  10  23
ATOM     23  O   UNL     1      10.102  21.066  30.125  1.00  0.00    -0.500 OA
ATOM     24  H   UNL     1       9.146  21.036  30.460  1.00  0.00     0.294 HD
ENDBRANCH  10  23
BRANCH   5  25
ATOM     25  O   UNL     1      11.312  18.663  22.846  1.00  0.00    -0.507 OA
ATOM     26  H   UNL     1      11.469  17.740  22.458  1.00  0.00     0.293 HD
ENDBRANCH   5  25
BRANCH   7  27
ATOM     27  O   UNL     1       9.662  16.886  27.007  1.00  0.00    -0.507 OA
ATOM     28  H   UNL     1      10.132  15.999  27.118  1.00  0.00     0.293 HD
ENDBRANCH   7  27
TORSDOF 7
ENDMDL
MODEL 3
REMARK VINA RESULT:    -3.379      2.126      4.526
REMARK INTER + INTRA:          -4.526
REMARK INTER:                  -4.179
REMARK INTRA:                  -0.347
REMARK UNBOUND:                -0.357
REMARK SMILES Oc1cc(O)c2cc(O)c(-c3cc(O)c(O)c(O)c3)[o+]c2c1.[Cl-]
REMARK SMILES IDX 10 1 20 2 21 3 22 4 2 5 3 6 4 7 6 8 7 9 8 10 11 11 12 12
REMARK SMILES IDX 13 13 19 14 15 15 17 16 14 17 16 19 18 21 9 23 1 25 5 27
REMARK H PARENT 14 18 16 20 18 22 9 24 1 26 5 28
REMARK Flexibility Score: inf
ROOT
ATOM      1  C   UNL     1      11.536  22.560  26.485  1.00  0.00     0.402 A 
ATOM      2  O   UNL     1      11.858  22.790  25.215  1.00  0.00    -0.202 OA
ATOM      3  C   UNL     1      11.883  21.842  24.284  1.00  0.00     0.368 A 
ATOM      4  C   UNL     1      12.236  22.182  22.975  1.00  0.00     0.162 A 
ATOM      5  C   UNL     1      12.274  21.206  21.979  1.00  0.00     0.128 A 
ATOM      6  C   UNL     1      11.956  19.879  22.290  1.00  0.00     0.093 A 
ATOM      7  C   UNL     1      11.598  19.512  23.594  1.00  0.00     0.136 A 
ATOM      8  C   UNL     1      11.556  20.503  24.610  1.00  0.00     0.125 A 
ATOM      9  C   UNL     1      11.197  20.230  25.940  1.00  0.00     0.078 A 
ATOM     10  C   UNL     1      11.174  21.260  26.885  1.00  0.00     0.223 A 
ENDROOT
BRANCH   1  11
ATOM     11  C   UNL     1      11.555  23.699  27.430  1.00  0.00     0.091 A 
ATOM     12  C   UNL     1      12.758  24.181  27.971  1.00  0.00     0.068 A 
ATOM     13  C   UNL     1      12.757  25.275  28.848  1.00  0.00     0.162 A 
ATOM     14  C   UNL     1      10.353  24.348  27.751  1.00  0.00     0.068 A 
ATOM     15  C   UNL     1      11.547  25.906  29.182  1.00  0.00     0.200 A 
ATOM     16  C   UNL     1      10.343  25.440  28.626  1.00  0.00     0.162 A 
BRANCH  13  17
ATOM     17  O   UNL     1      13.957  25.740  29.384  1.00  0.00    -0.504 OA
ATOM     18  H   UNL     1      14.013  26.101  30.330  1.00  0.00     0.293 HD
ENDBRANCH  13  17
BRANCH  15  19
ATOM     19  O   UNL     1      11.528  26.993  30.056  1.00  0.00    -0.502 OA
ATOM     20  H   UNL     1      10.676  27.310  30.503  1.00  0.00     0.293 HD
ENDBRANCH  15  19
BRANCH  16  21
ATOM     21  O   UNL     1       9.126  26.049  28.931  1.00  0.00    -0.504 OA
ATOM     22  H   UNL     1       8.946  26.474  29.832  1.00  0.00     0.293 HD
ENDBRANCH  16  21
ENDBRANCH   1  11
BRANCH  10  23
ATOM     23  O   UNL     1      10.769  20.999  28.194  1.00  0.00    -0.500 OA
ATOM     24  H   UNL     1      11.275  21.366  28.991  1.00  0.00     0.294 HD
ENDBRANCH  10  23
BRANCH   5  25
ATOM     25  O   UNL     1      12.628  21.565  20.680  1.00  0.00    -0.507 OA
ATOM     26  H   UNL     1      12.150  22.311  20.188  1.00  0.00     0.293 HD
ENDBRANCH   5  25
BRANCH   7  27
ATOM     27  O   UNL     1      11.299  18.167  23.825  1.00  0.00    -0.507 OA
ATOM     28  H   UNL     1      11.756  17.592  24.517  1.00  0.00     0.293 HD
ENDBRANCH   7  27
TORSDOF 7
ENDMDL
MODEL 4
REMARK VINA RESULT:    -3.376     21.401     24.354
REMARK INTER + INTRA:          -4.522
REMARK INTER:                  -4.137
REMARK INTRA:                  -0.384
REMARK UNBOUND:                -0.357
REMARK SMILES Oc1cc(O)c2cc(O)c(-c3cc(O)c(O)c(O)c3)[o+]c2c1.[Cl-]
REMARK SMILES IDX 10 1 20 2 21 3 22 4 2 5 3 6 4 7 6 8 7 9 8 10 11 11 12 12
REMARK SMILES IDX 13 13 19 14 15 15 17 16 14 17 16 19 18 21 9 23 1 25 5 27
REMARK H PARENT 14 18 16 20 18 22 9 24 1 26 5 28
REMARK Flexibility Score: inf
ROOT
ATOM      1  C   UNL     1      22.784  10.599  11.196  1.00  0.00     0.402 A 
ATOM      2  O   UNL     1      23.769   9.723  11.376  1.00  0.00    -0.202 OA
ATOM      3  C   UNL     1      25.044   9.995  11.120  1.00  0.00     0.368 A 
ATOM      4  C   UNL     1      26.008   9.006  11.338  1.00  0.00     0.162 A 
ATOM      5  C   UNL     1      27.353   9.263  11.075  1.00  0.00     0.128 A 
ATOM      6  C   UNL     1      27.743  10.518  10.591  1.00  0.00     0.093 A 
ATOM      7  C   UNL     1      26.796  11.525  10.364  1.00  0.00     0.136 A 
ATOM      8  C   UNL     1      25.426  11.268  10.632  1.00  0.00     0.125 A 
ATOM      9  C   UNL     1      24.412  12.221  10.448  1.00  0.00     0.078 A 
ATOM     10  C   UNL     1      23.083  11.896  10.738  1.00  0.00     0.223 A 
ENDROOT
BRANCH   1  11
ATOM     11  C   UNL     1      21.401  10.173  11.508  1.00  0.00     0.091 A 
ATOM     12  C   UNL     1      20.580   9.582  10.533  1.00  0.00     0.068 A 
ATOM     13  C   UNL     1      19.281   9.165  10.853  1.00  0.00     0.162 A 
ATOM     14  C   UNL     1      20.916  10.308  12.818  1.00  0.00     0.068 A 
ATOM     15  C   UNL     1      18.795   9.325  12.162  1.00  0.00     0.200 A 
ATOM     16  C   UNL     1      19.620   9.896  13.146  1.00  0.00     0.162 A 
BRANCH  13  17
ATOM     17  O   UNL     1      18.473   8.586   9.875  1.00  0.00    -0.504 OA
ATOM     18  H   UNL     1      18.853   7.968   9.168  1.00  0.00     0.293 HD
ENDBRANCH  13  17
BRANCH  15  19
ATOM     19  O   UNL     1      17.503   8.919  12.497  1.00  0.00    -0.502 OA
ATOM     20  H   UNL     1      16.726   9.567  12.530  1.00  0.00     0.293 HD
ENDBRANCH  15  19
BRANCH  16  21
ATOM     21  O   UNL     1      19.172  10.061  14.456  1.00  0.00    -0.504 OA
ATOM     22  H   UNL     1      19.164  10.964  14.913  1.00  0.00     0.293 HD
ENDBRANCH  16  21
ENDBRANCH   1  11
BRANCH  10  23
ATOM     23  O   UNL     1      22.082  12.857  10.603  1.00  0.00    -0.500 OA
ATOM     24  H   UNL     1      21.627  13.269  11.409  1.00  0.00     0.294 HD
ENDBRANCH  10  23
BRANCH   5  25
ATOM     25  O   UNL     1      28.299   8.265  11.300  1.00  0.00    -0.507 OA
ATOM     26  H   UNL     1      29.264   8.375  11.012  1.00  0.00     0.293 HD
ENDBRANCH   5  25
BRANCH   7  27
ATOM     27  O   UNL     1      27.263  12.748   9.875  1.00  0.00    -0.507 OA
ATOM     28  H   UNL     1      26.778  13.627   9.981  1.00  0.00     0.293 HD
ENDBRANCH   7  27
TORSDOF 7
ENDMDL
MODEL 5
REMARK VINA RESULT:    -3.337      1.647      2.269
REMARK INTER + INTRA:          -4.475
REMARK INTER:                  -4.163
REMARK INTRA:                  -0.312
REMARK UNBOUND:                -0.357
REMARK SMILES Oc1cc(O)c2cc(O)c(-c3cc(O)c(O)c(O)c3)[o+]c2c1.[Cl-]
REMARK SMILES IDX 10 1 20 2 21 3 22 4 2 5 3 6 4 7 6 8 7 9 8 10 11 11 12 12
REMARK SMILES IDX 13 13 19 14 15 15 17 16 14 17 16 19 18 21 9 23 1 25 5 27
REMARK H PARENT 14 18 16 20 18 22 9 24 1 26 5 28
REMARK Flexibility Score: inf
ROOT
ATOM      1  C   UNL     1      11.545  22.693  26.395  1.00  0.00     0.402 A 
ATOM      2  O   UNL     1      11.134  21.512  26.849  1.00  0.00    -0.202 OA
ATOM      3  C   UNL     1      11.106  20.412  26.104  1.00  0.00     0.368 A 
ATOM      4  C   UNL     1      10.655  19.217  26.672  1.00  0.00     0.162 A 
ATOM      5  C   UNL     1      10.612  18.048  25.912  1.00  0.00     0.128 A 
ATOM      6  C   UNL     1      11.024  18.070  24.574  1.00  0.00     0.093 A 
ATOM      7  C   UNL     1      11.480  19.255  23.982  1.00  0.00     0.136 A 
ATOM      8  C   UNL     1      11.527  20.446  24.753  1.00  0.00     0.125 A 
ATOM      9  C   UNL     1      11.982  21.675  24.247  1.00  0.00     0.078 A 
ATOM     10  C   UNL     1      12.004  22.806  25.069  1.00  0.00     0.223 A 
ENDROOT
BRANCH   1  11
ATOM     11  C   UNL     1      11.518  23.848  27.320  1.00  0.00     0.091 A 
ATOM     12  C   UNL     1      10.311  24.464  27.688  1.00  0.00     0.068 A 
ATOM     13  C   UNL     1      10.305  25.543  28.584  1.00  0.00     0.162 A 
ATOM     14  C   UNL     1      12.718  24.304  27.888  1.00  0.00     0.068 A 
ATOM     15  C   UNL     1      11.513  26.008  29.130  1.00  0.00     0.200 A 
ATOM     16  C   UNL     1      12.722  25.381  28.781  1.00  0.00     0.162 A 
BRANCH  13  17
ATOM     17  O   UNL     1       9.101  26.150  28.936  1.00  0.00    -0.504 OA
ATOM     18  H   UNL     1       8.392  26.369  28.245  1.00  0.00     0.293 HD
ENDBRANCH  13  17
BRANCH  15  19
ATOM     19  O   UNL     1      11.526  27.083  30.019  1.00  0.00    -0.502 OA
ATOM     20  H   UNL     1      11.884  27.994  29.758  1.00  0.00     0.293 HD
ENDBRANCH  15  19
BRANCH  16  21
ATOM     21  O   UNL     1      13.937  25.813  29.311  1.00  0.00    -0.504 OA
ATOM     22  H   UNL     1      14.295  25.463  30.192  1.00  0.00     0.293 HD
ENDBRANCH  16  21
ENDBRANCH   1  11
BRANCH  10  23
ATOM     23  O   UNL     1      12.502  24.014  24.583  1.00  0.00    -0.500 OA
ATOM     24  H   UNL     1      13.494  24.222  24.588  1.00  0.00     0.294 HD
ENDBRANCH  10  23
BRANCH   5  25
ATOM     25  O   UNL     1      10.160  16.867  26.496  1.00  0.00    -0.507 OA
ATOM     26  H   UNL     1      10.545  16.526  27.369  1.00  0.00     0.293 HD
ENDBRANCH   5  25
BRANCH   7  27
ATOM     27  O   UNL     1      11.869  19.196  22.641  1.00  0.00    -0.507 OA
ATOM     28  H   UNL     1      12.629  18.630  22.292  1.00  0.00     0.293 HD
ENDBRANCH   7  27
TORSDOF 7
ENDMDL
MODEL 6
REMARK VINA RESULT:    -3.317      0.641      1.892
REMARK INTER + INTRA:          -4.449
REMARK INTER:                  -4.086
REMARK INTRA:                  -0.363
REMARK UNBOUND:                -0.357
REMARK SMILES Oc1cc(O)c2cc(O)c(-c3cc(O)c(O)c(O)c3)[o+]c2c1.[Cl-]
REMARK SMILES IDX 10 1 20 2 21 3 22 4 2 5 3 6 4 7 6 8 7 9 8 10 11 11 12 12
REMARK SMILES IDX 13 13 19 14 15 15 17 16 14 17 16 19 18 21 9 23 1 25 5 27
REMARK H PARENT 14 18 16 20 18 22 9 24 1 26 5 28
REMARK Flexibility Score: inf
ROOT
ATOM      1  C   UNL     1      11.213  21.815  27.737  1.00  0.00     0.402 A 
ATOM      2  O   UNL     1      10.873  20.830  28.564  1.00  0.00    -0.202 OA
ATOM      3  C   UNL     1      10.743  19.565  28.179  1.00  0.00     0.368 A 
ATOM      4  C   UNL     1      10.378  18.600  29.123  1.00  0.00     0.162 A 
ATOM      5  C   UNL     1      10.231  17.266  28.745  1.00  0.00     0.128 A 
ATOM      6  C   UNL     1      10.450  16.889  27.415  1.00  0.00     0.093 A 
ATOM      7  C   UNL     1      10.816  17.836  26.450  1.00  0.00     0.136 A 
ATOM      8  C   UNL     1      10.969  19.195  26.831  1.00  0.00     0.125 A 
ATOM      9  C   UNL     1      11.345  20.210  25.936  1.00  0.00     0.078 A 
ATOM     10  C   UNL     1      11.480  21.527  26.386  1.00  0.00     0.223 A 
ENDROOT
BRANCH   1  11
ATOM     11  C   UNL     1      11.316  23.187  28.285  1.00  0.00     0.091 A 
ATOM     12  C   UNL     1      12.551  23.730  28.674  1.00  0.00     0.068 A 
ATOM     13  C   UNL     1      12.631  25.038  29.170  1.00  0.00     0.162 A 
ATOM     14  C   UNL     1      10.163  23.984  28.368  1.00  0.00     0.068 A 
ATOM     15  C   UNL     1      11.469  25.822  29.270  1.00  0.00     0.200 A 
ATOM     16  C   UNL     1      10.233  25.291  28.863  1.00  0.00     0.162 A 
BRANCH  13  17
ATOM     17  O   UNL     1      13.862  25.564  29.558  1.00  0.00    -0.504 OA
ATOM     18  H   UNL     1      13.958  26.527  29.860  1.00  0.00     0.293 HD
ENDBRANCH  13  17
BRANCH  15  19
ATOM     19  O   UNL     1      11.529  27.125  29.765  1.00  0.00    -0.502 OA
ATOM     20  H   UNL     1      11.508  27.935  29.157  1.00  0.00     0.293 HD
ENDBRANCH  15  19
BRANCH  16  21
ATOM     21  O   UNL     1       9.063  26.045  28.941  1.00  0.00    -0.504 OA
ATOM     22  H   UNL     1       8.715  26.411  29.820  1.00  0.00     0.293 HD
ENDBRANCH  16  21
ENDBRANCH   1  11
BRANCH  10  23
ATOM     23  O   UNL     1      11.903  22.525  25.509  1.00  0.00    -0.500 OA
ATOM     24  H   UNL     1      12.767  23.033  25.656  1.00  0.00     0.294 HD
ENDBRANCH  10  23
BRANCH   5  25
ATOM     25  O   UNL     1       9.868  16.319  29.700  1.00  0.00    -0.507 OA
ATOM     26  H   UNL     1       9.698  15.352  29.450  1.00  0.00     0.293 HD
ENDBRANCH   5  25
BRANCH   7  27
ATOM     27  O   UNL     1      11.011  17.382  25.143  1.00  0.00    -0.507 OA
ATOM     28  H   UNL     1      11.132  16.412  24.888  1.00  0.00     0.293 HD
ENDBRANCH   7  27
TORSDOF 7
ENDMDL
MODEL 7
REMARK VINA RESULT:    -3.257      4.599      7.433
REMARK INTER + INTRA:          -4.375
REMARK INTER:                  -4.003
REMARK INTRA:                  -0.372
REMARK UNBOUND:                -0.357
REMARK SMILES Oc1cc(O)c2cc(O)c(-c3cc(O)c(O)c(O)c3)[o+]c2c1.[Cl-]
REMARK SMILES IDX 10 1 20 2 21 3 22 4 2 5 3 6 4 7 6 8 7 9 8 10 11 11 12 12
REMARK SMILES IDX 13 13 19 14 15 15 17 16 14 17 16 19 18 21 9 23 1 25 5 27
REMARK H PARENT 14 18 16 20 18 22 9 24 1 26 5 28
REMARK Flexibility Score: inf
ROOT
ATOM      1  C   UNL     1      14.455  25.090  28.688  1.00  0.00     0.402 A 
ATOM      2  O   UNL     1      15.189  24.107  28.173  1.00  0.00    -0.202 OA
ATOM      3  C   UNL     1      16.502  24.005  28.352  1.00  0.00     0.368 A 
ATOM      4  C   UNL     1      17.188  22.936  27.768  1.00  0.00     0.162 A 
ATOM      5  C   UNL     1      18.566  22.807  27.937  1.00  0.00     0.128 A 
ATOM      6  C   UNL     1      19.268  23.752  28.695  1.00  0.00     0.093 A 
ATOM      7  C   UNL     1      18.604  24.832  29.290  1.00  0.00     0.136 A 
ATOM      8  C   UNL     1      17.201  24.966  29.123  1.00  0.00     0.125 A 
ATOM      9  C   UNL     1      16.452  26.008  29.693  1.00  0.00     0.078 A 
ATOM     10  C   UNL     1      15.070  26.072  29.487  1.00  0.00     0.223 A 
ENDROOT
BRANCH   1  11
ATOM     11  C   UNL     1      13.001  25.099  28.408  1.00  0.00     0.091 A 
ATOM     12  C   UNL     1      12.081  24.525  29.299  1.00  0.00     0.068 A 
ATOM     13  C   UNL     1      10.706  24.564  29.027  1.00  0.00     0.162 A 
ATOM     14  C   UNL     1      12.525  25.744  27.256  1.00  0.00     0.068 A 
ATOM     15  C   UNL     1      10.239  25.192  27.860  1.00  0.00     0.200 A 
ATOM     16  C   UNL     1      11.155  25.786  26.975  1.00  0.00     0.162 A 
BRANCH  13  17
ATOM     17  O   UNL     1       9.802  23.985  29.917  1.00  0.00    -0.504 OA
ATOM     18  H   UNL     1       9.415  24.505  30.697  1.00  0.00     0.293 HD
ENDBRANCH  13  17
BRANCH  15  19
ATOM     19  O   UNL     1       8.875  25.236  27.572  1.00  0.00    -0.502 OA
ATOM     20  H   UNL     1       8.261  24.450  27.748  1.00  0.00     0.293 HD
ENDBRANCH  15  19
BRANCH  16  21
ATOM     21  O   UNL     1      10.724  26.424  25.813  1.00  0.00    -0.504 OA
ATOM     22  H   UNL     1      10.376  25.909  25.012  1.00  0.00     0.293 HD
ENDBRANCH  16  21
ENDBRANCH   1  11
BRANCH  10  23
ATOM     23  O   UNL     1      14.318  27.077  30.094  1.00  0.00    -0.500 OA
ATOM     24  H   UNL     1      14.258  27.162  31.102  1.00  0.00     0.294 HD
ENDBRANCH  10  23
BRANCH   5  25
ATOM     25  O   UNL     1      19.232  21.734  27.348  1.00  0.00    -0.507 OA
ATOM     26  H   UNL     1      19.969  21.237  27.833  1.00  0.00     0.293 HD
ENDBRANCH   5  25
BRANCH   7  27
ATOM     27  O   UNL     1      19.376  25.734  30.027  1.00  0.00    -0.507 OA
ATOM     28  H   UNL     1      20.237  25.497  30.498  1.00  0.00     0.293 HD
ENDBRANCH   7  27
TORSDOF 7
ENDMDL
