MODEL 1
REMARK VINA RESULT:    -6.931      0.000      0.000
REMARK INTER + INTRA:         -10.353
REMARK INTER:                  -9.160
REMARK INTRA:                  -1.193
REMARK UNBOUND:                -1.193
REMARK SMILES CC[C@@H](C=C[C@H](C)[C@@H]1CC[C@@H]2[C@H]3CC=C4C[C@@H](O)CC[C@@]4(C)[C@@H]3CC[C@]21C)C(C)C
REMARK SMILES IDX 6 1 7 2 5 3 4 4 3 5 2 6 1 7 28 8 29 9 30 10 8 11 9 12 26 13
REMARK SMILES IDX 10 14 11 15 25 16 27 17 12 18 24 19 23 20 13 21 21 22 14 23
REMARK SMILES IDX 15 24 20 25 22 26 16 27 19 28 17 29 18 30
REMARK H PARENT 18 31
REMARK Flexibility Score: inf
ROOT
ATOM      1  C   UNL     1     165.747 176.717 151.059  1.00  0.00     0.012 C 
ATOM      2  C   UNL     1     165.717 178.036 150.263  1.00  0.00     0.012 C 
ENDROOT
BRANCH   1   3
ATOM      3  C   UNL     1     164.507 175.916 150.716  1.00  0.00    -0.028 C 
ATOM      4  C   UNL     1     163.246 176.183 151.115  1.00  0.00    -0.027 C 
BRANCH   4   5
ATOM      5  C   UNL     1     162.808 177.362 151.973  1.00  0.00     0.014 C 
BRANCH   5   6
ATOM      6  C   UNL     1     162.787 176.952 153.470  1.00  0.00     0.004 C 
ATOM      7  C   UNL     1     164.050 177.341 154.242  1.00  0.00     0.004 C 
ENDBRANCH   5   6
BRANCH   5   8
ATOM      8  C   UNL     1     161.451 177.942 151.460  1.00  0.00    -0.011 C 
ATOM      9  C   UNL     1     160.439 178.074 152.614  1.00  0.00     0.008 C 
ATOM     10  C   UNL     1     160.825 177.077 150.350  1.00  0.00     0.008 C 
ENDBRANCH   5   8
ENDBRANCH   4   5
ENDBRANCH   1   3
BRANCH   1  11
ATOM     11  C   UNL     1     167.051 175.845 150.968  1.00  0.00     0.002 C 
ATOM     12  C   UNL     1     166.828 174.332 151.229  1.00  0.00     0.005 C 
ATOM     13  C   UNL     1     168.346 176.193 151.767  1.00  0.00    -0.026 C 
ATOM     14  C   UNL     1     168.160 173.768 151.746  1.00  0.00     0.005 C 
ATOM     15  C   UNL     1     169.152 174.900 151.533  1.00  0.00    -0.001 C 
ATOM     16  C   UNL     1     169.205 177.350 151.189  1.00  0.00     0.007 C 
ATOM     17  C   UNL     1     168.024 176.452 153.267  1.00  0.00     0.012 C 
ATOM     18  C   UNL     1     170.496 174.855 152.293  1.00  0.00     0.000 C 
ATOM     19  C   UNL     1     170.593 177.417 151.869  1.00  0.00     0.005 C 
ATOM     20  C   UNL     1     171.371 176.061 151.839  1.00  0.00     0.003 C 
ATOM     21  C   UNL     1     171.242 173.547 151.985  1.00  0.00     0.031 C 
ATOM     22  C   UNL     1     172.750 176.093 152.605  1.00  0.00    -0.008 C 
ATOM     23  C   UNL     1     172.671 173.567 152.450  1.00  0.00    -0.027 C 
ATOM     24  C   UNL     1     173.394 174.697 152.607  1.00  0.00    -0.065 C 
ATOM     25  C   UNL     1     173.707 177.090 151.879  1.00  0.00     0.014 C 
ATOM     26  C   UNL     1     172.569 176.543 154.082  1.00  0.00     0.016 C 
ATOM     27  C   UNL     1     174.862 174.570 152.970  1.00  0.00     0.063 C 
ATOM     28  C   UNL     1     175.173 176.989 152.333  1.00  0.00     0.033 C 
ATOM     29  C   UNL     1     175.716 175.565 152.175  1.00  0.00     0.118 C 
BRANCH  29  30
ATOM     30  O   UNL     1     175.736 175.215 150.815  1.00  0.00    -0.393 OA
ATOM     31  H   UNL     1     176.628 175.471 150.464  1.00  0.00     0.210 HD
ENDBRANCH  29  30
ENDBRANCH   1  11
TORSDOF 6
ENDMDL
MODEL 2
REMARK VINA RESULT:    -6.881      3.067      9.481
REMARK INTER + INTRA:         -10.287
REMARK INTER:                  -9.121
REMARK INTRA:                  -1.167
REMARK UNBOUND:                -1.193
REMARK SMILES CC[C@@H](C=C[C@H](C)[C@@H]1CC[C@@H]2[C@H]3CC=C4C[C@@H](O)CC[C@@]4(C)[C@@H]3CC[C@]21C)C(C)C
REMARK SMILES IDX 6 1 7 2 5 3 4 4 3 5 2 6 1 7 28 8 29 9 30 10 8 11 9 12 26 13
REMARK SMILES IDX 10 14 11 15 25 16 27 17 12 18 24 19 23 20 13 21 21 22 14 23
REMARK SMILES IDX 15 24 20 25 22 26 16 27 19 28 17 29 18 30
REMARK H PARENT 18 31
REMARK Flexibility Score: inf
ROOT
ATOM      1  C   UNL     1     170.894 175.985 152.509  1.00  0.00     0.012 C 
ATOM      2  C   UNL     1     171.019 177.350 153.213  1.00  0.00     0.012 C 
ENDROOT
BRANCH   1   3
ATOM      3  C   UNL     1     171.892 175.027 153.128  1.00  0.00    -0.028 C 
ATOM      4  C   UNL     1     172.984 174.511 152.529  1.00  0.00    -0.027 C 
BRANCH   4   5
ATOM      5  C   UNL     1     173.454 174.809 151.112  1.00  0.00     0.014 C 
BRANCH   5   6
ATOM      6  C   UNL     1     173.627 173.486 150.319  1.00  0.00     0.004 C 
ATOM      7  C   UNL     1     174.685 172.545 150.899  1.00  0.00     0.004 C 
ENDBRANCH   5   6
BRANCH   5   8
ATOM      8  C   UNL     1     174.736 175.703 151.132  1.00  0.00    -0.011 C 
ATOM      9  C   UNL     1     175.351 175.747 152.545  1.00  0.00     0.008 C 
ATOM     10  C   UNL     1     174.453 177.145 150.672  1.00  0.00     0.008 C 
ENDBRANCH   5   8
ENDBRANCH   4   5
ENDBRANCH   1   3
BRANCH   1  11
ATOM     11  C   UNL     1     169.459 175.351 152.406  1.00  0.00     0.002 C 
ATOM     12  C   UNL     1     169.377 174.099 151.494  1.00  0.00     0.005 C 
ATOM     13  C   UNL     1     168.200 176.193 152.029  1.00  0.00    -0.026 C 
ATOM     14  C   UNL     1     167.931 174.012 150.985  1.00  0.00     0.005 C 
ATOM     15  C   UNL     1     167.185 175.055 151.802  1.00  0.00    -0.001 C 
ATOM     16  C   UNL     1     167.614 177.077 153.163  1.00  0.00     0.007 C 
ATOM     17  C   UNL     1     168.460 177.046 150.754  1.00  0.00     0.012 C 
ATOM     18  C   UNL     1     165.807 175.538 151.298  1.00  0.00     0.000 C 
ATOM     19  C   UNL     1     166.219 177.628 152.785  1.00  0.00     0.005 C 
ATOM     20  C   UNL     1     165.206 176.522 152.345  1.00  0.00     0.003 C 
ATOM     21  C   UNL     1     164.853 174.345 151.122  1.00  0.00     0.031 C 
ATOM     22  C   UNL     1     163.808 177.081 151.874  1.00  0.00    -0.008 C 
ATOM     23  C   UNL     1     163.424 174.765 150.922  1.00  0.00    -0.027 C 
ATOM     24  C   UNL     1     162.916 175.934 151.370  1.00  0.00    -0.065 C 
ATOM     25  C   UNL     1     163.106 177.770 153.086  1.00  0.00     0.014 C 
ATOM     26  C   UNL     1     163.967 178.112 150.722  1.00  0.00     0.016 C 
ATOM     27  C   UNL     1     161.428 176.185 151.203  1.00  0.00     0.063 C 
ATOM     28  C   UNL     1     161.619 178.084 152.849  1.00  0.00     0.033 C 
ATOM     29  C   UNL     1     160.832 176.828 152.461  1.00  0.00     0.118 C 
BRANCH  29  30
ATOM     30  O   UNL     1     160.842 175.914 153.529  1.00  0.00    -0.393 OA
ATOM     31  H   UNL     1     159.960 175.457 153.525  1.00  0.00     0.210 HD
ENDBRANCH  29  30
ENDBRANCH   1  11
TORSDOF 6
ENDMDL
MODEL 3
REMARK VINA RESULT:    -6.793      2.942      9.336
REMARK INTER + INTRA:         -10.171
REMARK INTER:                  -8.473
REMARK INTRA:                  -1.698
REMARK UNBOUND:                -1.193
REMARK SMILES CC[C@@H](C=C[C@H](C)[C@@H]1CC[C@@H]2[C@H]3CC=C4C[C@@H](O)CC[C@@]4(C)[C@@H]3CC[C@]21C)C(C)C
REMARK SMILES IDX 6 1 7 2 5 3 4 4 3 5 2 6 1 7 28 8 29 9 30 10 8 11 9 12 26 13
REMARK SMILES IDX 10 14 11 15 25 16 27 17 12 18 24 19 23 20 13 21 21 22 14 23
REMARK SMILES IDX 15 24 20 25 22 26 16 27 19 28 17 29 18 30
REMARK H PARENT 18 31
REMARK Flexibility Score: inf
ROOT
ATOM      1  C   UNL     1     174.918 175.508 152.419  1.00  0.00     0.012 C 
ATOM      2  C   UNL     1     175.916 174.804 151.479  1.00  0.00     0.012 C 
ENDROOT
BRANCH   1   3
ATOM      3  C   UNL     1     175.640 176.629 153.139  1.00  0.00    -0.028 C 
ATOM      4  C   UNL     1     175.772 176.768 154.475  1.00  0.00    -0.027 C 
BRANCH   4   5
ATOM      5  C   UNL     1     175.244 175.808 155.531  1.00  0.00     0.014 C 
BRANCH   5   6
ATOM      6  C   UNL     1     174.516 176.598 156.652  1.00  0.00     0.004 C 
ATOM      7  C   UNL     1     174.405 178.101 156.385  1.00  0.00     0.004 C 
ENDBRANCH   5   6
BRANCH   5   8
ATOM      8  C   UNL     1     176.389 174.882 156.056  1.00  0.00    -0.011 C 
ATOM      9  C   UNL     1     176.418 173.551 155.279  1.00  0.00     0.008 C 
ATOM     10  C   UNL     1     176.251 174.573 157.559  1.00  0.00     0.008 C 
ENDBRANCH   5   8
ENDBRANCH   4   5
ENDBRANCH   1   3
BRANCH   1  11
ATOM     11  C   UNL     1     173.556 175.990 151.801  1.00  0.00     0.002 C 
ATOM     12  C   UNL     1     173.388 177.532 151.746  1.00  0.00     0.005 C 
ATOM     13  C   UNL     1     172.176 175.464 152.306  1.00  0.00    -0.026 C 
ATOM     14  C   UNL     1     171.879 177.816 151.764  1.00  0.00     0.005 C 
ATOM     15  C   UNL     1     171.239 176.449 151.580  1.00  0.00    -0.001 C 
ATOM     16  C   UNL     1     171.776 174.045 151.820  1.00  0.00     0.007 C 
ATOM     17  C   UNL     1     172.079 175.553 153.857  1.00  0.00     0.012 C 
ATOM     18  C   UNL     1     169.748 176.278 151.945  1.00  0.00     0.000 C 
ATOM     19  C   UNL     1     170.289 173.743 152.124  1.00  0.00     0.005 C 
ATOM     20  C   UNL     1     169.305 174.830 151.581  1.00  0.00     0.003 C 
ATOM     21  C   UNL     1     168.887 177.281 151.161  1.00  0.00     0.031 C 
ATOM     22  C   UNL     1     167.795 174.577 151.961  1.00  0.00    -0.008 C 
ATOM     23  C   UNL     1     167.417 176.977 151.243  1.00  0.00    -0.027 C 
ATOM     24  C   UNL     1     166.918 175.742 151.473  1.00  0.00    -0.065 C 
ATOM     25  C   UNL     1     167.314 173.262 151.272  1.00  0.00     0.014 C 
ATOM     26  C   UNL     1     167.610 174.446 153.499  1.00  0.00     0.016 C 
ATOM     27  C   UNL     1     165.414 175.551 151.415  1.00  0.00     0.063 C 
ATOM     28  C   UNL     1     165.790 173.060 151.307  1.00  0.00     0.033 C 
ATOM     29  C   UNL     1     165.050 174.250 150.687  1.00  0.00     0.118 C 
BRANCH  29  30
ATOM     30  O   UNL     1     165.370 174.349 149.322  1.00  0.00    -0.393 OA
ATOM     31  H   UNL     1     166.294 174.708 149.269  1.00  0.00     0.210 HD
ENDBRANCH  29  30
ENDBRANCH   1  11
TORSDOF 6
ENDMDL
MODEL 4
REMARK VINA RESULT:    -6.741      7.968     12.683
REMARK INTER + INTRA:         -10.102
REMARK INTER:                  -8.483
REMARK INTRA:                  -1.619
REMARK UNBOUND:                -1.193
REMARK SMILES CC[C@@H](C=C[C@H](C)[C@@H]1CC[C@@H]2[C@H]3CC=C4C[C@@H](O)CC[C@@]4(C)[C@@H]3CC[C@]21C)C(C)C
REMARK SMILES IDX 6 1 7 2 5 3 4 4 3 5 2 6 1 7 28 8 29 9 30 10 8 11 9 12 26 13
REMARK SMILES IDX 10 14 11 15 25 16 27 17 12 18 24 19 23 20 13 21 21 22 14 23
REMARK SMILES IDX 15 24 20 25 22 26 16 27 19 28 17 29 18 30
REMARK H PARENT 18 31
REMARK Flexibility Score: inf
ROOT
ATOM      1  C   UNL     1     175.237 170.717 153.824  1.00  0.00     0.012 C 
ATOM      2  C   UNL     1     174.313 170.762 155.056  1.00  0.00     0.012 C 
ENDROOT
BRANCH   1   3
ATOM      3  C   UNL     1     176.182 171.901 153.883  1.00  0.00    -0.028 C 
ATOM      4  C   UNL     1     176.336 172.850 152.937  1.00  0.00    -0.027 C 
BRANCH   4   5
ATOM      5  C   UNL     1     175.570 172.939 151.625  1.00  0.00     0.014 C 
BRANCH   5   6
ATOM      6  C   UNL     1     176.532 172.705 150.430  1.00  0.00     0.004 C 
ATOM      7  C   UNL     1     176.292 171.391 149.683  1.00  0.00     0.004 C 
ENDBRANCH   5   6
BRANCH   5   8
ATOM      8  C   UNL     1     174.777 174.284 151.540  1.00  0.00    -0.011 C 
ATOM      9  C   UNL     1     173.539 174.134 150.635  1.00  0.00     0.008 C 
ATOM     10  C   UNL     1     175.642 175.442 151.007  1.00  0.00     0.008 C 
ENDBRANCH   5   8
ENDBRANCH   4   5
ENDBRANCH   1   3
BRANCH   1  11
ATOM     11  C   UNL     1     176.000 169.372 153.538  1.00  0.00     0.002 C 
ATOM     12  C   UNL     1     177.372 169.552 152.837  1.00  0.00     0.005 C 
ATOM     13  C   UNL     1     175.333 168.175 152.791  1.00  0.00    -0.026 C 
ATOM     14  C   UNL     1     177.654 168.252 152.070  1.00  0.00     0.005 C 
ATOM     15  C   UNL     1     176.574 167.295 152.549  1.00  0.00    -0.001 C 
ATOM     16  C   UNL     1     174.350 167.318 153.634  1.00  0.00     0.007 C 
ATOM     17  C   UNL     1     174.650 168.649 151.476  1.00  0.00     0.012 C 
ATOM     18  C   UNL     1     176.289 166.028 151.712  1.00  0.00     0.000 C 
ATOM     19  C   UNL     1     173.980 166.005 152.905  1.00  0.00     0.005 C 
ATOM     20  C   UNL     1     175.221 165.168 152.452  1.00  0.00     0.003 C 
ATOM     21  C   UNL     1     177.571 165.199 151.540  1.00  0.00     0.031 C 
ATOM     22  C   UNL     1     174.857 163.871 151.631  1.00  0.00    -0.008 C 
ATOM     23  C   UNL     1     177.309 163.823 150.996  1.00  0.00    -0.027 C 
ATOM     24  C   UNL     1     176.136 163.169 151.145  1.00  0.00    -0.065 C 
ATOM     25  C   UNL     1     174.066 162.894 152.556  1.00  0.00     0.014 C 
ATOM     26  C   UNL     1     173.991 164.210 150.386  1.00  0.00     0.016 C 
ATOM     27  C   UNL     1     176.041 161.738 150.649  1.00  0.00     0.063 C 
ATOM     28  C   UNL     1     173.917 161.475 151.982  1.00  0.00     0.033 C 
ATOM     29  C   UNL     1     175.279 160.856 151.647  1.00  0.00     0.118 C 
BRANCH  29  30
ATOM     30  O   UNL     1     176.027 160.693 152.825  1.00  0.00    -0.393 OA
ATOM     31  H   UNL     1     176.547 161.529 152.954  1.00  0.00     0.210 HD
ENDBRANCH  29  30
ENDBRANCH   1  11
TORSDOF 6
ENDMDL
MODEL 5
REMARK VINA RESULT:    -6.741      1.712      3.869
REMARK INTER + INTRA:         -10.102
REMARK INTER:                  -8.501
REMARK INTRA:                  -1.601
REMARK UNBOUND:                -1.193
REMARK SMILES CC[C@@H](C=C[C@H](C)[C@@H]1CC[C@@H]2[C@H]3CC=C4C[C@@H](O)CC[C@@]4(C)[C@@H]3CC[C@]21C)C(C)C
REMARK SMILES IDX 6 1 7 2 5 3 4 4 3 5 2 6 1 7 28 8 29 9 30 10 8 11 9 12 26 13
REMARK SMILES IDX 10 14 11 15 25 16 27 17 12 18 24 19 23 20 13 21 21 22 14 23
REMARK SMILES IDX 15 24 20 25 22 26 16 27 19 28 17 29 18 30
REMARK H PARENT 18 31
REMARK Flexibility Score: inf
ROOT
ATOM      1  C   UNL     1     167.625 175.685 153.860  1.00  0.00     0.012 C 
ATOM      2  C   UNL     1     167.300 174.782 155.065  1.00  0.00     0.012 C 
ENDROOT
BRANCH   1   3
ATOM      3  C   UNL     1     166.778 176.939 153.951  1.00  0.00    -0.028 C 
ATOM      4  C   UNL     1     165.905 177.383 153.024  1.00  0.00    -0.027 C 
BRANCH   4   5
ATOM      5  C   UNL     1     165.572 176.699 151.706  1.00  0.00     0.014 C 
BRANCH   5   6
ATOM      6  C   UNL     1     166.030 177.585 150.516  1.00  0.00     0.004 C 
ATOM      7  C   UNL     1     167.220 177.018 149.737  1.00  0.00     0.004 C 
ENDBRANCH   5   6
BRANCH   5   8
ATOM      8  C   UNL     1     164.060 176.309 151.654  1.00  0.00    -0.011 C 
ATOM      9  C   UNL     1     163.841 175.083 150.746  1.00  0.00     0.008 C 
ATOM     10  C   UNL     1     163.173 177.462 151.148  1.00  0.00     0.008 C 
ENDBRANCH   5   8
ENDBRANCH   4   5
ENDBRANCH   1   3
BRANCH   1  11
ATOM     11  C   UNL     1     169.138 176.018 153.591  1.00  0.00     0.002 C 
ATOM     12  C   UNL     1     169.383 177.416 152.963  1.00  0.00     0.005 C 
ATOM     13  C   UNL     1     170.075 175.060 152.792  1.00  0.00    -0.026 C 
ATOM     14  C   UNL     1     170.708 177.330 152.191  1.00  0.00     0.005 C 
ATOM     15  C   UNL     1     171.291 175.986 152.598  1.00  0.00    -0.001 C 
ATOM     16  C   UNL     1     170.594 173.820 153.569  1.00  0.00     0.007 C 
ATOM     17  C   UNL     1     169.416 174.624 151.452  1.00  0.00     0.012 C 
ATOM     18  C   UNL     1     172.411 175.375 151.727  1.00  0.00     0.000 C 
ATOM     19  C   UNL     1     171.732 173.108 152.801  1.00  0.00     0.005 C 
ATOM     20  C   UNL     1     172.906 174.059 152.397  1.00  0.00     0.003 C 
ATOM     21  C   UNL     1     173.590 176.353 151.606  1.00  0.00     0.031 C 
ATOM     22  C   UNL     1     174.031 173.363 151.538  1.00  0.00    -0.008 C 
ATOM     23  C   UNL     1     174.821 175.715 151.027  1.00  0.00    -0.027 C 
ATOM     24  C   UNL     1     175.088 174.393 151.106  1.00  0.00    -0.065 C 
ATOM     25  C   UNL     1     174.722 172.264 152.405  1.00  0.00     0.014 C 
ATOM     26  C   UNL     1     173.444 172.708 150.256  1.00  0.00     0.016 C 
ATOM     27  C   UNL     1     176.423 173.894 150.582  1.00  0.00     0.063 C 
ATOM     28  C   UNL     1     176.029 171.723 151.801  1.00  0.00     0.033 C 
ATOM     29  C   UNL     1     177.031 172.849 151.525  1.00  0.00     0.118 C 
BRANCH  29  30
ATOM     30  O   UNL     1     177.415 173.448 152.737  1.00  0.00    -0.393 OA
ATOM     31  H   UNL     1     176.758 174.170 152.921  1.00  0.00     0.210 HD
ENDBRANCH  29  30
ENDBRANCH   1  11
TORSDOF 6
ENDMDL
MODEL 6
REMARK VINA RESULT:    -6.560      7.883     11.062
REMARK INTER + INTRA:          -9.863
REMARK INTER:                  -8.651
REMARK INTRA:                  -1.211
REMARK UNBOUND:                -1.193
REMARK SMILES CC[C@@H](C=C[C@H](C)[C@@H]1CC[C@@H]2[C@H]3CC=C4C[C@@H](O)CC[C@@]4(C)[C@@H]3CC[C@]21C)C(C)C
REMARK SMILES IDX 6 1 7 2 5 3 4 4 3 5 2 6 1 7 28 8 29 9 30 10 8 11 9 12 26 13
REMARK SMILES IDX 10 14 11 15 25 16 27 17 12 18 24 19 23 20 13 21 21 22 14 23
REMARK SMILES IDX 15 24 20 25 22 26 16 27 19 28 17 29 18 30
REMARK H PARENT 18 31
REMARK Flexibility Score: inf
ROOT
ATOM      1  C   UNL     1     175.496 172.694 151.025  1.00  0.00     0.012 C 
ATOM      2  C   UNL     1     176.765 173.099 150.251  1.00  0.00     0.012 C 
ENDROOT
BRANCH   1   3
ATOM      3  C   UNL     1     174.391 173.676 150.693  1.00  0.00    -0.028 C 
ATOM      4  C   UNL     1     174.283 174.942 151.145  1.00  0.00    -0.027 C 
BRANCH   4   5
ATOM      5  C   UNL     1     175.268 175.653 152.062  1.00  0.00     0.014 C 
BRANCH   5   6
ATOM      6  C   UNL     1     174.816 175.511 153.540  1.00  0.00     0.004 C 
ATOM      7  C   UNL     1     175.749 174.653 154.399  1.00  0.00     0.004 C 
ENDBRANCH   5   6
BRANCH   5   8
ATOM      8  C   UNL     1     175.476 177.133 151.607  1.00  0.00    -0.011 C 
ATOM      9  C   UNL     1     175.127 178.111 152.746  1.00  0.00     0.008 C 
ATOM     10  C   UNL     1     174.628 177.491 150.372  1.00  0.00     0.008 C 
ENDBRANCH   5   8
ENDBRANCH   4   5
ENDBRANCH   1   3
BRANCH   1  11
ATOM     11  C   UNL     1     175.014 171.203 150.896  1.00  0.00     0.002 C 
ATOM     12  C   UNL     1     173.477 171.017 150.999  1.00  0.00     0.005 C 
ATOM     13  C   UNL     1     175.607 170.054 151.771  1.00  0.00    -0.026 C 
ATOM     14  C   UNL     1     173.235 169.587 151.506  1.00  0.00     0.005 C 
ATOM     15  C   UNL     1     174.605 168.931 151.440  1.00  0.00    -0.001 C 
ATOM     16  C   UNL     1     177.004 169.531 151.340  1.00  0.00     0.007 C 
ATOM     17  C   UNL     1     175.615 170.446 153.276  1.00  0.00     0.012 C 
ATOM     18  C   UNL     1     174.838 167.630 152.240  1.00  0.00     0.000 C 
ATOM     19  C   UNL     1     177.363 168.216 152.072  1.00  0.00     0.005 C 
ATOM     20  C   UNL     1     176.273 167.105 151.937  1.00  0.00     0.003 C 
ATOM     21  C   UNL     1     173.813 166.560 151.832  1.00  0.00     0.031 C 
ATOM     22  C   UNL     1     176.588 165.791 152.751  1.00  0.00    -0.008 C 
ATOM     23  C   UNL     1     174.160 165.192 152.348  1.00  0.00    -0.027 C 
ATOM     24  C   UNL     1     175.419 164.798 152.640  1.00  0.00    -0.065 C 
ATOM     25  C   UNL     1     177.872 165.127 152.161  1.00  0.00     0.014 C 
ATOM     26  C   UNL     1     176.818 166.097 154.258  1.00  0.00     0.016 C 
ATOM     27  C   UNL     1     175.647 163.352 153.041  1.00  0.00     0.063 C 
ATOM     28  C   UNL     1     178.115 163.692 152.656  1.00  0.00     0.033 C 
ATOM     29  C   UNL     1     176.910 162.787 152.378  1.00  0.00     0.118 C 
BRANCH  29  30
ATOM     30  O   UNL     1     176.720 162.664 150.992  1.00  0.00    -0.393 OA
ATOM     31  H   UNL     1     177.287 161.906 150.690  1.00  0.00     0.210 HD
ENDBRANCH  29  30
ENDBRANCH   1  11
TORSDOF 6
ENDMDL
MODEL 7
REMARK VINA RESULT:    -6.526      2.761      9.247
REMARK INTER + INTRA:          -9.818
REMARK INTER:                  -8.422
REMARK INTRA:                  -1.396
REMARK UNBOUND:                -1.193
REMARK SMILES CC[C@@H](C=C[C@H](C)[C@@H]1CC[C@@H]2[C@H]3CC=C4C[C@@H](O)CC[C@@]4(C)[C@@H]3CC[C@]21C)C(C)C
REMARK SMILES IDX 6 1 7 2 5 3 4 4 3 5 2 6 1 7 28 8 29 9 30 10 8 11 9 12 26 13
REMARK SMILES IDX 10 14 11 15 25 16 27 17 12 18 24 19 23 20 13 21 21 22 14 23
REMARK SMILES IDX 15 24 20 25 22 26 16 27 19 28 17 29 18 30
REMARK H PARENT 18 31
REMARK Flexibility Score: inf
ROOT
ATOM      1  C   UNL     1     173.365 176.601 152.343  1.00  0.00     0.012 C 
ATOM      2  C   UNL     1     173.607 177.676 151.266  1.00  0.00     0.012 C 
ENDROOT
BRANCH   1   3
ATOM      3  C   UNL     1     174.555 176.577 153.281  1.00  0.00    -0.028 C 
ATOM      4  C   UNL     1     175.515 175.632 153.332  1.00  0.00    -0.027 C 
BRANCH   4   5
ATOM      5  C   UNL     1     175.614 174.406 152.436  1.00  0.00     0.014 C 
BRANCH   5   6
ATOM      6  C   UNL     1     176.236 174.795 151.069  1.00  0.00     0.004 C 
ATOM      7  C   UNL     1     177.489 173.996 150.702  1.00  0.00     0.004 C 
ENDBRANCH   5   6
BRANCH   5   8
ATOM      8  C   UNL     1     174.226 173.697 152.316  1.00  0.00    -0.011 C 
ATOM      9  C   UNL     1     174.134 172.503 153.287  1.00  0.00     0.008 C 
ATOM     10  C   UNL     1     173.946 173.194 150.888  1.00  0.00     0.008 C 
ENDBRANCH   5   8
ENDBRANCH   4   5
ENDBRANCH   1   3
BRANCH   1  11
ATOM     11  C   UNL     1     172.002 176.652 153.125  1.00  0.00     0.002 C 
ATOM     12  C   UNL     1     172.020 175.913 154.489  1.00  0.00     0.005 C 
ATOM     13  C   UNL     1     170.648 176.234 152.471  1.00  0.00    -0.026 C 
ATOM     14  C   UNL     1     170.573 175.492 154.786  1.00  0.00     0.005 C 
ATOM     15  C   UNL     1     169.752 176.206 153.724  1.00  0.00    -0.001 C 
ATOM     16  C   UNL     1     170.014 177.273 151.508  1.00  0.00     0.007 C 
ATOM     17  C   UNL     1     170.769 174.849 151.772  1.00  0.00     0.012 C 
ATOM     18  C   UNL     1     168.312 175.714 153.453  1.00  0.00     0.000 C 
ATOM     19  C   UNL     1     168.556 176.899 151.154  1.00  0.00     0.005 C 
ATOM     20  C   UNL     1     167.650 176.656 152.404  1.00  0.00     0.003 C 
ATOM     21  C   UNL     1     167.484 175.741 154.748  1.00  0.00     0.031 C 
ATOM     22  C   UNL     1     166.184 176.188 152.056  1.00  0.00    -0.008 C 
ATOM     23  C   UNL     1     166.013 175.560 154.503  1.00  0.00    -0.027 C 
ATOM     24  C   UNL     1     165.401 175.880 153.342  1.00  0.00    -0.065 C 
ATOM     25  C   UNL     1     165.458 177.336 151.286  1.00  0.00     0.014 C 
ATOM     26  C   UNL     1     166.190 174.907 151.176  1.00  0.00     0.016 C 
ATOM     27  C   UNL     1     163.889 175.757 153.266  1.00  0.00     0.063 C 
ATOM     28  C   UNL     1     163.938 177.136 151.156  1.00  0.00     0.033 C 
ATOM     29  C   UNL     1     163.275 176.952 152.525  1.00  0.00     0.118 C 
BRANCH  29  30
ATOM     30  O   UNL     1     163.421 178.125 153.284  1.00  0.00    -0.393 OA
ATOM     31  H   UNL     1     162.638 178.173 153.893  1.00  0.00     0.210 HD
ENDBRANCH  29  30
ENDBRANCH   1  11
TORSDOF 6
ENDMDL
MODEL 8
REMARK VINA RESULT:    -6.471      5.199      9.019
REMARK INTER + INTRA:          -9.745
REMARK INTER:                  -8.213
REMARK INTRA:                  -1.531
REMARK UNBOUND:                -1.193
REMARK SMILES CC[C@@H](C=C[C@H](C)[C@@H]1CC[C@@H]2[C@H]3CC=C4C[C@@H](O)CC[C@@]4(C)[C@@H]3CC[C@]21C)C(C)C
REMARK SMILES IDX 6 1 7 2 5 3 4 4 3 5 2 6 1 7 28 8 29 9 30 10 8 11 9 12 26 13
REMARK SMILES IDX 10 14 11 15 25 16 27 17 12 18 24 19 23 20 13 21 21 22 14 23
REMARK SMILES IDX 15 24 20 25 22 26 16 27 19 28 17 29 18 30
REMARK H PARENT 18 31
REMARK Flexibility Score: inf
ROOT
ATOM      1  C   UNL     1     173.177 174.125 152.353  1.00  0.00     0.012 C 
ATOM      2  C   UNL     1     171.734 174.193 152.890  1.00  0.00     0.012 C 
ENDROOT
BRANCH   1   3
ATOM      3  C   UNL     1     173.255 174.928 151.070  1.00  0.00    -0.028 C 
ATOM      4  C   UNL     1     173.221 176.272 150.964  1.00  0.00    -0.027 C 
BRANCH   4   5
ATOM      5  C   UNL     1     173.126 177.260 152.119  1.00  0.00     0.014 C 
BRANCH   5   6
ATOM      6  C   UNL     1     171.846 178.125 151.974  1.00  0.00     0.004 C 
ATOM      7  C   UNL     1     170.554 177.313 151.853  1.00  0.00     0.004 C 
ENDBRANCH   5   6
BRANCH   5   8
ATOM      8  C   UNL     1     174.441 178.096 152.238  1.00  0.00    -0.011 C 
ATOM      9  C   UNL     1     175.453 177.687 151.151  1.00  0.00     0.008 C 
ATOM     10  C   UNL     1     175.109 177.944 153.618  1.00  0.00     0.008 C 
ENDBRANCH   5   8
ENDBRANCH   4   5
ENDBRANCH   1   3
BRANCH   1  11
ATOM     11  C   UNL     1     174.338 174.493 153.346  1.00  0.00     0.002 C 
ATOM     12  C   UNL     1     175.745 174.027 152.886  1.00  0.00     0.005 C 
ATOM     13  C   UNL     1     174.284 174.133 154.864  1.00  0.00    -0.026 C 
ATOM     14  C   UNL     1     176.594 173.855 154.154  1.00  0.00     0.005 C 
ATOM     15  C   UNL     1     175.739 174.453 155.259  1.00  0.00    -0.001 C 
ATOM     16  C   UNL     1     173.385 175.044 155.742  1.00  0.00     0.007 C 
ATOM     17  C   UNL     1     173.908 172.638 155.071  1.00  0.00     0.012 C 
ATOM     18  C   UNL     1     176.081 174.105 156.725  1.00  0.00     0.000 C 
ATOM     19  C   UNL     1     173.632 174.796 157.249  1.00  0.00     0.005 C 
ATOM     20  C   UNL     1     175.134 174.908 157.666  1.00  0.00     0.003 C 
ATOM     21  C   UNL     1     177.538 174.478 157.039  1.00  0.00     0.031 C 
ATOM     22  C   UNL     1     175.408 174.572 159.182  1.00  0.00    -0.008 C 
ATOM     23  C   UNL     1     177.846 174.441 158.509  1.00  0.00    -0.027 C 
ATOM     24  C   UNL     1     176.917 174.611 159.475  1.00  0.00    -0.065 C 
ATOM     25  C   UNL     1     174.694 175.636 160.073  1.00  0.00     0.014 C 
ATOM     26  C   UNL     1     174.881 173.158 159.555  1.00  0.00     0.016 C 
ATOM     27  C   UNL     1     177.380 174.667 160.920  1.00  0.00     0.063 C 
ATOM     28  C   UNL     1     175.128 175.608 161.548  1.00  0.00     0.033 C 
ATOM     29  C   UNL     1     176.645 175.769 161.693  1.00  0.00     0.118 C 
BRANCH  29  30
ATOM     30  O   UNL     1     177.033 177.036 161.227  1.00  0.00    -0.393 OA
ATOM     31  H   UNL     1     176.200 177.532 161.013  1.00  0.00     0.210 HD
ENDBRANCH  29  30
ENDBRANCH   1  11
TORSDOF 6
ENDMDL
MODEL 9
REMARK VINA RESULT:    -6.445      3.216      9.722
REMARK INTER + INTRA:          -9.711
REMARK INTER:                  -8.487
REMARK INTRA:                  -1.224
REMARK UNBOUND:                -1.193
REMARK SMILES CC[C@@H](C=C[C@H](C)[C@@H]1CC[C@@H]2[C@H]3CC=C4C[C@@H](O)CC[C@@]4(C)[C@@H]3CC[C@]21C)C(C)C
REMARK SMILES IDX 6 1 7 2 5 3 4 4 3 5 2 6 1 7 28 8 29 9 30 10 8 11 9 12 26 13
REMARK SMILES IDX 10 14 11 15 25 16 27 17 12 18 24 19 23 20 13 21 21 22 14 23
REMARK SMILES IDX 15 24 20 25 22 26 16 27 19 28 17 29 18 30
REMARK H PARENT 18 31
REMARK Flexibility Score: inf
ROOT
ATOM      1  C   UNL     1     169.992 175.517 152.824  1.00  0.00     0.012 C 
ATOM      2  C   UNL     1     170.001 174.459 153.945  1.00  0.00     0.012 C 
ENDROOT
BRANCH   1   3
ATOM      3  C   UNL     1     171.121 175.212 151.861  1.00  0.00    -0.028 C 
ATOM      4  C   UNL     1     172.279 175.894 151.744  1.00  0.00    -0.027 C 
BRANCH   4   5
ATOM      5  C   UNL     1     172.699 177.096 152.578  1.00  0.00     0.014 C 
BRANCH   5   6
ATOM      6  C   UNL     1     173.447 178.125 151.689  1.00  0.00     0.004 C 
ATOM      7  C   UNL     1     174.049 177.528 150.414  1.00  0.00     0.004 C 
ENDBRANCH   5   6
BRANCH   5   8
ATOM      8  C   UNL     1     173.513 176.639 153.832  1.00  0.00    -0.011 C 
ATOM      9  C   UNL     1     174.449 177.763 154.317  1.00  0.00     0.008 C 
ATOM     10  C   UNL     1     174.354 175.379 153.558  1.00  0.00     0.008 C 
ENDBRANCH   5   8
ENDBRANCH   4   5
ENDBRANCH   1   3
BRANCH   1  11
ATOM     11  C   UNL     1     168.633 175.767 152.074  1.00  0.00     0.002 C 
ATOM     12  C   UNL     1     168.733 176.756 150.883  1.00  0.00     0.005 C 
ATOM     13  C   UNL     1     167.330 176.186 152.823  1.00  0.00    -0.026 C 
ATOM     14  C   UNL     1     167.340 177.378 150.703  1.00  0.00     0.005 C 
ATOM     15  C   UNL     1     166.444 176.558 151.618  1.00  0.00    -0.001 C 
ATOM     16  C   UNL     1     166.587 175.048 153.573  1.00  0.00     0.007 C 
ATOM     17  C   UNL     1     167.597 177.383 153.781  1.00  0.00     0.012 C 
ATOM     18  C   UNL     1     165.066 177.134 152.009  1.00  0.00     0.000 C 
ATOM     19  C   UNL     1     165.176 175.496 154.023  1.00  0.00     0.005 C 
ATOM     20  C   UNL     1     164.304 176.077 152.863  1.00  0.00     0.003 C 
ATOM     21  C   UNL     1     164.242 177.454 150.751  1.00  0.00     0.031 C 
ATOM     22  C   UNL     1     162.896 176.618 153.326  1.00  0.00    -0.008 C 
ATOM     23  C   UNL     1     162.798 177.736 151.055  1.00  0.00    -0.027 C 
ATOM     24  C   UNL     1     162.152 177.257 152.142  1.00  0.00    -0.065 C 
ATOM     25  C   UNL     1     162.049 175.423 153.866  1.00  0.00     0.014 C 
ATOM     26  C   UNL     1     163.037 177.690 154.442  1.00  0.00     0.016 C 
ATOM     27  C   UNL     1     160.663 177.521 152.270  1.00  0.00     0.063 C 
ATOM     28  C   UNL     1     160.560 175.752 154.063  1.00  0.00     0.033 C 
ATOM     29  C   UNL     1     159.923 176.274 152.771  1.00  0.00     0.118 C 
BRANCH  29  30
ATOM     30  O   UNL     1     159.943 175.267 151.792  1.00  0.00    -0.393 OA
ATOM     31  H   UNL     1     160.532 175.589 151.060  1.00  0.00     0.210 HD
ENDBRANCH  29  30
ENDBRANCH   1  11
TORSDOF 6
ENDMDL
