MODEL 1
REMARK VINA RESULT:    16.325      0.000      0.000
REMARK INTER + INTRA:          19.480
REMARK INTER:                  19.665
REMARK INTRA:                  -0.185
REMARK UNBOUND:                -0.185
REMARK SMILES O=c1c(O)c(-c2ccc(O)c(O)c2)oc2cc(O)cc(O)c12
REMARK SMILES IDX 5 1 3 2 2 3 1 4 22 5 20 6 19 7 17 8 16 9 15 10 14 11 6 12
REMARK SMILES IDX 7 13 8 14 9 15 13 16 11 17 10 18 12 20 4 22 21 24 18 26
REMARK H PARENT 10 19 12 21 4 23 21 25 18 27
REMARK Flexibility Score: inf
ROOT
ATOM      1  C   UNL     1      24.103  31.888   1.150  1.00  0.00     0.180 A 
ATOM      2  C   UNL     1      25.178  32.518   0.502  1.00  0.00     0.208 A 
ATOM      3  C   UNL     1      26.442  31.908   0.528  1.00  0.00     0.238 A 
ATOM      4  O   UNL     1      27.413  32.505  -0.007  1.00  0.00    -0.285 OA
ATOM      5  C   UNL     1      26.612  30.667   1.189  1.00  0.00     0.111 A 
ATOM      6  C   UNL     1      27.838  29.940   1.244  1.00  0.00     0.134 A 
ATOM      7  C   UNL     1      27.923  28.787   2.036  1.00  0.00     0.093 A 
ATOM      8  C   UNL     1      26.806  28.301   2.721  1.00  0.00     0.123 A 
ATOM      9  C   UNL     1      25.589  28.971   2.625  1.00  0.00     0.094 A 
ATOM     10  C   UNL     1      25.483  30.144   1.873  1.00  0.00     0.146 A 
ATOM     11  O   UNL     1      24.307  30.758   1.816  1.00  0.00    -0.452 OA
ENDROOT
BRANCH   1  12
ATOM     12  C   UNL     1      22.736  32.457   1.144  1.00  0.00     0.025 A 
ATOM     13  C   UNL     1      22.027  32.541  -0.065  1.00  0.00     0.016 A 
ATOM     14  C   UNL     1      20.744  33.093  -0.098  1.00  0.00     0.051 A 
ATOM     15  C   UNL     1      20.155  33.581   1.073  1.00  0.00     0.157 A 
ATOM     16  C   UNL     1      22.150  32.968   2.316  1.00  0.00     0.062 A 
ATOM     17  C   UNL     1      20.862  33.523   2.285  1.00  0.00     0.158 A 
BRANCH  15  18
ATOM     18  O   UNL     1      18.872  34.125   1.011  1.00  0.00    -0.504 OA
ATOM     19  H   UNL     1      18.266  34.166   1.821  1.00  0.00     0.293 HD
ENDBRANCH  15  18
BRANCH  17  20
ATOM     20  O   UNL     1      20.287  34.023   3.453  1.00  0.00    -0.504 OA
ATOM     21  H   UNL     1      20.693  33.843   4.364  1.00  0.00     0.293 HD
ENDBRANCH  17  20
ENDBRANCH   1  12
BRANCH   2  22
ATOM     22  O   UNL     1      24.994  33.754  -0.125  1.00  0.00    -0.502 OA
ATOM     23  H   UNL     1      25.444  33.993  -1.000  1.00  0.00     0.293 HD
ENDBRANCH   2  22
BRANCH   6  24
ATOM     24  O   UNL     1      28.985  30.288   0.525  1.00  0.00    -0.507 OA
ATOM     25  H   UNL     1      28.983  30.712  -0.390  1.00  0.00     0.293 HD
ENDBRANCH   6  24
BRANCH   8  26
ATOM     26  O   UNL     1      26.895  27.146   3.493  1.00  0.00    -0.508 OA
ATOM     27  H   UNL     1      26.214  26.936   4.214  1.00  0.00     0.293 HD
ENDBRANCH   8  26
TORSDOF 6
ENDMDL
MODEL 2
REMARK VINA RESULT:    18.253      2.685      6.836
REMARK INTER + INTRA:          21.803
REMARK INTER:                  22.124
REMARK INTRA:                  -0.321
REMARK UNBOUND:                -0.185
REMARK SMILES O=c1c(O)c(-c2ccc(O)c(O)c2)oc2cc(O)cc(O)c12
REMARK SMILES IDX 5 1 3 2 2 3 1 4 22 5 20 6 19 7 17 8 16 9 15 10 14 11 6 12
REMARK SMILES IDX 7 13 8 14 9 15 13 16 11 17 10 18 12 20 4 22 21 24 18 26
REMARK H PARENT 10 19 12 21 4 23 21 25 18 27
REMARK Flexibility Score: inf
ROOT
ATOM      1  C   UNL     1      26.894  29.292   1.158  1.00  0.00     0.180 A 
ATOM      2  C   UNL     1      28.165  29.820   0.879  1.00  0.00     0.208 A 
ATOM      3  C   UNL     1      28.275  31.165   0.492  1.00  0.00     0.238 A 
ATOM      4  O   UNL     1      29.410  31.617   0.191  1.00  0.00    -0.285 OA
ATOM      5  C   UNL     1      27.113  31.970   0.403  1.00  0.00     0.111 A 
ATOM      6  C   UNL     1      27.111  33.355   0.060  1.00  0.00     0.134 A 
ATOM      7  C   UNL     1      25.891  34.019  -0.125  1.00  0.00     0.093 A 
ATOM      8  C   UNL     1      24.675  33.363   0.086  1.00  0.00     0.123 A 
ATOM      9  C   UNL     1      24.668  32.027   0.480  1.00  0.00     0.094 A 
ATOM     10  C   UNL     1      25.868  31.328   0.636  1.00  0.00     0.146 A 
ATOM     11  O   UNL     1      25.817  30.053   1.002  1.00  0.00    -0.452 OA
ENDROOT
BRANCH   1  12
ATOM     12  C   UNL     1      26.701  27.891   1.596  1.00  0.00     0.025 A 
ATOM     13  C   UNL     1      26.814  27.571   2.958  1.00  0.00     0.016 A 
ATOM     14  C   UNL     1      26.657  26.252   3.392  1.00  0.00     0.051 A 
ATOM     15  C   UNL     1      26.397  25.232   2.471  1.00  0.00     0.157 A 
ATOM     16  C   UNL     1      26.460  26.860   0.670  1.00  0.00     0.062 A 
ATOM     17  C   UNL     1      26.303  25.535   1.103  1.00  0.00     0.158 A 
BRANCH  15  18
ATOM     18  O   UNL     1      26.241  23.925   2.933  1.00  0.00    -0.504 OA
ATOM     19  H   UNL     1      26.083  23.715   3.911  1.00  0.00     0.293 HD
ENDBRANCH  15  18
BRANCH  17  20
ATOM     20  O   UNL     1      26.060  24.520   0.178  1.00  0.00    -0.504 OA
ATOM     21  H   UNL     1      25.816  23.581   0.471  1.00  0.00     0.293 HD
ENDBRANCH  17  20
ENDBRANCH   1  12
BRANCH   2  22
ATOM     22  O   UNL     1      29.297  29.003   0.951  1.00  0.00    -0.502 OA
ATOM     23  H   UNL     1      29.779  28.666   0.126  1.00  0.00     0.293 HD
ENDBRANCH   2  22
BRANCH   6  24
ATOM     24  O   UNL     1      28.268  34.125  -0.084  1.00  0.00    -0.507 OA
ATOM     25  H   UNL     1      29.045  34.120   0.560  1.00  0.00     0.293 HD
ENDBRANCH   6  24
BRANCH   8  26
ATOM     26  O   UNL     1      23.468  34.035  -0.084  1.00  0.00    -0.508 OA
ATOM     27  H   UNL     1      23.090  34.638   0.637  1.00  0.00     0.293 HD
ENDBRANCH   8  26
TORSDOF 6
ENDMDL
MODEL 3
REMARK VINA RESULT:    18.554      1.788      2.739
REMARK INTER + INTRA:          22.166
REMARK INTER:                  22.120
REMARK INTRA:                   0.046
REMARK UNBOUND:                -0.185
REMARK SMILES O=c1c(O)c(-c2ccc(O)c(O)c2)oc2cc(O)cc(O)c12
REMARK SMILES IDX 5 1 3 2 2 3 1 4 22 5 20 6 19 7 17 8 16 9 15 10 14 11 6 12
REMARK SMILES IDX 7 13 8 14 9 15 13 16 11 17 10 18 12 20 4 22 21 24 18 26
REMARK H PARENT 10 19 12 21 4 23 21 25 18 27
REMARK Flexibility Score: inf
ROOT
ATOM      1  C   UNL     1      25.911  30.291   1.285  1.00  0.00     0.180 A 
ATOM      2  C   UNL     1      27.261  30.664   1.180  1.00  0.00     0.208 A 
ATOM      3  C   UNL     1      28.253  29.680   1.318  1.00  0.00     0.238 A 
ATOM      4  O   UNL     1      29.461  30.030   1.277  1.00  0.00    -0.285 OA
ATOM      5  C   UNL     1      27.882  28.332   1.545  1.00  0.00     0.111 A 
ATOM      6  C   UNL     1      28.802  27.247   1.660  1.00  0.00     0.134 A 
ATOM      7  C   UNL     1      28.330  25.977   2.014  1.00  0.00     0.093 A 
ATOM      8  C   UNL     1      26.964  25.740   2.192  1.00  0.00     0.123 A 
ATOM      9  C   UNL     1      26.053  26.779   2.022  1.00  0.00     0.094 A 
ATOM     10  C   UNL     1      26.497  28.066   1.705  1.00  0.00     0.146 A 
ATOM     11  O   UNL     1      25.596  29.031   1.563  1.00  0.00    -0.452 OA
ENDROOT
BRANCH   1  12
ATOM     12  C   UNL     1      24.809  31.266   1.126  1.00  0.00     0.025 A 
ATOM     13  C   UNL     1      24.820  32.149   0.034  1.00  0.00     0.016 A 
ATOM     14  C   UNL     1      23.801  33.092  -0.125  1.00  0.00     0.051 A 
ATOM     15  C   UNL     1      22.764  33.176   0.810  1.00  0.00     0.157 A 
ATOM     16  C   UNL     1      23.776  31.367   2.076  1.00  0.00     0.062 A 
ATOM     17  C   UNL     1      22.753  32.314   1.918  1.00  0.00     0.158 A 
BRANCH  15  18
ATOM     18  O   UNL     1      21.759  34.125   0.624  1.00  0.00    -0.504 OA
ATOM     19  H   UNL     1      20.823  33.996   0.989  1.00  0.00     0.293 HD
ENDBRANCH  15  18
BRANCH  17  20
ATOM     20  O   UNL     1      21.731  32.403   2.862  1.00  0.00    -0.504 OA
ATOM     21  H   UNL     1      21.690  33.163   3.532  1.00  0.00     0.293 HD
ENDBRANCH  17  20
ENDBRANCH   1  12
BRANCH   2  22
ATOM     22  O   UNL     1      27.607  32.003   0.978  1.00  0.00    -0.502 OA
ATOM     23  H   UNL     1      28.121  32.542   1.665  1.00  0.00     0.293 HD
ENDBRANCH   2  22
BRANCH   6  24
ATOM     24  O   UNL     1      30.173  27.357   1.414  1.00  0.00    -0.507 OA
ATOM     25  H   UNL     1      30.588  27.987   0.745  1.00  0.00     0.293 HD
ENDBRANCH   6  24
BRANCH   8  26
ATOM     26  O   UNL     1      26.502  24.470   2.528  1.00  0.00    -0.508 OA
ATOM     27  H   UNL     1      25.518  24.289   2.688  1.00  0.00     0.293 HD
ENDBRANCH   8  26
TORSDOF 6
ENDMDL
