MODEL 1
REMARK VINA RESULT:    -7.131      0.000      0.000
REMARK INTER + INTRA:          -9.129
REMARK INTER:                  -8.799
REMARK INTRA:                  -0.331
REMARK UNBOUND:                -0.331
REMARK SMILES Oc1cc(O)c2cc(O)c(-c3cc(O)c(O)c(O)c3)[o+]c2c1
REMARK SMILES IDX 10 1 20 2 21 3 22 4 2 5 3 6 4 7 6 8 7 9 8 10 11 11 12 12
REMARK SMILES IDX 13 13 19 14 15 15 17 16 14 17 16 19 18 21 9 23 1 25 5 27
REMARK H PARENT 14 18 16 20 18 22 9 24 1 26 5 28
REMARK Flexibility Score: inf
ROOT
ATOM      1  C   UNL     1     -39.188  12.352   7.703  1.00  0.00     0.402 A 
ATOM      2  O   UNL     1     -39.959  13.358   8.107  1.00  0.00    -0.202 OA
ATOM      3  C   UNL     1     -40.939  13.216   8.993  1.00  0.00     0.368 A 
ATOM      4  C   UNL     1     -41.698  14.333   9.353  1.00  0.00     0.162 A 
ATOM      5  C   UNL     1     -42.735  14.213  10.278  1.00  0.00     0.128 A 
ATOM      6  C   UNL     1     -43.018  12.968  10.851  1.00  0.00     0.093 A 
ATOM      7  C   UNL     1     -42.272  11.833  10.507  1.00  0.00     0.136 A 
ATOM      8  C   UNL     1     -41.214  11.952   9.568  1.00  0.00     0.125 A 
ATOM      9  C   UNL     1     -40.407  10.873   9.174  1.00  0.00     0.078 A 
ATOM     10  C   UNL     1     -39.380  11.068   8.246  1.00  0.00     0.223 A 
ENDROOT
BRANCH   1  11
ATOM     11  C   UNL     1     -38.134  12.636   6.702  1.00  0.00     0.091 A 
ATOM     12  C   UNL     1     -38.478  12.735   5.346  1.00  0.00     0.068 A 
ATOM     13  C   UNL     1     -37.505  12.982   4.371  1.00  0.00     0.162 A 
ATOM     14  C   UNL     1     -36.785  12.752   7.074  1.00  0.00     0.068 A 
ATOM     15  C   UNL     1     -36.150  13.121   4.756  1.00  0.00     0.200 A 
ATOM     16  C   UNL     1     -35.801  12.998   6.109  1.00  0.00     0.162 A 
BRANCH  13  17
ATOM     17  O   UNL     1     -37.926  13.080   3.043  1.00  0.00    -0.504 OA
ATOM     18  H   UNL     1     -37.547  12.528   2.288  1.00  0.00     0.293 HD
ENDBRANCH  13  17
BRANCH  15  19
ATOM     19  O   UNL     1     -35.130  13.374   3.836  1.00  0.00    -0.502 OA
ATOM     20  H   UNL     1     -34.149  13.404   4.073  1.00  0.00     0.293 HD
ENDBRANCH  15  19
BRANCH  16  21
ATOM     21  O   UNL     1     -34.465  13.120   6.487  1.00  0.00    -0.504 OA
ATOM     22  H   UNL     1     -34.082  14.000   6.813  1.00  0.00     0.293 HD
ENDBRANCH  16  21
ENDBRANCH   1  11
BRANCH  10  23
ATOM     23  O   UNL     1     -38.545  10.007   7.892  1.00  0.00    -0.500 OA
ATOM     24  H   UNL     1     -37.890   9.603   8.550  1.00  0.00     0.294 HD
ENDBRANCH  10  23
BRANCH   5  25
ATOM     25  O   UNL     1     -43.480  15.339  10.624  1.00  0.00    -0.507 OA
ATOM     26  H   UNL     1     -43.097  16.273  10.543  1.00  0.00     0.293 HD
ENDBRANCH   5  25
BRANCH   7  27
ATOM     27  O   UNL     1     -42.618  10.626  11.120  1.00  0.00    -0.507 OA
ATOM     28  H   UNL     1     -42.290  10.332  12.029  1.00  0.00     0.293 HD
ENDBRANCH   7  27
TORSDOF 7
ENDMDL
MODEL 2
REMARK VINA RESULT:    -6.908      1.397      7.238
REMARK INTER + INTRA:          -8.854
REMARK INTER:                  -8.540
REMARK INTRA:                  -0.314
REMARK UNBOUND:                -0.331
REMARK SMILES Oc1cc(O)c2cc(O)c(-c3cc(O)c(O)c(O)c3)[o+]c2c1
REMARK SMILES IDX 10 1 20 2 21 3 22 4 2 5 3 6 4 7 6 8 7 9 8 10 11 11 12 12
REMARK SMILES IDX 13 13 19 14 15 15 17 16 14 17 16 19 18 21 9 23 1 25 5 27
REMARK H PARENT 14 18 16 20 18 22 9 24 1 26 5 28
REMARK Flexibility Score: inf
ROOT
ATOM      1  C   UNL     1     -39.435  12.112   8.017  1.00  0.00     0.402 A 
ATOM      2  O   UNL     1     -39.700  11.892   6.733  1.00  0.00    -0.202 OA
ATOM      3  C   UNL     1     -38.836  12.145   5.755  1.00  0.00     0.368 A 
ATOM      4  C   UNL     1     -39.207  11.883   4.434  1.00  0.00     0.162 A 
ATOM      5  C   UNL     1     -38.321  12.142   3.388  1.00  0.00     0.128 A 
ATOM      6  C   UNL     1     -37.053  12.667   3.662  1.00  0.00     0.093 A 
ATOM      7  C   UNL     1     -36.657  12.939   4.978  1.00  0.00     0.136 A 
ATOM      8  C   UNL     1     -37.555  12.673   6.044  1.00  0.00     0.125 A 
ATOM      9  C   UNL     1     -37.239  12.902   7.394  1.00  0.00     0.078 A 
ATOM     10  C   UNL     1     -38.175  12.612   8.391  1.00  0.00     0.223 A 
ENDROOT
BRANCH   1  11
ATOM     11  C   UNL     1     -40.486  11.798   9.012  1.00  0.00     0.091 A 
ATOM     12  C   UNL     1     -40.377  10.636   9.790  1.00  0.00     0.068 A 
ATOM     13  C   UNL     1     -41.362  10.297  10.725  1.00  0.00     0.162 A 
ATOM     14  C   UNL     1     -41.623  12.609   9.155  1.00  0.00     0.068 A 
ATOM     15  C   UNL     1     -42.493  11.133  10.880  1.00  0.00     0.200 A 
ATOM     16  C   UNL     1     -42.616  12.282  10.087  1.00  0.00     0.162 A 
BRANCH  13  17
ATOM     17  O   UNL     1     -41.176   9.131  11.471  1.00  0.00    -0.504 OA
ATOM     18  H   UNL     1     -40.414   8.989  12.117  1.00  0.00     0.293 HD
ENDBRANCH  13  17
BRANCH  15  19
ATOM     19  O   UNL     1     -43.509  10.857  11.799  1.00  0.00    -0.502 OA
ATOM     20  H   UNL     1     -44.313  11.450  11.947  1.00  0.00     0.293 HD
ENDBRANCH  15  19
BRANCH  16  21
ATOM     21  O   UNL     1     -43.738  13.098  10.229  1.00  0.00    -0.504 OA
ATOM     22  H   UNL     1     -43.997  13.774   9.520  1.00  0.00     0.293 HD
ENDBRANCH  16  21
ENDBRANCH   1  11
BRANCH  10  23
ATOM     23  O   UNL     1     -37.843  12.791   9.735  1.00  0.00    -0.500 OA
ATOM     24  H   UNL     1     -38.553  12.873  10.452  1.00  0.00     0.294 HD
ENDBRANCH  10  23
BRANCH   5  25
ATOM     25  O   UNL     1     -38.710  11.874   2.077  1.00  0.00    -0.507 OA
ATOM     26  H   UNL     1     -38.762  10.926   1.723  1.00  0.00     0.293 HD
ENDBRANCH   5  25
BRANCH   7  27
ATOM     27  O   UNL     1     -35.377  13.465   5.169  1.00  0.00    -0.507 OA
ATOM     28  H   UNL     1     -35.056  13.888   6.028  1.00  0.00     0.293 HD
ENDBRANCH   7  27
TORSDOF 7
ENDMDL
MODEL 3
REMARK VINA RESULT:    -6.807      1.281      7.160
REMARK INTER + INTRA:          -8.729
REMARK INTER:                  -8.350
REMARK INTRA:                  -0.380
REMARK UNBOUND:                -0.331
REMARK SMILES Oc1cc(O)c2cc(O)c(-c3cc(O)c(O)c(O)c3)[o+]c2c1
REMARK SMILES IDX 10 1 20 2 21 3 22 4 2 5 3 6 4 7 6 8 7 9 8 10 11 11 12 12
REMARK SMILES IDX 13 13 19 14 15 15 17 16 14 17 16 19 18 21 9 23 1 25 5 27
REMARK H PARENT 14 18 16 20 18 22 9 24 1 26 5 28
REMARK Flexibility Score: inf
ROOT
ATOM      1  C   UNL     1     -39.674  12.431   7.984  1.00  0.00     0.402 A 
ATOM      2  O   UNL     1     -39.891  12.109   6.712  1.00  0.00    -0.202 OA
ATOM      3  C   UNL     1     -38.935  12.099   5.788  1.00  0.00     0.368 A 
ATOM      4  C   UNL     1     -39.262  11.750   4.475  1.00  0.00     0.162 A 
ATOM      5  C   UNL     1     -38.279  11.732   3.484  1.00  0.00     0.128 A 
ATOM      6  C   UNL     1     -36.960  12.066   3.806  1.00  0.00     0.093 A 
ATOM      7  C   UNL     1     -36.606  12.419   5.115  1.00  0.00     0.136 A 
ATOM      8  C   UNL     1     -37.602  12.434   6.125  1.00  0.00     0.125 A 
ATOM      9  C   UNL     1     -37.338  12.762   7.465  1.00  0.00     0.078 A 
ATOM     10  C   UNL     1     -38.371  12.752   8.407  1.00  0.00     0.223 A 
ENDROOT
BRANCH   1  11
ATOM     11  C   UNL     1     -40.824  12.416   8.916  1.00  0.00     0.091 A 
ATOM     12  C   UNL     1     -41.570  13.587   9.112  1.00  0.00     0.068 A 
ATOM     13  C   UNL     1     -42.651  13.614  10.001  1.00  0.00     0.162 A 
ATOM     14  C   UNL     1     -41.153  11.266   9.653  1.00  0.00     0.068 A 
ATOM     15  C   UNL     1     -42.990  12.445  10.723  1.00  0.00     0.200 A 
ATOM     16  C   UNL     1     -42.231  11.280  10.545  1.00  0.00     0.162 A 
BRANCH  13  17
ATOM     17  O   UNL     1     -43.353  14.814  10.135  1.00  0.00    -0.504 OA
ATOM     18  H   UNL     1     -43.377  15.536   9.430  1.00  0.00     0.293 HD
ENDBRANCH  13  17
BRANCH  15  19
ATOM     19  O   UNL     1     -44.060  12.401  11.621  1.00  0.00    -0.502 OA
ATOM     20  H   UNL     1     -44.004  12.706  12.582  1.00  0.00     0.293 HD
ENDBRANCH  15  19
BRANCH  16  21
ATOM     21  O   UNL     1     -42.556  10.132  11.268  1.00  0.00    -0.504 OA
ATOM     22  H   UNL     1     -42.566  10.127  12.281  1.00  0.00     0.293 HD
ENDBRANCH  16  21
ENDBRANCH   1  11
BRANCH  10  23
ATOM     23  O   UNL     1     -38.099  13.029   9.747  1.00  0.00    -0.500 OA
ATOM     24  H   UNL     1     -37.932  12.292  10.420  1.00  0.00     0.294 HD
ENDBRANCH  10  23
BRANCH   5  25
ATOM     25  O   UNL     1     -38.625  11.382   2.181  1.00  0.00    -0.507 OA
ATOM     26  H   UNL     1     -38.107  10.681   1.665  1.00  0.00     0.293 HD
ENDBRANCH   5  25
BRANCH   7  27
ATOM     27  O   UNL     1     -35.268  12.741   5.355  1.00  0.00    -0.507 OA
ATOM     28  H   UNL     1     -34.569  12.083   5.670  1.00  0.00     0.293 HD
ENDBRANCH   7  27
TORSDOF 7
ENDMDL
MODEL 4
REMARK VINA RESULT:    -6.586      1.388      7.154
REMARK INTER + INTRA:          -8.457
REMARK INTER:                  -8.149
REMARK INTRA:                  -0.308
REMARK UNBOUND:                -0.331
REMARK SMILES Oc1cc(O)c2cc(O)c(-c3cc(O)c(O)c(O)c3)[o+]c2c1
REMARK SMILES IDX 10 1 20 2 21 3 22 4 2 5 3 6 4 7 6 8 7 9 8 10 11 11 12 12
REMARK SMILES IDX 13 13 19 14 15 15 17 16 14 17 16 19 18 21 9 23 1 25 5 27
REMARK H PARENT 14 18 16 20 18 22 9 24 1 26 5 28
REMARK Flexibility Score: inf
ROOT
ATOM      1  C   UNL     1     -40.131  12.098   7.482  1.00  0.00     0.402 A 
ATOM      2  O   UNL     1     -38.939  12.681   7.568  1.00  0.00    -0.202 OA
ATOM      3  C   UNL     1     -38.018  12.603   6.614  1.00  0.00     0.368 A 
ATOM      4  C   UNL     1     -36.792  13.248   6.796  1.00  0.00     0.162 A 
ATOM      5  C   UNL     1     -35.806  13.181   5.812  1.00  0.00     0.128 A 
ATOM      6  C   UNL     1     -36.044  12.465   4.635  1.00  0.00     0.093 A 
ATOM      7  C   UNL     1     -37.264  11.809   4.427  1.00  0.00     0.136 A 
ATOM      8  C   UNL     1     -38.271  11.878   5.424  1.00  0.00     0.125 A 
ATOM      9  C   UNL     1     -39.528  11.264   5.296  1.00  0.00     0.078 A 
ATOM     10  C   UNL     1     -40.471  11.379   6.322  1.00  0.00     0.223 A 
ENDROOT
BRANCH   1  11
ATOM     11  C   UNL     1     -41.069  12.249   8.619  1.00  0.00     0.091 A 
ATOM     12  C   UNL     1     -41.336  11.149   9.445  1.00  0.00     0.068 A 
ATOM     13  C   UNL     1     -42.232  11.251  10.516  1.00  0.00     0.162 A 
ATOM     14  C   UNL     1     -41.741  13.459   8.854  1.00  0.00     0.068 A 
ATOM     15  C   UNL     1     -42.889  12.480  10.761  1.00  0.00     0.200 A 
ATOM     16  C   UNL     1     -42.640  13.575   9.921  1.00  0.00     0.162 A 
BRANCH  13  17
ATOM     17  O   UNL     1     -42.438  10.116  11.302  1.00  0.00    -0.504 OA
ATOM     18  H   UNL     1     -43.331   9.854  11.694  1.00  0.00     0.293 HD
ENDBRANCH  13  17
BRANCH  15  19
ATOM     19  O   UNL     1     -43.790  12.653  11.815  1.00  0.00    -0.502 OA
ATOM     20  H   UNL     1     -43.981  13.541  12.256  1.00  0.00     0.293 HD
ENDBRANCH  15  19
BRANCH  16  21
ATOM     21  O   UNL     1     -43.299  14.783  10.153  1.00  0.00    -0.504 OA
ATOM     22  H   UNL     1     -43.554  15.404   9.394  1.00  0.00     0.293 HD
ENDBRANCH  16  21
ENDBRANCH   1  11
BRANCH  10  23
ATOM     23  O   UNL     1     -41.737  10.811   6.173  1.00  0.00    -0.500 OA
ATOM     24  H   UNL     1     -42.561  11.228   6.591  1.00  0.00     0.294 HD
ENDBRANCH  10  23
BRANCH   5  25
ATOM     25  O   UNL     1     -34.590  13.831   6.014  1.00  0.00    -0.507 OA
ATOM     26  H   UNL     1     -33.737  13.509   5.571  1.00  0.00     0.293 HD
ENDBRANCH   5  25
BRANCH   7  27
ATOM     27  O   UNL     1     -37.424  11.112   3.226  1.00  0.00    -0.507 OA
ATOM     28  H   UNL     1     -37.762  10.163   3.157  1.00  0.00     0.293 HD
ENDBRANCH   7  27
TORSDOF 7
ENDMDL
MODEL 5
REMARK VINA RESULT:    -6.555      5.563     11.343
REMARK INTER + INTRA:          -8.418
REMARK INTER:                  -8.066
REMARK INTRA:                  -0.352
REMARK UNBOUND:                -0.331
REMARK SMILES Oc1cc(O)c2cc(O)c(-c3cc(O)c(O)c(O)c3)[o+]c2c1
REMARK SMILES IDX 10 1 20 2 21 3 22 4 2 5 3 6 4 7 6 8 7 9 8 10 11 11 12 12
REMARK SMILES IDX 13 13 19 14 15 15 17 16 14 17 16 19 18 21 9 23 1 25 5 27
REMARK H PARENT 14 18 16 20 18 22 9 24 1 26 5 28
REMARK Flexibility Score: inf
ROOT
ATOM      1  C   UNL     1     -33.662  14.195   1.589  1.00  0.00     0.402 A 
ATOM      2  O   UNL     1     -32.899  13.133   1.346  1.00  0.00    -0.202 OA
ATOM      3  C   UNL     1     -31.750  13.197   0.681  1.00  0.00     0.368 A 
ATOM      4  C   UNL     1     -31.018  12.026   0.471  1.00  0.00     0.162 A 
ATOM      5  C   UNL     1     -29.810  12.063  -0.226  1.00  0.00     0.128 A 
ATOM      6  C   UNL     1     -29.327  13.280  -0.718  1.00  0.00     0.093 A 
ATOM      7  C   UNL     1     -30.041  14.469  -0.521  1.00  0.00     0.136 A 
ATOM      8  C   UNL     1     -31.268  14.435   0.190  1.00  0.00     0.125 A 
ATOM      9  C   UNL     1     -32.044  15.577   0.445  1.00  0.00     0.078 A 
ATOM     10  C   UNL     1     -33.243  15.466   1.157  1.00  0.00     0.223 A 
ENDROOT
BRANCH   1  11
ATOM     11  C   UNL     1     -34.926  13.991   2.333  1.00  0.00     0.091 A 
ATOM     12  C   UNL     1     -34.963  14.232   3.714  1.00  0.00     0.068 A 
ATOM     13  C   UNL     1     -36.135  14.030   4.451  1.00  0.00     0.162 A 
ATOM     14  C   UNL     1     -36.079  13.508   1.694  1.00  0.00     0.068 A 
ATOM     15  C   UNL     1     -37.300  13.565   3.796  1.00  0.00     0.200 A 
ATOM     16  C   UNL     1     -37.259  13.301   2.419  1.00  0.00     0.162 A 
BRANCH  13  17
ATOM     17  O   UNL     1     -36.097  14.303   5.820  1.00  0.00    -0.504 OA
ATOM     18  H   UNL     1     -36.517  15.116   6.246  1.00  0.00     0.293 HD
ENDBRANCH  13  17
BRANCH  15  19
ATOM     19  O   UNL     1     -38.505  13.348   4.470  1.00  0.00    -0.502 OA
ATOM     20  H   UNL     1     -39.398  13.243   4.012  1.00  0.00     0.293 HD
ENDBRANCH  15  19
BRANCH  16  21
ATOM     21  O   UNL     1     -38.402  12.828   1.776  1.00  0.00    -0.504 OA
ATOM     22  H   UNL     1     -38.881  13.376   1.071  1.00  0.00     0.293 HD
ENDBRANCH  16  21
ENDBRANCH   1  11
BRANCH  10  23
ATOM     23  O   UNL     1     -33.988  16.607   1.455  1.00  0.00    -0.500 OA
ATOM     24  H   UNL     1     -33.549  17.463   1.772  1.00  0.00     0.294 HD
ENDBRANCH  10  23
BRANCH   5  25
ATOM     25  O   UNL     1     -29.096  10.883  -0.424  1.00  0.00    -0.507 OA
ATOM     26  H   UNL     1     -28.703  10.365   0.352  1.00  0.00     0.293 HD
ENDBRANCH   5  25
BRANCH   7  27
ATOM     27  O   UNL     1     -29.494  15.642  -1.046  1.00  0.00    -0.507 OA
ATOM     28  H   UNL     1     -29.757  16.048  -1.933  1.00  0.00     0.293 HD
ENDBRANCH   7  27
TORSDOF 7
ENDMDL
MODEL 6
REMARK VINA RESULT:    -6.553      4.628      8.005
REMARK INTER + INTRA:          -8.416
REMARK INTER:                  -8.061
REMARK INTRA:                  -0.355
REMARK UNBOUND:                -0.331
REMARK SMILES Oc1cc(O)c2cc(O)c(-c3cc(O)c(O)c(O)c3)[o+]c2c1
REMARK SMILES IDX 10 1 20 2 21 3 22 4 2 5 3 6 4 7 6 8 7 9 8 10 11 11 12 12
REMARK SMILES IDX 13 13 19 14 15 15 17 16 14 17 16 19 18 21 9 23 1 25 5 27
REMARK H PARENT 14 18 16 20 18 22 9 24 1 26 5 28
REMARK Flexibility Score: inf
ROOT
ATOM      1  C   UNL     1     -33.743  14.369   2.591  1.00  0.00     0.402 A 
ATOM      2  O   UNL     1     -33.954  13.616   3.667  1.00  0.00    -0.202 OA
ATOM      3  C   UNL     1     -34.993  13.780   4.479  1.00  0.00     0.368 A 
ATOM      4  C   UNL     1     -35.129  12.941   5.588  1.00  0.00     0.162 A 
ATOM      5  C   UNL     1     -36.208  13.091   6.459  1.00  0.00     0.128 A 
ATOM      6  C   UNL     1     -37.160  14.088   6.223  1.00  0.00     0.093 A 
ATOM      7  C   UNL     1     -37.047  14.943   5.119  1.00  0.00     0.136 A 
ATOM      8  C   UNL     1     -35.953  14.790   4.229  1.00  0.00     0.125 A 
ATOM      9  C   UNL     1     -35.766  15.591   3.091  1.00  0.00     0.078 A 
ATOM     10  C   UNL     1     -34.663  15.378   2.257  1.00  0.00     0.223 A 
ENDROOT
BRANCH   1  11
ATOM     11  C   UNL     1     -32.541  14.094   1.769  1.00  0.00     0.091 A 
ATOM     12  C   UNL     1     -32.516  12.964   0.940  1.00  0.00     0.068 A 
ATOM     13  C   UNL     1     -31.389  12.662   0.165  1.00  0.00     0.162 A 
ATOM     14  C   UNL     1     -31.402  14.910   1.846  1.00  0.00     0.068 A 
ATOM     15  C   UNL     1     -30.253  13.503   0.230  1.00  0.00     0.200 A 
ATOM     16  C   UNL     1     -30.268  14.620   1.077  1.00  0.00     0.162 A 
BRANCH  13  17
ATOM     17  O   UNL     1     -31.443  11.527  -0.646  1.00  0.00    -0.504 OA
ATOM     18  H   UNL     1     -31.878  11.503  -1.557  1.00  0.00     0.293 HD
ENDBRANCH  13  17
BRANCH  15  19
ATOM     19  O   UNL     1     -29.098  13.264  -0.520  1.00  0.00    -0.502 OA
ATOM     20  H   UNL     1     -28.162  13.309  -0.146  1.00  0.00     0.293 HD
ENDBRANCH  15  19
BRANCH  16  21
ATOM     21  O   UNL     1     -29.142  15.440   1.153  1.00  0.00    -0.504 OA
ATOM     22  H   UNL     1     -28.281  15.122   1.583  1.00  0.00     0.293 HD
ENDBRANCH  16  21
ENDBRANCH   1  11
BRANCH  10  23
ATOM     23  O   UNL     1     -34.505  16.141   1.099  1.00  0.00    -0.500 OA
ATOM     24  H   UNL     1     -33.997  17.017   1.104  1.00  0.00     0.294 HD
ENDBRANCH  10  23
BRANCH   5  25
ATOM     25  O   UNL     1     -36.325  12.244   7.560  1.00  0.00    -0.507 OA
ATOM     26  H   UNL     1     -35.851  11.350   7.592  1.00  0.00     0.293 HD
ENDBRANCH   5  25
BRANCH   7  27
ATOM     27  O   UNL     1     -38.037  15.915   4.953  1.00  0.00    -0.507 OA
ATOM     28  H   UNL     1     -38.938  15.896   5.409  1.00  0.00     0.293 HD
ENDBRANCH   7  27
TORSDOF 7
ENDMDL
MODEL 7
REMARK VINA RESULT:    -6.551      1.445      7.096
REMARK INTER + INTRA:          -8.414
REMARK INTER:                  -8.095
REMARK INTRA:                  -0.318
REMARK UNBOUND:                -0.331
REMARK SMILES Oc1cc(O)c2cc(O)c(-c3cc(O)c(O)c(O)c3)[o+]c2c1
REMARK SMILES IDX 10 1 20 2 21 3 22 4 2 5 3 6 4 7 6 8 7 9 8 10 11 11 12 12
REMARK SMILES IDX 13 13 19 14 15 15 17 16 14 17 16 19 18 21 9 23 1 25 5 27
REMARK H PARENT 14 18 16 20 18 22 9 24 1 26 5 28
REMARK Flexibility Score: inf
ROOT
ATOM      1  C   UNL     1     -40.169  12.028   7.421  1.00  0.00     0.402 A 
ATOM      2  O   UNL     1     -38.952  12.557   7.503  1.00  0.00    -0.202 OA
ATOM      3  C   UNL     1     -38.036  12.433   6.548  1.00  0.00     0.368 A 
ATOM      4  C   UNL     1     -36.782  13.023   6.727  1.00  0.00     0.162 A 
ATOM      5  C   UNL     1     -35.801  12.908   5.742  1.00  0.00     0.128 A 
ATOM      6  C   UNL     1     -36.073  12.198   4.567  1.00  0.00     0.093 A 
ATOM      7  C   UNL     1     -37.322  11.598   4.363  1.00  0.00     0.136 A 
ATOM      8  C   UNL     1     -38.323  11.716   5.362  1.00  0.00     0.125 A 
ATOM      9  C   UNL     1     -39.606  11.159   5.238  1.00  0.00     0.078 A 
ATOM     10  C   UNL     1     -40.543  11.320   6.264  1.00  0.00     0.223 A 
ENDROOT
BRANCH   1  11
ATOM     11  C   UNL     1     -41.097  12.226   8.558  1.00  0.00     0.091 A 
ATOM     12  C   UNL     1     -41.603  13.507   8.821  1.00  0.00     0.068 A 
ATOM     13  C   UNL     1     -42.466  13.735   9.900  1.00  0.00     0.162 A 
ATOM     14  C   UNL     1     -41.437  11.168   9.417  1.00  0.00     0.068 A 
ATOM     15  C   UNL     1     -42.823  12.659  10.747  1.00  0.00     0.200 A 
ATOM     16  C   UNL     1     -42.299  11.382  10.499  1.00  0.00     0.162 A 
BRANCH  13  17
ATOM     17  O   UNL     1     -42.939  15.034  10.091  1.00  0.00    -0.504 OA
ATOM     18  H   UNL     1     -42.717  15.811   9.486  1.00  0.00     0.293 HD
ENDBRANCH  13  17
BRANCH  15  19
ATOM     19  O   UNL     1     -43.684  12.815  11.837  1.00  0.00    -0.502 OA
ATOM     20  H   UNL     1     -44.252  12.074  12.219  1.00  0.00     0.293 HD
ENDBRANCH  15  19
BRANCH  16  21
ATOM     21  O   UNL     1     -42.638  10.325  11.343  1.00  0.00    -0.504 OA
ATOM     22  H   UNL     1     -42.994   9.448  10.980  1.00  0.00     0.293 HD
ENDBRANCH  16  21
ENDBRANCH   1  11
BRANCH  10  23
ATOM     23  O   UNL     1     -41.833  10.810   6.120  1.00  0.00    -0.500 OA
ATOM     24  H   UNL     1     -42.052  10.100   5.431  1.00  0.00     0.294 HD
ENDBRANCH  10  23
BRANCH   5  25
ATOM     25  O   UNL     1     -34.557  13.503   5.939  1.00  0.00    -0.507 OA
ATOM     26  H   UNL     1     -34.224  13.740   6.867  1.00  0.00     0.293 HD
ENDBRANCH   5  25
BRANCH   7  27
ATOM     27  O   UNL     1     -37.515  10.904   3.166  1.00  0.00    -0.507 OA
ATOM     28  H   UNL     1     -36.806  10.350   2.706  1.00  0.00     0.293 HD
ENDBRANCH   7  27
TORSDOF 7
ENDMDL
MODEL 8
REMARK VINA RESULT:    -6.519      2.320      7.193
REMARK INTER + INTRA:          -8.374
REMARK INTER:                  -7.991
REMARK INTRA:                  -0.383
REMARK UNBOUND:                -0.331
REMARK SMILES Oc1cc(O)c2cc(O)c(-c3cc(O)c(O)c(O)c3)[o+]c2c1
REMARK SMILES IDX 10 1 20 2 21 3 22 4 2 5 3 6 4 7 6 8 7 9 8 10 11 11 12 12
REMARK SMILES IDX 13 13 19 14 15 15 17 16 14 17 16 19 18 21 9 23 1 25 5 27
REMARK H PARENT 14 18 16 20 18 22 9 24 1 26 5 28
REMARK Flexibility Score: inf
ROOT
ATOM      1  C   UNL     1     -40.274  11.634   7.338  1.00  0.00     0.402 A 
ATOM      2  O   UNL     1     -40.873  11.280   6.204  1.00  0.00    -0.202 OA
ATOM      3  C   UNL     1     -40.209  10.901   5.117  1.00  0.00     0.368 A 
ATOM      4  C   UNL     1     -40.926  10.549   3.970  1.00  0.00     0.162 A 
ATOM      5  C   UNL     1     -40.257  10.150   2.813  1.00  0.00     0.128 A 
ATOM      6  C   UNL     1     -38.859  10.101   2.799  1.00  0.00     0.093 A 
ATOM      7  C   UNL     1     -38.116  10.449   3.936  1.00  0.00     0.136 A 
ATOM      8  C   UNL     1     -38.795  10.852   5.115  1.00  0.00     0.125 A 
ATOM      9  C   UNL     1     -38.134  11.205   6.303  1.00  0.00     0.078 A 
ATOM     10  C   UNL     1     -38.871  11.589   7.427  1.00  0.00     0.223 A 
ENDROOT
BRANCH   1  11
ATOM     11  C   UNL     1     -41.124  12.047   8.478  1.00  0.00     0.091 A 
ATOM     12  C   UNL     1     -41.603  11.077   9.370  1.00  0.00     0.068 A 
ATOM     13  C   UNL     1     -42.426  11.430  10.447  1.00  0.00     0.162 A 
ATOM     14  C   UNL     1     -41.510  13.386   8.654  1.00  0.00     0.068 A 
ATOM     15  C   UNL     1     -42.791  12.785  10.631  1.00  0.00     0.200 A 
ATOM     16  C   UNL     1     -42.333  13.753   9.726  1.00  0.00     0.162 A 
BRANCH  13  17
ATOM     17  O   UNL     1     -42.852  10.410  11.300  1.00  0.00    -0.504 OA
ATOM     18  H   UNL     1     -43.509  10.543  12.055  1.00  0.00     0.293 HD
ENDBRANCH  13  17
BRANCH  15  19
ATOM     19  O   UNL     1     -43.603  13.206  11.687  1.00  0.00    -0.502 OA
ATOM     20  H   UNL     1     -44.100  12.579  12.304  1.00  0.00     0.293 HD
ENDBRANCH  15  19
BRANCH  16  21
ATOM     21  O   UNL     1     -42.705  15.085   9.899  1.00  0.00    -0.504 OA
ATOM     22  H   UNL     1     -43.498  15.346  10.473  1.00  0.00     0.293 HD
ENDBRANCH  16  21
ENDBRANCH   1  11
BRANCH  10  23
ATOM     23  O   UNL     1     -38.218  11.891   8.622  1.00  0.00    -0.500 OA
ATOM     24  H   UNL     1     -37.298  12.315   8.634  1.00  0.00     0.294 HD
ENDBRANCH  10  23
BRANCH   5  25
ATOM     25  O   UNL     1     -40.990   9.804   1.680  1.00  0.00    -0.507 OA
ATOM     26  H   UNL     1     -42.002   9.851   1.670  1.00  0.00     0.293 HD
ENDBRANCH   5  25
BRANCH   7  27
ATOM     27  O   UNL     1     -36.724  10.377   3.841  1.00  0.00    -0.507 OA
ATOM     28  H   UNL     1     -36.189  10.686   3.042  1.00  0.00     0.293 HD
ENDBRANCH   7  27
TORSDOF 7
ENDMDL
MODEL 9
REMARK VINA RESULT:    -6.319      2.391      4.356
REMARK INTER + INTRA:          -8.127
REMARK INTER:                  -7.747
REMARK INTRA:                  -0.381
REMARK UNBOUND:                -0.331
REMARK SMILES Oc1cc(O)c2cc(O)c(-c3cc(O)c(O)c(O)c3)[o+]c2c1
REMARK SMILES IDX 10 1 20 2 21 3 22 4 2 5 3 6 4 7 6 8 7 9 8 10 11 11 12 12
REMARK SMILES IDX 13 13 19 14 15 15 17 16 14 17 16 19 18 21 9 23 1 25 5 27
REMARK H PARENT 14 18 16 20 18 22 9 24 1 26 5 28
REMARK Flexibility Score: inf
ROOT
ATOM      1  C   UNL     1     -36.745  13.138   4.830  1.00  0.00     0.402 A 
ATOM      2  O   UNL     1     -37.438  13.892   5.678  1.00  0.00    -0.202 OA
ATOM      3  C   UNL     1     -38.131  13.396   6.698  1.00  0.00     0.368 A 
ATOM      4  C   UNL     1     -38.831  14.268   7.534  1.00  0.00     0.162 A 
ATOM      5  C   UNL     1     -39.569  13.775   8.611  1.00  0.00     0.128 A 
ATOM      6  C   UNL     1     -39.609  12.399   8.855  1.00  0.00     0.093 A 
ATOM      7  C   UNL     1     -38.916  11.502   8.031  1.00  0.00     0.136 A 
ATOM      8  C   UNL     1     -38.162  12.001   6.938  1.00  0.00     0.125 A 
ATOM      9  C   UNL     1     -37.426  11.179   6.068  1.00  0.00     0.078 A 
ATOM     10  C   UNL     1     -36.703  11.744   5.014  1.00  0.00     0.223 A 
ENDROOT
BRANCH   1  11
ATOM     11  C   UNL     1     -36.022  13.810   3.726  1.00  0.00     0.091 A 
ATOM     12  C   UNL     1     -34.700  14.236   3.924  1.00  0.00     0.068 A 
ATOM     13  C   UNL     1     -33.994  14.893   2.909  1.00  0.00     0.162 A 
ATOM     14  C   UNL     1     -36.650  14.082   2.500  1.00  0.00     0.068 A 
ATOM     15  C   UNL     1     -34.626  15.143   1.668  1.00  0.00     0.200 A 
ATOM     16  C   UNL     1     -35.955  14.739   1.477  1.00  0.00     0.162 A 
BRANCH  13  17
ATOM     17  O   UNL     1     -32.678  15.276   3.177  1.00  0.00    -0.504 OA
ATOM     18  H   UNL     1     -32.074  14.803   3.833  1.00  0.00     0.293 HD
ENDBRANCH  13  17
BRANCH  15  19
ATOM     19  O   UNL     1     -33.977  15.788   0.612  1.00  0.00    -0.502 OA
ATOM     20  H   UNL     1     -34.431  16.427  -0.024  1.00  0.00     0.293 HD
ENDBRANCH  15  19
BRANCH  16  21
ATOM     21  O   UNL     1     -36.583  14.999   0.259  1.00  0.00    -0.504 OA
ATOM     22  H   UNL     1     -37.029  15.889   0.071  1.00  0.00     0.293 HD
ENDBRANCH  16  21
ENDBRANCH   1  11
BRANCH  10  23
ATOM     23  O   UNL     1     -35.932  10.932   4.180  1.00  0.00    -0.500 OA
ATOM     24  H   UNL     1     -35.164  10.378   4.539  1.00  0.00     0.294 HD
ENDBRANCH  10  23
BRANCH   5  25
ATOM     25  O   UNL     1     -40.260  14.663   9.433  1.00  0.00    -0.507 OA
ATOM     26  H   UNL     1     -40.851  15.390   9.048  1.00  0.00     0.293 HD
ENDBRANCH   5  25
BRANCH   7  27
ATOM     27  O   UNL     1     -39.008  10.142   8.340  1.00  0.00    -0.507 OA
ATOM     28  H   UNL     1     -39.652   9.499   7.901  1.00  0.00     0.293 HD
ENDBRANCH   7  27
TORSDOF 7
ENDMDL
