MODEL 1
REMARK VINA RESULT:    -3.206      0.000      0.000
REMARK INTER + INTRA:          -7.408
REMARK INTER:                  -5.455
REMARK INTRA:                  -1.952
REMARK UNBOUND:                -1.952
REMARK SMILES CCCCCCCCCCCCCC(=O)[O-]
REMARK SMILES IDX 8 1 9 2 10 3 11 4 12 5 13 6 14 7 15 8 16 9 7 10 6 11 5 12
REMARK SMILES IDX 4 13 3 14 2 15 1 16
REMARK H PARENT
REMARK Flexibility Score: inf
ROOT
ATOM      1  C   UNL     1     189.968 176.903 178.953  1.00  0.00     0.000 C 
ENDROOT
BRANCH   1   2
ATOM      2  C   UNL     1     190.542 176.666 177.545  1.00  0.00     0.000 C 
BRANCH   2   3
ATOM      3  C   UNL     1     190.934 175.202 177.297  1.00  0.00     0.000 C 
BRANCH   3   4
ATOM      4  C   UNL     1     190.996 174.897 175.796  1.00  0.00     0.000 C 
BRANCH   4   5
ATOM      5  C   UNL     1     191.329 176.161 174.990  1.00  0.00     0.006 C 
BRANCH   5   6
ATOM      6  C   UNL     1     190.353 176.381 173.826  1.00  0.00     0.053 C 
BRANCH   6   7
ATOM      7  C   UNL     1     190.292 175.189 172.921  1.00  0.00     0.041 C 
ATOM      8  O   UNL     1     191.298 174.856 172.240  1.00  0.00    -0.550 OA
ATOM      9  O   UNL     1     189.112 174.465 172.803  1.00  0.00    -0.550 OA
ENDBRANCH   6   7
ENDBRANCH   5   6
ENDBRANCH   4   5
ENDBRANCH   3   4
ENDBRANCH   2   3
ENDBRANCH   1   2
BRANCH   1  10
ATOM     10  C   UNL     1     189.382 175.653 179.642  1.00  0.00     0.000 C 
BRANCH  10  11
ATOM     11  C   UNL     1     187.901 175.767 180.054  1.00  0.00    -0.000 C 
BRANCH  11  12
ATOM     12  C   UNL     1     187.005 174.614 179.566  1.00  0.00    -0.000 C 
BRANCH  12  13
ATOM     13  C   UNL     1     187.681 173.704 178.517  1.00  0.00    -0.000 C 
BRANCH  13  14
ATOM     14  C   UNL     1     186.851 173.579 177.227  1.00  0.00    -0.000 C 
BRANCH  14  15
ATOM     15  C   UNL     1     187.514 174.274 176.028  1.00  0.00    -0.003 C 
ATOM     16  C   UNL     1     187.295 175.786 176.023  1.00  0.00     0.004 C 
ENDBRANCH  14  15
ENDBRANCH  13  14
ENDBRANCH  12  13
ENDBRANCH  11  12
ENDBRANCH  10  11
ENDBRANCH   1  10
TORSDOF 12
ENDMDL
MODEL 2
REMARK VINA RESULT:    -3.156      1.006      1.706
REMARK INTER + INTRA:          -7.322
REMARK INTER:                  -5.593
REMARK INTRA:                  -1.729
REMARK UNBOUND:                -1.952
REMARK SMILES CCCCCCCCCCCCCC(=O)[O-]
REMARK SMILES IDX 8 1 9 2 10 3 11 4 12 5 13 6 14 7 15 8 16 9 7 10 6 11 5 12
REMARK SMILES IDX 4 13 3 14 2 15 1 16
REMARK H PARENT
REMARK Flexibility Score: inf
ROOT
ATOM      1  C   UNL     1     190.009 176.497 177.340  1.00  0.00     0.000 C 
ENDROOT
BRANCH   1   2
ATOM      2  C   UNL     1     190.995 175.356 177.033  1.00  0.00     0.000 C 
BRANCH   2   3
ATOM      3  C   UNL     1     191.015 174.964 175.549  1.00  0.00     0.000 C 
BRANCH   3   4
ATOM      4  C   UNL     1     190.770 173.461 175.374  1.00  0.00     0.000 C 
BRANCH   4   5
ATOM      5  C   UNL     1     190.156 173.159 173.999  1.00  0.00     0.006 C 
BRANCH   5   6
ATOM      6  C   UNL     1     189.512 174.400 173.365  1.00  0.00     0.053 C 
BRANCH   6   7
ATOM      7  C   UNL     1     190.151 174.748 172.056  1.00  0.00     0.041 C 
ATOM      8  O   UNL     1     189.443 174.915 171.028  1.00  0.00    -0.550 OA
ATOM      9  O   UNL     1     191.533 174.856 171.964  1.00  0.00    -0.550 OA
ENDBRANCH   6   7
ENDBRANCH   5   6
ENDBRANCH   4   5
ENDBRANCH   3   4
ENDBRANCH   2   3
ENDBRANCH   1   2
BRANCH   1  10
ATOM     10  C   UNL     1     189.839 176.833 178.836  1.00  0.00     0.000 C 
BRANCH  10  11
ATOM     11  C   UNL     1     189.452 175.642 179.733  1.00  0.00    -0.000 C 
BRANCH  11  12
ATOM     12  C   UNL     1     188.018 175.118 179.529  1.00  0.00    -0.000 C 
BRANCH  12  13
ATOM     13  C   UNL     1     187.952 173.760 178.797  1.00  0.00    -0.000 C 
BRANCH  13  14
ATOM     14  C   UNL     1     186.780 173.687 177.803  1.00  0.00    -0.000 C 
BRANCH  14  15
ATOM     15  C   UNL     1     187.233 173.848 176.343  1.00  0.00    -0.003 C 
ATOM     16  C   UNL     1     186.942 175.240 175.782  1.00  0.00     0.004 C 
ENDBRANCH  14  15
ENDBRANCH  13  14
ENDBRANCH  12  13
ENDBRANCH  11  12
ENDBRANCH  10  11
ENDBRANCH   1  10
TORSDOF 12
ENDMDL
MODEL 3
REMARK VINA RESULT:    -3.100      3.363      5.523
REMARK INTER + INTRA:          -7.228
REMARK INTER:                  -5.214
REMARK INTRA:                  -2.014
REMARK UNBOUND:                -1.952
REMARK SMILES CCCCCCCCCCCCCC(=O)[O-]
REMARK SMILES IDX 8 1 9 2 10 3 11 4 12 5 13 6 14 7 15 8 16 9 7 10 6 11 5 12
REMARK SMILES IDX 4 13 3 14 2 15 1 16
REMARK H PARENT
REMARK Flexibility Score: inf
ROOT
ATOM      1  C   UNL     1     189.896 176.694 175.934  1.00  0.00     0.000 C 
ENDROOT
BRANCH   1   2
ATOM      2  C   UNL     1     191.054 176.053 176.721  1.00  0.00     0.000 C 
BRANCH   2   3
ATOM      3  C   UNL     1     190.723 174.643 177.231  1.00  0.00     0.000 C 
BRANCH   3   4
ATOM      4  C   UNL     1     189.247 174.537 177.633  1.00  0.00     0.000 C 
BRANCH   4   5
ATOM      5  C   UNL     1     189.081 174.649 179.156  1.00  0.00     0.006 C 
BRANCH   5   6
ATOM      6  C   UNL     1     188.673 176.062 179.593  1.00  0.00     0.053 C 
BRANCH   6   7
ATOM      7  C   UNL     1     189.686 176.671 180.513  1.00  0.00     0.041 C 
ATOM      8  O   UNL     1     189.644 176.435 181.750  1.00  0.00    -0.550 OA
ATOM      9  O   UNL     1     190.657 177.528 180.009  1.00  0.00    -0.550 OA
ENDBRANCH   6   7
ENDBRANCH   5   6
ENDBRANCH   4   5
ENDBRANCH   3   4
ENDBRANCH   2   3
ENDBRANCH   1   2
BRANCH   1  10
ATOM     10  C   UNL     1     190.154 176.882 174.424  1.00  0.00     0.000 C 
BRANCH  10  11
ATOM     11  C   UNL     1     191.168 175.899 173.807  1.00  0.00    -0.000 C 
BRANCH  11  12
ATOM     12  C   UNL     1     190.543 174.758 172.984  1.00  0.00    -0.000 C 
BRANCH  12  13
ATOM     13  C   UNL     1     190.525 173.401 173.720  1.00  0.00    -0.000 C 
BRANCH  13  14
ATOM     14  C   UNL     1     189.126 173.041 174.250  1.00  0.00    -0.000 C 
BRANCH  14  15
ATOM     15  C   UNL     1     188.016 173.890 173.613  1.00  0.00    -0.003 C 
ATOM     16  C   UNL     1     187.065 174.495 174.646  1.00  0.00     0.004 C 
ENDBRANCH  14  15
ENDBRANCH  13  14
ENDBRANCH  12  13
ENDBRANCH  11  12
ENDBRANCH  10  11
ENDBRANCH   1  10
TORSDOF 12
ENDMDL
MODEL 4
REMARK VINA RESULT:    -3.096     18.965     20.477
REMARK INTER + INTRA:          -7.220
REMARK INTER:                  -5.314
REMARK INTRA:                  -1.907
REMARK UNBOUND:                -1.952
REMARK SMILES CCCCCCCCCCCCCC(=O)[O-]
REMARK SMILES IDX 8 1 9 2 10 3 11 4 12 5 13 6 14 7 15 8 16 9 7 10 6 11 5 12
REMARK SMILES IDX 4 13 3 14 2 15 1 16
REMARK H PARENT
REMARK Flexibility Score: inf
ROOT
ATOM      1  C   UNL     1     172.847 186.650 178.150  1.00  0.00     0.000 C 
ENDROOT
BRANCH   1   2
ATOM      2  C   UNL     1     172.625 187.071 176.686  1.00  0.00     0.000 C 
BRANCH   2   3
ATOM      3  C   UNL     1     171.875 188.403 176.552  1.00  0.00     0.000 C 
BRANCH   3   4
ATOM      4  C   UNL     1     172.185 189.076 175.210  1.00  0.00     0.000 C 
BRANCH   4   5
ATOM      5  C   UNL     1     172.394 188.031 174.105  1.00  0.00     0.006 C 
BRANCH   5   6
ATOM      6  C   UNL     1     172.335 188.649 172.702  1.00  0.00     0.053 C 
BRANCH   6   7
ATOM      7  C   UNL     1     173.062 187.812 171.696  1.00  0.00     0.041 C 
ATOM      8  O   UNL     1     174.262 188.063 171.408  1.00  0.00    -0.550 OA
ATOM      9  O   UNL     1     172.403 186.771 171.051  1.00  0.00    -0.550 OA
ENDBRANCH   6   7
ENDBRANCH   5   6
ENDBRANCH   4   5
ENDBRANCH   3   4
ENDBRANCH   2   3
ENDBRANCH   1   2
BRANCH   1  10
ATOM     10  C   UNL     1     173.661 187.646 179.003  1.00  0.00     0.000 C 
BRANCH  10  11
ATOM     11  C   UNL     1     175.168 187.696 178.688  1.00  0.00    -0.000 C 
BRANCH  11  12
ATOM     12  C   UNL     1     175.721 189.103 178.393  1.00  0.00    -0.000 C 
BRANCH  12  13
ATOM     13  C   UNL     1     175.644 189.498 176.902  1.00  0.00    -0.000 C 
BRANCH  13  14
ATOM     14  C   UNL     1     175.994 188.327 175.967  1.00  0.00    -0.000 C 
BRANCH  14  15
ATOM     15  C   UNL     1     175.992 188.733 174.485  1.00  0.00    -0.003 C 
ATOM     16  C   UNL     1     175.510 190.167 174.264  1.00  0.00     0.004 C 
ENDBRANCH  14  15
ENDBRANCH  13  14
ENDBRANCH  12  13
ENDBRANCH  11  12
ENDBRANCH  10  11
ENDBRANCH   1  10
TORSDOF 12
ENDMDL
MODEL 5
REMARK VINA RESULT:    -3.091      1.431      3.021
REMARK INTER + INTRA:          -7.212
REMARK INTER:                  -5.938
REMARK INTRA:                  -1.274
REMARK UNBOUND:                -1.952
REMARK SMILES CCCCCCCCCCCCCC(=O)[O-]
REMARK SMILES IDX 8 1 9 2 10 3 11 4 12 5 13 6 14 7 15 8 16 9 7 10 6 11 5 12
REMARK SMILES IDX 4 13 3 14 2 15 1 16
REMARK H PARENT
REMARK Flexibility Score: inf
ROOT
ATOM      1  C   UNL     1     188.741 174.562 177.830  1.00  0.00     0.000 C 
ENDROOT
BRANCH   1   2
ATOM      2  C   UNL     1     190.224 174.883 178.086  1.00  0.00     0.000 C 
BRANCH   2   3
ATOM      3  C   UNL     1     191.059 174.927 176.798  1.00  0.00     0.000 C 
BRANCH   3   4
ATOM      4  C   UNL     1     190.884 176.269 176.076  1.00  0.00     0.000 C 
BRANCH   4   5
ATOM      5  C   UNL     1     191.305 176.161 174.603  1.00  0.00     0.006 C 
BRANCH   5   6
ATOM      6  C   UNL     1     190.153 175.697 173.702  1.00  0.00     0.053 C 
BRANCH   6   7
ATOM      7  C   UNL     1     190.499 174.441 172.963  1.00  0.00     0.041 C 
ATOM      8  O   UNL     1     190.621 174.455 171.710  1.00  0.00    -0.550 OA
ATOM      9  O   UNL     1     190.654 173.247 173.656  1.00  0.00    -0.550 OA
ENDBRANCH   6   7
ENDBRANCH   5   6
ENDBRANCH   4   5
ENDBRANCH   3   4
ENDBRANCH   2   3
ENDBRANCH   1   2
BRANCH   1  10
ATOM     10  C   UNL     1     188.028 173.801 178.968  1.00  0.00     0.000 C 
BRANCH  10  11
ATOM     11  C   UNL     1     186.846 174.549 179.614  1.00  0.00    -0.000 C 
BRANCH  11  12
ATOM     12  C   UNL     1     187.099 176.044 179.884  1.00  0.00    -0.000 C 
BRANCH  12  13
ATOM     13  C   UNL     1     187.687 176.330 181.283  1.00  0.00    -0.000 C 
BRANCH  13  14
ATOM     14  C   UNL     1     189.201 176.600 181.238  1.00  0.00    -0.000 C 
BRANCH  14  15
ATOM     15  C   UNL     1     189.570 177.736 180.272  1.00  0.00    -0.003 C 
ATOM     16  C   UNL     1     191.078 177.870 180.062  1.00  0.00     0.004 C 
ENDBRANCH  14  15
ENDBRANCH  13  14
ENDBRANCH  12  13
ENDBRANCH  11  12
ENDBRANCH  10  11
ENDBRANCH   1  10
TORSDOF 12
ENDMDL
MODEL 6
REMARK VINA RESULT:    -3.088      3.447      5.970
REMARK INTER + INTRA:          -7.207
REMARK INTER:                  -5.171
REMARK INTRA:                  -2.036
REMARK UNBOUND:                -1.952
REMARK SMILES CCCCCCCCCCCCCC(=O)[O-]
REMARK SMILES IDX 8 1 9 2 10 3 11 4 12 5 13 6 14 7 15 8 16 9 7 10 6 11 5 12
REMARK SMILES IDX 4 13 3 14 2 15 1 16
REMARK H PARENT
REMARK Flexibility Score: inf
ROOT
ATOM      1  C   UNL     1     187.714 173.809 175.499  1.00  0.00     0.000 C 
ENDROOT
BRANCH   1   2
ATOM      2  C   UNL     1     187.529 175.318 175.744  1.00  0.00     0.000 C 
BRANCH   2   3
ATOM      3  C   UNL     1     187.958 175.752 177.153  1.00  0.00     0.000 C 
BRANCH   3   4
ATOM      4  C   UNL     1     188.196 174.534 178.054  1.00  0.00     0.000 C 
BRANCH   4   5
ATOM      5  C   UNL     1     189.425 174.744 178.951  1.00  0.00     0.006 C 
BRANCH   5   6
ATOM      6  C   UNL     1     189.561 176.200 179.419  1.00  0.00     0.053 C 
BRANCH   6   7
ATOM      7  C   UNL     1     189.100 176.372 180.833  1.00  0.00     0.041 C 
ATOM      8  O   UNL     1     187.875 176.297 181.115  1.00  0.00    -0.550 OA
ATOM      9  O   UNL     1     190.021 176.650 181.835  1.00  0.00    -0.550 OA
ENDBRANCH   6   7
ENDBRANCH   5   6
ENDBRANCH   4   5
ENDBRANCH   3   4
ENDBRANCH   2   3
ENDBRANCH   1   2
BRANCH   1  10
ATOM     10  C   UNL     1     188.359 173.439 174.146  1.00  0.00     0.000 C 
BRANCH  10  11
ATOM     11  C   UNL     1     189.881 173.664 174.064  1.00  0.00    -0.000 C 
BRANCH  11  12
ATOM     12  C   UNL     1     190.624 173.549 175.409  1.00  0.00    -0.000 C 
BRANCH  12  13
ATOM     13  C   UNL     1     191.284 174.868 175.867  1.00  0.00    -0.000 C 
BRANCH  13  14
ATOM     14  C   UNL     1     191.194 175.971 174.797  1.00  0.00    -0.000 C 
BRANCH  14  15
ATOM     15  C   UNL     1     191.023 177.371 175.405  1.00  0.00    -0.003 C 
ATOM     16  C   UNL     1     191.692 177.510 176.772  1.00  0.00     0.004 C 
ENDBRANCH  14  15
ENDBRANCH  13  14
ENDBRANCH  12  13
ENDBRANCH  11  12
ENDBRANCH  10  11
ENDBRANCH   1  10
TORSDOF 12
ENDMDL
MODEL 7
REMARK VINA RESULT:    -3.077      3.539      6.057
REMARK INTER + INTRA:          -7.188
REMARK INTER:                  -5.534
REMARK INTRA:                  -1.655
REMARK UNBOUND:                -1.952
REMARK SMILES CCCCCCCCCCCCCC(=O)[O-]
REMARK SMILES IDX 8 1 9 2 10 3 11 4 12 5 13 6 14 7 15 8 16 9 7 10 6 11 5 12
REMARK SMILES IDX 4 13 3 14 2 15 1 16
REMARK H PARENT
REMARK Flexibility Score: inf
ROOT
ATOM      1  C   UNL     1     190.026 177.410 174.508  1.00  0.00     0.000 C 
ENDROOT
BRANCH   1   2
ATOM      2  C   UNL     1     191.384 176.852 174.972  1.00  0.00     0.000 C 
BRANCH   2   3
ATOM      3  C   UNL     1     191.433 176.577 176.482  1.00  0.00     0.000 C 
BRANCH   3   4
ATOM      4  C   UNL     1     191.086 175.114 176.785  1.00  0.00     0.000 C 
BRANCH   4   5
ATOM      5  C   UNL     1     190.141 175.011 177.991  1.00  0.00     0.006 C 
BRANCH   5   6
ATOM      6  C   UNL     1     189.547 176.370 178.382  1.00  0.00     0.053 C 
BRANCH   6   7
ATOM      7  C   UNL     1     189.733 176.658 179.839  1.00  0.00     0.041 C 
ATOM      8  O   UNL     1     188.942 176.170 180.689  1.00  0.00    -0.550 OA
ATOM      9  O   UNL     1     190.761 177.494 180.257  1.00  0.00    -0.550 OA
ENDBRANCH   6   7
ENDBRANCH   5   6
ENDBRANCH   4   5
ENDBRANCH   3   4
ENDBRANCH   2   3
ENDBRANCH   1   2
BRANCH   1  10
ATOM     10  C   UNL     1     190.043 178.126 173.141  1.00  0.00     0.000 C 
BRANCH  10  11
ATOM     11  C   UNL     1     189.321 177.380 172.003  1.00  0.00    -0.000 C 
BRANCH  11  12
ATOM     12  C   UNL     1     190.206 176.399 171.211  1.00  0.00    -0.000 C 
BRANCH  12  13
ATOM     13  C   UNL     1     189.913 174.914 171.518  1.00  0.00    -0.000 C 
BRANCH  13  14
ATOM     14  C   UNL     1     191.040 174.249 172.326  1.00  0.00    -0.000 C 
BRANCH  14  15
ATOM     15  C   UNL     1     190.515 173.463 173.537  1.00  0.00    -0.003 C 
ATOM     16  C   UNL     1     189.084 173.843 173.916  1.00  0.00     0.004 C 
ENDBRANCH  14  15
ENDBRANCH  13  14
ENDBRANCH  12  13
ENDBRANCH  11  12
ENDBRANCH  10  11
ENDBRANCH   1  10
TORSDOF 12
ENDMDL
MODEL 8
REMARK VINA RESULT:    -3.065      3.441      5.954
REMARK INTER + INTRA:          -7.167
REMARK INTER:                  -5.537
REMARK INTRA:                  -1.631
REMARK UNBOUND:                -1.952
REMARK SMILES CCCCCCCCCCCCCC(=O)[O-]
REMARK SMILES IDX 8 1 9 2 10 3 11 4 12 5 13 6 14 7 15 8 16 9 7 10 6 11 5 12
REMARK SMILES IDX 4 13 3 14 2 15 1 16
REMARK H PARENT
REMARK Flexibility Score: inf
ROOT
ATOM      1  C   UNL     1     188.086 174.741 176.140  1.00  0.00     0.000 C 
ENDROOT
BRANCH   1   2
ATOM      2  C   UNL     1     187.155 173.928 177.057  1.00  0.00     0.000 C 
BRANCH   2   3
ATOM      3  C   UNL     1     187.728 173.729 178.467  1.00  0.00     0.000 C 
BRANCH   3   4
ATOM      4  C   UNL     1     187.957 175.076 179.162  1.00  0.00     0.000 C 
BRANCH   4   5
ATOM      5  C   UNL     1     189.431 175.248 179.558  1.00  0.00     0.006 C 
BRANCH   5   6
ATOM      6  C   UNL     1     189.874 176.717 179.523  1.00  0.00     0.053 C 
BRANCH   6   7
ATOM      7  C   UNL     1     190.145 177.246 180.897  1.00  0.00     0.041 C 
ATOM      8  O   UNL     1     190.621 178.402 181.050  1.00  0.00    -0.550 OA
ATOM      9  O   UNL     1     189.902 176.450 182.010  1.00  0.00    -0.550 OA
ENDBRANCH   6   7
ENDBRANCH   5   6
ENDBRANCH   4   5
ENDBRANCH   3   4
ENDBRANCH   2   3
ENDBRANCH   1   2
BRANCH   1  10
ATOM     10  C   UNL     1     189.299 173.966 175.583  1.00  0.00     0.000 C 
BRANCH  10  11
ATOM     11  C   UNL     1     190.665 174.391 176.156  1.00  0.00    -0.000 C 
BRANCH  11  12
ATOM     12  C   UNL     1     190.956 175.901 176.080  1.00  0.00    -0.000 C 
BRANCH  12  13
ATOM     13  C   UNL     1     191.428 176.372 174.687  1.00  0.00    -0.000 C 
BRANCH  13  14
ATOM     14  C   UNL     1     190.313 177.082 173.899  1.00  0.00    -0.000 C 
BRANCH  14  15
ATOM     15  C   UNL     1     189.829 176.263 172.693  1.00  0.00    -0.003 C 
ATOM     16  C   UNL     1     190.798 175.146 172.306  1.00  0.00     0.004 C 
ENDBRANCH  14  15
ENDBRANCH  13  14
ENDBRANCH  12  13
ENDBRANCH  11  12
ENDBRANCH  10  11
ENDBRANCH   1  10
TORSDOF 12
ENDMDL
MODEL 9
REMARK VINA RESULT:    -3.048      1.198      2.081
REMARK INTER + INTRA:          -7.139
REMARK INTER:                  -4.923
REMARK INTRA:                  -2.216
REMARK UNBOUND:                -1.952
REMARK SMILES CCCCCCCCCCCCCC(=O)[O-]
REMARK SMILES IDX 8 1 9 2 10 3 11 4 12 5 13 6 14 7 15 8 16 9 7 10 6 11 5 12
REMARK SMILES IDX 4 13 3 14 2 15 1 16
REMARK H PARENT
REMARK Flexibility Score: inf
ROOT
ATOM      1  C   UNL     1     189.067 175.538 179.005  1.00  0.00     0.000 C 
ENDROOT
BRANCH   1   2
ATOM      2  C   UNL     1     190.254 175.768 178.053  1.00  0.00     0.000 C 
BRANCH   2   3
ATOM      3  C   UNL     1     190.654 174.504 177.279  1.00  0.00     0.000 C 
BRANCH   3   4
ATOM      4  C   UNL     1     190.789 174.797 175.780  1.00  0.00     0.000 C 
BRANCH   4   5
ATOM      5  C   UNL     1     190.432 173.560 174.943  1.00  0.00     0.006 C 
BRANCH   5   6
ATOM      6  C   UNL     1     189.632 173.921 173.684  1.00  0.00     0.053 C 
BRANCH   6   7
ATOM      7  C   UNL     1     190.466 174.674 172.695  1.00  0.00     0.041 C 
ATOM      8  O   UNL     1     191.314 174.069 171.987  1.00  0.00    -0.550 OA
ATOM      9  O   UNL     1     190.330 176.052 172.577  1.00  0.00    -0.550 OA
ENDBRANCH   6   7
ENDBRANCH   5   6
ENDBRANCH   4   5
ENDBRANCH   3   4
ENDBRANCH   2   3
ENDBRANCH   1   2
BRANCH   1  10
ATOM     10  C   UNL     1     188.413 174.143 178.914  1.00  0.00     0.000 C 
BRANCH  10  11
ATOM     11  C   UNL     1     187.005 174.121 178.288  1.00  0.00    -0.000 C 
BRANCH  11  12
ATOM     12  C   UNL     1     186.913 173.396 176.932  1.00  0.00    -0.000 C 
BRANCH  12  13
ATOM     13  C   UNL     1     186.655 174.343 175.740  1.00  0.00    -0.000 C 
BRANCH  13  14
ATOM     14  C   UNL     1     186.665 175.825 176.155  1.00  0.00    -0.000 C 
BRANCH  14  15
ATOM     15  C   UNL     1     187.705 176.648 175.381  1.00  0.00    -0.003 C 
ATOM     16  C   UNL     1     188.089 177.943 176.098  1.00  0.00     0.004 C 
ENDBRANCH  14  15
ENDBRANCH  13  14
ENDBRANCH  12  13
ENDBRANCH  11  12
ENDBRANCH  10  11
ENDBRANCH   1  10
TORSDOF 12
ENDMDL
