MODEL 1
REMARK VINA RESULT:    -1.400      0.000      0.000
REMARK INTER + INTRA:          -5.900
REMARK INTER:                  -2.710
REMARK INTRA:                  -3.190
REMARK UNBOUND:                -3.190
REMARK SMILES CCCCCCCCCCCCCCCCCC(=O)[O-]
REMARK SMILES IDX 10 1 11 2 12 3 13 4 14 5 15 6 16 7 17 8 18 9 19 10 20 11
REMARK SMILES IDX 9 12 8 13 7 14 6 15 5 16 4 17 3 18 2 19 1 20
REMARK H PARENT
REMARK Flexibility Score: inf
ROOT
ATOM      1  C   UNL     1      20.445  28.226  13.627  1.00  0.00     0.000 C 
ENDROOT
BRANCH   1   2
ATOM      2  C   UNL     1      21.056  28.980  14.823  1.00  0.00     0.000 C 
BRANCH   2   3
ATOM      3  C   UNL     1      21.561  28.089  15.974  1.00  0.00     0.000 C 
BRANCH   3   4
ATOM      4  C   UNL     1      21.383  26.589  15.696  1.00  0.00     0.000 C 
BRANCH   4   5
ATOM      5  C   UNL     1      22.068  25.744  16.776  1.00  0.00     0.000 C 
BRANCH   5   6
ATOM      6  C   UNL     1      23.045  24.740  16.154  1.00  0.00     0.000 C 
BRANCH   6   7
ATOM      7  C   UNL     1      22.718  24.498  14.673  1.00  0.00     0.006 C 
BRANCH   7   8
ATOM      8  C   UNL     1      23.970  24.181  13.844  1.00  0.00     0.053 C 
BRANCH   8   9
ATOM      9  C   UNL     1      24.042  22.730  13.477  1.00  0.00     0.041 C 
ATOM     10  O   UNL     1      25.079  22.264  12.935  1.00  0.00    -0.550 OA
ATOM     11  O   UNL     1      22.980  21.885  13.771  1.00  0.00    -0.550 OA
ENDBRANCH   8   9
ENDBRANCH   7   8
ENDBRANCH   6   7
ENDBRANCH   5   6
ENDBRANCH   4   5
ENDBRANCH   3   4
ENDBRANCH   2   3
ENDBRANCH   1   2
BRANCH   1  12
ATOM     12  C   UNL     1      21.285  28.352  12.345  1.00  0.00     0.000 C 
BRANCH  12  13
ATOM     13  C   UNL     1      22.243  27.164  12.134  1.00  0.00    -0.000 C 
BRANCH  13  14
ATOM     14  C   UNL     1      23.730  27.531  11.982  1.00  0.00    -0.000 C 
BRANCH  14  15
ATOM     15  C   UNL     1      24.055  28.946  12.489  1.00  0.00    -0.000 C 
BRANCH  15  16
ATOM     16  C   UNL     1      24.601  28.956  13.928  1.00  0.00    -0.000 C 
BRANCH  16  17
ATOM     17  C   UNL     1      24.863  27.565  14.543  1.00  0.00    -0.000 C 
BRANCH  17  18
ATOM     18  C   UNL     1      25.828  27.551  15.745  1.00  0.00    -0.000 C 
BRANCH  18  19
ATOM     19  C   UNL     1      25.144  27.627  17.122  1.00  0.00    -0.003 C 
ATOM     20  C   UNL     1      24.930  29.062  17.602  1.00  0.00     0.004 C 
ENDBRANCH  18  19
ENDBRANCH  17  18
ENDBRANCH  16  17
ENDBRANCH  15  16
ENDBRANCH  14  15
ENDBRANCH  13  14
ENDBRANCH  12  13
ENDBRANCH   1  12
TORSDOF 16
ENDMDL
MODEL 2
REMARK VINA RESULT:    -1.370     21.042     23.629
REMARK INTER + INTRA:          -5.840
REMARK INTER:                  -2.676
REMARK INTRA:                  -3.164
REMARK UNBOUND:                -3.190
REMARK SMILES CCCCCCCCCCCCCCCCCC(=O)[O-]
REMARK SMILES IDX 10 1 11 2 12 3 13 4 14 5 15 6 16 7 17 8 18 9 19 10 20 11
REMARK SMILES IDX 9 12 8 13 7 14 6 15 5 16 4 17 3 18 2 19 1 20
REMARK H PARENT
REMARK Flexibility Score: inf
ROOT
ATOM      1  C   UNL     1      10.270  11.640  25.365  1.00  0.00     0.000 C 
ENDROOT
BRANCH   1   2
ATOM      2  C   UNL     1       8.980  10.820  25.169  1.00  0.00     0.000 C 
BRANCH   2   3
ATOM      3  C   UNL     1       8.541   9.984  26.385  1.00  0.00     0.000 C 
BRANCH   3   4
ATOM      4  C   UNL     1       7.095  10.266  26.818  1.00  0.00     0.000 C 
BRANCH   4   5
ATOM      5  C   UNL     1       7.033  11.450  27.791  1.00  0.00     0.000 C 
BRANCH   5   6
ATOM      6  C   UNL     1       6.160  12.579  27.229  1.00  0.00     0.000 C 
BRANCH   6   7
ATOM      7  C   UNL     1       7.023  13.754  26.747  1.00  0.00     0.006 C 
BRANCH   7   8
ATOM      8  C   UNL     1       6.313  15.104  26.916  1.00  0.00     0.053 C 
BRANCH   8   9
ATOM      9  C   UNL     1       7.052  16.008  27.855  1.00  0.00     0.041 C 
ATOM     10  O   UNL     1       8.004  15.562  28.546  1.00  0.00    -0.550 OA
ATOM     11  O   UNL     1       6.713  17.353  27.937  1.00  0.00    -0.550 OA
ENDBRANCH   8   9
ENDBRANCH   7   8
ENDBRANCH   6   7
ENDBRANCH   5   6
ENDBRANCH   4   5
ENDBRANCH   3   4
ENDBRANCH   2   3
ENDBRANCH   1   2
BRANCH   1  12
ATOM     12  C   UNL     1      10.426  12.182  26.796  1.00  0.00     0.000 C 
BRANCH  12  13
ATOM     13  C   UNL     1      10.732  13.691  26.838  1.00  0.00    -0.000 C 
BRANCH  13  14
ATOM     14  C   UNL     1      10.778  14.397  25.471  1.00  0.00    -0.000 C 
BRANCH  14  15
ATOM     15  C   UNL     1       9.908  15.664  25.420  1.00  0.00    -0.000 C 
BRANCH  15  16
ATOM     16  C   UNL     1       8.938  15.676  24.224  1.00  0.00    -0.000 C 
BRANCH  16  17
ATOM     17  C   UNL     1       8.702  14.307  23.553  1.00  0.00    -0.000 C 
BRANCH  17  18
ATOM     18  C   UNL     1       7.296  14.104  22.953  1.00  0.00    -0.000 C 
BRANCH  18  19
ATOM     19  C   UNL     1       6.931  12.641  22.645  1.00  0.00    -0.003 C 
ATOM     20  C   UNL     1       5.875  12.079  23.596  1.00  0.00     0.004 C 
ENDBRANCH  18  19
ENDBRANCH  17  18
ENDBRANCH  16  17
ENDBRANCH  15  16
ENDBRANCH  14  15
ENDBRANCH  13  14
ENDBRANCH  12  13
ENDBRANCH   1  12
TORSDOF 16
ENDMDL
MODEL 3
REMARK VINA RESULT:    -1.365      2.550      5.448
REMARK INTER + INTRA:          -5.832
REMARK INTER:                  -2.566
REMARK INTRA:                  -3.266
REMARK UNBOUND:                -3.190
REMARK SMILES CCCCCCCCCCCCCCCCCC(=O)[O-]
REMARK SMILES IDX 10 1 11 2 12 3 13 4 14 5 15 6 16 7 17 8 18 9 19 10 20 11
REMARK SMILES IDX 9 12 8 13 7 14 6 15 5 16 4 17 3 18 2 19 1 20
REMARK H PARENT
REMARK Flexibility Score: inf
ROOT
ATOM      1  C   UNL     1      24.385  25.633  16.172  1.00  0.00     0.000 C 
ENDROOT
BRANCH   1   2
ATOM      2  C   UNL     1      25.593  26.424  15.636  1.00  0.00     0.000 C 
BRANCH   2   3
ATOM      3  C   UNL     1      26.125  27.527  16.571  1.00  0.00     0.000 C 
BRANCH   3   4
ATOM      4  C   UNL     1      25.082  28.003  17.593  1.00  0.00     0.000 C 
BRANCH   4   5
ATOM      5  C   UNL     1      24.593  29.418  17.263  1.00  0.00     0.000 C 
BRANCH   5   6
ATOM      6  C   UNL     1      23.416  29.379  16.280  1.00  0.00     0.000 C 
BRANCH   6   7
ATOM      7  C   UNL     1      23.843  29.869  14.889  1.00  0.00     0.006 C 
BRANCH   7   8
ATOM      8  C   UNL     1      23.217  29.036  13.762  1.00  0.00     0.053 C 
BRANCH   8   9
ATOM      9  C   UNL     1      24.258  28.454  12.855  1.00  0.00     0.041 C 
ATOM     10  O   UNL     1      25.418  28.943  12.825  1.00  0.00    -0.550 OA
ATOM     11  O   UNL     1      23.959  27.346  12.073  1.00  0.00    -0.550 OA
ENDBRANCH   8   9
ENDBRANCH   7   8
ENDBRANCH   6   7
ENDBRANCH   5   6
ENDBRANCH   4   5
ENDBRANCH   3   4
ENDBRANCH   2   3
ENDBRANCH   1   2
BRANCH   1  12
ATOM     12  C   UNL     1      23.222  25.561  15.169  1.00  0.00     0.000 C 
BRANCH  12  13
ATOM     13  C   UNL     1      21.906  26.130  15.730  1.00  0.00    -0.000 C 
BRANCH  13  14
ATOM     14  C   UNL     1      21.077  25.158  16.590  1.00  0.00    -0.000 C 
BRANCH  14  15
ATOM     15  C   UNL     1      20.602  25.782  17.913  1.00  0.00    -0.000 C 
BRANCH  15  16
ATOM     16  C   UNL     1      21.754  26.387  18.738  1.00  0.00    -0.000 C 
BRANCH  16  17
ATOM     17  C   UNL     1      21.596  27.879  19.095  1.00  0.00    -0.000 C 
BRANCH  17  18
ATOM     18  C   UNL     1      20.194  28.470  18.842  1.00  0.00    -0.000 C 
BRANCH  18  19
ATOM     19  C   UNL     1      20.146  29.587  17.784  1.00  0.00    -0.003 C 
ATOM     20  C   UNL     1      19.674  29.092  16.418  1.00  0.00     0.004 C 
ENDBRANCH  18  19
ENDBRANCH  17  18
ENDBRANCH  16  17
ENDBRANCH  15  16
ENDBRANCH  14  15
ENDBRANCH  13  14
ENDBRANCH  12  13
ENDBRANCH   1  12
TORSDOF 16
ENDMDL
MODEL 4
REMARK VINA RESULT:    -1.349      1.677      3.939
REMARK INTER + INTRA:          -5.801
REMARK INTER:                  -2.846
REMARK INTRA:                  -2.954
REMARK UNBOUND:                -3.190
REMARK SMILES CCCCCCCCCCCCCCCCCC(=O)[O-]
REMARK SMILES IDX 10 1 11 2 12 3 13 4 14 5 15 6 16 7 17 8 18 9 19 10 20 11
REMARK SMILES IDX 9 12 8 13 7 14 6 15 5 16 4 17 3 18 2 19 1 20
REMARK H PARENT
REMARK Flexibility Score: inf
ROOT
ATOM      1  C   UNL     1      21.984  25.971  18.393  1.00  0.00     0.000 C 
ENDROOT
BRANCH   1   2
ATOM      2  C   UNL     1      22.168  27.103  17.365  1.00  0.00     0.000 C 
BRANCH   2   3
ATOM      3  C   UNL     1      21.622  26.807  15.956  1.00  0.00     0.000 C 
BRANCH   3   4
ATOM      4  C   UNL     1      22.285  25.588  15.297  1.00  0.00     0.000 C 
BRANCH   4   5
ATOM      5  C   UNL     1      22.314  25.736  13.771  1.00  0.00     0.000 C 
BRANCH   5   6
ATOM      6  C   UNL     1      23.602  25.143  13.186  1.00  0.00     0.000 C 
BRANCH   6   7
ATOM      7  C   UNL     1      23.557  23.608  13.195  1.00  0.00     0.006 C 
BRANCH   7   8
ATOM      8  C   UNL     1      24.519  23.004  14.227  1.00  0.00     0.053 C 
BRANCH   8   9
ATOM      9  C   UNL     1      25.346  21.902  13.638  1.00  0.00     0.041 C 
ATOM     10  O   UNL     1      25.372  21.725  12.393  1.00  0.00    -0.550 OA
ATOM     11  O   UNL     1      26.121  21.097  14.464  1.00  0.00    -0.550 OA
ENDBRANCH   8   9
ENDBRANCH   7   8
ENDBRANCH   6   7
ENDBRANCH   5   6
ENDBRANCH   4   5
ENDBRANCH   3   4
ENDBRANCH   2   3
ENDBRANCH   1   2
BRANCH   1  12
ATOM     12  C   UNL     1      23.310  25.304  18.797  1.00  0.00     0.000 C 
BRANCH  12  13
ATOM     13  C   UNL     1      24.546  26.039  18.247  1.00  0.00    -0.000 C 
BRANCH  13  14
ATOM     14  C   UNL     1      25.536  25.169  17.452  1.00  0.00    -0.000 C 
BRANCH  14  15
ATOM     15  C   UNL     1      25.948  25.799  16.110  1.00  0.00    -0.000 C 
BRANCH  15  16
ATOM     16  C   UNL     1      25.789  27.331  16.095  1.00  0.00    -0.000 C 
BRANCH  16  17
ATOM     17  C   UNL     1      25.426  27.942  14.726  1.00  0.00    -0.000 C 
BRANCH  17  18
ATOM     18  C   UNL     1      24.240  28.926  14.741  1.00  0.00    -0.000 C 
BRANCH  18  19
ATOM     19  C   UNL     1      23.628  29.221  13.359  1.00  0.00    -0.003 C 
ATOM     20  C   UNL     1      24.497  28.723  12.206  1.00  0.00     0.004 C 
ENDBRANCH  18  19
ENDBRANCH  17  18
ENDBRANCH  16  17
ENDBRANCH  15  16
ENDBRANCH  14  15
ENDBRANCH  13  14
ENDBRANCH  12  13
ENDBRANCH   1  12
TORSDOF 16
ENDMDL
MODEL 5
REMARK VINA RESULT:    -1.347      1.877      3.748
REMARK INTER + INTRA:          -5.797
REMARK INTER:                  -2.626
REMARK INTRA:                  -3.172
REMARK UNBOUND:                -3.190
REMARK SMILES CCCCCCCCCCCCCCCCCC(=O)[O-]
REMARK SMILES IDX 10 1 11 2 12 3 13 4 14 5 15 6 16 7 17 8 18 9 19 10 20 11
REMARK SMILES IDX 9 12 8 13 7 14 6 15 5 16 4 17 3 18 2 19 1 20
REMARK H PARENT
REMARK Flexibility Score: inf
ROOT
ATOM      1  C   UNL     1      22.708  25.682  17.614  1.00  0.00     0.000 C 
ENDROOT
BRANCH   1   2
ATOM      2  C   UNL     1      23.867  25.896  18.607  1.00  0.00     0.000 C 
BRANCH   2   3
ATOM      3  C   UNL     1      25.271  25.587  18.056  1.00  0.00     0.000 C 
BRANCH   3   4
ATOM      4  C   UNL     1      25.789  26.664  17.090  1.00  0.00     0.000 C 
BRANCH   4   5
ATOM      5  C   UNL     1      25.885  26.120  15.660  1.00  0.00     0.000 C 
BRANCH   5   6
ATOM      6  C   UNL     1      26.098  24.602  15.662  1.00  0.00     0.000 C 
BRANCH   6   7
ATOM      7  C   UNL     1      25.102  23.905  14.722  1.00  0.00     0.006 C 
BRANCH   7   8
ATOM      8  C   UNL     1      24.805  22.463  15.155  1.00  0.00     0.053 C 
BRANCH   8   9
ATOM      9  C   UNL     1      23.810  22.412  16.274  1.00  0.00     0.041 C 
ATOM     10  O   UNL     1      22.578  22.496  16.030  1.00  0.00    -0.550 OA
ATOM     11  O   UNL     1      24.242  22.229  17.582  1.00  0.00    -0.550 OA
ENDBRANCH   8   9
ENDBRANCH   7   8
ENDBRANCH   6   7
ENDBRANCH   5   6
ENDBRANCH   4   5
ENDBRANCH   3   4
ENDBRANCH   2   3
ENDBRANCH   1   2
BRANCH   1  12
ATOM     12  C   UNL     1      21.992  26.989  17.235  1.00  0.00     0.000 C 
BRANCH  12  13
ATOM     13  C   UNL     1      21.477  26.994  15.784  1.00  0.00    -0.000 C 
BRANCH  13  14
ATOM     14  C   UNL     1      22.240  26.082  14.806  1.00  0.00    -0.000 C 
BRANCH  14  15
ATOM     15  C   UNL     1      22.178  26.577  13.351  1.00  0.00    -0.000 C 
BRANCH  15  16
ATOM     16  C   UNL     1      23.572  26.789  12.732  1.00  0.00    -0.000 C 
BRANCH  16  17
ATOM     17  C   UNL     1      23.984  28.262  12.527  1.00  0.00    -0.000 C 
BRANCH  17  18
ATOM     18  C   UNL     1      24.638  28.937  13.750  1.00  0.00    -0.000 C 
BRANCH  18  19
ATOM     19  C   UNL     1      23.680  29.779  14.611  1.00  0.00    -0.003 C 
ATOM     20  C   UNL     1      24.080  29.812  16.085  1.00  0.00     0.004 C 
ENDBRANCH  18  19
ENDBRANCH  17  18
ENDBRANCH  16  17
ENDBRANCH  15  16
ENDBRANCH  14  15
ENDBRANCH  13  14
ENDBRANCH  12  13
ENDBRANCH   1  12
TORSDOF 16
ENDMDL
MODEL 6
REMARK VINA RESULT:    -1.311      1.467      3.640
REMARK INTER + INTRA:          -5.727
REMARK INTER:                  -2.537
REMARK INTRA:                  -3.190
REMARK UNBOUND:                -3.190
REMARK SMILES CCCCCCCCCCCCCCCCCC(=O)[O-]
REMARK SMILES IDX 10 1 11 2 12 3 13 4 14 5 15 6 16 7 17 8 18 9 19 10 20 11
REMARK SMILES IDX 9 12 8 13 7 14 6 15 5 16 4 17 3 18 2 19 1 20
REMARK H PARENT
REMARK Flexibility Score: inf
ROOT
ATOM      1  C   UNL     1      24.257  29.383  13.583  1.00  0.00     0.000 C 
ENDROOT
BRANCH   1   2
ATOM      2  C   UNL     1      23.316  28.664  12.598  1.00  0.00     0.000 C 
BRANCH   2   3
ATOM      3  C   UNL     1      22.054  28.044  13.227  1.00  0.00     0.000 C 
BRANCH   3   4
ATOM      4  C   UNL     1      21.906  26.546  12.923  1.00  0.00     0.000 C 
BRANCH   4   5
ATOM      5  C   UNL     1      23.264  25.837  12.972  1.00  0.00     0.000 C 
BRANCH   5   6
ATOM      6  C   UNL     1      23.094  24.315  12.905  1.00  0.00     0.000 C 
BRANCH   6   7
ATOM      7  C   UNL     1      24.216  23.600  13.673  1.00  0.00     0.006 C 
BRANCH   7   8
ATOM      8  C   UNL     1      24.096  22.073  13.591  1.00  0.00     0.053 C 
BRANCH   8   9
ATOM      9  C   UNL     1      23.029  21.549  14.504  1.00  0.00     0.041 C 
ATOM     10  O   UNL     1      21.992  21.017  14.028  1.00  0.00    -0.550 OA
ATOM     11  O   UNL     1      23.200  21.611  15.881  1.00  0.00    -0.550 OA
ENDBRANCH   8   9
ENDBRANCH   7   8
ENDBRANCH   6   7
ENDBRANCH   5   6
ENDBRANCH   4   5
ENDBRANCH   3   4
ENDBRANCH   2   3
ENDBRANCH   1   2
BRANCH   1  12
ATOM     12  C   UNL     1      23.804  29.259  15.047  1.00  0.00     0.000 C 
BRANCH  12  13
ATOM     13  C   UNL     1      24.843  28.559  15.943  1.00  0.00    -0.000 C 
BRANCH  13  14
ATOM     14  C   UNL     1      25.704  27.489  15.247  1.00  0.00    -0.000 C 
BRANCH  14  15
ATOM     15  C   UNL     1      25.620  26.113  15.929  1.00  0.00    -0.000 C 
BRANCH  15  16
ATOM     16  C   UNL     1      24.626  26.087  17.105  1.00  0.00    -0.000 C 
BRANCH  16  17
ATOM     17  C   UNL     1      23.618  24.919  17.090  1.00  0.00    -0.000 C 
BRANCH  17  18
ATOM     18  C   UNL     1      22.251  25.241  16.454  1.00  0.00    -0.000 C 
BRANCH  18  19
ATOM     19  C   UNL     1      21.720  26.655  16.746  1.00  0.00    -0.003 C 
ATOM     20  C   UNL     1      20.276  26.855  16.285  1.00  0.00     0.004 C 
ENDBRANCH  18  19
ENDBRANCH  17  18
ENDBRANCH  16  17
ENDBRANCH  15  16
ENDBRANCH  14  15
ENDBRANCH  13  14
ENDBRANCH  12  13
ENDBRANCH   1  12
TORSDOF 16
ENDMDL
MODEL 7
REMARK VINA RESULT:    -1.240     20.964     23.363
REMARK INTER + INTRA:          -5.589
REMARK INTER:                  -2.467
REMARK INTRA:                  -3.122
REMARK UNBOUND:                -3.190
REMARK SMILES CCCCCCCCCCCCCCCCCC(=O)[O-]
REMARK SMILES IDX 10 1 11 2 12 3 13 4 14 5 15 6 16 7 17 8 18 9 19 10 20 11
REMARK SMILES IDX 9 12 8 13 7 14 6 15 5 16 4 17 3 18 2 19 1 20
REMARK H PARENT
REMARK Flexibility Score: inf
ROOT
ATOM      1  C   UNL     1       8.935  14.925  23.198  1.00  0.00     0.000 C 
ENDROOT
BRANCH   1   2
ATOM      2  C   UNL     1       8.169  13.592  23.291  1.00  0.00     0.000 C 
BRANCH   2   3
ATOM      3  C   UNL     1       6.639  13.701  23.152  1.00  0.00     0.000 C 
BRANCH   3   4
ATOM      4  C   UNL     1       5.888  13.258  24.417  1.00  0.00     0.000 C 
BRANCH   4   5
ATOM      5  C   UNL     1       6.779  12.386  25.309  1.00  0.00     0.000 C 
BRANCH   5   6
ATOM      6  C   UNL     1       6.170  10.992  25.500  1.00  0.00     0.000 C 
BRANCH   6   7
ATOM      7  C   UNL     1       6.697  10.331  26.783  1.00  0.00     0.006 C 
BRANCH   7   8
ATOM      8  C   UNL     1       7.639  11.254  27.568  1.00  0.00     0.053 C 
BRANCH   8   9
ATOM      9  C   UNL     1       8.999  10.648  27.736  1.00  0.00     0.041 C 
ATOM     10  O   UNL     1       9.325  10.115  28.829  1.00  0.00    -0.550 OA
ATOM     11  O   UNL     1       9.892  10.636  26.671  1.00  0.00    -0.550 OA
ENDBRANCH   8   9
ENDBRANCH   7   8
ENDBRANCH   6   7
ENDBRANCH   5   6
ENDBRANCH   4   5
ENDBRANCH   3   4
ENDBRANCH   2   3
ENDBRANCH   1   2
BRANCH   1  12
ATOM     12  C   UNL     1       9.870  15.165  24.395  1.00  0.00     0.000 C 
BRANCH  12  13
ATOM     13  C   UNL     1       9.985  13.942  25.324  1.00  0.00    -0.000 C 
BRANCH  13  14
ATOM     14  C   UNL     1      10.003  14.255  26.832  1.00  0.00    -0.000 C 
BRANCH  14  15
ATOM     15  C   UNL     1       9.086  15.429  27.213  1.00  0.00    -0.000 C 
BRANCH  15  16
ATOM     16  C   UNL     1       7.808  14.978  27.943  1.00  0.00    -0.000 C 
BRANCH  16  17
ATOM     17  C   UNL     1       6.483  15.401  27.276  1.00  0.00    -0.000 C 
BRANCH  17  18
ATOM     18  C   UNL     1       6.465  16.832  26.703  1.00  0.00    -0.000 C 
BRANCH  18  19
ATOM     19  C   UNL     1       6.331  16.913  25.171  1.00  0.00    -0.003 C 
ATOM     20  C   UNL     1       7.306  17.906  24.541  1.00  0.00     0.004 C 
ENDBRANCH  18  19
ENDBRANCH  17  18
ENDBRANCH  16  17
ENDBRANCH  15  16
ENDBRANCH  14  15
ENDBRANCH  13  14
ENDBRANCH  12  13
ENDBRANCH   1  12
TORSDOF 16
ENDMDL
MODEL 8
REMARK VINA RESULT:    -1.231      2.160      3.216
REMARK INTER + INTRA:          -5.572
REMARK INTER:                  -2.786
REMARK INTRA:                  -2.786
REMARK UNBOUND:                -3.190
REMARK SMILES CCCCCCCCCCCCCCCCCC(=O)[O-]
REMARK SMILES IDX 10 1 11 2 12 3 13 4 14 5 15 6 16 7 17 8 18 9 19 10 20 11
REMARK SMILES IDX 9 12 8 13 7 14 6 15 5 16 4 17 3 18 2 19 1 20
REMARK H PARENT
REMARK Flexibility Score: inf
ROOT
ATOM      1  C   UNL     1      21.922  26.375  15.171  1.00  0.00     0.000 C 
ENDROOT
BRANCH   1   2
ATOM      2  C   UNL     1      22.131  25.572  13.873  1.00  0.00     0.000 C 
BRANCH   2   3
ATOM      3  C   UNL     1      23.525  24.939  13.707  1.00  0.00     0.000 C 
BRANCH   3   4
ATOM      4  C   UNL     1      23.963  24.120  14.931  1.00  0.00     0.000 C 
BRANCH   4   5
ATOM      5  C   UNL     1      25.462  23.805  14.874  1.00  0.00     0.000 C 
BRANCH   5   6
ATOM      6  C   UNL     1      25.936  23.145  16.174  1.00  0.00     0.000 C 
BRANCH   6   7
ATOM      7  C   UNL     1      25.957  21.615  16.039  1.00  0.00     0.006 C 
BRANCH   7   8
ATOM      8  C   UNL     1      26.125  21.161  14.583  1.00  0.00     0.053 C 
BRANCH   8   9
ATOM      9  C   UNL     1      25.470  19.836  14.334  1.00  0.00     0.041 C 
ATOM     10  O   UNL     1      25.023  19.555  13.191  1.00  0.00    -0.550 OA
ATOM     11  O   UNL     1      25.392  18.896  15.354  1.00  0.00    -0.550 OA
ENDBRANCH   8   9
ENDBRANCH   7   8
ENDBRANCH   6   7
ENDBRANCH   5   6
ENDBRANCH   4   5
ENDBRANCH   3   4
ENDBRANCH   2   3
ENDBRANCH   1   2
BRANCH   1  12
ATOM     12  C   UNL     1      21.537  27.841  14.915  1.00  0.00     0.000 C 
BRANCH  12  13
ATOM     13  C   UNL     1      22.517  28.566  13.974  1.00  0.00    -0.000 C 
BRANCH  13  14
ATOM     14  C   UNL     1      23.823  29.055  14.626  1.00  0.00    -0.000 C 
BRANCH  14  15
ATOM     15  C   UNL     1      25.064  28.294  14.129  1.00  0.00    -0.000 C 
BRANCH  15  16
ATOM     16  C   UNL     1      25.756  27.486  15.242  1.00  0.00    -0.000 C 
BRANCH  16  17
ATOM     17  C   UNL     1      25.189  27.699  16.661  1.00  0.00    -0.000 C 
BRANCH  17  18
ATOM     18  C   UNL     1      25.158  26.440  17.550  1.00  0.00    -0.000 C 
BRANCH  18  19
ATOM     19  C   UNL     1      23.850  26.237  18.336  1.00  0.00    -0.003 C 
ATOM     20  C   UNL     1      23.040  27.524  18.485  1.00  0.00     0.004 C 
ENDBRANCH  18  19
ENDBRANCH  17  18
ENDBRANCH  16  17
ENDBRANCH  15  16
ENDBRANCH  14  15
ENDBRANCH  13  14
ENDBRANCH  12  13
ENDBRANCH   1  12
TORSDOF 16
ENDMDL
MODEL 9
REMARK VINA RESULT:    -1.221      1.733      4.238
REMARK INTER + INTRA:          -5.553
REMARK INTER:                  -2.527
REMARK INTRA:                  -3.026
REMARK UNBOUND:                -3.190
REMARK SMILES CCCCCCCCCCCCCCCCCC(=O)[O-]
REMARK SMILES IDX 10 1 11 2 12 3 13 4 14 5 15 6 16 7 17 8 18 9 19 10 20 11
REMARK SMILES IDX 9 12 8 13 7 14 6 15 5 16 4 17 3 18 2 19 1 20
REMARK H PARENT
REMARK Flexibility Score: inf
ROOT
ATOM      1  C   UNL     1      25.414  27.164  15.882  1.00  0.00     0.000 C 
ENDROOT
BRANCH   1   2
ATOM      2  C   UNL     1      26.125  25.803  16.005  1.00  0.00     0.000 C 
BRANCH   2   3
ATOM      3  C   UNL     1      25.634  24.905  17.157  1.00  0.00     0.000 C 
BRANCH   3   4
ATOM      4  C   UNL     1      25.093  23.551  16.676  1.00  0.00     0.000 C 
BRANCH   4   5
ATOM      5  C   UNL     1      25.320  23.372  15.170  1.00  0.00     0.000 C 
BRANCH   5   6
ATOM      6  C   UNL     1      24.198  22.538  14.540  1.00  0.00     0.000 C 
BRANCH   6   7
ATOM      7  C   UNL     1      24.254  22.607  13.007  1.00  0.00     0.006 C 
BRANCH   7   8
ATOM      8  C   UNL     1      22.872  22.843  12.384  1.00  0.00     0.053 C 
BRANCH   8   9
ATOM      9  C   UNL     1      21.900  21.767  12.762  1.00  0.00     0.041 C 
ATOM     10  O   UNL     1      20.835  22.059  13.366  1.00  0.00    -0.550 OA
ATOM     11  O   UNL     1      22.152  20.447  12.410  1.00  0.00    -0.550 OA
ENDBRANCH   8   9
ENDBRANCH   7   8
ENDBRANCH   6   7
ENDBRANCH   5   6
ENDBRANCH   4   5
ENDBRANCH   3   4
ENDBRANCH   2   3
ENDBRANCH   1   2
BRANCH   1  12
ATOM     12  C   UNL     1      24.322  27.370  16.945  1.00  0.00     0.000 C 
BRANCH  12  13
ATOM     13  C   UNL     1      22.899  27.359  16.355  1.00  0.00    -0.000 C 
BRANCH  13  14
ATOM     14  C   UNL     1      22.216  25.981  16.297  1.00  0.00    -0.000 C 
BRANCH  14  15
ATOM     15  C   UNL     1      22.109  25.423  14.868  1.00  0.00    -0.000 C 
BRANCH  15  16
ATOM     16  C   UNL     1      22.220  26.515  13.789  1.00  0.00    -0.000 C 
BRANCH  16  17
ATOM     17  C   UNL     1      23.496  26.460  12.924  1.00  0.00    -0.000 C 
BRANCH  17  18
ATOM     18  C   UNL     1      23.753  27.706  12.053  1.00  0.00    -0.000 C 
BRANCH  18  19
ATOM     19  C   UNL     1      24.677  28.760  12.689  1.00  0.00    -0.003 C 
ATOM     20  C   UNL     1      23.929  29.736  13.597  1.00  0.00     0.004 C 
ENDBRANCH  18  19
ENDBRANCH  17  18
ENDBRANCH  16  17
ENDBRANCH  15  16
ENDBRANCH  14  15
ENDBRANCH  13  14
ENDBRANCH  12  13
ENDBRANCH   1  12
TORSDOF 16
ENDMDL
