MODEL 1
REMARK VINA RESULT:    -5.572      0.000      0.000
REMARK INTER + INTRA:          -6.958
REMARK INTER:                  -6.713
REMARK INTRA:                  -0.246
REMARK UNBOUND:                -0.246
REMARK SMILES O=c1c(O)c(-c2ccc(O)c(O)c2)oc2cc(O)cc(O)c12
REMARK SMILES IDX 5 1 3 2 2 3 1 4 22 5 20 6 19 7 17 8 16 9 15 10 14 11 6 12
REMARK SMILES IDX 7 13 8 14 9 15 13 16 11 17 10 18 12 20 4 22 21 24 18 26
REMARK H PARENT 10 19 12 21 4 23 21 25 18 27
REMARK Flexibility Score: inf
ROOT
ATOM      1  C   UNL     1      28.115  39.405  30.378  1.00  0.00     0.180 A 
ATOM      2  C   UNL     1      28.112  38.285  31.230  1.00  0.00     0.208 A 
ATOM      3  C   UNL     1      26.988  38.052  32.038  1.00  0.00     0.238 A 
ATOM      4  O   UNL     1      26.979  37.057  32.814  1.00  0.00    -0.285 OA
ATOM      5  C   UNL     1      25.884  38.925  31.967  1.00  0.00     0.111 A 
ATOM      6  C   UNL     1      24.712  38.758  32.744  1.00  0.00     0.134 A 
ATOM      7  C   UNL     1      23.652  39.665  32.608  1.00  0.00     0.093 A 
ATOM      8  C   UNL     1      23.739  40.734  31.713  1.00  0.00     0.123 A 
ATOM      9  C   UNL     1      24.894  40.904  30.942  1.00  0.00     0.094 A 
ATOM     10  C   UNL     1      25.962  40.012  31.064  1.00  0.00     0.146 A 
ATOM     11  O   UNL     1      27.049  40.200  30.326  1.00  0.00    -0.452 OA
ENDROOT
BRANCH   1  12
ATOM     12  C   UNL     1      29.270  39.730  29.510  1.00  0.00     0.025 A 
ATOM     13  C   UNL     1      30.448  40.231  30.087  1.00  0.00     0.016 A 
ATOM     14  C   UNL     1      31.557  40.526  29.290  1.00  0.00     0.051 A 
ATOM     15  C   UNL     1      31.512  40.311  27.909  1.00  0.00     0.157 A 
ATOM     16  C   UNL     1      29.234  39.495  28.123  1.00  0.00     0.062 A 
ATOM     17  C   UNL     1      30.347  39.789  27.322  1.00  0.00     0.158 A 
BRANCH  15  18
ATOM     18  O   UNL     1      32.634  40.617  27.138  1.00  0.00    -0.504 OA
ATOM     19  H   UNL     1      33.343  41.266  27.458  1.00  0.00     0.293 HD
ENDBRANCH  15  18
BRANCH  17  20
ATOM     20  O   UNL     1      30.302  39.558  25.948  1.00  0.00    -0.504 OA
ATOM     21  H   UNL     1      30.731  38.739  25.533  1.00  0.00     0.293 HD
ENDBRANCH  17  20
ENDBRANCH   1  12
BRANCH   2  22
ATOM     22  O   UNL     1      29.199  37.407  31.247  1.00  0.00    -0.502 OA
ATOM     23  H   UNL     1      30.140  37.704  31.026  1.00  0.00     0.293 HD
ENDBRANCH   2  22
BRANCH   6  24
ATOM     24  O   UNL     1      24.594  37.700  33.647  1.00  0.00    -0.507 OA
ATOM     25  H   UNL     1      23.799  37.618  34.270  1.00  0.00     0.293 HD
ENDBRANCH   6  24
BRANCH   8  26
ATOM     26  O   UNL     1      22.671  41.621  31.596  1.00  0.00    -0.508 OA
ATOM     27  H   UNL     1      21.735  41.297  31.382  1.00  0.00     0.293 HD
ENDBRANCH   8  26
TORSDOF 6
ENDMDL
MODEL 2
REMARK VINA RESULT:    -5.521      3.721      7.635
REMARK INTER + INTRA:          -6.896
REMARK INTER:                  -6.652
REMARK INTRA:                  -0.245
REMARK UNBOUND:                -0.246
REMARK SMILES O=c1c(O)c(-c2ccc(O)c(O)c2)oc2cc(O)cc(O)c12
REMARK SMILES IDX 5 1 3 2 2 3 1 4 22 5 20 6 19 7 17 8 16 9 15 10 14 11 6 12
REMARK SMILES IDX 7 13 8 14 9 15 13 16 11 17 10 18 12 20 4 22 21 24 18 26
REMARK H PARENT 10 19 12 21 4 23 21 25 18 27
REMARK Flexibility Score: inf
ROOT
ATOM      1  C   UNL     1      26.771  37.656  34.559  1.00  0.00     0.180 A 
ATOM      2  C   UNL     1      25.559  38.307  34.261  1.00  0.00     0.208 A 
ATOM      3  C   UNL     1      25.419  38.944  33.017  1.00  0.00     0.238 A 
ATOM      4  O   UNL     1      24.341  39.539  32.743  1.00  0.00    -0.285 OA
ATOM      5  C   UNL     1      26.480  38.903  32.090  1.00  0.00     0.111 A 
ATOM      6  C   UNL     1      26.418  39.514  30.814  1.00  0.00     0.134 A 
ATOM      7  C   UNL     1      27.513  39.420  29.944  1.00  0.00     0.093 A 
ATOM      8  C   UNL     1      28.667  38.728  30.322  1.00  0.00     0.123 A 
ATOM      9  C   UNL     1      28.733  38.121  31.580  1.00  0.00     0.094 A 
ATOM     10  C   UNL     1      27.653  38.205  32.463  1.00  0.00     0.146 A 
ATOM     11  O   UNL     1      27.745  37.625  33.654  1.00  0.00    -0.452 OA
ENDROOT
BRANCH   1  12
ATOM     12  C   UNL     1      27.002  36.980  35.855  1.00  0.00     0.025 A 
ATOM     13  C   UNL     1      27.128  35.582  35.892  1.00  0.00     0.016 A 
ATOM     14  C   UNL     1      27.366  34.924  37.101  1.00  0.00     0.051 A 
ATOM     15  C   UNL     1      27.498  35.652  38.288  1.00  0.00     0.157 A 
ATOM     16  C   UNL     1      27.156  37.711  37.047  1.00  0.00     0.062 A 
ATOM     17  C   UNL     1      27.397  37.052  38.262  1.00  0.00     0.158 A 
BRANCH  15  18
ATOM     18  O   UNL     1      27.733  34.966  39.480  1.00  0.00    -0.504 OA
ATOM     19  H   UNL     1      26.978  34.592  40.042  1.00  0.00     0.293 HD
ENDBRANCH  15  18
BRANCH  17  20
ATOM     20  O   UNL     1      27.543  37.784  39.439  1.00  0.00    -0.504 OA
ATOM     21  H   UNL     1      27.591  37.330  40.344  1.00  0.00     0.293 HD
ENDBRANCH  17  20
ENDBRANCH   1  12
BRANCH   2  22
ATOM     22  O   UNL     1      24.504  38.292  35.177  1.00  0.00    -0.502 OA
ATOM     23  H   UNL     1      24.611  37.948  36.123  1.00  0.00     0.293 HD
ENDBRANCH   2  22
BRANCH   6  24
ATOM     24  O   UNL     1      25.281  40.213  30.407  1.00  0.00    -0.507 OA
ATOM     25  H   UNL     1      25.334  41.166  30.067  1.00  0.00     0.293 HD
ENDBRANCH   6  24
BRANCH   8  26
ATOM     26  O   UNL     1      29.741  38.649  29.437  1.00  0.00    -0.508 OA
ATOM     27  H   UNL     1      30.677  38.917  29.717  1.00  0.00     0.293 HD
ENDBRANCH   8  26
TORSDOF 6
ENDMDL
MODEL 3
REMARK VINA RESULT:    -5.433      1.936      7.638
REMARK INTER + INTRA:          -6.791
REMARK INTER:                  -6.484
REMARK INTRA:                  -0.307
REMARK UNBOUND:                -0.246
REMARK SMILES O=c1c(O)c(-c2ccc(O)c(O)c2)oc2cc(O)cc(O)c12
REMARK SMILES IDX 5 1 3 2 2 3 1 4 22 5 20 6 19 7 17 8 16 9 15 10 14 11 6 12
REMARK SMILES IDX 7 13 8 14 9 15 13 16 11 17 10 18 12 20 4 22 21 24 18 26
REMARK H PARENT 10 19 12 21 4 23 21 25 18 27
REMARK Flexibility Score: inf
ROOT
ATOM      1  C   UNL     1      29.962  39.465  28.803  1.00  0.00     0.180 A 
ATOM      2  C   UNL     1      30.983  40.361  29.172  1.00  0.00     0.208 A 
ATOM      3  C   UNL     1      31.990  40.661  28.242  1.00  0.00     0.238 A 
ATOM      4  O   UNL     1      32.916  41.455  28.566  1.00  0.00    -0.285 OA
ATOM      5  C   UNL     1      31.951  40.081  26.958  1.00  0.00     0.111 A 
ATOM      6  C   UNL     1      32.923  40.335  25.962  1.00  0.00     0.134 A 
ATOM      7  C   UNL     1      32.808  39.725  24.704  1.00  0.00     0.093 A 
ATOM      8  C   UNL     1      31.741  38.868  24.424  1.00  0.00     0.123 A 
ATOM      9  C   UNL     1      30.776  38.614  25.404  1.00  0.00     0.094 A 
ATOM     10  C   UNL     1      30.874  39.210  26.664  1.00  0.00     0.146 A 
ATOM     11  O   UNL     1      29.948  38.947  27.578  1.00  0.00    -0.452 OA
ENDROOT
BRANCH   1  12
ATOM     12  C   UNL     1      28.876  39.083  29.734  1.00  0.00     0.025 A 
ATOM     13  C   UNL     1      29.112  38.091  30.699  1.00  0.00     0.016 A 
ATOM     14  C   UNL     1      28.108  37.728  31.601  1.00  0.00     0.051 A 
ATOM     15  C   UNL     1      26.861  38.361  31.563  1.00  0.00     0.157 A 
ATOM     16  C   UNL     1      27.628  39.732  29.711  1.00  0.00     0.062 A 
ATOM     17  C   UNL     1      26.620  39.370  30.617  1.00  0.00     0.158 A 
BRANCH  15  18
ATOM     18  O   UNL     1      25.878  37.975  32.475  1.00  0.00    -0.504 OA
ATOM     19  H   UNL     1      25.166  38.618  32.800  1.00  0.00     0.293 HD
ENDBRANCH  15  18
BRANCH  17  20
ATOM     20  O   UNL     1      25.384  40.015  30.583  1.00  0.00    -0.504 OA
ATOM     21  H   UNL     1      24.772  40.030  31.391  1.00  0.00     0.293 HD
ENDBRANCH  17  20
ENDBRANCH   1  12
BRANCH   2  22
ATOM     22  O   UNL     1      30.974  40.962  30.434  1.00  0.00    -0.502 OA
ATOM     23  H   UNL     1      30.745  40.451  31.277  1.00  0.00     0.293 HD
ENDBRANCH   2  22
BRANCH   6  24
ATOM     24  O   UNL     1      34.002  41.185  26.211  1.00  0.00    -0.507 OA
ATOM     25  H   UNL     1      34.086  42.086  25.755  1.00  0.00     0.293 HD
ENDBRANCH   6  24
BRANCH   8  26
ATOM     26  O   UNL     1      31.648  38.275  23.166  1.00  0.00    -0.508 OA
ATOM     27  H   UNL     1      31.293  38.785  22.365  1.00  0.00     0.293 HD
ENDBRANCH   8  26
TORSDOF 6
ENDMDL
MODEL 4
REMARK VINA RESULT:    -5.396      3.926      7.480
REMARK INTER + INTRA:          -6.746
REMARK INTER:                  -6.462
REMARK INTRA:                  -0.283
REMARK UNBOUND:                -0.246
REMARK SMILES O=c1c(O)c(-c2ccc(O)c(O)c2)oc2cc(O)cc(O)c12
REMARK SMILES IDX 5 1 3 2 2 3 1 4 22 5 20 6 19 7 17 8 16 9 15 10 14 11 6 12
REMARK SMILES IDX 7 13 8 14 9 15 13 16 11 17 10 18 12 20 4 22 21 24 18 26
REMARK H PARENT 10 19 12 21 4 23 21 25 18 27
REMARK Flexibility Score: inf
ROOT
ATOM      1  C   UNL     1      27.681  37.199  34.627  1.00  0.00     0.180 A 
ATOM      2  C   UNL     1      28.877  36.919  33.939  1.00  0.00     0.208 A 
ATOM      3  C   UNL     1      29.034  37.402  32.630  1.00  0.00     0.238 A 
ATOM      4  O   UNL     1      30.097  37.148  31.999  1.00  0.00    -0.285 OA
ATOM      5  C   UNL     1      28.009  38.170  32.041  1.00  0.00     0.111 A 
ATOM      6  C   UNL     1      28.091  38.698  30.731  1.00  0.00     0.134 A 
ATOM      7  C   UNL     1      27.031  39.461  30.219  1.00  0.00     0.093 A 
ATOM      8  C   UNL     1      25.894  39.707  30.992  1.00  0.00     0.123 A 
ATOM      9  C   UNL     1      25.807  39.189  32.289  1.00  0.00     0.094 A 
ATOM     10  C   UNL     1      26.851  38.424  32.815  1.00  0.00     0.146 A 
ATOM     11  O   UNL     1      26.741  37.939  34.046  1.00  0.00    -0.452 OA
ENDROOT
BRANCH   1  12
ATOM     12  C   UNL     1      27.432  36.708  36.001  1.00  0.00     0.025 A 
ATOM     13  C   UNL     1      27.077  35.365  36.201  1.00  0.00     0.016 A 
ATOM     14  C   UNL     1      26.856  34.875  37.491  1.00  0.00     0.051 A 
ATOM     15  C   UNL     1      27.001  35.714  38.600  1.00  0.00     0.157 A 
ATOM     16  C   UNL     1      27.598  37.545  37.120  1.00  0.00     0.062 A 
ATOM     17  C   UNL     1      27.378  37.054  38.416  1.00  0.00     0.158 A 
BRANCH  15  18
ATOM     18  O   UNL     1      26.772  35.197  39.876  1.00  0.00    -0.504 OA
ATOM     19  H   UNL     1      27.445  35.298  40.625  1.00  0.00     0.293 HD
ENDBRANCH  15  18
BRANCH  17  20
ATOM     20  O   UNL     1      27.539  37.892  39.519  1.00  0.00    -0.504 OA
ATOM     21  H   UNL     1      27.984  37.568  40.370  1.00  0.00     0.293 HD
ENDBRANCH  17  20
ENDBRANCH   1  12
BRANCH   2  22
ATOM     22  O   UNL     1      29.899  36.197  34.561  1.00  0.00    -0.502 OA
ATOM     23  H   UNL     1      29.840  35.894  35.525  1.00  0.00     0.293 HD
ENDBRANCH   2  22
BRANCH   6  24
ATOM     24  O   UNL     1      29.214  38.470  29.933  1.00  0.00    -0.507 OA
ATOM     25  H   UNL     1      29.145  38.390  28.926  1.00  0.00     0.293 HD
ENDBRANCH   6  24
BRANCH   8  26
ATOM     26  O   UNL     1      24.855  40.470  30.462  1.00  0.00    -0.508 OA
ATOM     27  H   UNL     1      24.017  40.667  30.996  1.00  0.00     0.293 HD
ENDBRANCH   8  26
TORSDOF 6
ENDMDL
MODEL 5
REMARK VINA RESULT:    -5.363      3.478      6.415
REMARK INTER + INTRA:          -6.707
REMARK INTER:                  -6.993
REMARK INTRA:                   0.286
REMARK UNBOUND:                -0.246
REMARK SMILES O=c1c(O)c(-c2ccc(O)c(O)c2)oc2cc(O)cc(O)c12
REMARK SMILES IDX 5 1 3 2 2 3 1 4 22 5 20 6 19 7 17 8 16 9 15 10 14 11 6 12
REMARK SMILES IDX 7 13 8 14 9 15 13 16 11 17 10 18 12 20 4 22 21 24 18 26
REMARK H PARENT 10 19 12 21 4 23 21 25 18 27
REMARK Flexibility Score: inf
ROOT
ATOM      1  C   UNL     1      25.883  39.086  32.599  1.00  0.00     0.180 A 
ATOM      2  C   UNL     1      26.684  38.412  31.657  1.00  0.00     0.208 A 
ATOM      3  C   UNL     1      27.729  37.595  32.117  1.00  0.00     0.238 A 
ATOM      4  O   UNL     1      28.459  36.994  31.282  1.00  0.00    -0.285 OA
ATOM      5  C   UNL     1      27.943  37.450  33.503  1.00  0.00     0.111 A 
ATOM      6  C   UNL     1      28.970  36.643  34.049  1.00  0.00     0.134 A 
ATOM      7  C   UNL     1      29.113  36.543  35.440  1.00  0.00     0.093 A 
ATOM      8  C   UNL     1      28.250  37.232  36.295  1.00  0.00     0.123 A 
ATOM      9  C   UNL     1      27.232  38.031  35.763  1.00  0.00     0.094 A 
ATOM     10  C   UNL     1      27.075  38.145  34.379  1.00  0.00     0.146 A 
ATOM     11  O   UNL     1      26.105  38.914  33.899  1.00  0.00    -0.452 OA
ENDROOT
BRANCH   1  12
ATOM     12  C   UNL     1      24.775  39.980  32.193  1.00  0.00     0.025 A 
ATOM     13  C   UNL     1      23.726  40.231  33.091  1.00  0.00     0.016 A 
ATOM     14  C   UNL     1      22.680  41.087  32.737  1.00  0.00     0.051 A 
ATOM     15  C   UNL     1      22.675  41.717  31.488  1.00  0.00     0.157 A 
ATOM     16  C   UNL     1      24.778  40.631  30.946  1.00  0.00     0.062 A 
ATOM     17  C   UNL     1      23.729  41.492  30.589  1.00  0.00     0.158 A 
BRANCH  15  18
ATOM     18  O   UNL     1      21.615  42.564  31.162  1.00  0.00    -0.504 OA
ATOM     19  H   UNL     1      21.482  43.458  31.620  1.00  0.00     0.293 HD
ENDBRANCH  15  18
BRANCH  17  20
ATOM     20  O   UNL     1      23.737  42.128  29.348  1.00  0.00    -0.504 OA
ATOM     21  H   UNL     1      23.058  41.900  28.631  1.00  0.00     0.293 HD
ENDBRANCH  17  20
ENDBRANCH   1  12
BRANCH   2  22
ATOM     22  O   UNL     1      26.421  38.532  30.290  1.00  0.00    -0.502 OA
ATOM     23  H   UNL     1      25.594  38.995  29.935  1.00  0.00     0.293 HD
ENDBRANCH   2  22
BRANCH   6  24
ATOM     24  O   UNL     1      29.849  35.942  33.221  1.00  0.00    -0.507 OA
ATOM     25  H   UNL     1      30.806  36.245  33.081  1.00  0.00     0.293 HD
ENDBRANCH   6  24
BRANCH   8  26
ATOM     26  O   UNL     1      28.411  37.115  37.675  1.00  0.00    -0.508 OA
ATOM     27  H   UNL     1      28.675  37.910  38.246  1.00  0.00     0.293 HD
ENDBRANCH   8  26
TORSDOF 6
ENDMDL
MODEL 6
REMARK VINA RESULT:    -5.341      4.277      6.581
REMARK INTER + INTRA:          -6.680
REMARK INTER:                  -6.848
REMARK INTRA:                   0.167
REMARK UNBOUND:                -0.246
REMARK SMILES O=c1c(O)c(-c2ccc(O)c(O)c2)oc2cc(O)cc(O)c12
REMARK SMILES IDX 5 1 3 2 2 3 1 4 22 5 20 6 19 7 17 8 16 9 15 10 14 11 6 12
REMARK SMILES IDX 7 13 8 14 9 15 13 16 11 17 10 18 12 20 4 22 21 24 18 26
REMARK H PARENT 10 19 12 21 4 23 21 25 18 27
REMARK Flexibility Score: inf
ROOT
ATOM      1  C   UNL     1      25.392  39.427  34.227  1.00  0.00     0.180 A 
ATOM      2  C   UNL     1      25.834  39.309  32.896  1.00  0.00     0.208 A 
ATOM      3  C   UNL     1      25.101  39.940  31.879  1.00  0.00     0.238 A 
ATOM      4  O   UNL     1      25.483  39.832  30.681  1.00  0.00    -0.285 OA
ATOM      5  C   UNL     1      23.955  40.692  32.209  1.00  0.00     0.111 A 
ATOM      6  C   UNL     1      23.164  41.362  31.246  1.00  0.00     0.134 A 
ATOM      7  C   UNL     1      22.043  42.098  31.655  1.00  0.00     0.093 A 
ATOM      8  C   UNL     1      21.698  42.178  33.007  1.00  0.00     0.123 A 
ATOM      9  C   UNL     1      22.476  41.518  33.964  1.00  0.00     0.094 A 
ATOM     10  C   UNL     1      23.596  40.778  33.576  1.00  0.00     0.146 A 
ATOM     11  O   UNL     1      24.314  40.157  34.503  1.00  0.00    -0.452 OA
ENDROOT
BRANCH   1  12
ATOM     12  C   UNL     1      26.099  38.774  35.352  1.00  0.00     0.025 A 
ATOM     13  C   UNL     1      25.355  38.156  36.370  1.00  0.00     0.016 A 
ATOM     14  C   UNL     1      26.001  37.517  37.431  1.00  0.00     0.051 A 
ATOM     15  C   UNL     1      27.398  37.472  37.484  1.00  0.00     0.157 A 
ATOM     16  C   UNL     1      27.503  38.710  35.397  1.00  0.00     0.062 A 
ATOM     17  C   UNL     1      28.154  38.067  36.461  1.00  0.00     0.158 A 
BRANCH  15  18
ATOM     18  O   UNL     1      28.015  36.829  38.557  1.00  0.00    -0.504 OA
ATOM     19  H   UNL     1      28.583  37.331  39.229  1.00  0.00     0.293 HD
ENDBRANCH  15  18
BRANCH  17  20
ATOM     20  O   UNL     1      29.546  38.013  36.500  1.00  0.00    -0.504 OA
ATOM     21  H   UNL     1      30.036  37.186  36.824  1.00  0.00     0.293 HD
ENDBRANCH  17  20
ENDBRANCH   1  12
BRANCH   2  22
ATOM     22  O   UNL     1      27.001  38.599  32.600  1.00  0.00    -0.502 OA
ATOM     23  H   UNL     1      27.593  38.202  33.319  1.00  0.00     0.293 HD
ENDBRANCH   2  22
BRANCH   6  24
ATOM     24  O   UNL     1      23.482  41.302  29.888  1.00  0.00    -0.507 OA
ATOM     25  H   UNL     1      23.351  42.098  29.274  1.00  0.00     0.293 HD
ENDBRANCH   6  24
BRANCH   8  26
ATOM     26  O   UNL     1      20.580  42.917  33.388  1.00  0.00    -0.508 OA
ATOM     27  H   UNL     1      19.941  43.303  32.703  1.00  0.00     0.293 HD
ENDBRANCH   8  26
TORSDOF 6
ENDMDL
MODEL 7
REMARK VINA RESULT:    -5.317      4.623      8.338
REMARK INTER + INTRA:          -6.651
REMARK INTER:                  -6.392
REMARK INTRA:                  -0.260
REMARK UNBOUND:                -0.246
REMARK SMILES O=c1c(O)c(-c2ccc(O)c(O)c2)oc2cc(O)cc(O)c12
REMARK SMILES IDX 5 1 3 2 2 3 1 4 22 5 20 6 19 7 17 8 16 9 15 10 14 11 6 12
REMARK SMILES IDX 7 13 8 14 9 15 13 16 11 17 10 18 12 20 4 22 21 24 18 26
REMARK H PARENT 10 19 12 21 4 23 21 25 18 27
REMARK Flexibility Score: inf
ROOT
ATOM      1  C   UNL     1      26.070  37.725  36.153  1.00  0.00     0.180 A 
ATOM      2  C   UNL     1      26.584  36.739  35.290  1.00  0.00     0.208 A 
ATOM      3  C   UNL     1      26.647  37.009  33.914  1.00  0.00     0.238 A 
ATOM      4  O   UNL     1      27.096  36.129  33.129  1.00  0.00    -0.285 OA
ATOM      5  C   UNL     1      26.216  38.261  33.428  1.00  0.00     0.111 A 
ATOM      6  C   UNL     1      26.251  38.614  32.058  1.00  0.00     0.134 A 
ATOM      7  C   UNL     1      25.813  39.884  31.654  1.00  0.00     0.093 A 
ATOM      8  C   UNL     1      25.342  40.806  32.593  1.00  0.00     0.123 A 
ATOM      9  C   UNL     1      25.307  40.463  33.949  1.00  0.00     0.094 A 
ATOM     10  C   UNL     1      25.736  39.202  34.370  1.00  0.00     0.146 A 
ATOM     11  O   UNL     1      25.687  38.900  35.662  1.00  0.00    -0.452 OA
ENDROOT
BRANCH   1  12
ATOM     12  C   UNL     1      25.953  37.508  37.613  1.00  0.00     0.025 A 
ATOM     13  C   UNL     1      24.697  37.220  38.170  1.00  0.00     0.016 A 
ATOM     14  C   UNL     1      24.566  36.993  39.542  1.00  0.00     0.051 A 
ATOM     15  C   UNL     1      25.688  37.033  40.376  1.00  0.00     0.157 A 
ATOM     16  C   UNL     1      27.083  37.528  38.451  1.00  0.00     0.062 A 
ATOM     17  C   UNL     1      26.954  37.298  39.828  1.00  0.00     0.158 A 
BRANCH  15  18
ATOM     18  O   UNL     1      25.526  36.804  41.743  1.00  0.00    -0.504 OA
ATOM     19  H   UNL     1      26.270  36.977  42.408  1.00  0.00     0.293 HD
ENDBRANCH  15  18
BRANCH  17  20
ATOM     20  O   UNL     1      28.079  37.325  40.652  1.00  0.00    -0.504 OA
ATOM     21  H   UNL     1      28.611  36.485  40.851  1.00  0.00     0.293 HD
ENDBRANCH  17  20
ENDBRANCH   1  12
BRANCH   2  22
ATOM     22  O   UNL     1      27.051  35.525  35.801  1.00  0.00    -0.502 OA
ATOM     23  H   UNL     1      27.476  34.817  35.216  1.00  0.00     0.293 HD
ENDBRANCH   2  22
BRANCH   6  24
ATOM     24  O   UNL     1      26.715  37.715  31.096  1.00  0.00    -0.507 OA
ATOM     25  H   UNL     1      26.908  36.746  31.321  1.00  0.00     0.293 HD
ENDBRANCH   6  24
BRANCH   8  26
ATOM     26  O   UNL     1      24.914  42.062  32.167  1.00  0.00    -0.508 OA
ATOM     27  H   UNL     1      25.036  42.886  32.743  1.00  0.00     0.293 HD
ENDBRANCH   8  26
TORSDOF 6
ENDMDL
MODEL 8
REMARK VINA RESULT:    -5.253      3.702      7.139
REMARK INTER + INTRA:          -6.574
REMARK INTER:                  -6.397
REMARK INTRA:                  -0.177
REMARK UNBOUND:                -0.246
REMARK SMILES O=c1c(O)c(-c2ccc(O)c(O)c2)oc2cc(O)cc(O)c12
REMARK SMILES IDX 5 1 3 2 2 3 1 4 22 5 20 6 19 7 17 8 16 9 15 10 14 11 6 12
REMARK SMILES IDX 7 13 8 14 9 15 13 16 11 17 10 18 12 20 4 22 21 24 18 26
REMARK H PARENT 10 19 12 21 4 23 21 25 18 27
REMARK Flexibility Score: inf
ROOT
ATOM      1  C   UNL     1      26.534  37.869  34.702  1.00  0.00     0.180 A 
ATOM      2  C   UNL     1      27.444  37.864  33.628  1.00  0.00     0.208 A 
ATOM      3  C   UNL     1      27.101  38.538  32.446  1.00  0.00     0.238 A 
ATOM      4  O   UNL     1      27.905  38.532  31.473  1.00  0.00    -0.285 OA
ATOM      5  C   UNL     1      25.870  39.219  32.363  1.00  0.00     0.111 A 
ATOM      6  C   UNL     1      25.451  39.926  31.210  1.00  0.00     0.134 A 
ATOM      7  C   UNL     1      24.214  40.587  31.209  1.00  0.00     0.093 A 
ATOM      8  C   UNL     1      23.389  40.555  32.336  1.00  0.00     0.123 A 
ATOM      9  C   UNL     1      23.798  39.858  33.479  1.00  0.00     0.094 A 
ATOM     10  C   UNL     1      25.026  39.192  33.499  1.00  0.00     0.146 A 
ATOM     11  O   UNL     1      25.387  38.534  34.594  1.00  0.00    -0.452 OA
ENDROOT
BRANCH   1  12
ATOM     12  C   UNL     1      26.813  37.165  35.974  1.00  0.00     0.025 A 
ATOM     13  C   UNL     1      26.913  35.764  35.980  1.00  0.00     0.016 A 
ATOM     14  C   UNL     1      27.196  35.080  37.165  1.00  0.00     0.051 A 
ATOM     15  C   UNL     1      27.399  35.784  38.357  1.00  0.00     0.157 A 
ATOM     16  C   UNL     1      27.039  37.871  37.169  1.00  0.00     0.062 A 
ATOM     17  C   UNL     1      27.325  37.186  38.359  1.00  0.00     0.158 A 
BRANCH  15  18
ATOM     18  O   UNL     1      27.678  35.073  39.525  1.00  0.00    -0.504 OA
ATOM     19  H   UNL     1      28.576  34.631  39.683  1.00  0.00     0.293 HD
ENDBRANCH  15  18
BRANCH  17  20
ATOM     20  O   UNL     1      27.541  37.894  39.541  1.00  0.00    -0.504 OA
ATOM     21  H   UNL     1      26.814  37.993  40.240  1.00  0.00     0.293 HD
ENDBRANCH  17  20
ENDBRANCH   1  12
BRANCH   2  22
ATOM     22  O   UNL     1      28.680  37.223  33.752  1.00  0.00    -0.502 OA
ATOM     23  H   UNL     1      29.305  37.395  34.530  1.00  0.00     0.293 HD
ENDBRANCH   2  22
BRANCH   6  24
ATOM     24  O   UNL     1      26.252  39.977  30.068  1.00  0.00    -0.507 OA
ATOM     25  H   UNL     1      27.254  40.117  30.125  1.00  0.00     0.293 HD
ENDBRANCH   6  24
BRANCH   8  26
ATOM     26  O   UNL     1      22.165  41.221  32.311  1.00  0.00    -0.508 OA
ATOM     27  H   UNL     1      22.109  42.229  32.396  1.00  0.00     0.293 HD
ENDBRANCH   8  26
TORSDOF 6
ENDMDL
MODEL 9
REMARK VINA RESULT:    -5.211      4.421      5.219
REMARK INTER + INTRA:          -6.523
REMARK INTER:                  -6.364
REMARK INTRA:                  -0.159
REMARK UNBOUND:                -0.246
REMARK SMILES O=c1c(O)c(-c2ccc(O)c(O)c2)oc2cc(O)cc(O)c12
REMARK SMILES IDX 5 1 3 2 2 3 1 4 22 5 20 6 19 7 17 8 16 9 15 10 14 11 6 12
REMARK SMILES IDX 7 13 8 14 9 15 13 16 11 17 10 18 12 20 4 22 21 24 18 26
REMARK H PARENT 10 19 12 21 4 23 21 25 18 27
REMARK Flexibility Score: inf
ROOT
ATOM      1  C   UNL     1      26.339  38.913  33.914  1.00  0.00     0.180 A 
ATOM      2  C   UNL     1      25.420  39.148  34.955  1.00  0.00     0.208 A 
ATOM      3  C   UNL     1      24.274  39.913  34.687  1.00  0.00     0.238 A 
ATOM      4  O   UNL     1      23.448  40.139  35.614  1.00  0.00    -0.285 OA
ATOM      5  C   UNL     1      24.055  40.410  33.386  1.00  0.00     0.111 A 
ATOM      6  C   UNL     1      22.924  41.183  33.032  1.00  0.00     0.134 A 
ATOM      7  C   UNL     1      22.773  41.634  31.712  1.00  0.00     0.093 A 
ATOM      8  C   UNL     1      23.730  41.326  30.741  1.00  0.00     0.123 A 
ATOM      9  C   UNL     1      24.849  40.560  31.085  1.00  0.00     0.094 A 
ATOM     10  C   UNL     1      25.018  40.104  32.394  1.00  0.00     0.146 A 
ATOM     11  O   UNL     1      26.093  39.385  32.695  1.00  0.00    -0.452 OA
ENDROOT
BRANCH   1  12
ATOM     12  C   UNL     1      27.580  38.134  34.123  1.00  0.00     0.025 A 
ATOM     13  C   UNL     1      28.558  38.617  35.006  1.00  0.00     0.016 A 
ATOM     14  C   UNL     1      29.729  37.888  35.233  1.00  0.00     0.051 A 
ATOM     15  C   UNL     1      29.933  36.661  34.594  1.00  0.00     0.157 A 
ATOM     16  C   UNL     1      27.778  36.889  33.498  1.00  0.00     0.062 A 
ATOM     17  C   UNL     1      28.952  36.156  33.726  1.00  0.00     0.158 A 
BRANCH  15  18
ATOM     18  O   UNL     1      31.113  35.957  34.839  1.00  0.00    -0.504 OA
ATOM     19  H   UNL     1      31.164  35.221  35.533  1.00  0.00     0.293 HD
ENDBRANCH  15  18
BRANCH  17  20
ATOM     20  O   UNL     1      29.143  34.925  33.098  1.00  0.00    -0.504 OA
ATOM     21  H   UNL     1      28.380  34.441  32.637  1.00  0.00     0.293 HD
ENDBRANCH  17  20
ENDBRANCH   1  12
BRANCH   2  22
ATOM     22  O   UNL     1      25.634  38.603  36.224  1.00  0.00    -0.502 OA
ATOM     23  H   UNL     1      25.494  37.621  36.423  1.00  0.00     0.293 HD
ENDBRANCH   2  22
BRANCH   6  24
ATOM     24  O   UNL     1      21.951  41.509  33.978  1.00  0.00    -0.507 OA
ATOM     25  H   UNL     1      20.967  41.337  33.812  1.00  0.00     0.293 HD
ENDBRANCH   6  24
BRANCH   8  26
ATOM     26  O   UNL     1      23.556  41.784  29.436  1.00  0.00    -0.508 OA
ATOM     27  H   UNL     1      23.683  42.760  29.197  1.00  0.00     0.293 HD
ENDBRANCH   8  26
TORSDOF 6
ENDMDL
