MODEL 1
REMARK VINA RESULT:    -1.818      0.000      0.000
REMARK INTER + INTRA:          -5.009
REMARK INTER:                  -3.093
REMARK INTRA:                  -1.916
REMARK UNBOUND:                -1.916
REMARK SMILES CCCCCCCCCCCCCC(=O)[O-]
REMARK SMILES IDX 8 1 9 2 10 3 11 4 12 5 13 6 14 7 15 8 16 9 7 10 6 11 5 12
REMARK SMILES IDX 4 13 3 14 2 15 1 16
REMARK H PARENT
REMARK Flexibility Score: inf
ROOT
ATOM      1  C   UNL     1     176.914 191.818 183.557  1.00  0.00     0.000 C 
ENDROOT
BRANCH   1   2
ATOM      2  C   UNL     1     176.529 191.973 182.077  1.00  0.00     0.000 C 
BRANCH   2   3
ATOM      3  C   UNL     1     176.082 190.644 181.441  1.00  0.00     0.000 C 
BRANCH   3   4
ATOM      4  C   UNL     1     174.611 190.672 180.994  1.00  0.00     0.000 C 
BRANCH   4   5
ATOM      5  C   UNL     1     173.826 191.847 181.603  1.00  0.00     0.006 C 
BRANCH   5   6
ATOM      6  C   UNL     1     172.485 191.400 182.198  1.00  0.00     0.053 C 
BRANCH   6   7
ATOM      7  C   UNL     1     171.533 190.942 181.136  1.00  0.00     0.041 C 
ATOM      8  O   UNL     1     171.192 189.731 181.068  1.00  0.00    -0.550 OA
ATOM      9  O   UNL     1     171.049 191.846 180.198  1.00  0.00    -0.550 OA
ENDBRANCH   6   7
ENDBRANCH   5   6
ENDBRANCH   4   5
ENDBRANCH   3   4
ENDBRANCH   2   3
ENDBRANCH   1   2
BRANCH   1  10
ATOM     10  C   UNL     1     176.759 190.371 184.059  1.00  0.00     0.000 C 
BRANCH  10  11
ATOM     11  C   UNL     1     175.888 190.274 185.322  1.00  0.00    -0.000 C 
BRANCH  11  12
ATOM     12  C   UNL     1     174.484 189.721 185.036  1.00  0.00    -0.000 C 
BRANCH  12  13
ATOM     13  C   UNL     1     174.557 188.478 184.137  1.00  0.00    -0.000 C 
BRANCH  13  14
ATOM     14  C   UNL     1     173.192 188.086 183.542  1.00  0.00    -0.000 C 
BRANCH  14  15
ATOM     15  C   UNL     1     171.973 188.560 184.354  1.00  0.00    -0.003 C 
ATOM     16  C   UNL     1     170.918 187.470 184.539  1.00  0.00     0.004 C 
ENDBRANCH  14  15
ENDBRANCH  13  14
ENDBRANCH  12  13
ENDBRANCH  11  12
ENDBRANCH  10  11
ENDBRANCH   1  10
TORSDOF 12
ENDMDL
MODEL 2
REMARK VINA RESULT:    -1.817      3.480      5.802
REMARK INTER + INTRA:          -5.008
REMARK INTER:                  -3.174
REMARK INTRA:                  -1.834
REMARK UNBOUND:                -1.916
REMARK SMILES CCCCCCCCCCCCCC(=O)[O-]
REMARK SMILES IDX 8 1 9 2 10 3 11 4 12 5 13 6 14 7 15 8 16 9 7 10 6 11 5 12
REMARK SMILES IDX 4 13 3 14 2 15 1 16
REMARK H PARENT
REMARK Flexibility Score: inf
ROOT
ATOM      1  C   UNL     1     172.025 190.232 182.312  1.00  0.00     0.000 C 
ENDROOT
BRANCH   1   2
ATOM      2  C   UNL     1     172.204 189.251 183.482  1.00  0.00     0.000 C 
BRANCH   2   3
ATOM      3  C   UNL     1     172.612 187.843 183.015  1.00  0.00     0.000 C 
BRANCH   3   4
ATOM      4  C   UNL     1     173.362 187.056 184.102  1.00  0.00     0.000 C 
BRANCH   4   5
ATOM      5  C   UNL     1     172.738 187.229 185.499  1.00  0.00     0.006 C 
BRANCH   5   6
ATOM      6  C   UNL     1     173.765 187.028 186.620  1.00  0.00     0.053 C 
BRANCH   6   7
ATOM      7  C   UNL     1     173.370 185.912 187.539  1.00  0.00     0.041 C 
ATOM      8  O   UNL     1     173.245 184.740 187.096  1.00  0.00    -0.550 OA
ATOM      9  O   UNL     1     173.107 186.174 188.877  1.00  0.00    -0.550 OA
ENDBRANCH   6   7
ENDBRANCH   5   6
ENDBRANCH   4   5
ENDBRANCH   3   4
ENDBRANCH   2   3
ENDBRANCH   1   2
BRANCH   1  10
ATOM     10  C   UNL     1     173.070 191.361 182.323  1.00  0.00     0.000 C 
BRANCH  10  11
ATOM     11  C   UNL     1     174.438 190.905 181.791  1.00  0.00    -0.000 C 
BRANCH  11  12
ATOM     12  C   UNL     1     175.551 191.005 182.846  1.00  0.00    -0.000 C 
BRANCH  12  13
ATOM     13  C   UNL     1     176.073 189.611 183.225  1.00  0.00    -0.000 C 
BRANCH  13  14
ATOM     14  C   UNL     1     176.088 189.369 184.746  1.00  0.00    -0.000 C 
BRANCH  14  15
ATOM     15  C   UNL     1     175.110 190.245 185.549  1.00  0.00    -0.003 C 
ATOM     16  C   UNL     1     175.787 191.008 186.688  1.00  0.00     0.004 C 
ENDBRANCH  14  15
ENDBRANCH  13  14
ENDBRANCH  12  13
ENDBRANCH  11  12
ENDBRANCH  10  11
ENDBRANCH   1  10
TORSDOF 12
ENDMDL
MODEL 3
REMARK VINA RESULT:    -1.809      3.296      4.907
REMARK INTER + INTRA:          -4.995
REMARK INTER:                  -2.789
REMARK INTRA:                  -2.206
REMARK UNBOUND:                -1.916
REMARK SMILES CCCCCCCCCCCCCC(=O)[O-]
REMARK SMILES IDX 8 1 9 2 10 3 11 4 12 5 13 6 14 7 15 8 16 9 7 10 6 11 5 12
REMARK SMILES IDX 4 13 3 14 2 15 1 16
REMARK H PARENT
REMARK Flexibility Score: inf
ROOT
ATOM      1  C   UNL     1     173.900 189.236 181.079  1.00  0.00     0.000 C 
ENDROOT
BRANCH   1   2
ATOM      2  C   UNL     1     175.345 189.082 181.581  1.00  0.00     0.000 C 
BRANCH   2   3
ATOM      3  C   UNL     1     175.821 190.302 182.389  1.00  0.00     0.000 C 
BRANCH   3   4
ATOM      4  C   UNL     1     176.217 189.935 183.829  1.00  0.00     0.000 C 
BRANCH   4   5
ATOM      5  C   UNL     1     175.150 190.342 184.861  1.00  0.00     0.006 C 
BRANCH   5   6
ATOM      6  C   UNL     1     175.487 189.840 186.271  1.00  0.00     0.053 C 
BRANCH   6   7
ATOM      7  C   UNL     1     176.463 190.742 186.962  1.00  0.00     0.041 C 
ATOM      8  O   UNL     1     177.422 190.256 187.618  1.00  0.00    -0.550 OA
ATOM      9  O   UNL     1     176.293 192.120 186.910  1.00  0.00    -0.550 OA
ENDBRANCH   6   7
ENDBRANCH   5   6
ENDBRANCH   4   5
ENDBRANCH   3   4
ENDBRANCH   2   3
ENDBRANCH   1   2
BRANCH   1  10
ATOM     10  C   UNL     1     173.246 190.546 181.555  1.00  0.00     0.000 C 
BRANCH  10  11
ATOM     11  C   UNL     1     172.165 190.313 182.622  1.00  0.00    -0.000 C 
BRANCH  11  12
ATOM     12  C   UNL     1     171.922 188.823 182.908  1.00  0.00    -0.000 C 
BRANCH  12  13
ATOM     13  C   UNL     1     171.685 188.585 184.407  1.00  0.00    -0.000 C 
BRANCH  13  14
ATOM     14  C   UNL     1     172.735 187.654 185.041  1.00  0.00    -0.000 C 
BRANCH  14  15
ATOM     15  C   UNL     1     173.549 186.820 184.035  1.00  0.00    -0.003 C 
ATOM     16  C   UNL     1     174.959 186.496 184.530  1.00  0.00     0.004 C 
ENDBRANCH  14  15
ENDBRANCH  13  14
ENDBRANCH  12  13
ENDBRANCH  11  12
ENDBRANCH  10  11
ENDBRANCH   1  10
TORSDOF 12
ENDMDL
MODEL 4
REMARK VINA RESULT:    -1.797      1.584      4.063
REMARK INTER + INTRA:          -4.973
REMARK INTER:                  -2.863
REMARK INTRA:                  -2.110
REMARK UNBOUND:                -1.916
REMARK SMILES CCCCCCCCCCCCCC(=O)[O-]
REMARK SMILES IDX 8 1 9 2 10 3 11 4 12 5 13 6 14 7 15 8 16 9 7 10 6 11 5 12
REMARK SMILES IDX 4 13 3 14 2 15 1 16
REMARK H PARENT
REMARK Flexibility Score: inf
ROOT
ATOM      1  C   UNL     1     174.296 186.272 185.172  1.00  0.00     0.000 C 
ENDROOT
BRANCH   1   2
ATOM      2  C   UNL     1     173.157 186.735 184.250  1.00  0.00     0.000 C 
BRANCH   2   3
ATOM      3  C   UNL     1     172.049 187.485 185.010  1.00  0.00     0.000 C 
BRANCH   3   4
ATOM      4  C   UNL     1     171.609 188.771 184.293  1.00  0.00     0.000 C 
BRANCH   4   5
ATOM      5  C   UNL     1     172.667 189.292 183.304  1.00  0.00     0.006 C 
BRANCH   5   6
ATOM      6  C   UNL     1     172.385 190.733 182.861  1.00  0.00     0.053 C 
BRANCH   6   7
ATOM      7  C   UNL     1     172.430 190.873 181.370  1.00  0.00     0.041 C 
ATOM      8  O   UNL     1     172.324 189.857 180.634  1.00  0.00    -0.550 OA
ATOM      9  O   UNL     1     172.623 192.122 180.794  1.00  0.00    -0.550 OA
ENDBRANCH   6   7
ENDBRANCH   5   6
ENDBRANCH   4   5
ENDBRANCH   3   4
ENDBRANCH   2   3
ENDBRANCH   1   2
BRANCH   1  10
ATOM     10  C   UNL     1     174.485 187.199 186.387  1.00  0.00     0.000 C 
BRANCH  10  11
ATOM     11  C   UNL     1     175.573 188.260 186.157  1.00  0.00    -0.000 C 
BRANCH  11  12
ATOM     12  C   UNL     1     175.006 189.685 186.070  1.00  0.00    -0.000 C 
BRANCH  12  13
ATOM     13  C   UNL     1     175.711 190.488 184.967  1.00  0.00    -0.000 C 
BRANCH  13  14
ATOM     14  C   UNL     1     176.654 189.628 184.106  1.00  0.00    -0.000 C 
BRANCH  14  15
ATOM     15  C   UNL     1     176.222 189.466 182.638  1.00  0.00    -0.003 C 
ATOM     16  C   UNL     1     176.009 188.007 182.234  1.00  0.00     0.004 C 
ENDBRANCH  14  15
ENDBRANCH  13  14
ENDBRANCH  12  13
ENDBRANCH  11  12
ENDBRANCH  10  11
ENDBRANCH   1  10
TORSDOF 12
ENDMDL
MODEL 5
REMARK VINA RESULT:    -1.765      2.681      5.885
REMARK INTER + INTRA:          -4.919
REMARK INTER:                  -3.093
REMARK INTRA:                  -1.826
REMARK UNBOUND:                -1.916
REMARK SMILES CCCCCCCCCCCCCC(=O)[O-]
REMARK SMILES IDX 8 1 9 2 10 3 11 4 12 5 13 6 14 7 15 8 16 9 7 10 6 11 5 12
REMARK SMILES IDX 4 13 3 14 2 15 1 16
REMARK H PARENT
REMARK Flexibility Score: inf
ROOT
ATOM      1  C   UNL     1     172.107 187.876 181.787  1.00  0.00     0.000 C 
ENDROOT
BRANCH   1   2
ATOM      2  C   UNL     1     171.313 187.266 182.952  1.00  0.00     0.000 C 
BRANCH   2   3
ATOM      3  C   UNL     1     171.375 188.129 184.225  1.00  0.00     0.000 C 
BRANCH   3   4
ATOM      4  C   UNL     1     172.676 188.942 184.321  1.00  0.00     0.000 C 
BRANCH   4   5
ATOM      5  C   UNL     1     173.718 188.291 185.247  1.00  0.00     0.006 C 
BRANCH   5   6
ATOM      6  C   UNL     1     175.154 188.532 184.764  1.00  0.00     0.053 C 
BRANCH   6   7
ATOM      7  C   UNL     1     175.667 189.870 185.199  1.00  0.00     0.041 C 
ATOM      8  O   UNL     1     176.504 190.490 184.492  1.00  0.00    -0.550 OA
ATOM      9  O   UNL     1     175.247 190.417 186.406  1.00  0.00    -0.550 OA
ENDBRANCH   6   7
ENDBRANCH   5   6
ENDBRANCH   4   5
ENDBRANCH   3   4
ENDBRANCH   2   3
ENDBRANCH   1   2
BRANCH   1  10
ATOM     10  C   UNL     1     171.258 188.034 180.512  1.00  0.00     0.000 C 
BRANCH  10  11
ATOM     11  C   UNL     1     171.438 189.409 179.849  1.00  0.00    -0.000 C 
BRANCH  11  12
ATOM     12  C   UNL     1     171.060 190.572 180.779  1.00  0.00    -0.000 C 
BRANCH  12  13
ATOM     13  C   UNL     1     172.133 191.671 180.745  1.00  0.00    -0.000 C 
BRANCH  13  14
ATOM     14  C   UNL     1     173.033 191.670 181.995  1.00  0.00    -0.000 C 
BRANCH  14  15
ATOM     15  C   UNL     1     174.533 191.475 181.710  1.00  0.00    -0.003 C 
ATOM     16  C   UNL     1     174.887 190.039 181.325  1.00  0.00     0.004 C 
ENDBRANCH  14  15
ENDBRANCH  13  14
ENDBRANCH  12  13
ENDBRANCH  11  12
ENDBRANCH  10  11
ENDBRANCH   1  10
TORSDOF 12
ENDMDL
MODEL 6
REMARK VINA RESULT:    -1.747      2.752      4.843
REMARK INTER + INTRA:          -4.889
REMARK INTER:                  -2.753
REMARK INTRA:                  -2.136
REMARK UNBOUND:                -1.916
REMARK SMILES CCCCCCCCCCCCCC(=O)[O-]
REMARK SMILES IDX 8 1 9 2 10 3 11 4 12 5 13 6 14 7 15 8 16 9 7 10 6 11 5 12
REMARK SMILES IDX 4 13 3 14 2 15 1 16
REMARK H PARENT
REMARK Flexibility Score: inf
ROOT
ATOM      1  C   UNL     1     174.276 187.935 186.040  1.00  0.00     0.000 C 
ENDROOT
BRANCH   1   2
ATOM      2  C   UNL     1     174.632 189.365 185.601  1.00  0.00     0.000 C 
BRANCH   2   3
ATOM      3  C   UNL     1     175.994 189.442 184.889  1.00  0.00     0.000 C 
BRANCH   3   4
ATOM      4  C   UNL     1     175.856 189.735 183.386  1.00  0.00     0.000 C 
BRANCH   4   5
ATOM      5  C   UNL     1     176.427 188.609 182.506  1.00  0.00     0.006 C 
BRANCH   5   6
ATOM      6  C   UNL     1     175.332 187.672 181.982  1.00  0.00     0.053 C 
BRANCH   6   7
ATOM      7  C   UNL     1     175.276 186.395 182.763  1.00  0.00     0.041 C 
ATOM      8  O   UNL     1     176.178 186.121 183.599  1.00  0.00    -0.550 OA
ATOM      9  O   UNL     1     174.246 185.489 182.542  1.00  0.00    -0.550 OA
ENDBRANCH   6   7
ENDBRANCH   5   6
ENDBRANCH   4   5
ENDBRANCH   3   4
ENDBRANCH   2   3
ENDBRANCH   1   2
BRANCH   1  10
ATOM     10  C   UNL     1     172.971 187.429 185.398  1.00  0.00     0.000 C 
BRANCH  10  11
ATOM     11  C   UNL     1     172.227 188.528 184.625  1.00  0.00    -0.000 C 
BRANCH  11  12
ATOM     12  C   UNL     1     171.791 188.078 183.222  1.00  0.00    -0.000 C 
BRANCH  12  13
ATOM     13  C   UNL     1     172.032 189.190 182.190  1.00  0.00    -0.000 C 
BRANCH  13  14
ATOM     14  C   UNL     1     172.291 190.564 182.837  1.00  0.00    -0.000 C 
BRANCH  14  15
ATOM     15  C   UNL     1     172.952 191.600 181.910  1.00  0.00    -0.003 C 
ATOM     16  C   UNL     1     172.297 191.672 180.530  1.00  0.00     0.004 C 
ENDBRANCH  14  15
ENDBRANCH  13  14
ENDBRANCH  12  13
ENDBRANCH  11  12
ENDBRANCH  10  11
ENDBRANCH   1  10
TORSDOF 12
ENDMDL
MODEL 7
REMARK VINA RESULT:    -1.737      1.334      2.216
REMARK INTER + INTRA:          -4.873
REMARK INTER:                  -3.038
REMARK INTRA:                  -1.835
REMARK UNBOUND:                -1.916
REMARK SMILES CCCCCCCCCCCCCC(=O)[O-]
REMARK SMILES IDX 8 1 9 2 10 3 11 4 12 5 13 6 14 7 15 8 16 9 7 10 6 11 5 12
REMARK SMILES IDX 4 13 3 14 2 15 1 16
REMARK H PARENT
REMARK Flexibility Score: inf
ROOT
ATOM      1  C   UNL     1     176.567 189.665 184.944  1.00  0.00     0.000 C 
ENDROOT
BRANCH   1   2
ATOM      2  C   UNL     1     176.466 189.800 183.416  1.00  0.00     0.000 C 
BRANCH   2   3
ATOM      3  C   UNL     1     175.668 191.043 182.985  1.00  0.00     0.000 C 
BRANCH   3   4
ATOM      4  C   UNL     1     174.570 190.712 181.961  1.00  0.00     0.000 C 
BRANCH   4   5
ATOM      5  C   UNL     1     173.172 191.162 182.422  1.00  0.00     0.006 C 
BRANCH   5   6
ATOM      6  C   UNL     1     172.380 191.834 181.294  1.00  0.00     0.053 C 
BRANCH   6   7
ATOM      7  C   UNL     1     171.492 190.858 180.584  1.00  0.00     0.041 C 
ATOM      8  O   UNL     1     170.940 191.176 179.498  1.00  0.00    -0.550 OA
ATOM      9  O   UNL     1     171.246 189.609 181.140  1.00  0.00    -0.550 OA
ENDBRANCH   6   7
ENDBRANCH   5   6
ENDBRANCH   4   5
ENDBRANCH   3   4
ENDBRANCH   2   3
ENDBRANCH   1   2
BRANCH   1  10
ATOM     10  C   UNL     1     175.188 189.585 185.622  1.00  0.00     0.000 C 
BRANCH  10  11
ATOM     11  C   UNL     1     174.986 188.272 186.397  1.00  0.00    -0.000 C 
BRANCH  11  12
ATOM     12  C   UNL     1     173.643 187.597 186.082  1.00  0.00    -0.000 C 
BRANCH  12  13
ATOM     13  C   UNL     1     172.920 188.320 184.936  1.00  0.00    -0.000 C 
BRANCH  13  14
ATOM     14  C   UNL     1     172.632 187.403 183.733  1.00  0.00    -0.000 C 
BRANCH  14  15
ATOM     15  C   UNL     1     173.745 187.364 182.670  1.00  0.00    -0.003 C 
ATOM     16  C   UNL     1     174.750 186.234 182.898  1.00  0.00     0.004 C 
ENDBRANCH  14  15
ENDBRANCH  13  14
ENDBRANCH  12  13
ENDBRANCH  11  12
ENDBRANCH  10  11
ENDBRANCH   1  10
TORSDOF 12
ENDMDL
MODEL 8
REMARK VINA RESULT:    -1.730      3.274      5.890
REMARK INTER + INTRA:          -4.860
REMARK INTER:                  -2.894
REMARK INTRA:                  -1.966
REMARK UNBOUND:                -1.916
REMARK SMILES CCCCCCCCCCCCCC(=O)[O-]
REMARK SMILES IDX 8 1 9 2 10 3 11 4 12 5 13 6 14 7 15 8 16 9 7 10 6 11 5 12
REMARK SMILES IDX 4 13 3 14 2 15 1 16
REMARK H PARENT
REMARK Flexibility Score: inf
ROOT
ATOM      1  C   UNL     1     172.945 187.822 181.233  1.00  0.00     0.000 C 
ENDROOT
BRANCH   1   2
ATOM      2  C   UNL     1     171.864 186.852 181.738  1.00  0.00     0.000 C 
BRANCH   2   3
ATOM      3  C   UNL     1     172.008 186.536 183.237  1.00  0.00     0.000 C 
BRANCH   3   4
ATOM      4  C   UNL     1     171.377 187.616 184.130  1.00  0.00     0.000 C 
BRANCH   4   5
ATOM      5  C   UNL     1     172.415 188.359 184.989  1.00  0.00     0.006 C 
BRANCH   5   6
ATOM      6  C   UNL     1     173.750 187.607 185.064  1.00  0.00     0.053 C 
BRANCH   6   7
ATOM      7  C   UNL     1     174.197 187.413 186.481  1.00  0.00     0.041 C 
ATOM      8  O   UNL     1     173.444 186.838 187.311  1.00  0.00    -0.550 OA
ATOM      9  O   UNL     1     175.431 187.899 186.893  1.00  0.00    -0.550 OA
ENDBRANCH   6   7
ENDBRANCH   5   6
ENDBRANCH   4   5
ENDBRANCH   3   4
ENDBRANCH   2   3
ENDBRANCH   1   2
BRANCH   1  10
ATOM     10  C   UNL     1     172.386 188.874 180.258  1.00  0.00     0.000 C 
BRANCH  10  11
ATOM     11  C   UNL     1     171.390 189.832 180.931  1.00  0.00    -0.000 C 
BRANCH  11  12
ATOM     12  C   UNL     1     172.014 190.621 182.092  1.00  0.00    -0.000 C 
BRANCH  12  13
ATOM     13  C   UNL     1     172.870 191.783 181.567  1.00  0.00    -0.000 C 
BRANCH  13  14
ATOM     14  C   UNL     1     174.370 191.607 181.865  1.00  0.00    -0.000 C 
BRANCH  14  15
ATOM     15  C   UNL     1     174.691 190.629 183.010  1.00  0.00    -0.003 C 
ATOM     16  C   UNL     1     175.796 189.634 182.656  1.00  0.00     0.004 C 
ENDBRANCH  14  15
ENDBRANCH  13  14
ENDBRANCH  12  13
ENDBRANCH  11  12
ENDBRANCH  10  11
ENDBRANCH   1  10
TORSDOF 12
ENDMDL
MODEL 9
REMARK VINA RESULT:    -1.704      2.365      4.177
REMARK INTER + INTRA:          -4.815
REMARK INTER:                  -3.056
REMARK INTRA:                  -1.759
REMARK UNBOUND:                -1.916
REMARK SMILES CCCCCCCCCCCCCC(=O)[O-]
REMARK SMILES IDX 8 1 9 2 10 3 11 4 12 5 13 6 14 7 15 8 16 9 7 10 6 11 5 12
REMARK SMILES IDX 4 13 3 14 2 15 1 16
REMARK H PARENT
REMARK Flexibility Score: inf
ROOT
ATOM      1  C   UNL     1     172.710 187.856 180.740  1.00  0.00     0.000 C 
ENDROOT
BRANCH   1   2
ATOM      2  C   UNL     1     171.290 188.296 180.350  1.00  0.00     0.000 C 
BRANCH   2   3
ATOM      3  C   UNL     1     171.273 189.640 179.599  1.00  0.00     0.000 C 
BRANCH   3   4
ATOM      4  C   UNL     1     170.880 190.816 180.507  1.00  0.00     0.000 C 
BRANCH   4   5
ATOM      5  C   UNL     1     172.064 191.746 180.823  1.00  0.00     0.006 C 
BRANCH   5   6
ATOM      6  C   UNL     1     172.739 191.392 182.155  1.00  0.00     0.053 C 
BRANCH   6   7
ATOM      7  C   UNL     1     174.228 191.310 182.016  1.00  0.00     0.041 C 
ATOM      8  O   UNL     1     174.824 191.998 181.146  1.00  0.00    -0.550 OA
ATOM      9  O   UNL     1     174.955 190.446 182.825  1.00  0.00    -0.550 OA
ENDBRANCH   6   7
ENDBRANCH   5   6
ENDBRANCH   4   5
ENDBRANCH   3   4
ENDBRANCH   2   3
ENDBRANCH   1   2
BRANCH   1  10
ATOM     10  C   UNL     1     172.863 187.631 182.255  1.00  0.00     0.000 C 
BRANCH  10  11
ATOM     11  C   UNL     1     171.544 187.829 183.018  1.00  0.00    -0.000 C 
BRANCH  11  12
ATOM     12  C   UNL     1     171.732 188.571 184.349  1.00  0.00    -0.000 C 
BRANCH  12  13
ATOM     13  C   UNL     1     173.126 188.300 184.936  1.00  0.00    -0.000 C 
BRANCH  13  14
ATOM     14  C   UNL     1     173.123 187.184 185.997  1.00  0.00    -0.000 C 
BRANCH  14  15
ATOM     15  C   UNL     1     173.822 185.881 185.567  1.00  0.00    -0.003 C 
ATOM     16  C   UNL     1     172.870 184.880 184.912  1.00  0.00     0.004 C 
ENDBRANCH  14  15
ENDBRANCH  13  14
ENDBRANCH  12  13
ENDBRANCH  11  12
ENDBRANCH  10  11
ENDBRANCH   1  10
TORSDOF 12
ENDMDL
