MODEL 1
REMARK VINA RESULT:    -7.173      0.000      0.000
REMARK INTER + INTRA:          -7.848
REMARK INTER:                  -7.802
REMARK INTRA:                  -0.045
REMARK UNBOUND:                -0.045
REMARK SMILES COc1cc2ccc(=O)oc2cc1O
REMARK SMILES IDX 3 1 13 2 12 3 11 4 5 5 4 6 6 7 7 8 8 9 9 10 10 11 2 12 1 13
REMARK SMILES IDX 14 14
REMARK H PARENT 14 15
REMARK Flexibility Score: inf
ROOT
ATOM      1  C   UNL     1      12.165  -4.677 -12.271  1.00  0.00     0.161 A 
ATOM      2  C   UNL     1      11.375  -4.696 -11.105  1.00  0.00     0.161 A 
ATOM      3  C   UNL     1      10.758  -5.882 -10.690  1.00  0.00     0.098 A 
ATOM      4  C   UNL     1      10.920  -7.057 -11.427  1.00  0.00     0.142 A 
ATOM      5  C   UNL     1      11.710  -7.049 -12.596  1.00  0.00     0.022 A 
ATOM      6  C   UNL     1      12.329  -5.863 -13.014  1.00  0.00     0.062 A 
ATOM      7  C   UNL     1      11.853  -8.242 -13.311  1.00  0.00     0.019 A 
ATOM      8  C   UNL     1      11.217  -9.396 -12.854  1.00  0.00     0.094 A 
ATOM      9  C   UNL     1      10.449  -9.328 -11.687  1.00  0.00     0.336 A 
ATOM     10  O   UNL     1       9.867 -10.358 -11.258  1.00  0.00    -0.246 OA
ATOM     11  O   UNL     1      10.329  -8.181 -11.025  1.00  0.00    -0.423 OA
ENDROOT
BRANCH   1  12
ATOM     12  O   UNL     1      12.770  -3.470 -12.657  1.00  0.00    -0.493 OA
ATOM     13  C   UNL     1      13.986  -3.373 -13.392  1.00  0.00     0.278 C 
ENDBRANCH   1  12
BRANCH   2  14
ATOM     14  O   UNL     1      11.188  -3.542 -10.343  1.00  0.00    -0.504 OA
ATOM     15  H   UNL     1      11.316  -2.614 -10.728  1.00  0.00     0.293 HD
ENDBRANCH   2  14
TORSDOF 2
ENDMDL
MODEL 2
REMARK VINA RESULT:    -6.885      2.276      3.664
REMARK INTER + INTRA:          -7.534
REMARK INTER:                  -7.484
REMARK INTRA:                  -0.050
REMARK UNBOUND:                -0.045
REMARK SMILES COc1cc2ccc(=O)oc2cc1O
REMARK SMILES IDX 3 1 13 2 12 3 11 4 5 5 4 6 6 7 7 8 8 9 9 10 10 11 2 12 1 13
REMARK SMILES IDX 14 14
REMARK H PARENT 14 15
REMARK Flexibility Score: inf
ROOT
ATOM      1  C   UNL     1      13.864  -4.776 -14.018  1.00  0.00     0.161 A 
ATOM      2  C   UNL     1      13.319  -5.989 -14.484  1.00  0.00     0.161 A 
ATOM      3  C   UNL     1      12.229  -6.570 -13.826  1.00  0.00     0.098 A 
ATOM      4  C   UNL     1      11.671  -5.955 -12.703  1.00  0.00     0.142 A 
ATOM      5  C   UNL     1      12.210  -4.740 -12.230  1.00  0.00     0.022 A 
ATOM      6  C   UNL     1      13.301  -4.155 -12.885  1.00  0.00     0.062 A 
ATOM      7  C   UNL     1      11.629  -4.149 -11.103  1.00  0.00     0.019 A 
ATOM      8  C   UNL     1      10.544  -4.770 -10.485  1.00  0.00     0.094 A 
ATOM      9  C   UNL     1      10.064  -5.975 -11.011  1.00  0.00     0.336 A 
ATOM     10  O   UNL     1       9.086  -6.551 -10.468  1.00  0.00    -0.246 OA
ATOM     11  O   UNL     1      10.635  -6.516 -12.083  1.00  0.00    -0.423 OA
ENDROOT
BRANCH   1  12
ATOM     12  O   UNL     1      14.958  -4.220 -14.703  1.00  0.00    -0.493 OA
ATOM     13  C   UNL     1      16.125  -3.699 -14.075  1.00  0.00     0.278 C 
ENDBRANCH   1  12
BRANCH   2  14
ATOM     14  O   UNL     1      13.849  -6.634 -15.601  1.00  0.00    -0.504 OA
ATOM     15  H   UNL     1      14.400  -6.145 -16.296  1.00  0.00     0.293 HD
ENDBRANCH   2  14
TORSDOF 2
ENDMDL
MODEL 3
REMARK VINA RESULT:    -6.573      1.595      5.117
REMARK INTER + INTRA:          -7.195
REMARK INTER:                  -7.149
REMARK INTRA:                  -0.046
REMARK UNBOUND:                -0.045
REMARK SMILES COc1cc2ccc(=O)oc2cc1O
REMARK SMILES IDX 3 1 13 2 12 3 11 4 5 5 4 6 6 7 7 8 8 9 9 10 10 11 2 12 1 13
REMARK SMILES IDX 14 14
REMARK H PARENT 14 15
REMARK Flexibility Score: inf
ROOT
ATOM      1  C   UNL     1      11.272  -5.836 -11.879  1.00  0.00     0.161 A 
ATOM      2  C   UNL     1      11.284  -4.574 -11.253  1.00  0.00     0.161 A 
ATOM      3  C   UNL     1      12.209  -3.601 -11.648  1.00  0.00     0.098 A 
ATOM      4  C   UNL     1      13.128  -3.870 -12.665  1.00  0.00     0.142 A 
ATOM      5  C   UNL     1      13.123  -5.131 -13.297  1.00  0.00     0.022 A 
ATOM      6  C   UNL     1      12.199  -6.108 -12.905  1.00  0.00     0.062 A 
ATOM      7  C   UNL     1      14.056  -5.370 -14.312  1.00  0.00     0.019 A 
ATOM      8  C   UNL     1      14.955  -4.365 -14.667  1.00  0.00     0.094 A 
ATOM      9  C   UNL     1      14.901  -3.139 -13.995  1.00  0.00     0.336 A 
ATOM     10  O   UNL     1      15.704  -2.220 -14.300  1.00  0.00    -0.246 OA
ATOM     11  O   UNL     1      14.005  -2.938 -13.033  1.00  0.00    -0.423 OA
ENDROOT
BRANCH   1  12
ATOM     12  O   UNL     1      10.330  -6.789 -11.458  1.00  0.00    -0.493 OA
ATOM     13  C   UNL     1      10.560  -8.195 -11.427  1.00  0.00     0.278 C 
ENDBRANCH   1  12
BRANCH   2  14
ATOM     14  O   UNL     1      10.383  -4.267 -10.233  1.00  0.00    -0.504 OA
ATOM     15  H   UNL     1       9.819  -4.976  -9.780  1.00  0.00     0.293 HD
ENDBRANCH   2  14
TORSDOF 2
ENDMDL
MODEL 4
REMARK VINA RESULT:    -6.461      1.623      5.010
REMARK INTER + INTRA:          -7.072
REMARK INTER:                  -7.027
REMARK INTRA:                  -0.045
REMARK UNBOUND:                -0.045
REMARK SMILES COc1cc2ccc(=O)oc2cc1O
REMARK SMILES IDX 3 1 13 2 12 3 11 4 5 5 4 6 6 7 7 8 8 9 9 10 10 11 2 12 1 13
REMARK SMILES IDX 14 14
REMARK H PARENT 14 15
REMARK Flexibility Score: inf
ROOT
ATOM      1  C   UNL     1      10.170  -6.056 -10.810  1.00  0.00     0.161 A 
ATOM      2  C   UNL     1      10.736  -7.176 -11.450  1.00  0.00     0.161 A 
ATOM      3  C   UNL     1      11.836  -7.020 -12.301  1.00  0.00     0.098 A 
ATOM      4  C   UNL     1      12.383  -5.755 -12.525  1.00  0.00     0.142 A 
ATOM      5  C   UNL     1      11.823  -4.627 -11.889  1.00  0.00     0.022 A 
ATOM      6  C   UNL     1      10.722  -4.779 -11.036  1.00  0.00     0.062 A 
ATOM      7  C   UNL     1      12.393  -3.373 -12.134  1.00  0.00     0.019 A 
ATOM      8  C   UNL     1      13.489  -3.274 -12.991  1.00  0.00     0.094 A 
ATOM      9  C   UNL     1      13.990  -4.437 -13.587  1.00  0.00     0.336 A 
ATOM     10  O   UNL     1      14.977  -4.368 -14.364  1.00  0.00    -0.246 OA
ATOM     11  O   UNL     1      13.429  -5.616 -13.337  1.00  0.00    -0.423 OA
ENDROOT
BRANCH   1  12
ATOM     12  O   UNL     1       9.067  -6.248  -9.961  1.00  0.00    -0.493 OA
ATOM     13  C   UNL     1       7.708  -6.241 -10.388  1.00  0.00     0.278 C 
ENDBRANCH   1  12
BRANCH   2  14
ATOM     14  O   UNL     1      10.218  -8.456 -11.252  1.00  0.00    -0.504 OA
ATOM     15  H   UNL     1       9.319  -8.737 -11.625  1.00  0.00     0.293 HD
ENDBRANCH   2  14
TORSDOF 2
ENDMDL
MODEL 5
REMARK VINA RESULT:    -6.091      2.061      4.600
REMARK INTER + INTRA:          -6.670
REMARK INTER:                  -6.617
REMARK INTRA:                  -0.053
REMARK UNBOUND:                -0.045
REMARK SMILES COc1cc2ccc(=O)oc2cc1O
REMARK SMILES IDX 3 1 13 2 12 3 11 4 5 5 4 6 6 7 7 8 8 9 9 10 10 11 2 12 1 13
REMARK SMILES IDX 14 14
REMARK H PARENT 14 15
REMARK Flexibility Score: inf
ROOT
ATOM      1  C   UNL     1      11.365  -4.790 -11.312  1.00  0.00     0.161 A 
ATOM      2  C   UNL     1      10.992  -5.991 -11.946  1.00  0.00     0.161 A 
ATOM      3  C   UNL     1      11.684  -6.434 -13.080  1.00  0.00     0.098 A 
ATOM      4  C   UNL     1      12.749  -5.690 -13.593  1.00  0.00     0.142 A 
ATOM      5  C   UNL     1      13.129  -4.485 -12.965  1.00  0.00     0.022 A 
ATOM      6  C   UNL     1      12.439  -4.040 -11.830  1.00  0.00     0.062 A 
ATOM      7  C   UNL     1      14.199  -3.763 -13.503  1.00  0.00     0.019 A 
ATOM      8  C   UNL     1      14.854  -4.248 -14.634  1.00  0.00     0.094 A 
ATOM      9  C   UNL     1      14.421  -5.451 -15.204  1.00  0.00     0.336 A 
ATOM     10  O   UNL     1      14.998  -5.906 -16.225  1.00  0.00    -0.246 OA
ATOM     11  O   UNL     1      13.400  -6.118 -14.672  1.00  0.00    -0.423 OA
ENDROOT
BRANCH   1  12
ATOM     12  O   UNL     1      10.649  -4.376 -10.176  1.00  0.00    -0.493 OA
ATOM     13  C   UNL     1      11.245  -3.997  -8.939  1.00  0.00     0.278 C 
ENDBRANCH   1  12
BRANCH   2  14
ATOM     14  O   UNL     1       9.934  -6.762 -11.464  1.00  0.00    -0.504 OA
ATOM     15  H   UNL     1       9.002  -6.705 -11.857  1.00  0.00     0.293 HD
ENDBRANCH   2  14
TORSDOF 2
ENDMDL
MODEL 6
REMARK VINA RESULT:    -5.997     11.509     12.941
REMARK INTER + INTRA:          -6.568
REMARK INTER:                  -6.503
REMARK INTRA:                  -0.065
REMARK UNBOUND:                -0.045
REMARK SMILES COc1cc2ccc(=O)oc2cc1O
REMARK SMILES IDX 3 1 13 2 12 3 11 4 5 5 4 6 6 7 7 8 8 9 9 10 10 11 2 12 1 13
REMARK SMILES IDX 14 14
REMARK H PARENT 14 15
REMARK Flexibility Score: inf
ROOT
ATOM      1  C   UNL     1       1.724  -5.673  -8.445  1.00  0.00     0.161 A 
ATOM      2  C   UNL     1       0.934  -6.763  -8.033  1.00  0.00     0.161 A 
ATOM      3  C   UNL     1      -0.402  -6.566  -7.663  1.00  0.00     0.098 A 
ATOM      4  C   UNL     1      -0.964  -5.288  -7.699  1.00  0.00     0.142 A 
ATOM      5  C   UNL     1      -0.180  -4.190  -8.111  1.00  0.00     0.022 A 
ATOM      6  C   UNL     1       1.157  -4.383  -8.482  1.00  0.00     0.062 A 
ATOM      7  C   UNL     1      -0.772  -2.922  -8.136  1.00  0.00     0.019 A 
ATOM      8  C   UNL     1      -2.107  -2.781  -7.758  1.00  0.00     0.094 A 
ATOM      9  C   UNL     1      -2.821  -3.916  -7.360  1.00  0.00     0.336 A 
ATOM     10  O   UNL     1      -4.027  -3.810  -7.015  1.00  0.00    -0.246 OA
ATOM     11  O   UNL     1      -2.235  -5.110  -7.345  1.00  0.00    -0.423 OA
ENDROOT
BRANCH   1  12
ATOM     12  O   UNL     1       3.060  -5.907  -8.810  1.00  0.00    -0.493 OA
ATOM     13  C   UNL     1       4.179  -5.709  -7.952  1.00  0.00     0.278 C 
ENDBRANCH   1  12
BRANCH   2  14
ATOM     14  O   UNL     1       1.458  -8.055  -7.982  1.00  0.00    -0.504 OA
ATOM     15  H   UNL     1       1.153  -8.786  -8.613  1.00  0.00     0.293 HD
ENDBRANCH   2  14
TORSDOF 2
ENDMDL
MODEL 7
REMARK VINA RESULT:    -5.857      7.659      9.107
REMARK INTER + INTRA:          -6.416
REMARK INTER:                  -6.351
REMARK INTRA:                  -0.065
REMARK UNBOUND:                -0.045
REMARK SMILES COc1cc2ccc(=O)oc2cc1O
REMARK SMILES IDX 3 1 13 2 12 3 11 4 5 5 4 6 6 7 7 8 8 9 9 10 10 11 2 12 1 13
REMARK SMILES IDX 14 14
REMARK H PARENT 14 15
REMARK Flexibility Score: inf
ROOT
ATOM      1  C   UNL     1       1.891  -5.482  -8.735  1.00  0.00     0.161 A 
ATOM      2  C   UNL     1       2.713  -4.578  -8.035  1.00  0.00     0.161 A 
ATOM      3  C   UNL     1       4.105  -4.636  -8.177  1.00  0.00     0.098 A 
ATOM      4  C   UNL     1       4.691  -5.589  -9.013  1.00  0.00     0.142 A 
ATOM      5  C   UNL     1       3.875  -6.498  -9.718  1.00  0.00     0.022 A 
ATOM      6  C   UNL     1       2.482  -6.444  -9.578  1.00  0.00     0.062 A 
ATOM      7  C   UNL     1       4.492  -7.441 -10.547  1.00  0.00     0.019 A 
ATOM      8  C   UNL     1       5.882  -7.455 -10.654  1.00  0.00     0.094 A 
ATOM      9  C   UNL     1       6.627  -6.522  -9.923  1.00  0.00     0.336 A 
ATOM     10  O   UNL     1       7.882  -6.519 -10.005  1.00  0.00    -0.246 OA
ATOM     11  O   UNL     1       6.015  -5.637  -9.141  1.00  0.00    -0.423 OA
ENDROOT
BRANCH   1  12
ATOM     12  O   UNL     1       0.499  -5.396  -8.569  1.00  0.00    -0.493 OA
ATOM     13  C   UNL     1      -0.271  -6.255  -7.734  1.00  0.00     0.278 C 
ENDBRANCH   1  12
BRANCH   2  14
ATOM     14  O   UNL     1       2.166  -3.613  -7.190  1.00  0.00    -0.504 OA
ATOM     15  H   UNL     1       1.278  -3.746  -6.722  1.00  0.00     0.293 HD
ENDBRANCH   2  14
TORSDOF 2
ENDMDL
MODEL 8
REMARK VINA RESULT:    -5.691     12.344     13.651
REMARK INTER + INTRA:          -6.235
REMARK INTER:                  -6.173
REMARK INTRA:                  -0.062
REMARK UNBOUND:                -0.045
REMARK SMILES COc1cc2ccc(=O)oc2cc1O
REMARK SMILES IDX 3 1 13 2 12 3 11 4 5 5 4 6 6 7 7 8 8 9 9 10 10 11 2 12 1 13
REMARK SMILES IDX 14 14
REMARK H PARENT 14 15
REMARK Flexibility Score: inf
ROOT
ATOM      1  C   UNL     1      -2.251  -3.230  -7.347  1.00  0.00     0.161 A 
ATOM      2  C   UNL     1      -2.785  -4.527  -7.226  1.00  0.00     0.161 A 
ATOM      3  C   UNL     1      -1.975  -5.647  -7.446  1.00  0.00     0.098 A 
ATOM      4  C   UNL     1      -0.629  -5.490  -7.786  1.00  0.00     0.142 A 
ATOM      5  C   UNL     1      -0.085  -4.195  -7.909  1.00  0.00     0.022 A 
ATOM      6  C   UNL     1      -0.893  -3.072  -7.690  1.00  0.00     0.062 A 
ATOM      7  C   UNL     1       1.266  -4.070  -8.251  1.00  0.00     0.019 A 
ATOM      8  C   UNL     1       2.029  -5.218  -8.459  1.00  0.00     0.094 A 
ATOM      9  C   UNL     1       1.420  -6.471  -8.319  1.00  0.00     0.336 A 
ATOM     10  O   UNL     1       2.092  -7.519  -8.503  1.00  0.00    -0.246 OA
ATOM     11  O   UNL     1       0.134  -6.561  -7.993  1.00  0.00    -0.423 OA
ENDROOT
BRANCH   1  12
ATOM     12  O   UNL     1      -3.092  -2.129  -7.119  1.00  0.00    -0.493 OA
ATOM     13  C   UNL     1      -3.216  -1.450  -5.873  1.00  0.00     0.278 C 
ENDBRANCH   1  12
BRANCH   2  14
ATOM     14  O   UNL     1      -4.124  -4.726  -6.889  1.00  0.00    -0.504 OA
ATOM     15  H   UNL     1      -4.548  -5.646  -6.879  1.00  0.00     0.293 HD
ENDBRANCH   2  14
TORSDOF 2
ENDMDL
