MODEL 1
REMARK VINA RESULT:    -6.641      0.000      0.000
REMARK INTER + INTRA:          -8.567
REMARK INTER:                  -8.194
REMARK INTRA:                  -0.373
REMARK UNBOUND:                -0.373
REMARK SMILES Oc1cc(O)c2cc(O)c(-c3cc(O)c(O)c(O)c3)[o+]c2c1
REMARK SMILES IDX 10 1 20 2 21 3 22 4 2 5 3 6 4 7 6 8 7 9 8 10 11 11 12 12
REMARK SMILES IDX 13 13 19 14 15 15 17 16 14 17 16 19 18 21 9 23 1 25 5 27
REMARK H PARENT 14 18 16 20 18 22 9 24 1 26 5 28
REMARK Flexibility Score: inf
ROOT
ATOM      1  C   UNL     1       4.576 -18.106 -38.195  1.00  0.00     0.402 A 
ATOM      2  O   UNL     1       4.104 -17.278 -37.267  1.00  0.00    -0.202 OA
ATOM      3  C   UNL     1       2.879 -17.373 -36.759  1.00  0.00     0.368 A 
ATOM      4  C   UNL     1       2.471 -16.453 -35.789  1.00  0.00     0.162 A 
ATOM      5  C   UNL     1       1.191 -16.526 -35.242  1.00  0.00     0.128 A 
ATOM      6  C   UNL     1       0.307 -17.524 -35.667  1.00  0.00     0.093 A 
ATOM      7  C   UNL     1       0.690 -18.458 -36.638  1.00  0.00     0.136 A 
ATOM      8  C   UNL     1       1.994 -18.388 -37.195  1.00  0.00     0.125 A 
ATOM      9  C   UNL     1       2.469 -19.289 -38.162  1.00  0.00     0.078 A 
ATOM     10  C   UNL     1       3.768 -19.160 -38.663  1.00  0.00     0.223 A 
ENDROOT
BRANCH   1  11
ATOM     11  C   UNL     1       5.955 -17.892 -38.689  1.00  0.00     0.091 A 
ATOM     12  C   UNL     1       7.064 -18.438 -38.021  1.00  0.00     0.068 A 
ATOM     13  C   UNL     1       8.361 -18.243 -38.517  1.00  0.00     0.162 A 
ATOM     14  C   UNL     1       6.158 -17.180 -39.881  1.00  0.00     0.068 A 
ATOM     15  C   UNL     1       8.557 -17.509 -39.698  1.00  0.00     0.200 A 
ATOM     16  C   UNL     1       7.449 -16.980 -40.382  1.00  0.00     0.162 A 
BRANCH  13  17
ATOM     17  O   UNL     1       9.455 -18.784 -37.841  1.00  0.00    -0.504 OA
ATOM     18  H   UNL     1       9.824 -19.699 -38.073  1.00  0.00     0.293 HD
ENDBRANCH  13  17
BRANCH  15  19
ATOM     19  O   UNL     1       9.841 -17.303 -40.203  1.00  0.00    -0.502 OA
ATOM     20  H   UNL     1      10.656 -17.251 -39.603  1.00  0.00     0.293 HD
ENDBRANCH  15  19
BRANCH  16  21
ATOM     21  O   UNL     1       7.610 -16.253 -41.561  1.00  0.00    -0.504 OA
ATOM     22  H   UNL     1       8.513 -15.905 -41.861  1.00  0.00     0.293 HD
ENDBRANCH  16  21
ENDBRANCH   1  11
BRANCH  10  23
ATOM     23  O   UNL     1       4.258 -20.083 -39.587  1.00  0.00    -0.500 OA
ATOM     24  H   UNL     1       4.212 -19.913 -40.584  1.00  0.00     0.294 HD
ENDBRANCH  10  23
BRANCH   5  25
ATOM     25  O   UNL     1       0.804 -15.600 -34.275  1.00  0.00    -0.507 OA
ATOM     26  H   UNL     1       1.343 -14.761 -34.098  1.00  0.00     0.293 HD
ENDBRANCH   5  25
BRANCH   7  27
ATOM     27  O   UNL     1      -0.250 -19.422 -37.011  1.00  0.00    -0.507 OA
ATOM     28  H   UNL     1      -0.029 -20.385 -37.217  1.00  0.00     0.293 HD
ENDBRANCH   7  27
TORSDOF 7
ENDMDL
MODEL 2
REMARK VINA RESULT:    -6.638      0.078      1.796
REMARK INTER + INTRA:          -8.563
REMARK INTER:                  -8.179
REMARK INTRA:                  -0.384
REMARK UNBOUND:                -0.373
REMARK SMILES Oc1cc(O)c2cc(O)c(-c3cc(O)c(O)c(O)c3)[o+]c2c1
REMARK SMILES IDX 10 1 20 2 21 3 22 4 2 5 3 6 4 7 6 8 7 9 8 10 11 11 12 12
REMARK SMILES IDX 13 13 19 14 15 15 17 16 14 17 16 19 18 21 9 23 1 25 5 27
REMARK H PARENT 14 18 16 20 18 22 9 24 1 26 5 28
REMARK Flexibility Score: inf
ROOT
ATOM      1  C   UNL     1       4.592 -18.137 -38.196  1.00  0.00     0.402 A 
ATOM      2  O   UNL     1       4.138 -17.298 -37.270  1.00  0.00    -0.202 OA
ATOM      3  C   UNL     1       2.921 -17.383 -36.740  1.00  0.00     0.368 A 
ATOM      4  C   UNL     1       2.533 -16.452 -35.774  1.00  0.00     0.162 A 
ATOM      5  C   UNL     1       1.262 -16.516 -35.205  1.00  0.00     0.128 A 
ATOM      6  C   UNL     1       0.369 -17.517 -35.604  1.00  0.00     0.093 A 
ATOM      7  C   UNL     1       0.733 -18.462 -36.571  1.00  0.00     0.136 A 
ATOM      8  C   UNL     1       2.027 -18.401 -37.150  1.00  0.00     0.125 A 
ATOM      9  C   UNL     1       2.483 -19.314 -38.115  1.00  0.00     0.078 A 
ATOM     10  C   UNL     1       3.775 -19.194 -38.639  1.00  0.00     0.223 A 
ENDROOT
BRANCH   1  11
ATOM     11  C   UNL     1       5.964 -17.932 -38.715  1.00  0.00     0.091 A 
ATOM     12  C   UNL     1       6.201 -17.190 -39.884  1.00  0.00     0.068 A 
ATOM     13  C   UNL     1       7.509 -16.988 -40.347  1.00  0.00     0.162 A 
ATOM     14  C   UNL     1       7.056 -18.440 -37.995  1.00  0.00     0.068 A 
ATOM     15  C   UNL     1       8.596 -17.520 -39.632  1.00  0.00     0.200 A 
ATOM     16  C   UNL     1       8.365 -18.244 -38.450  1.00  0.00     0.162 A 
BRANCH  13  17
ATOM     17  O   UNL     1       7.732 -16.255 -41.512  1.00  0.00    -0.504 OA
ATOM     18  H   UNL     1       7.854 -15.249 -41.492  1.00  0.00     0.293 HD
ENDBRANCH  13  17
BRANCH  15  19
ATOM     19  O   UNL     1       9.903 -17.331 -40.081  1.00  0.00    -0.502 OA
ATOM     20  H   UNL     1      10.114 -16.843 -40.943  1.00  0.00     0.293 HD
ENDBRANCH  15  19
BRANCH  16  21
ATOM     21  O   UNL     1       9.422 -18.778 -37.714  1.00  0.00    -0.504 OA
ATOM     22  H   UNL     1       9.979 -19.552 -38.054  1.00  0.00     0.293 HD
ENDBRANCH  16  21
ENDBRANCH   1  11
BRANCH  10  23
ATOM     23  O   UNL     1       4.246 -20.129 -39.561  1.00  0.00    -0.500 OA
ATOM     24  H   UNL     1       3.738 -20.981 -39.761  1.00  0.00     0.294 HD
ENDBRANCH  10  23
BRANCH   5  25
ATOM     25  O   UNL     1       0.893 -15.579 -34.241  1.00  0.00    -0.507 OA
ATOM     26  H   UNL     1      -0.043 -15.191 -34.211  1.00  0.00     0.293 HD
ENDBRANCH   5  25
BRANCH   7  27
ATOM     27  O   UNL     1      -0.216 -19.427 -36.917  1.00  0.00    -0.507 OA
ATOM     28  H   UNL     1       0.004 -20.320 -37.334  1.00  0.00     0.293 HD
ENDBRANCH   7  27
TORSDOF 7
ENDMDL
MODEL 3
REMARK VINA RESULT:    -6.232      1.842      7.550
REMARK INTER + INTRA:          -8.061
REMARK INTER:                  -7.729
REMARK INTRA:                  -0.333
REMARK UNBOUND:                -0.373
REMARK SMILES Oc1cc(O)c2cc(O)c(-c3cc(O)c(O)c(O)c3)[o+]c2c1
REMARK SMILES IDX 10 1 20 2 21 3 22 4 2 5 3 6 4 7 6 8 7 9 8 10 11 11 12 12
REMARK SMILES IDX 13 13 19 14 15 15 17 16 14 17 16 19 18 21 9 23 1 25 5 27
REMARK H PARENT 14 18 16 20 18 22 9 24 1 26 5 28
REMARK Flexibility Score: inf
ROOT
ATOM      1  C   UNL     1       6.447 -17.556 -39.041  1.00  0.00     0.402 A 
ATOM      2  O   UNL     1       7.518 -18.308 -38.802  1.00  0.00    -0.202 OA
ATOM      3  C   UNL     1       8.742 -17.986 -39.209  1.00  0.00     0.368 A 
ATOM      4  C   UNL     1       9.805 -18.843 -38.913  1.00  0.00     0.162 A 
ATOM      5  C   UNL     1      11.098 -18.532 -39.330  1.00  0.00     0.128 A 
ATOM      6  C   UNL     1      11.335 -17.357 -40.051  1.00  0.00     0.093 A 
ATOM      7  C   UNL     1      10.287 -16.481 -40.362  1.00  0.00     0.136 A 
ATOM      8  C   UNL     1       8.969 -16.793 -39.936  1.00  0.00     0.125 A 
ATOM      9  C   UNL     1       7.861 -15.968 -40.190  1.00  0.00     0.078 A 
ATOM     10  C   UNL     1       6.592 -16.340 -39.735  1.00  0.00     0.223 A 
ENDROOT
BRANCH   1  11
ATOM     11  C   UNL     1       5.134 -18.027 -38.543  1.00  0.00     0.091 A 
ATOM     12  C   UNL     1       4.549 -17.478 -37.391  1.00  0.00     0.068 A 
ATOM     13  C   UNL     1       3.295 -17.922 -36.948  1.00  0.00     0.162 A 
ATOM     14  C   UNL     1       4.431 -19.001 -39.269  1.00  0.00     0.068 A 
ATOM     15  C   UNL     1       2.608 -18.914 -37.667  1.00  0.00     0.200 A 
ATOM     16  C   UNL     1       3.180 -19.451 -38.834  1.00  0.00     0.162 A 
BRANCH  13  17
ATOM     17  O   UNL     1       2.727 -17.374 -35.798  1.00  0.00    -0.504 OA
ATOM     18  H   UNL     1       1.758 -17.542 -35.551  1.00  0.00     0.293 HD
ENDBRANCH  13  17
BRANCH  15  19
ATOM     19  O   UNL     1       1.361 -19.369 -37.238  1.00  0.00    -0.502 OA
ATOM     20  H   UNL     1       0.957 -19.085 -36.354  1.00  0.00     0.293 HD
ENDBRANCH  15  19
BRANCH  16  21
ATOM     21  O   UNL     1       2.520 -20.431 -39.574  1.00  0.00    -0.504 OA
ATOM     22  H   UNL     1       2.241 -21.316 -39.168  1.00  0.00     0.293 HD
ENDBRANCH  16  21
ENDBRANCH   1  11
BRANCH  10  23
ATOM     23  O   UNL     1       5.499 -15.498 -39.943  1.00  0.00    -0.500 OA
ATOM     24  H   UNL     1       4.547 -15.826 -39.836  1.00  0.00     0.294 HD
ENDBRANCH  10  23
BRANCH   5  25
ATOM     25  O   UNL     1      12.146 -19.399 -39.024  1.00  0.00    -0.507 OA
ATOM     26  H   UNL     1      12.444 -20.120 -39.672  1.00  0.00     0.293 HD
ENDBRANCH   5  25
BRANCH   7  27
ATOM     27  O   UNL     1      10.604 -15.329 -41.087  1.00  0.00    -0.507 OA
ATOM     28  H   UNL     1      11.328 -14.674 -40.830  1.00  0.00     0.293 HD
ENDBRANCH   7  27
TORSDOF 7
ENDMDL
MODEL 4
REMARK VINA RESULT:    -6.203      2.071      7.473
REMARK INTER + INTRA:          -8.025
REMARK INTER:                  -8.395
REMARK INTRA:                   0.370
REMARK UNBOUND:                -0.373
REMARK SMILES Oc1cc(O)c2cc(O)c(-c3cc(O)c(O)c(O)c3)[o+]c2c1
REMARK SMILES IDX 10 1 20 2 21 3 22 4 2 5 3 6 4 7 6 8 7 9 8 10 11 11 12 12
REMARK SMILES IDX 13 13 19 14 15 15 17 16 14 17 16 19 18 21 9 23 1 25 5 27
REMARK H PARENT 14 18 16 20 18 22 9 24 1 26 5 28
REMARK Flexibility Score: inf
ROOT
ATOM      1  C   UNL     1       6.266 -17.654 -39.205  1.00  0.00     0.402 A 
ATOM      2  O   UNL     1       7.371 -18.357 -38.971  1.00  0.00    -0.202 OA
ATOM      3  C   UNL     1       8.574 -17.990 -39.402  1.00  0.00     0.368 A 
ATOM      4  C   UNL     1       9.677 -18.797 -39.109  1.00  0.00     0.162 A 
ATOM      5  C   UNL     1      10.950 -18.439 -39.552  1.00  0.00     0.128 A 
ATOM      6  C   UNL     1      11.125 -17.267 -40.296  1.00  0.00     0.093 A 
ATOM      7  C   UNL     1      10.036 -16.442 -40.604  1.00  0.00     0.136 A 
ATOM      8  C   UNL     1       8.740 -16.801 -40.153  1.00  0.00     0.125 A 
ATOM      9  C   UNL     1       7.594 -16.029 -40.402  1.00  0.00     0.078 A 
ATOM     10  C   UNL     1       6.348 -16.445 -39.920  1.00  0.00     0.223 A 
ENDROOT
BRANCH   1  11
ATOM     11  C   UNL     1       4.982 -18.172 -38.678  1.00  0.00     0.091 A 
ATOM     12  C   UNL     1       4.834 -19.517 -38.303  1.00  0.00     0.068 A 
ATOM     13  C   UNL     1       3.617 -19.983 -37.785  1.00  0.00     0.162 A 
ATOM     14  C   UNL     1       3.907 -17.288 -38.493  1.00  0.00     0.068 A 
ATOM     15  C   UNL     1       2.539 -19.097 -37.625  1.00  0.00     0.200 A 
ATOM     16  C   UNL     1       2.689 -17.744 -37.978  1.00  0.00     0.162 A 
BRANCH  13  17
ATOM     17  O   UNL     1       3.480 -21.323 -37.423  1.00  0.00    -0.504 OA
ATOM     18  H   UNL     1       4.000 -21.720 -36.650  1.00  0.00     0.293 HD
ENDBRANCH  13  17
BRANCH  15  19
ATOM     19  O   UNL     1       1.320 -19.544 -37.115  1.00  0.00    -0.502 OA
ATOM     20  H   UNL     1       0.559 -19.841 -37.714  1.00  0.00     0.293 HD
ENDBRANCH  15  19
BRANCH  16  21
ATOM     21  O   UNL     1       1.640 -16.839 -37.823  1.00  0.00    -0.504 OA
ATOM     22  H   UNL     1       0.791 -17.077 -37.325  1.00  0.00     0.293 HD
ENDBRANCH  16  21
ENDBRANCH   1  11
BRANCH  10  23
ATOM     23  O   UNL     1       5.218 -15.654 -40.125  1.00  0.00    -0.500 OA
ATOM     24  H   UNL     1       4.893 -15.000 -39.423  1.00  0.00     0.294 HD
ENDBRANCH  10  23
BRANCH   5  25
ATOM     25  O   UNL     1      12.038 -19.256 -39.249  1.00  0.00    -0.507 OA
ATOM     26  H   UNL     1      12.081 -20.219 -39.561  1.00  0.00     0.293 HD
ENDBRANCH   5  25
BRANCH   7  27
ATOM     27  O   UNL     1      10.293 -15.290 -41.354  1.00  0.00    -0.507 OA
ATOM     28  H   UNL     1      10.320 -14.356 -40.973  1.00  0.00     0.293 HD
ENDBRANCH   7  27
TORSDOF 7
ENDMDL
MODEL 5
REMARK VINA RESULT:    -6.072      1.267      7.114
REMARK INTER + INTRA:          -7.864
REMARK INTER:                  -7.520
REMARK INTRA:                  -0.344
REMARK UNBOUND:                -0.373
REMARK SMILES Oc1cc(O)c2cc(O)c(-c3cc(O)c(O)c(O)c3)[o+]c2c1
REMARK SMILES IDX 10 1 20 2 21 3 22 4 2 5 3 6 4 7 6 8 7 9 8 10 11 11 12 12
REMARK SMILES IDX 13 13 19 14 15 15 17 16 14 17 16 19 18 21 9 23 1 25 5 27
REMARK H PARENT 14 18 16 20 18 22 9 24 1 26 5 28
REMARK Flexibility Score: inf
ROOT
ATOM      1  C   UNL     1       4.320 -17.801 -38.039  1.00  0.00     0.402 A 
ATOM      2  O   UNL     1       4.645 -16.793 -38.844  1.00  0.00    -0.202 OA
ATOM      3  C   UNL     1       5.824 -16.693 -39.450  1.00  0.00     0.368 A 
ATOM      4  C   UNL     1       6.073 -15.593 -40.275  1.00  0.00     0.162 A 
ATOM      5  C   UNL     1       7.302 -15.461 -40.921  1.00  0.00     0.128 A 
ATOM      6  C   UNL     1       8.292 -16.432 -40.740  1.00  0.00     0.093 A 
ATOM      7  C   UNL     1       8.068 -17.544 -39.918  1.00  0.00     0.136 A 
ATOM      8  C   UNL     1       6.818 -17.683 -39.262  1.00  0.00     0.125 A 
ATOM      9  C   UNL     1       6.499 -18.770 -38.431  1.00  0.00     0.078 A 
ATOM     10  C   UNL     1       5.243 -18.841 -37.821  1.00  0.00     0.223 A 
ENDROOT
BRANCH   1  11
ATOM     11  C   UNL     1       2.977 -17.796 -37.415  1.00  0.00     0.091 A 
ATOM     12  C   UNL     1       1.934 -18.589 -37.918  1.00  0.00     0.068 A 
ATOM     13  C   UNL     1       0.675 -18.588 -37.299  1.00  0.00     0.162 A 
ATOM     14  C   UNL     1       2.756 -17.027 -36.262  1.00  0.00     0.068 A 
ATOM     15  C   UNL     1       0.456 -17.797 -36.159  1.00  0.00     0.200 A 
ATOM     16  C   UNL     1       1.504 -17.018 -35.639  1.00  0.00     0.162 A 
BRANCH  13  17
ATOM     17  O   UNL     1      -0.356 -19.375 -37.812  1.00  0.00    -0.504 OA
ATOM     18  H   UNL     1      -0.181 -20.096 -38.502  1.00  0.00     0.293 HD
ENDBRANCH  13  17
BRANCH  15  19
ATOM     19  O   UNL     1      -0.791 -17.781 -35.534  1.00  0.00    -0.502 OA
ATOM     20  H   UNL     1      -1.452 -17.025 -35.665  1.00  0.00     0.293 HD
ENDBRANCH  15  19
BRANCH  16  21
ATOM     21  O   UNL     1       1.320 -16.229 -34.504  1.00  0.00    -0.504 OA
ATOM     22  H   UNL     1       2.061 -16.070 -33.832  1.00  0.00     0.293 HD
ENDBRANCH  16  21
ENDBRANCH   1  11
BRANCH  10  23
ATOM     23  O   UNL     1       4.908 -19.945 -37.035  1.00  0.00    -0.500 OA
ATOM     24  H   UNL     1       4.883 -19.890 -36.024  1.00  0.00     0.294 HD
ENDBRANCH  10  23
BRANCH   5  25
ATOM     25  O   UNL     1       7.532 -14.357 -41.740  1.00  0.00    -0.507 OA
ATOM     26  H   UNL     1       6.792 -13.949 -42.299  1.00  0.00     0.293 HD
ENDBRANCH   5  25
BRANCH   7  27
ATOM     27  O   UNL     1       9.108 -18.468 -39.787  1.00  0.00    -0.507 OA
ATOM     28  H   UNL     1       8.985 -19.470 -39.799  1.00  0.00     0.293 HD
ENDBRANCH   7  27
TORSDOF 7
ENDMDL
MODEL 6
REMARK VINA RESULT:    -6.063      1.263      7.038
REMARK INTER + INTRA:          -7.853
REMARK INTER:                  -7.505
REMARK INTRA:                  -0.349
REMARK UNBOUND:                -0.373
REMARK SMILES Oc1cc(O)c2cc(O)c(-c3cc(O)c(O)c(O)c3)[o+]c2c1
REMARK SMILES IDX 10 1 20 2 21 3 22 4 2 5 3 6 4 7 6 8 7 9 8 10 11 11 12 12
REMARK SMILES IDX 13 13 19 14 15 15 17 16 14 17 16 19 18 21 9 23 1 25 5 27
REMARK H PARENT 14 18 16 20 18 22 9 24 1 26 5 28
REMARK Flexibility Score: inf
ROOT
ATOM      1  C   UNL     1       4.314 -17.822 -37.945  1.00  0.00     0.402 A 
ATOM      2  O   UNL     1       4.607 -16.814 -38.762  1.00  0.00    -0.202 OA
ATOM      3  C   UNL     1       5.771 -16.701 -39.395  1.00  0.00     0.368 A 
ATOM      4  C   UNL     1       5.987 -15.603 -40.231  1.00  0.00     0.162 A 
ATOM      5  C   UNL     1       7.199 -15.458 -40.904  1.00  0.00     0.128 A 
ATOM      6  C   UNL     1       8.207 -16.415 -40.740  1.00  0.00     0.093 A 
ATOM      7  C   UNL     1       8.016 -17.524 -39.907  1.00  0.00     0.136 A 
ATOM      8  C   UNL     1       6.782 -17.677 -39.223  1.00  0.00     0.125 A 
ATOM      9  C   UNL     1       6.497 -18.763 -38.379  1.00  0.00     0.078 A 
ATOM     10  C   UNL     1       5.255 -18.848 -37.741  1.00  0.00     0.223 A 
ENDROOT
BRANCH   1  11
ATOM     11  C   UNL     1       2.985 -17.831 -37.292  1.00  0.00     0.091 A 
ATOM     12  C   UNL     1       2.719 -17.039 -36.163  1.00  0.00     0.068 A 
ATOM     13  C   UNL     1       1.447 -17.044 -35.572  1.00  0.00     0.162 A 
ATOM     14  C   UNL     1       1.951 -18.602 -37.844  1.00  0.00     0.068 A 
ATOM     15  C   UNL     1       0.424 -17.837 -36.118  1.00  0.00     0.200 A 
ATOM     16  C   UNL     1       0.679 -18.615 -37.261  1.00  0.00     0.162 A 
BRANCH  13  17
ATOM     17  O   UNL     1       1.197 -16.258 -34.448  1.00  0.00    -0.504 OA
ATOM     18  H   UNL     1       1.010 -16.671 -33.541  1.00  0.00     0.293 HD
ENDBRANCH  13  17
BRANCH  15  19
ATOM     19  O   UNL     1      -0.846 -17.857 -35.540  1.00  0.00    -0.502 OA
ATOM     20  H   UNL     1      -0.983 -17.875 -34.537  1.00  0.00     0.293 HD
ENDBRANCH  15  19
BRANCH  16  21
ATOM     21  O   UNL     1      -0.317 -19.406 -37.831  1.00  0.00    -0.504 OA
ATOM     22  H   UNL     1      -0.111 -20.119 -38.520  1.00  0.00     0.293 HD
ENDBRANCH  16  21
ENDBRANCH   1  11
BRANCH  10  23
ATOM     23  O   UNL     1       4.953 -19.951 -36.942  1.00  0.00    -0.500 OA
ATOM     24  H   UNL     1       5.038 -20.899 -37.289  1.00  0.00     0.294 HD
ENDBRANCH  10  23
BRANCH   5  25
ATOM     25  O   UNL     1       7.396 -14.356 -41.735  1.00  0.00    -0.507 OA
ATOM     26  H   UNL     1       8.306 -14.144 -42.127  1.00  0.00     0.293 HD
ENDBRANCH   5  25
BRANCH   7  27
ATOM     27  O   UNL     1       9.071 -18.434 -39.794  1.00  0.00    -0.507 OA
ATOM     28  H   UNL     1       9.039 -19.389 -40.120  1.00  0.00     0.293 HD
ENDBRANCH   7  27
TORSDOF 7
ENDMDL
MODEL 7
REMARK VINA RESULT:    -6.033      1.178      1.434
REMARK INTER + INTRA:          -7.817
REMARK INTER:                  -7.439
REMARK INTRA:                  -0.377
REMARK UNBOUND:                -0.373
REMARK SMILES Oc1cc(O)c2cc(O)c(-c3cc(O)c(O)c(O)c3)[o+]c2c1
REMARK SMILES IDX 10 1 20 2 21 3 22 4 2 5 3 6 4 7 6 8 7 9 8 10 11 11 12 12
REMARK SMILES IDX 13 13 19 14 15 15 17 16 14 17 16 19 18 21 9 23 1 25 5 27
REMARK H PARENT 14 18 16 20 18 22 9 24 1 26 5 28
REMARK Flexibility Score: inf
ROOT
ATOM      1  C   UNL     1       3.587 -17.537 -37.481  1.00  0.00     0.402 A 
ATOM      2  O   UNL     1       3.326 -16.771 -36.425  1.00  0.00    -0.202 OA
ATOM      3  C   UNL     1       2.183 -16.827 -35.747  1.00  0.00     0.368 A 
ATOM      4  C   UNL     1       2.000 -15.979 -34.653  1.00  0.00     0.162 A 
ATOM      5  C   UNL     1       0.811 -16.014 -33.926  1.00  0.00     0.128 A 
ATOM      6  C   UNL     1      -0.206 -16.901 -34.295  1.00  0.00     0.093 A 
ATOM      7  C   UNL     1      -0.048 -17.761 -35.388  1.00  0.00     0.136 A 
ATOM      8  C   UNL     1       1.162 -17.731 -36.129  1.00  0.00     0.125 A 
ATOM      9  C   UNL     1       1.415 -18.565 -37.230  1.00  0.00     0.078 A 
ATOM     10  C   UNL     1       2.635 -18.481 -37.909  1.00  0.00     0.223 A 
ENDROOT
BRANCH   1  11
ATOM     11  C   UNL     1       4.894 -17.375 -38.158  1.00  0.00     0.091 A 
ATOM     12  C   UNL     1       6.028 -18.090 -37.741  1.00  0.00     0.068 A 
ATOM     13  C   UNL     1       7.252 -17.940 -38.409  1.00  0.00     0.162 A 
ATOM     14  C   UNL     1       4.991 -16.534 -39.278  1.00  0.00     0.068 A 
ATOM     15  C   UNL     1       7.345 -17.078 -39.515  1.00  0.00     0.200 A 
ATOM     16  C   UNL     1       6.208 -16.377 -39.950  1.00  0.00     0.162 A 
BRANCH  13  17
ATOM     17  O   UNL     1       8.373 -18.650 -37.981  1.00  0.00    -0.504 OA
ATOM     18  H   UNL     1       9.305 -18.415 -38.300  1.00  0.00     0.293 HD
ENDBRANCH  13  17
BRANCH  15  19
ATOM     19  O   UNL     1       8.556 -16.914 -40.189  1.00  0.00    -0.502 OA
ATOM     20  H   UNL     1       8.717 -16.148 -40.831  1.00  0.00     0.293 HD
ENDBRANCH  15  19
BRANCH  16  21
ATOM     21  O   UNL     1       6.266 -15.520 -41.049  1.00  0.00    -0.504 OA
ATOM     22  H   UNL     1       6.209 -14.514 -40.951  1.00  0.00     0.293 HD
ENDBRANCH  16  21
ENDBRANCH   1  11
BRANCH  10  23
ATOM     23  O   UNL     1       2.906 -19.343 -38.972  1.00  0.00    -0.500 OA
ATOM     24  H   UNL     1       3.595 -19.116 -39.678  1.00  0.00     0.294 HD
ENDBRANCH  10  23
BRANCH   5  25
ATOM     25  O   UNL     1       0.646 -15.160 -32.836  1.00  0.00    -0.507 OA
ATOM     26  H   UNL     1       0.406 -14.184 -32.959  1.00  0.00     0.293 HD
ENDBRANCH   5  25
BRANCH   7  27
ATOM     27  O   UNL     1      -1.110 -18.616 -35.695  1.00  0.00    -0.507 OA
ATOM     28  H   UNL     1      -1.197 -19.563 -35.355  1.00  0.00     0.293 HD
ENDBRANCH   7  27
TORSDOF 7
ENDMDL
MODEL 8
REMARK VINA RESULT:    -5.998      2.708      7.018
REMARK INTER + INTRA:          -7.773
REMARK INTER:                  -7.530
REMARK INTRA:                  -0.242
REMARK UNBOUND:                -0.373
REMARK SMILES Oc1cc(O)c2cc(O)c(-c3cc(O)c(O)c(O)c3)[o+]c2c1
REMARK SMILES IDX 10 1 20 2 21 3 22 4 2 5 3 6 4 7 6 8 7 9 8 10 11 11 12 12
REMARK SMILES IDX 13 13 19 14 15 15 17 16 14 17 16 19 18 21 9 23 1 25 5 27
REMARK H PARENT 14 18 16 20 18 22 9 24 1 26 5 28
REMARK Flexibility Score: inf
ROOT
ATOM      1  C   UNL     1       6.607 -17.393 -39.508  1.00  0.00     0.402 A 
ATOM      2  O   UNL     1       6.058 -16.411 -40.218  1.00  0.00    -0.202 OA
ATOM      3  C   UNL     1       6.763 -15.573 -40.972  1.00  0.00     0.368 A 
ATOM      4  C   UNL     1       6.097 -14.569 -41.680  1.00  0.00     0.162 A 
ATOM      5  C   UNL     1       6.811 -13.675 -42.475  1.00  0.00     0.128 A 
ATOM      6  C   UNL     1       8.204 -13.781 -42.566  1.00  0.00     0.093 A 
ATOM      7  C   UNL     1       8.896 -14.777 -41.866  1.00  0.00     0.136 A 
ATOM      8  C   UNL     1       8.172 -15.691 -41.058  1.00  0.00     0.125 A 
ATOM      9  C   UNL     1       8.779 -16.729 -40.333  1.00  0.00     0.078 A 
ATOM     10  C   UNL     1       7.998 -17.595 -39.560  1.00  0.00     0.223 A 
ENDROOT
BRANCH   1  11
ATOM     11  C   UNL     1       5.715 -18.256 -38.699  1.00  0.00     0.091 A 
ATOM     12  C   UNL     1       5.820 -18.308 -37.300  1.00  0.00     0.068 A 
ATOM     13  C   UNL     1       4.951 -19.113 -36.550  1.00  0.00     0.162 A 
ATOM     14  C   UNL     1       4.705 -18.993 -39.337  1.00  0.00     0.068 A 
ATOM     15  C   UNL     1       3.958 -19.867 -37.198  1.00  0.00     0.200 A 
ATOM     16  C   UNL     1       3.835 -19.801 -38.597  1.00  0.00     0.162 A 
BRANCH  13  17
ATOM     17  O   UNL     1       5.069 -19.162 -35.161  1.00  0.00    -0.504 OA
ATOM     18  H   UNL     1       4.520 -19.805 -34.603  1.00  0.00     0.293 HD
ENDBRANCH  13  17
BRANCH  15  19
ATOM     19  O   UNL     1       3.089 -20.676 -36.467  1.00  0.00    -0.502 OA
ATOM     20  H   UNL     1       2.083 -20.622 -36.572  1.00  0.00     0.293 HD
ENDBRANCH  15  19
BRANCH  16  21
ATOM     21  O   UNL     1       2.855 -20.530 -39.268  1.00  0.00    -0.504 OA
ATOM     22  H   UNL     1       3.062 -21.400 -39.744  1.00  0.00     0.293 HD
ENDBRANCH  16  21
ENDBRANCH   1  11
BRANCH  10  23
ATOM     23  O   UNL     1       8.596 -18.657 -38.879  1.00  0.00    -0.500 OA
ATOM     24  H   UNL     1       9.547 -18.945 -39.073  1.00  0.00     0.294 HD
ENDBRANCH  10  23
BRANCH   5  25
ATOM     25  O   UNL     1       6.129 -12.681 -43.174  1.00  0.00    -0.507 OA
ATOM     26  H   UNL     1       5.337 -12.196 -42.768  1.00  0.00     0.293 HD
ENDBRANCH   5  25
BRANCH   7  27
ATOM     27  O   UNL     1      10.286 -14.815 -42.006  1.00  0.00    -0.507 OA
ATOM     28  H   UNL     1      10.939 -14.617 -41.262  1.00  0.00     0.293 HD
ENDBRANCH   7  27
TORSDOF 7
ENDMDL
MODEL 9
REMARK VINA RESULT:    -5.986      2.228      4.157
REMARK INTER + INTRA:          -7.759
REMARK INTER:                  -7.628
REMARK INTRA:                  -0.130
REMARK UNBOUND:                -0.373
REMARK SMILES Oc1cc(O)c2cc(O)c(-c3cc(O)c(O)c(O)c3)[o+]c2c1
REMARK SMILES IDX 10 1 20 2 21 3 22 4 2 5 3 6 4 7 6 8 7 9 8 10 11 11 12 12
REMARK SMILES IDX 13 13 19 14 15 15 17 16 14 17 16 19 18 21 9 23 1 25 5 27
REMARK H PARENT 14 18 16 20 18 22 9 24 1 26 5 28
REMARK Flexibility Score: inf
ROOT
ATOM      1  C   UNL     1       5.787 -16.703 -39.526  1.00  0.00     0.402 A 
ATOM      2  O   UNL     1       5.721 -18.012 -39.300  1.00  0.00    -0.202 OA
ATOM      3  C   UNL     1       4.845 -18.567 -38.468  1.00  0.00     0.368 A 
ATOM      4  C   UNL     1       4.856 -19.953 -38.293  1.00  0.00     0.162 A 
ATOM      5  C   UNL     1       3.951 -20.561 -37.424  1.00  0.00     0.128 A 
ATOM      6  C   UNL     1       3.028 -19.779 -36.720  1.00  0.00     0.093 A 
ATOM      7  C   UNL     1       2.997 -18.388 -36.876  1.00  0.00     0.136 A 
ATOM      8  C   UNL     1       3.915 -17.766 -37.762  1.00  0.00     0.125 A 
ATOM      9  C   UNL     1       3.947 -16.381 -37.992  1.00  0.00     0.078 A 
ATOM     10  C   UNL     1       4.879 -15.840 -38.884  1.00  0.00     0.223 A 
ENDROOT
BRANCH   1  11
ATOM     11  C   UNL     1       6.813 -16.205 -40.470  1.00  0.00     0.091 A 
ATOM     12  C   UNL     1       6.462 -15.447 -41.599  1.00  0.00     0.068 A 
ATOM     13  C   UNL     1       7.450 -14.965 -42.469  1.00  0.00     0.162 A 
ATOM     14  C   UNL     1       8.170 -16.443 -40.202  1.00  0.00     0.068 A 
ATOM     15  C   UNL     1       8.805 -15.229 -42.206  1.00  0.00     0.200 A 
ATOM     16  C   UNL     1       9.163 -15.968 -41.065  1.00  0.00     0.162 A 
BRANCH  13  17
ATOM     17  O   UNL     1       7.089 -14.220 -43.592  1.00  0.00    -0.504 OA
ATOM     18  H   UNL     1       7.056 -14.633 -44.516  1.00  0.00     0.293 HD
ENDBRANCH  13  17
BRANCH  15  19
ATOM     19  O   UNL     1       9.801 -14.760 -43.064  1.00  0.00    -0.502 OA
ATOM     20  H   UNL     1      10.355 -15.382 -43.640  1.00  0.00     0.293 HD
ENDBRANCH  15  19
BRANCH  16  21
ATOM     21  O   UNL     1      10.499 -16.239 -40.772  1.00  0.00    -0.504 OA
ATOM     22  H   UNL     1      11.197 -15.508 -40.717  1.00  0.00     0.293 HD
ENDBRANCH  16  21
ENDBRANCH   1  11
BRANCH  10  23
ATOM     23  O   UNL     1       4.879 -14.470 -39.150  1.00  0.00    -0.500 OA
ATOM     24  H   UNL     1       4.153 -14.036 -39.706  1.00  0.00     0.294 HD
ENDBRANCH  10  23
BRANCH   5  25
ATOM     25  O   UNL     1       3.977 -21.945 -37.264  1.00  0.00    -0.507 OA
ATOM     26  H   UNL     1       3.169 -22.454 -36.925  1.00  0.00     0.293 HD
ENDBRANCH   5  25
BRANCH   7  27
ATOM     27  O   UNL     1       2.048 -17.678 -36.135  1.00  0.00    -0.507 OA
ATOM     28  H   UNL     1       1.976 -17.701 -35.129  1.00  0.00     0.293 HD
ENDBRANCH   7  27
TORSDOF 7
ENDMDL
