MODEL 1
REMARK VINA RESULT:    -7.007      0.000      0.000
REMARK INTER + INTRA:          -8.761
REMARK INTER:                  -8.441
REMARK INTRA:                  -0.321
REMARK UNBOUND:                -0.321
REMARK SMILES O=c1c(O)c(-c2ccc(O)c(O)c2)oc2cc(O)cc(O)c12
REMARK SMILES IDX 5 1 3 2 2 3 1 4 22 5 20 6 19 7 17 8 16 9 15 10 14 11 6 12
REMARK SMILES IDX 7 13 8 14 9 15 13 16 11 17 10 18 12 20 4 22 21 24 18 26
REMARK H PARENT 10 19 12 21 4 23 21 25 18 27
REMARK Flexibility Score: inf
ROOT
ATOM      1  C   UNL     1      19.121  18.029   8.534  1.00  0.00     0.180 A 
ATOM      2  C   UNL     1      18.170  18.981   8.952  1.00  0.00     0.208 A 
ATOM      3  C   UNL     1      17.258  19.485   8.012  1.00  0.00     0.238 A 
ATOM      4  O   UNL     1      16.395  20.329   8.376  1.00  0.00    -0.285 OA
ATOM      5  C   UNL     1      17.324  19.048   6.673  1.00  0.00     0.111 A 
ATOM      6  C   UNL     1      16.445  19.510   5.664  1.00  0.00     0.134 A 
ATOM      7  C   UNL     1      16.580  19.033   4.351  1.00  0.00     0.093 A 
ATOM      8  C   UNL     1      17.577  18.106   4.029  1.00  0.00     0.123 A 
ATOM      9  C   UNL     1      18.446  17.646   5.021  1.00  0.00     0.094 A 
ATOM     10  C   UNL     1      18.326  18.108   6.335  1.00  0.00     0.146 A 
ATOM     11  O   UNL     1      19.163  17.651   7.260  1.00  0.00    -0.452 OA
ENDROOT
BRANCH   1  12
ATOM     12  C   UNL     1      20.104  17.436   9.470  1.00  0.00     0.025 A 
ATOM     13  C   UNL     1      19.865  16.202  10.099  1.00  0.00     0.016 A 
ATOM     14  C   UNL     1      20.818  15.651  10.959  1.00  0.00     0.051 A 
ATOM     15  C   UNL     1      22.027  16.318  11.193  1.00  0.00     0.157 A 
ATOM     16  C   UNL     1      21.327  18.090   9.693  1.00  0.00     0.062 A 
ATOM     17  C   UNL     1      22.284  17.538  10.557  1.00  0.00     0.158 A 
BRANCH  15  18
ATOM     18  O   UNL     1      22.980  15.772  12.053  1.00  0.00    -0.504 OA
ATOM     19  H   UNL     1      23.972  15.857  11.866  1.00  0.00     0.293 HD
ENDBRANCH  15  18
BRANCH  17  20
ATOM     20  O   UNL     1      23.490  18.196  10.786  1.00  0.00    -0.504 OA
ATOM     21  H   UNL     1      23.592  19.191  10.620  1.00  0.00     0.293 HD
ENDBRANCH  17  20
ENDBRANCH   1  12
BRANCH   2  22
ATOM     22  O   UNL     1      18.158  19.434  10.273  1.00  0.00    -0.502 OA
ATOM     23  H   UNL     1      18.946  19.306  10.898  1.00  0.00     0.293 HD
ENDBRANCH   2  22
BRANCH   6  24
ATOM     24  O   UNL     1      15.442  20.435   5.954  1.00  0.00    -0.507 OA
ATOM     25  H   UNL     1      14.637  20.190   6.521  1.00  0.00     0.293 HD
ENDBRANCH   6  24
BRANCH   8  26
ATOM     26  O   UNL     1      17.712  17.632   2.727  1.00  0.00    -0.508 OA
ATOM     27  H   UNL     1      18.394  16.920   2.489  1.00  0.00     0.293 HD
ENDBRANCH   8  26
TORSDOF 6
ENDMDL
MODEL 2
REMARK VINA RESULT:    -6.596      2.162      6.780
REMARK INTER + INTRA:          -8.266
REMARK INTER:                  -7.965
REMARK INTRA:                  -0.301
REMARK UNBOUND:                -0.321
REMARK SMILES O=c1c(O)c(-c2ccc(O)c(O)c2)oc2cc(O)cc(O)c12
REMARK SMILES IDX 5 1 3 2 2 3 1 4 22 5 20 6 19 7 17 8 16 9 15 10 14 11 6 12
REMARK SMILES IDX 7 13 8 14 9 15 13 16 11 17 10 18 12 20 4 22 21 24 18 26
REMARK H PARENT 10 19 12 21 4 23 21 25 18 27
REMARK Flexibility Score: inf
ROOT
ATOM      1  C   UNL     1      18.942  17.904   7.863  1.00  0.00     0.180 A 
ATOM      2  C   UNL     1      19.713  17.806   6.687  1.00  0.00     0.208 A 
ATOM      3  C   UNL     1      21.111  17.756   6.796  1.00  0.00     0.238 A 
ATOM      4  O   UNL     1      21.811  17.657   5.752  1.00  0.00    -0.285 OA
ATOM      5  C   UNL     1      21.714  17.826   8.068  1.00  0.00     0.111 A 
ATOM      6  C   UNL     1      23.116  17.788   8.263  1.00  0.00     0.134 A 
ATOM      7  C   UNL     1      23.641  17.872   9.562  1.00  0.00     0.093 A 
ATOM      8  C   UNL     1      22.791  17.996  10.667  1.00  0.00     0.123 A 
ATOM      9  C   UNL     1      21.408  18.033  10.479  1.00  0.00     0.094 A 
ATOM     10  C   UNL     1      20.866  17.949   9.193  1.00  0.00     0.146 A 
ATOM     11  O   UNL     1      19.546  17.983   9.044  1.00  0.00    -0.452 OA
ENDROOT
BRANCH   1  12
ATOM     12  C   UNL     1      17.462  17.941   7.832  1.00  0.00     0.025 A 
ATOM     13  C   UNL     1      16.694  16.800   8.120  1.00  0.00     0.016 A 
ATOM     14  C   UNL     1      15.298  16.867   8.109  1.00  0.00     0.051 A 
ATOM     15  C   UNL     1      14.651  18.075   7.822  1.00  0.00     0.157 A 
ATOM     16  C   UNL     1      16.807  19.156   7.565  1.00  0.00     0.062 A 
ATOM     17  C   UNL     1      15.407  19.222   7.552  1.00  0.00     0.158 A 
BRANCH  15  18
ATOM     18  O   UNL     1      13.259  18.145   7.807  1.00  0.00    -0.504 OA
ATOM     19  H   UNL     1      12.722  17.852   6.999  1.00  0.00     0.293 HD
ENDBRANCH  15  18
BRANCH  17  20
ATOM     20  O   UNL     1      14.761  20.425   7.275  1.00  0.00    -0.504 OA
ATOM     21  H   UNL     1      15.277  21.289   7.157  1.00  0.00     0.293 HD
ENDBRANCH  17  20
ENDBRANCH   1  12
BRANCH   2  22
ATOM     22  O   UNL     1      19.092  17.787   5.436  1.00  0.00    -0.502 OA
ATOM     23  H   UNL     1      19.026  18.612   4.850  1.00  0.00     0.293 HD
ENDBRANCH   2  22
BRANCH   6  24
ATOM     24  O   UNL     1      23.989  17.666   7.182  1.00  0.00    -0.507 OA
ATOM     25  H   UNL     1      24.150  16.776   6.723  1.00  0.00     0.293 HD
ENDBRANCH   6  24
BRANCH   8  26
ATOM     26  O   UNL     1      23.310  18.080  11.956  1.00  0.00    -0.508 OA
ATOM     27  H   UNL     1      24.298  18.239  12.120  1.00  0.00     0.293 HD
ENDBRANCH   8  26
TORSDOF 6
ENDMDL
MODEL 3
REMARK VINA RESULT:    -6.478      1.445      3.322
REMARK INTER + INTRA:          -8.125
REMARK INTER:                  -8.064
REMARK INTRA:                  -0.060
REMARK UNBOUND:                -0.321
REMARK SMILES O=c1c(O)c(-c2ccc(O)c(O)c2)oc2cc(O)cc(O)c12
REMARK SMILES IDX 5 1 3 2 2 3 1 4 22 5 20 6 19 7 17 8 16 9 15 10 14 11 6 12
REMARK SMILES IDX 7 13 8 14 9 15 13 16 11 17 10 18 12 20 4 22 21 24 18 26
REMARK H PARENT 10 19 12 21 4 23 21 25 18 27
REMARK Flexibility Score: inf
ROOT
ATOM      1  C   UNL     1      20.032  18.014   7.151  1.00  0.00     0.180 A 
ATOM      2  C   UNL     1      20.275  17.560   5.839  1.00  0.00     0.208 A 
ATOM      3  C   UNL     1      19.294  17.769   4.858  1.00  0.00     0.238 A 
ATOM      4  O   UNL     1      19.504  17.378   3.678  1.00  0.00    -0.285 OA
ATOM      5  C   UNL     1      18.085  18.406   5.205  1.00  0.00     0.111 A 
ATOM      6  C   UNL     1      17.044  18.650   4.276  1.00  0.00     0.134 A 
ATOM      7  C   UNL     1      15.865  19.282   4.702  1.00  0.00     0.093 A 
ATOM      8  C   UNL     1      15.709  19.672   6.037  1.00  0.00     0.123 A 
ATOM      9  C   UNL     1      16.732  19.434   6.956  1.00  0.00     0.094 A 
ATOM     10  C   UNL     1      17.915  18.807   6.550  1.00  0.00     0.146 A 
ATOM     11  O   UNL     1      18.874  18.597   7.445  1.00  0.00    -0.452 OA
ENDROOT
BRANCH   1  12
ATOM     12  C   UNL     1      21.025  17.848   8.237  1.00  0.00     0.025 A 
ATOM     13  C   UNL     1      22.353  18.287   8.089  1.00  0.00     0.016 A 
ATOM     14  C   UNL     1      23.266  18.142   9.137  1.00  0.00     0.051 A 
ATOM     15  C   UNL     1      22.863  17.568  10.350  1.00  0.00     0.157 A 
ATOM     16  C   UNL     1      20.623  17.293   9.463  1.00  0.00     0.062 A 
ATOM     17  C   UNL     1      21.538  17.145  10.514  1.00  0.00     0.158 A 
BRANCH  15  18
ATOM     18  O   UNL     1      23.771  17.420  11.396  1.00  0.00    -0.504 OA
ATOM     19  H   UNL     1      23.461  17.266  12.349  1.00  0.00     0.293 HD
ENDBRANCH  15  18
BRANCH  17  20
ATOM     20  O   UNL     1      21.139  16.582  11.724  1.00  0.00    -0.504 OA
ATOM     21  H   UNL     1      21.801  16.127  12.341  1.00  0.00     0.293 HD
ENDBRANCH  17  20
ENDBRANCH   1  12
BRANCH   2  22
ATOM     22  O   UNL     1      21.460  16.889   5.533  1.00  0.00    -0.502 OA
ATOM     23  H   UNL     1      22.105  16.571   6.247  1.00  0.00     0.293 HD
ENDBRANCH   2  22
BRANCH   6  24
ATOM     24  O   UNL     1      17.171  18.272   2.939  1.00  0.00    -0.507 OA
ATOM     25  H   UNL     1      16.374  18.253   2.312  1.00  0.00     0.293 HD
ENDBRANCH   6  24
BRANCH   8  26
ATOM     26  O   UNL     1      14.539  20.298   6.460  1.00  0.00    -0.508 OA
ATOM     27  H   UNL     1      14.340  20.440   7.444  1.00  0.00     0.293 HD
ENDBRANCH   8  26
TORSDOF 6
ENDMDL
MODEL 4
REMARK VINA RESULT:    -6.242      2.834      4.562
REMARK INTER + INTRA:          -7.840
REMARK INTER:                  -7.634
REMARK INTRA:                  -0.206
REMARK UNBOUND:                -0.321
REMARK SMILES O=c1c(O)c(-c2ccc(O)c(O)c2)oc2cc(O)cc(O)c12
REMARK SMILES IDX 5 1 3 2 2 3 1 4 22 5 20 6 19 7 17 8 16 9 15 10 14 11 6 12
REMARK SMILES IDX 7 13 8 14 9 15 13 16 11 17 10 18 12 20 4 22 21 24 18 26
REMARK H PARENT 10 19 12 21 4 23 21 25 18 27
REMARK Flexibility Score: inf
ROOT
ATOM      1  C   UNL     1      21.841  17.086   6.882  1.00  0.00     0.180 A 
ATOM      2  C   UNL     1      22.772  16.511   5.995  1.00  0.00     0.208 A 
ATOM      3  C   UNL     1      22.467  16.467   4.626  1.00  0.00     0.238 A 
ATOM      4  O   UNL     1      23.297  15.965   3.821  1.00  0.00    -0.285 OA
ATOM      5  C   UNL     1      21.233  16.977   4.171  1.00  0.00     0.111 A 
ATOM      6  C   UNL     1      20.847  16.966   2.808  1.00  0.00     0.134 A 
ATOM      7  C   UNL     1      19.597  17.484   2.435  1.00  0.00     0.093 A 
ATOM      8  C   UNL     1      18.729  18.010   3.398  1.00  0.00     0.123 A 
ATOM      9  C   UNL     1      19.105  18.024   4.742  1.00  0.00     0.094 A 
ATOM     10  C   UNL     1      20.347  17.514   5.133  1.00  0.00     0.146 A 
ATOM     11  O   UNL     1      20.682  17.543   6.418  1.00  0.00    -0.452 OA
ENDROOT
BRANCH   1  12
ATOM     12  C   UNL     1      22.099  17.187   8.337  1.00  0.00     0.025 A 
ATOM     13  C   UNL     1      23.122  18.006   8.844  1.00  0.00     0.016 A 
ATOM     14  C   UNL     1      23.331  18.103  10.223  1.00  0.00     0.051 A 
ATOM     15  C   UNL     1      22.513  17.395  11.112  1.00  0.00     0.157 A 
ATOM     16  C   UNL     1      21.269  16.495   9.235  1.00  0.00     0.062 A 
ATOM     17  C   UNL     1      21.479  16.592  10.618  1.00  0.00     0.158 A 
BRANCH  15  18
ATOM     18  O   UNL     1      22.719  17.489  12.488  1.00  0.00    -0.504 OA
ATOM     19  H   UNL     1      23.651  17.476  12.886  1.00  0.00     0.293 HD
ENDBRANCH  15  18
BRANCH  17  20
ATOM     20  O   UNL     1      20.662  15.894  11.506  1.00  0.00    -0.504 OA
ATOM     21  H   UNL     1      21.051  15.301  12.230  1.00  0.00     0.293 HD
ENDBRANCH  17  20
ENDBRANCH   1  12
BRANCH   2  22
ATOM     22  O   UNL     1      23.965  15.969   6.478  1.00  0.00    -0.502 OA
ATOM     23  H   UNL     1      24.874  16.300   6.176  1.00  0.00     0.293 HD
ENDBRANCH   2  22
BRANCH   6  24
ATOM     24  O   UNL     1      21.691  16.447   1.827  1.00  0.00    -0.507 OA
ATOM     25  H   UNL     1      21.616  16.728   0.855  1.00  0.00     0.293 HD
ENDBRANCH   6  24
BRANCH   8  26
ATOM     26  O   UNL     1      17.488  18.525   3.028  1.00  0.00    -0.508 OA
ATOM     27  H   UNL     1      16.684  17.923   2.893  1.00  0.00     0.293 HD
ENDBRANCH   8  26
TORSDOF 6
ENDMDL
MODEL 5
REMARK VINA RESULT:    -6.183      2.330      6.502
REMARK INTER + INTRA:          -7.768
REMARK INTER:                  -7.480
REMARK INTRA:                  -0.289
REMARK UNBOUND:                -0.321
REMARK SMILES O=c1c(O)c(-c2ccc(O)c(O)c2)oc2cc(O)cc(O)c12
REMARK SMILES IDX 5 1 3 2 2 3 1 4 22 5 20 6 19 7 17 8 16 9 15 10 14 11 6 12
REMARK SMILES IDX 7 13 8 14 9 15 13 16 11 17 10 18 12 20 4 22 21 24 18 26
REMARK H PARENT 10 19 12 21 4 23 21 25 18 27
REMARK Flexibility Score: inf
ROOT
ATOM      1  C   UNL     1      18.255  18.561   6.866  1.00  0.00     0.180 A 
ATOM      2  C   UNL     1      18.586  18.757   8.222  1.00  0.00     0.208 A 
ATOM      3  C   UNL     1      19.920  18.589   8.624  1.00  0.00     0.238 A 
ATOM      4  O   UNL     1      20.231  18.773   9.832  1.00  0.00    -0.285 OA
ATOM      5  C   UNL     1      20.892  18.210   7.675  1.00  0.00     0.111 A 
ATOM      6  C   UNL     1      22.257  18.015   8.000  1.00  0.00     0.134 A 
ATOM      7  C   UNL     1      23.162  17.629   7.000  1.00  0.00     0.093 A 
ATOM      8  C   UNL     1      22.728  17.432   5.684  1.00  0.00     0.123 A 
ATOM      9  C   UNL     1      21.384  17.623   5.359  1.00  0.00     0.094 A 
ATOM     10  C   UNL     1      20.467  18.010   6.341  1.00  0.00     0.146 A 
ATOM     11  O   UNL     1      19.195  18.189   6.003  1.00  0.00    -0.452 OA
ENDROOT
BRANCH   1  12
ATOM     12  C   UNL     1      16.874  18.738   6.361  1.00  0.00     0.025 A 
ATOM     13  C   UNL     1      15.889  17.754   6.561  1.00  0.00     0.016 A 
ATOM     14  C   UNL     1      14.586  17.955   6.096  1.00  0.00     0.051 A 
ATOM     15  C   UNL     1      14.247  19.144   5.438  1.00  0.00     0.157 A 
ATOM     16  C   UNL     1      16.521  19.937   5.719  1.00  0.00     0.062 A 
ATOM     17  C   UNL     1      15.215  20.138   5.252  1.00  0.00     0.158 A 
BRANCH  15  18
ATOM     18  O   UNL     1      12.949  19.347   4.971  1.00  0.00    -0.504 OA
ATOM     19  H   UNL     1      12.716  19.240   3.991  1.00  0.00     0.293 HD
ENDBRANCH  15  18
BRANCH  17  20
ATOM     20  O   UNL     1      14.872  21.323   4.604  1.00  0.00    -0.504 OA
ATOM     21  H   UNL     1      14.256  21.328   3.800  1.00  0.00     0.293 HD
ENDBRANCH  17  20
ENDBRANCH   1  12
BRANCH   2  22
ATOM     22  O   UNL     1      17.596  19.085   9.150  1.00  0.00    -0.502 OA
ATOM     23  H   UNL     1      16.608  18.967   8.956  1.00  0.00     0.293 HD
ENDBRANCH   2  22
BRANCH   6  24
ATOM     24  O   UNL     1      22.719  18.203   9.303  1.00  0.00    -0.507 OA
ATOM     25  H   UNL     1      23.665  17.961   9.574  1.00  0.00     0.293 HD
ENDBRANCH   6  24
BRANCH   8  26
ATOM     26  O   UNL     1      23.626  17.047   4.691  1.00  0.00    -0.508 OA
ATOM     27  H   UNL     1      23.469  17.277   3.716  1.00  0.00     0.293 HD
ENDBRANCH   8  26
TORSDOF 6
ENDMDL
MODEL 6
REMARK VINA RESULT:    -6.182      4.334      5.704
REMARK INTER + INTRA:          -7.768
REMARK INTER:                  -7.456
REMARK INTRA:                  -0.312
REMARK UNBOUND:                -0.321
REMARK SMILES O=c1c(O)c(-c2ccc(O)c(O)c2)oc2cc(O)cc(O)c12
REMARK SMILES IDX 5 1 3 2 2 3 1 4 22 5 20 6 19 7 17 8 16 9 15 10 14 11 6 12
REMARK SMILES IDX 7 13 8 14 9 15 13 16 11 17 10 18 12 20 4 22 21 24 18 26
REMARK H PARENT 10 19 12 21 4 23 21 25 18 27
REMARK Flexibility Score: inf
ROOT
ATOM      1  C   UNL     1      22.501  16.677   6.977  1.00  0.00     0.180 A 
ATOM      2  C   UNL     1      21.768  17.428   6.036  1.00  0.00     0.208 A 
ATOM      3  C   UNL     1      21.840  17.071   4.681  1.00  0.00     0.238 A 
ATOM      4  O   UNL     1      21.180  17.728   3.831  1.00  0.00    -0.285 OA
ATOM      5  C   UNL     1      22.656  15.991   4.287  1.00  0.00     0.111 A 
ATOM      6  C   UNL     1      22.788  15.571   2.940  1.00  0.00     0.134 A 
ATOM      7  C   UNL     1      23.627  14.491   2.627  1.00  0.00     0.093 A 
ATOM      8  C   UNL     1      24.337  13.826   3.633  1.00  0.00     0.123 A 
ATOM      9  C   UNL     1      24.210  14.236   4.962  1.00  0.00     0.094 A 
ATOM     10  C   UNL     1      23.377  15.308   5.294  1.00  0.00     0.146 A 
ATOM     11  O   UNL     1      23.271  15.674   6.566  1.00  0.00    -0.452 OA
ENDROOT
BRANCH   1  12
ATOM     12  C   UNL     1      22.460  16.978   8.426  1.00  0.00     0.025 A 
ATOM     13  C   UNL     1      23.277  17.974   8.990  1.00  0.00     0.016 A 
ATOM     14  C   UNL     1      23.203  18.257  10.357  1.00  0.00     0.051 A 
ATOM     15  C   UNL     1      22.306  17.560  11.175  1.00  0.00     0.157 A 
ATOM     16  C   UNL     1      21.548  16.297   9.248  1.00  0.00     0.062 A 
ATOM     17  C   UNL     1      21.474  16.580  10.620  1.00  0.00     0.158 A 
BRANCH  15  18
ATOM     18  O   UNL     1      22.231  17.838  12.539  1.00  0.00    -0.504 OA
ATOM     19  H   UNL     1      22.898  17.450  13.196  1.00  0.00     0.293 HD
ENDBRANCH  15  18
BRANCH  17  20
ATOM     20  O   UNL     1      20.577  15.893  11.434  1.00  0.00    -0.504 OA
ATOM     21  H   UNL     1      20.267  16.274  12.321  1.00  0.00     0.293 HD
ENDBRANCH  17  20
ENDBRANCH   1  12
BRANCH   2  22
ATOM     22  O   UNL     1      21.006  18.524   6.447  1.00  0.00    -0.502 OA
ATOM     23  H   UNL     1      20.052  18.429   6.777  1.00  0.00     0.293 HD
ENDBRANCH   2  22
BRANCH   6  24
ATOM     24  O   UNL     1      22.094  16.216   1.916  1.00  0.00    -0.507 OA
ATOM     25  H   UNL     1      21.995  15.801   0.996  1.00  0.00     0.293 HD
ENDBRANCH   6  24
BRANCH   8  26
ATOM     26  O   UNL     1      25.171  12.754   3.323  1.00  0.00    -0.508 OA
ATOM     27  H   UNL     1      25.129  11.883   3.839  1.00  0.00     0.293 HD
ENDBRANCH   8  26
TORSDOF 6
ENDMDL
MODEL 7
REMARK VINA RESULT:    -6.150      2.509      6.238
REMARK INTER + INTRA:          -7.729
REMARK INTER:                  -7.461
REMARK INTRA:                  -0.268
REMARK UNBOUND:                -0.321
REMARK SMILES O=c1c(O)c(-c2ccc(O)c(O)c2)oc2cc(O)cc(O)c12
REMARK SMILES IDX 5 1 3 2 2 3 1 4 22 5 20 6 19 7 17 8 16 9 15 10 14 11 6 12
REMARK SMILES IDX 7 13 8 14 9 15 13 16 11 17 10 18 12 20 4 22 21 24 18 26
REMARK H PARENT 10 19 12 21 4 23 21 25 18 27
REMARK Flexibility Score: inf
ROOT
ATOM      1  C   UNL     1      18.666  18.395   7.908  1.00  0.00     0.180 A 
ATOM      2  C   UNL     1      19.228  18.618   9.181  1.00  0.00     0.208 A 
ATOM      3  C   UNL     1      20.615  18.479   9.343  1.00  0.00     0.238 A 
ATOM      4  O   UNL     1      21.131  18.687  10.474  1.00  0.00    -0.285 OA
ATOM      5  C   UNL     1      21.411  18.101   8.242  1.00  0.00     0.111 A 
ATOM      6  C   UNL     1      22.815  17.934   8.323  1.00  0.00     0.134 A 
ATOM      7  C   UNL     1      23.537  17.547   7.183  1.00  0.00     0.093 A 
ATOM      8  C   UNL     1      22.881  17.322   5.967  1.00  0.00     0.123 A 
ATOM      9  C   UNL     1      21.497  17.486   5.883  1.00  0.00     0.094 A 
ATOM     10  C   UNL     1      20.761  17.873   7.007  1.00  0.00     0.146 A 
ATOM     11  O   UNL     1      19.446  18.025   6.897  1.00  0.00    -0.452 OA
ENDROOT
BRANCH   1  12
ATOM     12  C   UNL     1      17.215  18.541   7.653  1.00  0.00     0.025 A 
ATOM     13  C   UNL     1      16.702  19.646   6.951  1.00  0.00     0.016 A 
ATOM     14  C   UNL     1      15.330  19.749   6.702  1.00  0.00     0.051 A 
ATOM     15  C   UNL     1      14.456  18.746   7.137  1.00  0.00     0.157 A 
ATOM     16  C   UNL     1      16.335  17.528   8.068  1.00  0.00     0.062 A 
ATOM     17  C   UNL     1      14.959  17.632   7.819  1.00  0.00     0.158 A 
BRANCH  15  18
ATOM     18  O   UNL     1      13.087  18.847   6.891  1.00  0.00    -0.504 OA
ATOM     19  H   UNL     1      12.403  18.497   7.553  1.00  0.00     0.293 HD
ENDBRANCH  15  18
BRANCH  17  20
ATOM     20  O   UNL     1      14.087  16.631   8.244  1.00  0.00    -0.504 OA
ATOM     21  H   UNL     1      14.241  16.127   9.110  1.00  0.00     0.293 HD
ENDBRANCH  17  20
ENDBRANCH   1  12
BRANCH   2  22
ATOM     22  O   UNL     1      18.411  18.944  10.266  1.00  0.00    -0.502 OA
ATOM     23  H   UNL     1      18.417  18.413  11.129  1.00  0.00     0.293 HD
ENDBRANCH   2  22
BRANCH   6  24
ATOM     24  O   UNL     1      23.496  18.150   9.521  1.00  0.00    -0.507 OA
ATOM     25  H   UNL     1      23.017  18.151  10.415  1.00  0.00     0.293 HD
ENDBRANCH   6  24
BRANCH   8  26
ATOM     26  O   UNL     1      23.596  16.937   4.836  1.00  0.00    -0.508 OA
ATOM     27  H   UNL     1      23.467  17.401   3.944  1.00  0.00     0.293 HD
ENDBRANCH   8  26
TORSDOF 6
ENDMDL
MODEL 8
REMARK VINA RESULT:    -5.987      1.502      2.227
REMARK INTER + INTRA:          -7.533
REMARK INTER:                  -7.270
REMARK INTRA:                  -0.263
REMARK UNBOUND:                -0.321
REMARK SMILES O=c1c(O)c(-c2ccc(O)c(O)c2)oc2cc(O)cc(O)c12
REMARK SMILES IDX 5 1 3 2 2 3 1 4 22 5 20 6 19 7 17 8 16 9 15 10 14 11 6 12
REMARK SMILES IDX 7 13 8 14 9 15 13 16 11 17 10 18 12 20 4 22 21 24 18 26
REMARK H PARENT 10 19 12 21 4 23 21 25 18 27
REMARK Flexibility Score: inf
ROOT
ATOM      1  C   UNL     1      19.808  17.703   7.400  1.00  0.00     0.180 A 
ATOM      2  C   UNL     1      18.690  18.558   7.458  1.00  0.00     0.208 A 
ATOM      3  C   UNL     1      17.926  18.754   6.297  1.00  0.00     0.238 A 
ATOM      4  O   UNL     1      16.917  19.508   6.339  1.00  0.00    -0.285 OA
ATOM      5  C   UNL     1      18.302  18.112   5.099  1.00  0.00     0.111 A 
ATOM      6  C   UNL     1      17.589  18.261   3.884  1.00  0.00     0.134 A 
ATOM      7  C   UNL     1      18.032  17.596   2.731  1.00  0.00     0.093 A 
ATOM      8  C   UNL     1      19.174  16.788   2.769  1.00  0.00     0.123 A 
ATOM      9  C   UNL     1      19.880  16.638   3.964  1.00  0.00     0.094 A 
ATOM     10  C   UNL     1      19.453  17.291   5.124  1.00  0.00     0.146 A 
ATOM     11  O   UNL     1      20.141  17.127   6.249  1.00  0.00    -0.452 OA
ENDROOT
BRANCH   1  12
ATOM     12  C   UNL     1      20.652  17.430   8.586  1.00  0.00     0.025 A 
ATOM     13  C   UNL     1      21.907  18.043   8.749  1.00  0.00     0.016 A 
ATOM     14  C   UNL     1      22.674  17.788   9.889  1.00  0.00     0.051 A 
ATOM     15  C   UNL     1      22.194  16.931  10.887  1.00  0.00     0.157 A 
ATOM     16  C   UNL     1      20.167  16.587   9.600  1.00  0.00     0.062 A 
ATOM     17  C   UNL     1      20.937  16.331  10.743  1.00  0.00     0.158 A 
BRANCH  15  18
ATOM     18  O   UNL     1      22.957  16.673  12.024  1.00  0.00    -0.504 OA
ATOM     19  H   UNL     1      23.952  16.490  11.964  1.00  0.00     0.293 HD
ENDBRANCH  15  18
BRANCH  17  20
ATOM     20  O   UNL     1      20.458  15.484  11.741  1.00  0.00    -0.504 OA
ATOM     21  H   UNL     1      19.469  15.288  11.840  1.00  0.00     0.293 HD
ENDBRANCH  17  20
ENDBRANCH   1  12
BRANCH   2  22
ATOM     22  O   UNL     1      18.368  19.219   8.645  1.00  0.00    -0.502 OA
ATOM     23  H   UNL     1      19.003  19.260   9.433  1.00  0.00     0.293 HD
ENDBRANCH   2  22
BRANCH   6  24
ATOM     24  O   UNL     1      16.448  19.061   3.815  1.00  0.00    -0.507 OA
ATOM     25  H   UNL     1      15.520  18.682   3.971  1.00  0.00     0.293 HD
ENDBRANCH   6  24
BRANCH   8  26
ATOM     26  O   UNL     1      19.615  16.128   1.625  1.00  0.00    -0.508 OA
ATOM     27  H   UNL     1      18.996  15.535   1.083  1.00  0.00     0.293 HD
ENDBRANCH   8  26
TORSDOF 6
ENDMDL
MODEL 9
REMARK VINA RESULT:    -5.935      1.529      7.005
REMARK INTER + INTRA:          -7.470
REMARK INTER:                  -7.170
REMARK INTRA:                  -0.301
REMARK UNBOUND:                -0.321
REMARK SMILES O=c1c(O)c(-c2ccc(O)c(O)c2)oc2cc(O)cc(O)c12
REMARK SMILES IDX 5 1 3 2 2 3 1 4 22 5 20 6 19 7 17 8 16 9 15 10 14 11 6 12
REMARK SMILES IDX 7 13 8 14 9 15 13 16 11 17 10 18 12 20 4 22 21 24 18 26
REMARK H PARENT 10 19 12 21 4 23 21 25 18 27
REMARK Flexibility Score: inf
ROOT
ATOM      1  C   UNL     1      18.574  17.493   7.796  1.00  0.00     0.180 A 
ATOM      2  C   UNL     1      18.038  16.362   8.442  1.00  0.00     0.208 A 
ATOM      3  C   UNL     1      18.737  15.806   9.525  1.00  0.00     0.238 A 
ATOM      4  O   UNL     1      18.262  14.801  10.119  1.00  0.00    -0.285 OA
ATOM      5  C   UNL     1      19.962  16.375   9.930  1.00  0.00     0.111 A 
ATOM      6  C   UNL     1      20.730  15.872  11.008  1.00  0.00     0.134 A 
ATOM      7  C   UNL     1      21.945  16.489  11.344  1.00  0.00     0.093 A 
ATOM      8  C   UNL     1      22.406  17.595  10.621  1.00  0.00     0.123 A 
ATOM      9  C   UNL     1      21.652  18.094   9.557  1.00  0.00     0.094 A 
ATOM     10  C   UNL     1      20.438  17.495   9.209  1.00  0.00     0.146 A 
ATOM     11  O   UNL     1      19.739  17.993   8.195  1.00  0.00    -0.452 OA
ENDROOT
BRANCH   1  12
ATOM     12  C   UNL     1      17.887  18.148   6.659  1.00  0.00     0.025 A 
ATOM     13  C   UNL     1      18.239  17.864   5.328  1.00  0.00     0.016 A 
ATOM     14  C   UNL     1      17.560  18.476   4.271  1.00  0.00     0.051 A 
ATOM     15  C   UNL     1      16.512  19.368   4.528  1.00  0.00     0.157 A 
ATOM     16  C   UNL     1      16.821  19.028   6.909  1.00  0.00     0.062 A 
ATOM     17  C   UNL     1      16.140  19.643   5.850  1.00  0.00     0.158 A 
BRANCH  15  18
ATOM     18  O   UNL     1      15.833  19.982   3.477  1.00  0.00    -0.504 OA
ATOM     19  H   UNL     1      15.994  19.713   2.513  1.00  0.00     0.293 HD
ENDBRANCH  15  18
BRANCH  17  20
ATOM     20  O   UNL     1      15.092  20.525   6.102  1.00  0.00    -0.504 OA
ATOM     21  H   UNL     1      14.132  20.288   5.877  1.00  0.00     0.293 HD
ENDBRANCH  17  20
ENDBRANCH   1  12
BRANCH   2  22
ATOM     22  O   UNL     1      16.848  15.788   7.991  1.00  0.00    -0.502 OA
ATOM     23  H   UNL     1      16.013  15.746   8.565  1.00  0.00     0.293 HD
ENDBRANCH   2  22
BRANCH   6  24
ATOM     24  O   UNL     1      20.297  14.771  11.746  1.00  0.00    -0.507 OA
ATOM     25  H   UNL     1      19.312  14.578  11.889  1.00  0.00     0.293 HD
ENDBRANCH   6  24
BRANCH   8  26
ATOM     26  O   UNL     1      23.613  18.207  10.953  1.00  0.00    -0.508 OA
ATOM     27  H   UNL     1      24.367  18.292  10.281  1.00  0.00     0.293 HD
ENDBRANCH   8  26
TORSDOF 6
ENDMDL
