MODEL 1
REMARK VINA RESULT:    -7.786      0.000      0.000
REMARK INTER + INTRA:          -9.698
REMARK INTER:                  -9.379
REMARK INTRA:                  -0.319
REMARK UNBOUND:                -0.319
REMARK SMILES O=c1c(O)c(-c2ccc(O)c(O)c2)oc2cc(O)cc(O)c12
REMARK SMILES IDX 5 1 3 2 2 3 1 4 22 5 20 6 19 7 17 8 16 9 15 10 14 11 6 12
REMARK SMILES IDX 7 13 8 14 9 15 13 16 11 17 10 18 12 20 4 22 21 24 18 26
REMARK H PARENT 10 19 12 21 4 23 21 25 18 27
REMARK Flexibility Score: inf
ROOT
ATOM      1  C   UNL     1     -13.511 -29.475 -12.641  1.00  0.00     0.180 A 
ATOM      2  C   UNL     1     -12.390 -29.848 -11.875  1.00  0.00     0.208 A 
ATOM      3  C   UNL     1     -12.071 -31.210 -11.758  1.00  0.00     0.238 A 
ATOM      4  O   UNL     1     -11.064 -31.556 -11.083  1.00  0.00    -0.285 OA
ATOM      5  C   UNL     1     -12.886 -32.173 -12.388  1.00  0.00     0.111 A 
ATOM      6  C   UNL     1     -12.637 -33.565 -12.317  1.00  0.00     0.134 A 
ATOM      7  C   UNL     1     -13.500 -34.461 -12.965  1.00  0.00     0.093 A 
ATOM      8  C   UNL     1     -14.606 -33.992 -13.681  1.00  0.00     0.123 A 
ATOM      9  C   UNL     1     -14.856 -32.621 -13.755  1.00  0.00     0.094 A 
ATOM     10  C   UNL     1     -14.007 -31.711 -13.118  1.00  0.00     0.146 A 
ATOM     11  O   UNL     1     -14.265 -30.412 -13.209  1.00  0.00    -0.452 OA
ENDROOT
BRANCH   1  12
ATOM     12  C   UNL     1     -13.900 -28.058 -12.827  1.00  0.00     0.025 A 
ATOM     13  C   UNL     1     -14.704 -27.390 -11.886  1.00  0.00     0.016 A 
ATOM     14  C   UNL     1     -15.039 -26.047 -12.072  1.00  0.00     0.051 A 
ATOM     15  C   UNL     1     -14.567 -25.348 -13.189  1.00  0.00     0.157 A 
ATOM     16  C   UNL     1     -13.413 -27.347 -13.936  1.00  0.00     0.062 A 
ATOM     17  C   UNL     1     -13.748 -26.001 -14.124  1.00  0.00     0.158 A 
BRANCH  15  18
ATOM     18  O   UNL     1     -14.905 -24.007 -13.372  1.00  0.00    -0.504 OA
ATOM     19  H   UNL     1     -15.870 -23.709 -13.446  1.00  0.00     0.293 HD
ENDBRANCH  15  18
BRANCH  17  20
ATOM     20  O   UNL     1     -13.255 -25.331 -15.244  1.00  0.00    -0.504 OA
ATOM     21  H   UNL     1     -13.045 -24.341 -15.229  1.00  0.00     0.293 HD
ENDBRANCH  17  20
ENDBRANCH   1  12
BRANCH   2  22
ATOM     22  O   UNL     1     -11.627 -28.878 -11.219  1.00  0.00    -0.502 OA
ATOM     23  H   UNL     1     -11.582 -27.918 -11.536  1.00  0.00     0.293 HD
ENDBRANCH   2  22
BRANCH   6  24
ATOM     24  O   UNL     1     -11.541 -34.063 -11.609  1.00  0.00    -0.507 OA
ATOM     25  H   UNL     1     -11.092 -33.527 -10.876  1.00  0.00     0.293 HD
ENDBRANCH   6  24
BRANCH   8  26
ATOM     26  O   UNL     1     -15.465 -34.880 -14.324  1.00  0.00    -0.508 OA
ATOM     27  H   UNL     1     -15.124 -35.542 -15.013  1.00  0.00     0.293 HD
ENDBRANCH   8  26
TORSDOF 6
ENDMDL
MODEL 2
REMARK VINA RESULT:    -7.712      1.759      3.495
REMARK INTER + INTRA:          -9.609
REMARK INTER:                  -9.298
REMARK INTRA:                  -0.311
REMARK UNBOUND:                -0.319
REMARK SMILES O=c1c(O)c(-c2ccc(O)c(O)c2)oc2cc(O)cc(O)c12
REMARK SMILES IDX 5 1 3 2 2 3 1 4 22 5 20 6 19 7 17 8 16 9 15 10 14 11 6 12
REMARK SMILES IDX 7 13 8 14 9 15 13 16 11 17 10 18 12 20 4 22 21 24 18 26
REMARK H PARENT 10 19 12 21 4 23 21 25 18 27
REMARK Flexibility Score: inf
ROOT
ATOM      1  C   UNL     1     -13.325 -29.247 -11.842  1.00  0.00     0.180 A 
ATOM      2  C   UNL     1     -13.798 -30.446 -12.408  1.00  0.00     0.208 A 
ATOM      3  C   UNL     1     -13.383 -31.667 -11.855  1.00  0.00     0.238 A 
ATOM      4  O   UNL     1     -13.810 -32.747 -12.347  1.00  0.00    -0.285 OA
ATOM      5  C   UNL     1     -12.490 -31.671 -10.764  1.00  0.00     0.111 A 
ATOM      6  C   UNL     1     -12.020 -32.858 -10.152  1.00  0.00     0.134 A 
ATOM      7  C   UNL     1     -11.124 -32.778  -9.075  1.00  0.00     0.093 A 
ATOM      8  C   UNL     1     -10.689 -31.536  -8.601  1.00  0.00     0.123 A 
ATOM      9  C   UNL     1     -11.150 -30.363  -9.201  1.00  0.00     0.094 A 
ATOM     10  C   UNL     1     -12.045 -30.421 -10.274  1.00  0.00     0.146 A 
ATOM     11  O   UNL     1     -12.471 -29.290 -10.823  1.00  0.00    -0.452 OA
ENDROOT
BRANCH   1  12
ATOM     12  C   UNL     1     -13.731 -27.919 -12.356  1.00  0.00     0.025 A 
ATOM     13  C   UNL     1     -14.758 -27.180 -11.743  1.00  0.00     0.016 A 
ATOM     14  C   UNL     1     -15.108 -25.918 -12.232  1.00  0.00     0.051 A 
ATOM     15  C   UNL     1     -14.430 -25.372 -13.328  1.00  0.00     0.157 A 
ATOM     16  C   UNL     1     -13.041 -27.357 -13.442  1.00  0.00     0.062 A 
ATOM     17  C   UNL     1     -13.390 -26.094 -13.935  1.00  0.00     0.158 A 
BRANCH  15  18
ATOM     18  O   UNL     1     -14.783 -24.113 -13.814  1.00  0.00    -0.504 OA
ATOM     19  H   UNL     1     -15.664 -23.956 -14.289  1.00  0.00     0.293 HD
ENDBRANCH  15  18
BRANCH  17  20
ATOM     20  O   UNL     1     -12.690 -25.575 -15.024  1.00  0.00    -0.504 OA
ATOM     21  H   UNL     1     -12.263 -24.657 -15.000  1.00  0.00     0.293 HD
ENDBRANCH  17  20
ENDBRANCH   1  12
BRANCH   2  22
ATOM     22  O   UNL     1     -14.645 -30.416 -13.519  1.00  0.00    -0.502 OA
ATOM     23  H   UNL     1     -15.156 -29.586 -13.791  1.00  0.00     0.293 HD
ENDBRANCH   2  22
BRANCH   6  24
ATOM     24  O   UNL     1     -12.435 -34.112 -10.603  1.00  0.00    -0.507 OA
ATOM     25  H   UNL     1     -11.833 -34.703 -11.164  1.00  0.00     0.293 HD
ENDBRANCH   6  24
BRANCH   8  26
ATOM     26  O   UNL     1      -9.799 -31.455  -7.533  1.00  0.00    -0.508 OA
ATOM     27  H   UNL     1      -9.242 -30.624  -7.368  1.00  0.00     0.293 HD
ENDBRANCH   8  26
TORSDOF 6
ENDMDL
MODEL 3
REMARK VINA RESULT:    -7.528      4.359      7.695
REMARK INTER + INTRA:          -9.388
REMARK INTER:                  -9.057
REMARK INTRA:                  -0.331
REMARK UNBOUND:                -0.319
REMARK SMILES O=c1c(O)c(-c2ccc(O)c(O)c2)oc2cc(O)cc(O)c12
REMARK SMILES IDX 5 1 3 2 2 3 1 4 22 5 20 6 19 7 17 8 16 9 15 10 14 11 6 12
REMARK SMILES IDX 7 13 8 14 9 15 13 16 11 17 10 18 12 20 4 22 21 24 18 26
REMARK H PARENT 10 19 12 21 4 23 21 25 18 27
REMARK Flexibility Score: inf
ROOT
ATOM      1  C   UNL     1     -15.508 -34.970 -13.077  1.00  0.00     0.180 A 
ATOM      2  C   UNL     1     -14.882 -35.364 -14.275  1.00  0.00     0.208 A 
ATOM      3  C   UNL     1     -13.609 -34.854 -14.575  1.00  0.00     0.238 A 
ATOM      4  O   UNL     1     -13.033 -35.209 -15.639  1.00  0.00    -0.285 OA
ATOM      5  C   UNL     1     -12.995 -33.946 -13.688  1.00  0.00     0.111 A 
ATOM      6  C   UNL     1     -11.717 -33.382 -13.918  1.00  0.00     0.134 A 
ATOM      7  C   UNL     1     -11.178 -32.478 -12.991  1.00  0.00     0.093 A 
ATOM      8  C   UNL     1     -11.893 -32.126 -11.841  1.00  0.00     0.123 A 
ATOM      9  C   UNL     1     -13.153 -32.680 -11.609  1.00  0.00     0.094 A 
ATOM     10  C   UNL     1     -13.707 -33.584 -12.520  1.00  0.00     0.146 A 
ATOM     11  O   UNL     1     -14.905 -34.099 -12.272  1.00  0.00    -0.452 OA
ENDROOT
BRANCH   1  12
ATOM     12  C   UNL     1     -16.841 -35.479 -12.681  1.00  0.00     0.025 A 
ATOM     13  C   UNL     1     -16.982 -36.676 -11.957  1.00  0.00     0.016 A 
ATOM     14  C   UNL     1     -18.249 -37.124 -11.573  1.00  0.00     0.051 A 
ATOM     15  C   UNL     1     -19.390 -36.379 -11.895  1.00  0.00     0.157 A 
ATOM     16  C   UNL     1     -17.987 -34.725 -12.983  1.00  0.00     0.062 A 
ATOM     17  C   UNL     1     -19.257 -35.172 -12.601  1.00  0.00     0.158 A 
BRANCH  15  18
ATOM     18  O   UNL     1     -20.652 -36.830 -11.512  1.00  0.00    -0.504 OA
ATOM     19  H   UNL     1     -20.959 -37.775 -11.705  1.00  0.00     0.293 HD
ENDBRANCH  15  18
BRANCH  17  20
ATOM     20  O   UNL     1     -20.373 -34.402 -12.930  1.00  0.00    -0.504 OA
ATOM     21  H   UNL     1     -20.644 -34.230 -13.891  1.00  0.00     0.293 HD
ENDBRANCH  17  20
ENDBRANCH   1  12
BRANCH   2  22
ATOM     22  O   UNL     1     -15.531 -36.228 -15.161  1.00  0.00    -0.502 OA
ATOM     23  H   UNL     1     -16.199 -35.899 -15.848  1.00  0.00     0.293 HD
ENDBRANCH   2  22
BRANCH   6  24
ATOM     24  O   UNL     1     -10.981 -33.713 -15.057  1.00  0.00    -0.507 OA
ATOM     25  H   UNL     1     -10.018 -34.024 -14.998  1.00  0.00     0.293 HD
ENDBRANCH   6  24
BRANCH   8  26
ATOM     26  O   UNL     1     -11.359 -31.228 -10.920  1.00  0.00    -0.508 OA
ATOM     27  H   UNL     1     -10.639 -31.507 -10.262  1.00  0.00     0.293 HD
ENDBRANCH   8  26
TORSDOF 6
ENDMDL
MODEL 4
REMARK VINA RESULT:    -7.394      1.277      1.541
REMARK INTER + INTRA:          -9.226
REMARK INTER:                  -8.942
REMARK INTRA:                  -0.285
REMARK UNBOUND:                -0.319
REMARK SMILES O=c1c(O)c(-c2ccc(O)c(O)c2)oc2cc(O)cc(O)c12
REMARK SMILES IDX 5 1 3 2 2 3 1 4 22 5 20 6 19 7 17 8 16 9 15 10 14 11 6 12
REMARK SMILES IDX 7 13 8 14 9 15 13 16 11 17 10 18 12 20 4 22 21 24 18 26
REMARK H PARENT 10 19 12 21 4 23 21 25 18 27
REMARK Flexibility Score: inf
ROOT
ATOM      1  C   UNL     1     -12.785 -28.765 -12.084  1.00  0.00     0.180 A 
ATOM      2  C   UNL     1     -11.576 -28.807 -11.363  1.00  0.00     0.208 A 
ATOM      3  C   UNL     1     -11.050 -30.055 -10.993  1.00  0.00     0.238 A 
ATOM      4  O   UNL     1      -9.962 -30.106 -10.357  1.00  0.00    -0.285 OA
ATOM      5  C   UNL     1     -11.748 -31.233 -11.329  1.00  0.00     0.111 A 
ATOM      6  C   UNL     1     -11.289 -32.529 -10.991  1.00  0.00     0.134 A 
ATOM      7  C   UNL     1     -12.046 -33.652 -11.353  1.00  0.00     0.093 A 
ATOM      8  C   UNL     1     -13.252 -33.505 -12.046  1.00  0.00     0.123 A 
ATOM      9  C   UNL     1     -13.709 -32.230 -12.384  1.00  0.00     0.094 A 
ATOM     10  C   UNL     1     -12.968 -31.097 -12.033  1.00  0.00     0.146 A 
ATOM     11  O   UNL     1     -13.423 -29.896 -12.370  1.00  0.00    -0.452 OA
ENDROOT
BRANCH   1  12
ATOM     12  C   UNL     1     -13.393 -27.489 -12.526  1.00  0.00     0.025 A 
ATOM     13  C   UNL     1     -14.455 -26.901 -11.818  1.00  0.00     0.016 A 
ATOM     14  C   UNL     1     -14.998 -25.685 -12.241  1.00  0.00     0.051 A 
ATOM     15  C   UNL     1     -14.480 -25.033 -13.367  1.00  0.00     0.157 A 
ATOM     16  C   UNL     1     -12.864 -26.822 -13.642  1.00  0.00     0.062 A 
ATOM     17  C   UNL     1     -13.406 -25.604 -14.069  1.00  0.00     0.158 A 
BRANCH  15  18
ATOM     18  O   UNL     1     -15.025 -23.820 -13.787  1.00  0.00    -0.504 OA
ATOM     19  H   UNL     1     -15.937 -23.511 -13.473  1.00  0.00     0.293 HD
ENDBRANCH  15  18
BRANCH  17  20
ATOM     20  O   UNL     1     -12.862 -24.976 -15.190  1.00  0.00    -0.504 OA
ATOM     21  H   UNL     1     -11.924 -24.595 -15.190  1.00  0.00     0.293 HD
ENDBRANCH  17  20
ENDBRANCH   1  12
BRANCH   2  22
ATOM     22  O   UNL     1     -10.928 -27.624 -11.000  1.00  0.00    -0.502 OA
ATOM     23  H   UNL     1     -10.037 -27.618 -10.520  1.00  0.00     0.293 HD
ENDBRANCH   2  22
BRANCH   6  24
ATOM     24  O   UNL     1     -10.089 -32.708 -10.299  1.00  0.00    -0.507 OA
ATOM     25  H   UNL     1      -9.783 -32.056  -9.586  1.00  0.00     0.293 HD
ENDBRANCH   6  24
BRANCH   8  26
ATOM     26  O   UNL     1     -14.005 -34.620 -12.407  1.00  0.00    -0.508 OA
ATOM     27  H   UNL     1     -13.890 -35.068 -13.309  1.00  0.00     0.293 HD
ENDBRANCH   8  26
TORSDOF 6
ENDMDL
MODEL 5
REMARK VINA RESULT:    -7.179      1.273      1.813
REMARK INTER + INTRA:          -8.967
REMARK INTER:                  -8.664
REMARK INTRA:                  -0.303
REMARK UNBOUND:                -0.319
REMARK SMILES O=c1c(O)c(-c2ccc(O)c(O)c2)oc2cc(O)cc(O)c12
REMARK SMILES IDX 5 1 3 2 2 3 1 4 22 5 20 6 19 7 17 8 16 9 15 10 14 11 6 12
REMARK SMILES IDX 7 13 8 14 9 15 13 16 11 17 10 18 12 20 4 22 21 24 18 26
REMARK H PARENT 10 19 12 21 4 23 21 25 18 27
REMARK Flexibility Score: inf
ROOT
ATOM      1  C   UNL     1     -13.752 -31.130 -12.517  1.00  0.00     0.180 A 
ATOM      2  C   UNL     1     -12.712 -31.754 -11.801  1.00  0.00     0.208 A 
ATOM      3  C   UNL     1     -12.664 -33.156 -11.758  1.00  0.00     0.238 A 
ATOM      4  O   UNL     1     -11.731 -33.726 -11.129  1.00  0.00    -0.285 OA
ATOM      5  C   UNL     1     -13.663 -33.908 -12.410  1.00  0.00     0.111 A 
ATOM      6  C   UNL     1     -13.689 -35.323 -12.411  1.00  0.00     0.134 A 
ATOM      7  C   UNL     1     -14.723 -36.000 -13.075  1.00  0.00     0.093 A 
ATOM      8  C   UNL     1     -15.730 -35.288 -13.736  1.00  0.00     0.123 A 
ATOM      9  C   UNL     1     -15.708 -33.892 -13.739  1.00  0.00     0.094 A 
ATOM     10  C   UNL     1     -14.685 -33.200 -13.084  1.00  0.00     0.146 A 
ATOM     11  O   UNL     1     -14.685 -31.873 -13.106  1.00  0.00    -0.452 OA
ENDROOT
BRANCH   1  12
ATOM     12  C   UNL     1     -13.860 -29.657 -12.625  1.00  0.00     0.025 A 
ATOM     13  C   UNL     1     -14.424 -28.887 -11.593  1.00  0.00     0.016 A 
ATOM     14  C   UNL     1     -14.494 -27.496 -11.707  1.00  0.00     0.051 A 
ATOM     15  C   UNL     1     -13.991 -26.854 -12.845  1.00  0.00     0.157 A 
ATOM     16  C   UNL     1     -13.338 -29.007 -13.755  1.00  0.00     0.062 A 
ATOM     17  C   UNL     1     -13.408 -27.614 -13.872  1.00  0.00     0.158 A 
BRANCH  15  18
ATOM     18  O   UNL     1     -14.064 -25.466 -12.956  1.00  0.00    -0.504 OA
ATOM     19  H   UNL     1     -14.415 -24.891 -12.201  1.00  0.00     0.293 HD
ENDBRANCH  15  18
BRANCH  17  20
ATOM     20  O   UNL     1     -12.890 -27.004 -15.015  1.00  0.00    -0.504 OA
ATOM     21  H   UNL     1     -11.902 -27.031 -15.239  1.00  0.00     0.293 HD
ENDBRANCH  17  20
ENDBRANCH   1  12
BRANCH   2  22
ATOM     22  O   UNL     1     -11.761 -30.986 -11.123  1.00  0.00    -0.502 OA
ATOM     23  H   UNL     1     -12.009 -30.359 -10.369  1.00  0.00     0.293 HD
ENDBRANCH   2  22
BRANCH   6  24
ATOM     24  O   UNL     1     -12.700 -36.061 -11.759  1.00  0.00    -0.507 OA
ATOM     25  H   UNL     1     -11.944 -35.612 -11.255  1.00  0.00     0.293 HD
ENDBRANCH   6  24
BRANCH   8  26
ATOM     26  O   UNL     1     -16.758 -35.958 -14.396  1.00  0.00    -0.508 OA
ATOM     27  H   UNL     1     -16.605 -36.857 -14.839  1.00  0.00     0.293 HD
ENDBRANCH   8  26
TORSDOF 6
ENDMDL
MODEL 6
REMARK VINA RESULT:    -7.060      1.575      6.681
REMARK INTER + INTRA:          -8.824
REMARK INTER:                  -8.568
REMARK INTRA:                  -0.256
REMARK UNBOUND:                -0.319
REMARK SMILES O=c1c(O)c(-c2ccc(O)c(O)c2)oc2cc(O)cc(O)c12
REMARK SMILES IDX 5 1 3 2 2 3 1 4 22 5 20 6 19 7 17 8 16 9 15 10 14 11 6 12
REMARK SMILES IDX 7 13 8 14 9 15 13 16 11 17 10 18 12 20 4 22 21 24 18 26
REMARK H PARENT 10 19 12 21 4 23 21 25 18 27
REMARK Flexibility Score: inf
ROOT
ATOM      1  C   UNL     1     -13.547 -32.039 -12.580  1.00  0.00     0.180 A 
ATOM      2  C   UNL     1     -12.216 -31.858 -12.159  1.00  0.00     0.208 A 
ATOM      3  C   UNL     1     -11.773 -30.563 -11.846  1.00  0.00     0.238 A 
ATOM      4  O   UNL     1     -10.586 -30.390 -11.457  1.00  0.00    -0.285 OA
ATOM      5  C   UNL     1     -12.658 -29.473 -11.978  1.00  0.00     0.111 A 
ATOM      6  C   UNL     1     -12.290 -28.138 -11.686  1.00  0.00     0.134 A 
ATOM      7  C   UNL     1     -13.226 -27.106 -11.852  1.00  0.00     0.093 A 
ATOM      8  C   UNL     1     -14.520 -27.384 -12.303  1.00  0.00     0.123 A 
ATOM      9  C   UNL     1     -14.889 -28.700 -12.590  1.00  0.00     0.094 A 
ATOM     10  C   UNL     1     -13.971 -29.742 -12.431  1.00  0.00     0.146 A 
ATOM     11  O   UNL     1     -14.348 -30.985 -12.707  1.00  0.00    -0.452 OA
ENDROOT
BRANCH   1  12
ATOM     12  C   UNL     1     -14.094 -33.375 -12.910  1.00  0.00     0.025 A 
ATOM     13  C   UNL     1     -14.357 -34.326 -11.908  1.00  0.00     0.016 A 
ATOM     14  C   UNL     1     -14.896 -35.571 -12.242  1.00  0.00     0.051 A 
ATOM     15  C   UNL     1     -15.191 -35.880 -13.575  1.00  0.00     0.157 A 
ATOM     16  C   UNL     1     -14.411 -33.682 -14.243  1.00  0.00     0.062 A 
ATOM     17  C   UNL     1     -14.950 -34.929 -14.580  1.00  0.00     0.158 A 
BRANCH  15  18
ATOM     18  O   UNL     1     -15.727 -37.125 -13.904  1.00  0.00    -0.504 OA
ATOM     19  H   UNL     1     -15.139 -37.941 -14.021  1.00  0.00     0.293 HD
ENDBRANCH  15  18
BRANCH  17  20
ATOM     20  O   UNL     1     -15.241 -35.202 -15.916  1.00  0.00    -0.504 OA
ATOM     21  H   UNL     1     -14.538 -35.544 -16.561  1.00  0.00     0.293 HD
ENDBRANCH  17  20
ENDBRANCH   1  12
BRANCH   2  22
ATOM     22  O   UNL     1     -11.344 -32.948 -12.083  1.00  0.00    -0.502 OA
ATOM     23  H   UNL     1     -10.499 -32.929 -11.527  1.00  0.00     0.293 HD
ENDBRANCH   2  22
BRANCH   6  24
ATOM     24  O   UNL     1     -11.005 -27.828 -11.235  1.00  0.00    -0.507 OA
ATOM     25  H   UNL     1     -10.224 -27.737 -11.874  1.00  0.00     0.293 HD
ENDBRANCH   6  24
BRANCH   8  26
ATOM     26  O   UNL     1     -15.451 -26.361 -12.468  1.00  0.00    -0.508 OA
ATOM     27  H   UNL     1     -15.706 -26.019 -13.389  1.00  0.00     0.293 HD
ENDBRANCH   8  26
TORSDOF 6
ENDMDL
MODEL 7
REMARK VINA RESULT:    -7.005      1.709      6.876
REMARK INTER + INTRA:          -8.758
REMARK INTER:                  -8.459
REMARK INTRA:                  -0.299
REMARK UNBOUND:                -0.319
REMARK SMILES O=c1c(O)c(-c2ccc(O)c(O)c2)oc2cc(O)cc(O)c12
REMARK SMILES IDX 5 1 3 2 2 3 1 4 22 5 20 6 19 7 17 8 16 9 15 10 14 11 6 12
REMARK SMILES IDX 7 13 8 14 9 15 13 16 11 17 10 18 12 20 4 22 21 24 18 26
REMARK H PARENT 10 19 12 21 4 23 21 25 18 27
REMARK Flexibility Score: inf
ROOT
ATOM      1  C   UNL     1     -13.526 -30.370 -13.176  1.00  0.00     0.180 A 
ATOM      2  C   UNL     1     -13.902 -30.090 -11.848  1.00  0.00     0.208 A 
ATOM      3  C   UNL     1     -14.163 -28.760 -11.483  1.00  0.00     0.238 A 
ATOM      4  O   UNL     1     -14.511 -28.498 -10.299  1.00  0.00    -0.285 OA
ATOM      5  C   UNL     1     -14.024 -27.734 -12.440  1.00  0.00     0.111 A 
ATOM      6  C   UNL     1     -14.264 -26.369 -12.153  1.00  0.00     0.134 A 
ATOM      7  C   UNL     1     -14.095 -25.406 -13.159  1.00  0.00     0.093 A 
ATOM      8  C   UNL     1     -13.690 -25.782 -14.444  1.00  0.00     0.123 A 
ATOM      9  C   UNL     1     -13.454 -27.127 -14.733  1.00  0.00     0.094 A 
ATOM     10  C   UNL     1     -13.618 -28.102 -13.745  1.00  0.00     0.146 A 
ATOM     11  O   UNL     1     -13.391 -29.374 -14.048  1.00  0.00    -0.452 OA
ENDROOT
BRANCH   1  12
ATOM     12  C   UNL     1     -13.253 -31.749 -13.642  1.00  0.00     0.025 A 
ATOM     13  C   UNL     1     -11.941 -32.250 -13.716  1.00  0.00     0.016 A 
ATOM     14  C   UNL     1     -11.710 -33.562 -14.137  1.00  0.00     0.051 A 
ATOM     15  C   UNL     1     -12.783 -34.395 -14.477  1.00  0.00     0.157 A 
ATOM     16  C   UNL     1     -14.326 -32.595 -13.965  1.00  0.00     0.062 A 
ATOM     17  C   UNL     1     -14.098 -33.909 -14.387  1.00  0.00     0.158 A 
BRANCH  15  18
ATOM     18  O   UNL     1     -12.548 -35.704 -14.898  1.00  0.00    -0.504 OA
ATOM     19  H   UNL     1     -11.668 -36.170 -14.715  1.00  0.00     0.293 HD
ENDBRANCH  15  18
BRANCH  17  20
ATOM     20  O   UNL     1     -15.188 -34.716 -14.711  1.00  0.00    -0.504 OA
ATOM     21  H   UNL     1     -15.742 -34.562 -15.545  1.00  0.00     0.293 HD
ENDBRANCH  17  20
ENDBRANCH   1  12
BRANCH   2  22
ATOM     22  O   UNL     1     -13.986 -31.118 -10.905  1.00  0.00    -0.502 OA
ATOM     23  H   UNL     1     -13.790 -30.971  -9.923  1.00  0.00     0.293 HD
ENDBRANCH   2  22
BRANCH   6  24
ATOM     24  O   UNL     1     -14.667 -25.963 -10.880  1.00  0.00    -0.507 OA
ATOM     25  H   UNL     1     -14.042 -25.465 -10.256  1.00  0.00     0.293 HD
ENDBRANCH   6  24
BRANCH   8  26
ATOM     26  O   UNL     1     -13.521 -24.827 -15.444  1.00  0.00    -0.508 OA
ATOM     27  H   UNL     1     -13.318 -23.858 -15.223  1.00  0.00     0.293 HD
ENDBRANCH   8  26
TORSDOF 6
ENDMDL
MODEL 8
REMARK VINA RESULT:    -6.987      2.206      3.726
REMARK INTER + INTRA:          -8.736
REMARK INTER:                  -8.411
REMARK INTRA:                  -0.325
REMARK UNBOUND:                -0.319
REMARK SMILES O=c1c(O)c(-c2ccc(O)c(O)c2)oc2cc(O)cc(O)c12
REMARK SMILES IDX 5 1 3 2 2 3 1 4 22 5 20 6 19 7 17 8 16 9 15 10 14 11 6 12
REMARK SMILES IDX 7 13 8 14 9 15 13 16 11 17 10 18 12 20 4 22 21 24 18 26
REMARK H PARENT 10 19 12 21 4 23 21 25 18 27
REMARK Flexibility Score: inf
ROOT
ATOM      1  C   UNL     1     -13.688 -32.450 -13.259  1.00  0.00     0.180 A 
ATOM      2  C   UNL     1     -12.691 -33.175 -13.939  1.00  0.00     0.208 A 
ATOM      3  C   UNL     1     -12.986 -34.467 -14.401  1.00  0.00     0.238 A 
ATOM      4  O   UNL     1     -12.104 -35.121 -15.020  1.00  0.00    -0.285 OA
ATOM      5  C   UNL     1     -14.261 -35.019 -14.159  1.00  0.00     0.111 A 
ATOM      6  C   UNL     1     -14.638 -36.314 -14.587  1.00  0.00     0.134 A 
ATOM      7  C   UNL     1     -15.924 -36.796 -14.299  1.00  0.00     0.093 A 
ATOM      8  C   UNL     1     -16.838 -36.008 -13.592  1.00  0.00     0.123 A 
ATOM      9  C   UNL     1     -16.471 -34.729 -13.168  1.00  0.00     0.094 A 
ATOM     10  C   UNL     1     -15.195 -34.230 -13.446  1.00  0.00     0.146 A 
ATOM     11  O   UNL     1     -14.875 -33.009 -13.036  1.00  0.00    -0.452 OA
ENDROOT
BRANCH   1  12
ATOM     12  C   UNL     1     -13.460 -31.075 -12.759  1.00  0.00     0.025 A 
ATOM     13  C   UNL     1     -12.925 -30.842 -11.479  1.00  0.00     0.016 A 
ATOM     14  C   UNL     1     -12.696 -29.536 -11.038  1.00  0.00     0.051 A 
ATOM     15  C   UNL     1     -12.984 -28.447 -11.870  1.00  0.00     0.157 A 
ATOM     16  C   UNL     1     -13.727 -29.981 -13.597  1.00  0.00     0.062 A 
ATOM     17  C   UNL     1     -13.499 -28.672 -13.157  1.00  0.00     0.158 A 
BRANCH  15  18
ATOM     18  O   UNL     1     -12.755 -27.146 -11.425  1.00  0.00    -0.504 OA
ATOM     19  H   UNL     1     -11.899 -26.890 -10.949  1.00  0.00     0.293 HD
ENDBRANCH  15  18
BRANCH  17  20
ATOM     20  O   UNL     1     -13.789 -27.609 -14.013  1.00  0.00    -0.504 OA
ATOM     21  H   UNL     1     -14.266 -26.775 -13.693  1.00  0.00     0.293 HD
ENDBRANCH  17  20
ENDBRANCH   1  12
BRANCH   2  22
ATOM     22  O   UNL     1     -11.419 -32.625 -14.123  1.00  0.00    -0.502 OA
ATOM     23  H   UNL     1     -10.650 -33.154 -14.513  1.00  0.00     0.293 HD
ENDBRANCH   2  22
BRANCH   6  24
ATOM     24  O   UNL     1     -13.748 -37.125 -15.294  1.00  0.00    -0.507 OA
ATOM     25  H   UNL     1     -13.936 -37.422 -16.244  1.00  0.00     0.293 HD
ENDBRANCH   6  24
BRANCH   8  26
ATOM     26  O   UNL     1     -18.114 -36.485 -13.305  1.00  0.00    -0.508 OA
ATOM     27  H   UNL     1     -18.533 -36.361 -12.389  1.00  0.00     0.293 HD
ENDBRANCH   8  26
TORSDOF 6
ENDMDL
MODEL 9
REMARK VINA RESULT:    -6.511      5.600      7.351
REMARK INTER + INTRA:          -8.162
REMARK INTER:                  -7.902
REMARK INTRA:                  -0.261
REMARK UNBOUND:                -0.319
REMARK SMILES O=c1c(O)c(-c2ccc(O)c(O)c2)oc2cc(O)cc(O)c12
REMARK SMILES IDX 5 1 3 2 2 3 1 4 22 5 20 6 19 7 17 8 16 9 15 10 14 11 6 12
REMARK SMILES IDX 7 13 8 14 9 15 13 16 11 17 10 18 12 20 4 22 21 24 18 26
REMARK H PARENT 10 19 12 21 4 23 21 25 18 27
REMARK Flexibility Score: inf
ROOT
ATOM      1  C   UNL     1     -14.021 -34.817 -12.662  1.00  0.00     0.180 A 
ATOM      2  C   UNL     1     -13.308 -34.508 -13.837  1.00  0.00     0.208 A 
ATOM      3  C   UNL     1     -11.987 -34.047 -13.727  1.00  0.00     0.238 A 
ATOM      4  O   UNL     1     -11.336 -33.778 -14.773  1.00  0.00    -0.285 OA
ATOM      5  C   UNL     1     -11.410 -33.882 -12.452  1.00  0.00     0.111 A 
ATOM      6  C   UNL     1     -10.087 -33.418 -12.255  1.00  0.00     0.134 A 
ATOM      7  C   UNL     1      -9.587 -33.272 -10.952  1.00  0.00     0.093 A 
ATOM      8  C   UNL     1     -10.385 -33.579  -9.845  1.00  0.00     0.123 A 
ATOM      9  C   UNL     1     -11.690 -34.038 -10.034  1.00  0.00     0.094 A 
ATOM     10  C   UNL     1     -12.206 -34.192 -11.324  1.00  0.00     0.146 A 
ATOM     11  O   UNL     1     -13.448 -34.634 -11.475  1.00  0.00    -0.452 OA
ENDROOT
BRANCH   1  12
ATOM     12  C   UNL     1     -15.411 -35.326 -12.695  1.00  0.00     0.025 A 
ATOM     13  C   UNL     1     -15.704 -36.671 -12.406  1.00  0.00     0.016 A 
ATOM     14  C   UNL     1     -17.026 -37.123 -12.420  1.00  0.00     0.051 A 
ATOM     15  C   UNL     1     -18.073 -36.239 -12.709  1.00  0.00     0.157 A 
ATOM     16  C   UNL     1     -16.466 -34.440 -12.963  1.00  0.00     0.062 A 
ATOM     17  C   UNL     1     -17.791 -34.890 -12.979  1.00  0.00     0.158 A 
BRANCH  15  18
ATOM     18  O   UNL     1     -19.391 -36.695 -12.723  1.00  0.00    -0.504 OA
ATOM     19  H   UNL     1     -20.104 -36.238 -13.278  1.00  0.00     0.293 HD
ENDBRANCH  15  18
BRANCH  17  20
ATOM     20  O   UNL     1     -18.812 -33.982 -13.262  1.00  0.00    -0.504 OA
ATOM     21  H   UNL     1     -19.790 -34.222 -13.152  1.00  0.00     0.293 HD
ENDBRANCH  17  20
ENDBRANCH   1  12
BRANCH   2  22
ATOM     22  O   UNL     1     -13.919 -34.634 -15.087  1.00  0.00    -0.502 OA
ATOM     23  H   UNL     1     -13.893 -33.897 -15.781  1.00  0.00     0.293 HD
ENDBRANCH   2  22
BRANCH   6  24
ATOM     24  O   UNL     1      -9.267 -33.103 -13.340  1.00  0.00    -0.507 OA
ATOM     25  H   UNL     1      -8.525 -32.416 -13.266  1.00  0.00     0.293 HD
ENDBRANCH   6  24
BRANCH   8  26
ATOM     26  O   UNL     1      -9.891 -33.434  -8.551  1.00  0.00    -0.508 OA
ATOM     27  H   UNL     1      -8.898 -33.332  -8.370  1.00  0.00     0.293 HD
ENDBRANCH   8  26
TORSDOF 6
ENDMDL
