MODEL 1
REMARK VINA RESULT:    -8.211      0.000      0.000
REMARK INTER + INTRA:          -9.992
REMARK INTER:                  -9.891
REMARK INTRA:                  -0.101
REMARK UNBOUND:                -0.101
REMARK SMILES O=c1c(O)c(-c2ccc(O)c(O)c2)oc2cc(O)cc(O)c12
REMARK SMILES IDX 5 1 3 2 2 3 1 4 22 5 20 6 19 7 17 8 16 9 15 10 14 11 6 12
REMARK SMILES IDX 7 13 8 14 9 15 13 16 11 17 10 18 12 20 4 22 21 24 18 26
REMARK H PARENT 10 19 12 21 4 23 21 25 18 27
REMARK Flexibility Score: inf
ROOT
ATOM      1  C   UNL     1     -45.264 -11.227  11.846  1.00  0.00     0.180 A 
ATOM      2  C   UNL     1     -45.305 -10.140  12.740  1.00  0.00     0.208 A 
ATOM      3  C   UNL     1     -44.242  -9.224  12.744  1.00  0.00     0.238 A 
ATOM      4  O   UNL     1     -44.262  -8.253  13.549  1.00  0.00    -0.285 OA
ATOM      5  C   UNL     1     -43.169  -9.397  11.844  1.00  0.00     0.111 A 
ATOM      6  C   UNL     1     -42.062  -8.518  11.782  1.00  0.00     0.134 A 
ATOM      7  C   UNL     1     -41.039  -8.753  10.851  1.00  0.00     0.093 A 
ATOM      8  C   UNL     1     -41.102  -9.846   9.985  1.00  0.00     0.123 A 
ATOM      9  C   UNL     1     -42.192 -10.720  10.043  1.00  0.00     0.094 A 
ATOM     10  C   UNL     1     -43.222 -10.503  10.963  1.00  0.00     0.146 A 
ATOM     11  O   UNL     1     -44.245 -11.350  11.002  1.00  0.00    -0.452 OA
ENDROOT
BRANCH   1  12
ATOM     12  C   UNL     1     -46.339 -12.245  11.794  1.00  0.00     0.025 A 
ATOM     13  C   UNL     1     -46.066 -13.608  12.010  1.00  0.00     0.016 A 
ATOM     14  C   UNL     1     -47.091 -14.554  11.932  1.00  0.00     0.051 A 
ATOM     15  C   UNL     1     -48.396 -14.159  11.625  1.00  0.00     0.157 A 
ATOM     16  C   UNL     1     -47.647 -11.854  11.465  1.00  0.00     0.062 A 
ATOM     17  C   UNL     1     -48.677 -12.802  11.387  1.00  0.00     0.158 A 
BRANCH  15  18
ATOM     18  O   UNL     1     -49.399 -15.125  11.555  1.00  0.00    -0.504 OA
ATOM     19  H   UNL     1     -49.257 -16.016  11.096  1.00  0.00     0.293 HD
ENDBRANCH  15  18
BRANCH  17  20
ATOM     20  O   UNL     1     -49.975 -12.402  11.073  1.00  0.00    -0.504 OA
ATOM     21  H   UNL     1     -50.215 -11.425  10.955  1.00  0.00     0.293 HD
ENDBRANCH  17  20
ENDBRANCH   1  12
BRANCH   2  22
ATOM     22  O   UNL     1     -46.403  -9.964  13.588  1.00  0.00    -0.502 OA
ATOM     23  H   UNL     1     -47.073 -10.702  13.766  1.00  0.00     0.293 HD
ENDBRANCH   2  22
BRANCH   6  24
ATOM     24  O   UNL     1     -41.970  -7.416  12.633  1.00  0.00    -0.507 OA
ATOM     25  H   UNL     1     -42.150  -7.493  13.627  1.00  0.00     0.293 HD
ENDBRANCH   6  24
BRANCH   8  26
ATOM     26  O   UNL     1     -40.072 -10.057   9.070  1.00  0.00    -0.508 OA
ATOM     27  H   UNL     1     -39.099  -9.982   9.340  1.00  0.00     0.293 HD
ENDBRANCH   8  26
TORSDOF 6
ENDMDL
MODEL 2
REMARK VINA RESULT:    -8.178      1.755      6.815
REMARK INTER + INTRA:          -9.953
REMARK INTER:                  -9.690
REMARK INTRA:                  -0.263
REMARK UNBOUND:                -0.101
REMARK SMILES O=c1c(O)c(-c2ccc(O)c(O)c2)oc2cc(O)cc(O)c12
REMARK SMILES IDX 5 1 3 2 2 3 1 4 22 5 20 6 19 7 17 8 16 9 15 10 14 11 6 12
REMARK SMILES IDX 7 13 8 14 9 15 13 16 11 17 10 18 12 20 4 22 21 24 18 26
REMARK H PARENT 10 19 12 21 4 23 21 25 18 27
REMARK Flexibility Score: inf
ROOT
ATOM      1  C   UNL     1     -44.571 -11.381  12.269  1.00  0.00     0.180 A 
ATOM      2  C   UNL     1     -44.742 -11.392  13.666  1.00  0.00     0.208 A 
ATOM      3  C   UNL     1     -45.890 -11.993  14.205  1.00  0.00     0.238 A 
ATOM      4  O   UNL     1     -46.060 -11.999  15.455  1.00  0.00    -0.285 OA
ATOM      5  C   UNL     1     -46.836 -12.588  13.343  1.00  0.00     0.111 A 
ATOM      6  C   UNL     1     -48.017 -13.216  13.805  1.00  0.00     0.134 A 
ATOM      7  C   UNL     1     -48.903 -13.794  12.883  1.00  0.00     0.093 A 
ATOM      8  C   UNL     1     -48.633 -13.755  11.515  1.00  0.00     0.123 A 
ATOM      9  C   UNL     1     -47.468 -13.134  11.052  1.00  0.00     0.094 A 
ATOM     10  C   UNL     1     -46.572 -12.552  11.953  1.00  0.00     0.146 A 
ATOM     11  O   UNL     1     -45.475 -11.965  11.488  1.00  0.00    -0.452 OA
ENDROOT
BRANCH   1  12
ATOM     12  C   UNL     1     -43.396 -10.752  11.624  1.00  0.00     0.025 A 
ATOM     13  C   UNL     1     -43.258  -9.354  11.560  1.00  0.00     0.016 A 
ATOM     14  C   UNL     1     -42.153  -8.781  10.925  1.00  0.00     0.051 A 
ATOM     15  C   UNL     1     -41.179  -9.591  10.334  1.00  0.00     0.157 A 
ATOM     16  C   UNL     1     -42.427 -11.562  11.011  1.00  0.00     0.062 A 
ATOM     17  C   UNL     1     -41.316 -10.989  10.374  1.00  0.00     0.158 A 
BRANCH  15  18
ATOM     18  O   UNL     1     -40.086  -8.992   9.709  1.00  0.00    -0.504 OA
ATOM     19  H   UNL     1     -39.134  -9.283   9.894  1.00  0.00     0.293 HD
ENDBRANCH  15  18
BRANCH  17  20
ATOM     20  O   UNL     1     -40.352 -11.803   9.780  1.00  0.00    -0.504 OA
ATOM     21  H   UNL     1     -40.553 -12.762   9.524  1.00  0.00     0.293 HD
ENDBRANCH  17  20
ENDBRANCH   1  12
BRANCH   2  22
ATOM     22  O   UNL     1     -43.767 -10.839  14.501  1.00  0.00    -0.502 OA
ATOM     23  H   UNL     1     -43.848  -9.905  14.884  1.00  0.00     0.293 HD
ENDBRANCH   2  22
BRANCH   6  24
ATOM     24  O   UNL     1     -48.315 -13.272  15.167  1.00  0.00    -0.507 OA
ATOM     25  H   UNL     1     -49.259 -13.136  15.512  1.00  0.00     0.293 HD
ENDBRANCH   6  24
BRANCH   8  26
ATOM     26  O   UNL     1     -49.529 -14.336  10.621  1.00  0.00    -0.508 OA
ATOM     27  H   UNL     1     -50.156 -13.774  10.057  1.00  0.00     0.293 HD
ENDBRANCH   8  26
TORSDOF 6
ENDMDL
MODEL 3
REMARK VINA RESULT:    -7.852      1.786      6.788
REMARK INTER + INTRA:          -9.560
REMARK INTER:                  -9.399
REMARK INTRA:                  -0.161
REMARK UNBOUND:                -0.101
REMARK SMILES O=c1c(O)c(-c2ccc(O)c(O)c2)oc2cc(O)cc(O)c12
REMARK SMILES IDX 5 1 3 2 2 3 1 4 22 5 20 6 19 7 17 8 16 9 15 10 14 11 6 12
REMARK SMILES IDX 7 13 8 14 9 15 13 16 11 17 10 18 12 20 4 22 21 24 18 26
REMARK H PARENT 10 19 12 21 4 23 21 25 18 27
REMARK Flexibility Score: inf
ROOT
ATOM      1  C   UNL     1     -44.857 -11.347  12.430  1.00  0.00     0.180 A 
ATOM      2  C   UNL     1     -45.012 -11.419  13.828  1.00  0.00     0.208 A 
ATOM      3  C   UNL     1     -46.146 -12.057  14.354  1.00  0.00     0.238 A 
ATOM      4  O   UNL     1     -46.301 -12.117  15.604  1.00  0.00    -0.285 OA
ATOM      5  C   UNL     1     -47.093 -12.629  13.478  1.00  0.00     0.111 A 
ATOM      6  C   UNL     1     -48.260 -13.293  13.927  1.00  0.00     0.134 A 
ATOM      7  C   UNL     1     -49.149 -13.844  12.992  1.00  0.00     0.093 A 
ATOM      8  C   UNL     1     -48.894 -13.745  11.623  1.00  0.00     0.123 A 
ATOM      9  C   UNL     1     -47.743 -13.090  11.173  1.00  0.00     0.094 A 
ATOM     10  C   UNL     1     -46.845 -12.533  12.088  1.00  0.00     0.146 A 
ATOM     11  O   UNL     1     -45.762 -11.911  11.636  1.00  0.00    -0.452 OA
ENDROOT
BRANCH   1  12
ATOM     12  C   UNL     1     -43.697 -10.676  11.800  1.00  0.00     0.025 A 
ATOM     13  C   UNL     1     -42.739 -11.402  11.071  1.00  0.00     0.016 A 
ATOM     14  C   UNL     1     -41.640 -10.752  10.505  1.00  0.00     0.051 A 
ATOM     15  C   UNL     1     -41.473  -9.374  10.669  1.00  0.00     0.157 A 
ATOM     16  C   UNL     1     -43.516  -9.295  11.980  1.00  0.00     0.062 A 
ATOM     17  C   UNL     1     -42.414  -8.640  11.412  1.00  0.00     0.158 A 
BRANCH  15  18
ATOM     18  O   UNL     1     -40.367  -8.751  10.091  1.00  0.00    -0.504 OA
ATOM     19  H   UNL     1     -39.658  -9.270   9.589  1.00  0.00     0.293 HD
ENDBRANCH  15  18
BRANCH  17  20
ATOM     20  O   UNL     1     -42.250  -7.266  11.585  1.00  0.00    -0.504 OA
ATOM     21  H   UNL     1     -42.432  -6.612  10.834  1.00  0.00     0.293 HD
ENDBRANCH  17  20
ENDBRANCH   1  12
BRANCH   2  22
ATOM     22  O   UNL     1     -44.035 -10.887  14.675  1.00  0.00    -0.502 OA
ATOM     23  H   UNL     1     -44.167 -10.016  15.175  1.00  0.00     0.293 HD
ENDBRANCH   2  22
BRANCH   6  24
ATOM     24  O   UNL     1     -48.542 -13.409  15.288  1.00  0.00    -0.507 OA
ATOM     25  H   UNL     1     -48.066 -14.082  15.877  1.00  0.00     0.293 HD
ENDBRANCH   6  24
BRANCH   8  26
ATOM     26  O   UNL     1     -49.793 -14.302  10.715  1.00  0.00    -0.508 OA
ATOM     27  H   UNL     1     -50.453 -13.729  10.204  1.00  0.00     0.293 HD
ENDBRANCH   8  26
TORSDOF 6
ENDMDL
MODEL 4
REMARK VINA RESULT:    -7.547      2.752      7.943
REMARK INTER + INTRA:          -9.193
REMARK INTER:                  -8.860
REMARK INTRA:                  -0.332
REMARK UNBOUND:                -0.101
REMARK SMILES O=c1c(O)c(-c2ccc(O)c(O)c2)oc2cc(O)cc(O)c12
REMARK SMILES IDX 5 1 3 2 2 3 1 4 22 5 20 6 19 7 17 8 16 9 15 10 14 11 6 12
REMARK SMILES IDX 7 13 8 14 9 15 13 16 11 17 10 18 12 20 4 22 21 24 18 26
REMARK H PARENT 10 19 12 21 4 23 21 25 18 27
REMARK Flexibility Score: inf
ROOT
ATOM      1  C   UNL     1     -47.701 -12.689  12.508  1.00  0.00     0.180 A 
ATOM      2  C   UNL     1     -48.696 -12.647  11.514  1.00  0.00     0.208 A 
ATOM      3  C   UNL     1     -49.994 -13.073  11.834  1.00  0.00     0.238 A 
ATOM      4  O   UNL     1     -50.892 -13.051  10.948  1.00  0.00    -0.285 OA
ATOM      5  C   UNL     1     -50.280 -13.513  13.144  1.00  0.00     0.111 A 
ATOM      6  C   UNL     1     -51.563 -13.955  13.549  1.00  0.00     0.134 A 
ATOM      7  C   UNL     1     -51.769 -14.368  14.874  1.00  0.00     0.093 A 
ATOM      8  C   UNL     1     -50.722 -14.347  15.797  1.00  0.00     0.123 A 
ATOM      9  C   UNL     1     -49.453 -13.913  15.403  1.00  0.00     0.094 A 
ATOM     10  C   UNL     1     -49.226 -13.498  14.087  1.00  0.00     0.146 A 
ATOM     11  O   UNL     1     -48.010 -13.094  13.736  1.00  0.00    -0.452 OA
ENDROOT
BRANCH   1  12
ATOM     12  C   UNL     1     -46.304 -12.273  12.243  1.00  0.00     0.025 A 
ATOM     13  C   UNL     1     -45.344 -13.190  11.781  1.00  0.00     0.016 A 
ATOM     14  C   UNL     1     -44.026 -12.781  11.561  1.00  0.00     0.051 A 
ATOM     15  C   UNL     1     -43.644 -11.460  11.810  1.00  0.00     0.157 A 
ATOM     16  C   UNL     1     -45.913 -10.951  12.513  1.00  0.00     0.062 A 
ATOM     17  C   UNL     1     -44.591 -10.539  12.292  1.00  0.00     0.158 A 
BRANCH  15  18
ATOM     18  O   UNL     1     -42.323 -11.080  11.580  1.00  0.00    -0.504 OA
ATOM     19  H   UNL     1     -41.944 -10.989  10.645  1.00  0.00     0.293 HD
ENDBRANCH  15  18
BRANCH  17  20
ATOM     20  O   UNL     1     -44.215  -9.222  12.550  1.00  0.00    -0.504 OA
ATOM     21  H   UNL     1     -44.144  -8.536  11.809  1.00  0.00     0.293 HD
ENDBRANCH  17  20
ENDBRANCH   1  12
BRANCH   2  22
ATOM     22  O   UNL     1     -48.399 -12.161  10.237  1.00  0.00    -0.502 OA
ATOM     23  H   UNL     1     -49.120 -11.931   9.564  1.00  0.00     0.293 HD
ENDBRANCH   2  22
BRANCH   6  24
ATOM     24  O   UNL     1     -52.629 -13.986  12.650  1.00  0.00    -0.507 OA
ATOM     25  H   UNL     1     -52.630 -14.601  11.845  1.00  0.00     0.293 HD
ENDBRANCH   6  24
BRANCH   8  26
ATOM     26  O   UNL     1     -50.954 -14.762  17.107  1.00  0.00    -0.508 OA
ATOM     27  H   UNL     1     -51.755 -15.334  17.349  1.00  0.00     0.293 HD
ENDBRANCH   8  26
TORSDOF 6
ENDMDL
MODEL 5
REMARK VINA RESULT:    -7.429      1.982      7.154
REMARK INTER + INTRA:          -9.050
REMARK INTER:                  -9.040
REMARK INTRA:                  -0.010
REMARK UNBOUND:                -0.101
REMARK SMILES O=c1c(O)c(-c2ccc(O)c(O)c2)oc2cc(O)cc(O)c12
REMARK SMILES IDX 5 1 3 2 2 3 1 4 22 5 20 6 19 7 17 8 16 9 15 10 14 11 6 12
REMARK SMILES IDX 7 13 8 14 9 15 13 16 11 17 10 18 12 20 4 22 21 24 18 26
REMARK H PARENT 10 19 12 21 4 23 21 25 18 27
REMARK Flexibility Score: inf
ROOT
ATOM      1  C   UNL     1     -44.775 -11.342  11.804  1.00  0.00     0.180 A 
ATOM      2  C   UNL     1     -45.523 -12.147  10.923  1.00  0.00     0.208 A 
ATOM      3  C   UNL     1     -46.698 -12.754  11.389  1.00  0.00     0.238 A 
ATOM      4  O   UNL     1     -47.370 -13.486  10.612  1.00  0.00    -0.285 OA
ATOM      5  C   UNL     1     -47.118 -12.531  12.718  1.00  0.00     0.111 A 
ATOM      6  C   UNL     1     -48.291 -13.103  13.265  1.00  0.00     0.134 A 
ATOM      7  C   UNL     1     -48.646 -12.825  14.594  1.00  0.00     0.093 A 
ATOM      8  C   UNL     1     -47.852 -11.990  15.383  1.00  0.00     0.123 A 
ATOM      9  C   UNL     1     -46.691 -11.424  14.848  1.00  0.00     0.094 A 
ATOM     10  C   UNL     1     -46.320 -11.689  13.527  1.00  0.00     0.146 A 
ATOM     11  O   UNL     1     -45.209 -11.142  13.044  1.00  0.00    -0.452 OA
ENDROOT
BRANCH   1  12
ATOM     12  C   UNL     1     -43.516 -10.681  11.391  1.00  0.00     0.025 A 
ATOM     13  C   UNL     1     -43.337  -9.294  11.532  1.00  0.00     0.016 A 
ATOM     14  C   UNL     1     -42.150  -8.689  11.113  1.00  0.00     0.051 A 
ATOM     15  C   UNL     1     -41.131  -9.453  10.537  1.00  0.00     0.157 A 
ATOM     16  C   UNL     1     -42.499 -11.444  10.792  1.00  0.00     0.062 A 
ATOM     17  C   UNL     1     -41.306 -10.838  10.372  1.00  0.00     0.158 A 
BRANCH  15  18
ATOM     18  O   UNL     1     -39.956  -8.822  10.130  1.00  0.00    -0.504 OA
ATOM     19  H   UNL     1     -39.954  -7.885   9.746  1.00  0.00     0.293 HD
ENDBRANCH  15  18
BRANCH  17  20
ATOM     20  O   UNL     1     -40.298 -11.606   9.792  1.00  0.00    -0.504 OA
ATOM     21  H   UNL     1     -39.988 -11.443   8.841  1.00  0.00     0.293 HD
ENDBRANCH  17  20
ENDBRANCH   1  12
BRANCH   2  22
ATOM     22  O   UNL     1     -45.112 -12.311   9.597  1.00  0.00    -0.502 OA
ATOM     23  H   UNL     1     -45.377 -13.118   9.044  1.00  0.00     0.293 HD
ENDBRANCH   2  22
BRANCH   6  24
ATOM     24  O   UNL     1     -49.106 -13.941  12.502  1.00  0.00    -0.507 OA
ATOM     25  H   UNL     1     -50.109 -13.979  12.640  1.00  0.00     0.293 HD
ENDBRANCH   6  24
BRANCH   8  26
ATOM     26  O   UNL     1     -48.227 -11.730  16.699  1.00  0.00    -0.508 OA
ATOM     27  H   UNL     1     -49.129 -12.017  17.060  1.00  0.00     0.293 HD
ENDBRANCH   8  26
TORSDOF 6
ENDMDL
MODEL 6
REMARK VINA RESULT:    -7.314      3.449      5.742
REMARK INTER + INTRA:          -8.912
REMARK INTER:                  -9.120
REMARK INTRA:                   0.209
REMARK UNBOUND:                -0.101
REMARK SMILES O=c1c(O)c(-c2ccc(O)c(O)c2)oc2cc(O)cc(O)c12
REMARK SMILES IDX 5 1 3 2 2 3 1 4 22 5 20 6 19 7 17 8 16 9 15 10 14 11 6 12
REMARK SMILES IDX 7 13 8 14 9 15 13 16 11 17 10 18 12 20 4 22 21 24 18 26
REMARK H PARENT 10 19 12 21 4 23 21 25 18 27
REMARK Flexibility Score: inf
ROOT
ATOM      1  C   UNL     1     -48.955 -13.634  13.810  1.00  0.00     0.180 A 
ATOM      2  C   UNL     1     -48.470 -14.232  12.631  1.00  0.00     0.208 A 
ATOM      3  C   UNL     1     -47.164 -13.938  12.208  1.00  0.00     0.238 A 
ATOM      4  O   UNL     1     -46.723 -14.458  11.148  1.00  0.00    -0.285 OA
ATOM      5  C   UNL     1     -46.360 -13.072  12.979  1.00  0.00     0.111 A 
ATOM      6  C   UNL     1     -45.034 -12.728  12.625  1.00  0.00     0.134 A 
ATOM      7  C   UNL     1     -44.295 -11.866  13.450  1.00  0.00     0.093 A 
ATOM      8  C   UNL     1     -44.856 -11.344  14.618  1.00  0.00     0.123 A 
ATOM      9  C   UNL     1     -46.166 -11.680  14.972  1.00  0.00     0.094 A 
ATOM     10  C   UNL     1     -46.919 -12.535  14.163  1.00  0.00     0.146 A 
ATOM     11  O   UNL     1     -48.163 -12.835  14.519  1.00  0.00    -0.452 OA
ENDROOT
BRANCH   1  12
ATOM     12  C   UNL     1     -50.326 -13.881  14.312  1.00  0.00     0.025 A 
ATOM     13  C   UNL     1     -50.586 -14.037  15.685  1.00  0.00     0.016 A 
ATOM     14  C   UNL     1     -51.884 -14.293  16.133  1.00  0.00     0.051 A 
ATOM     15  C   UNL     1     -52.937 -14.411  15.221  1.00  0.00     0.157 A 
ATOM     16  C   UNL     1     -51.382 -14.021  13.396  1.00  0.00     0.062 A 
ATOM     17  C   UNL     1     -52.686 -14.277  13.845  1.00  0.00     0.158 A 
BRANCH  15  18
ATOM     18  O   UNL     1     -54.222 -14.665  15.698  1.00  0.00    -0.504 OA
ATOM     19  H   UNL     1     -54.908 -13.930  15.814  1.00  0.00     0.293 HD
ENDBRANCH  15  18
BRANCH  17  20
ATOM     20  O   UNL     1     -53.730 -14.400  12.929  1.00  0.00    -0.504 OA
ATOM     21  H   UNL     1     -54.696 -14.445  13.230  1.00  0.00     0.293 HD
ENDBRANCH  17  20
ENDBRANCH   1  12
BRANCH   2  22
ATOM     22  O   UNL     1     -49.269 -15.125  11.912  1.00  0.00    -0.502 OA
ATOM     23  H   UNL     1     -48.997 -15.487  11.006  1.00  0.00     0.293 HD
ENDBRANCH   2  22
BRANCH   6  24
ATOM     24  O   UNL     1     -44.445 -13.233  11.465  1.00  0.00    -0.507 OA
ATOM     25  H   UNL     1     -44.895 -13.152  10.560  1.00  0.00     0.293 HD
ENDBRANCH   6  24
BRANCH   8  26
ATOM     26  O   UNL     1     -44.101 -10.491  15.420  1.00  0.00    -0.508 OA
ATOM     27  H   UNL     1     -43.511 -10.846  16.164  1.00  0.00     0.293 HD
ENDBRANCH   8  26
TORSDOF 6
ENDMDL
MODEL 7
REMARK VINA RESULT:    -6.843      1.256      2.825
REMARK INTER + INTRA:          -8.345
REMARK INTER:                  -8.030
REMARK INTRA:                  -0.315
REMARK UNBOUND:                -0.101
REMARK SMILES O=c1c(O)c(-c2ccc(O)c(O)c2)oc2cc(O)cc(O)c12
REMARK SMILES IDX 5 1 3 2 2 3 1 4 22 5 20 6 19 7 17 8 16 9 15 10 14 11 6 12
REMARK SMILES IDX 7 13 8 14 9 15 13 16 11 17 10 18 12 20 4 22 21 24 18 26
REMARK H PARENT 10 19 12 21 4 23 21 25 18 27
REMARK Flexibility Score: inf
ROOT
ATOM      1  C   UNL     1     -45.461 -11.562  11.734  1.00  0.00     0.180 A 
ATOM      2  C   UNL     1     -44.607 -11.753  10.631  1.00  0.00     0.208 A 
ATOM      3  C   UNL     1     -43.485 -10.923  10.488  1.00  0.00     0.238 A 
ATOM      4  O   UNL     1     -42.719 -11.078   9.498  1.00  0.00    -0.285 OA
ATOM      5  C   UNL     1     -43.224  -9.931  11.457  1.00  0.00     0.111 A 
ATOM      6  C   UNL     1     -42.114  -9.056  11.389  1.00  0.00     0.134 A 
ATOM      7  C   UNL     1     -41.918  -8.101  12.399  1.00  0.00     0.093 A 
ATOM      8  C   UNL     1     -42.808  -8.006  13.471  1.00  0.00     0.123 A 
ATOM      9  C   UNL     1     -43.908  -8.867  13.543  1.00  0.00     0.094 A 
ATOM     10  C   UNL     1     -44.121  -9.824  12.547  1.00  0.00     0.146 A 
ATOM     11  O   UNL     1     -45.175 -10.627  12.635  1.00  0.00    -0.452 OA
ENDROOT
BRANCH   1  12
ATOM     12  C   UNL     1     -46.673 -12.386  11.944  1.00  0.00     0.025 A 
ATOM     13  C   UNL     1     -46.604 -13.640  12.575  1.00  0.00     0.016 A 
ATOM     14  C   UNL     1     -47.757 -14.412  12.741  1.00  0.00     0.051 A 
ATOM     15  C   UNL     1     -48.989 -13.952  12.268  1.00  0.00     0.157 A 
ATOM     16  C   UNL     1     -47.909 -11.936  11.451  1.00  0.00     0.062 A 
ATOM     17  C   UNL     1     -49.067 -12.709  11.618  1.00  0.00     0.158 A 
BRANCH  15  18
ATOM     18  O   UNL     1     -50.124 -14.743  12.450  1.00  0.00    -0.504 OA
ATOM     19  H   UNL     1     -51.051 -14.417  12.209  1.00  0.00     0.293 HD
ENDBRANCH  15  18
BRANCH  17  20
ATOM     20  O   UNL     1     -50.292 -12.247  11.138  1.00  0.00    -0.504 OA
ATOM     21  H   UNL     1     -50.346 -11.526  10.429  1.00  0.00     0.293 HD
ENDBRANCH  17  20
ENDBRANCH   1  12
BRANCH   2  22
ATOM     22  O   UNL     1     -44.860 -12.775   9.711  1.00  0.00    -0.502 OA
ATOM     23  H   UNL     1     -44.466 -12.774   8.778  1.00  0.00     0.293 HD
ENDBRANCH   2  22
BRANCH   6  24
ATOM     24  O   UNL     1     -41.206  -9.126  10.332  1.00  0.00    -0.507 OA
ATOM     25  H   UNL     1     -41.469  -9.502   9.428  1.00  0.00     0.293 HD
ENDBRANCH   6  24
BRANCH   8  26
ATOM     26  O   UNL     1     -42.591  -7.050  14.460  1.00  0.00    -0.508 OA
ATOM     27  H   UNL     1     -42.664  -7.279  15.445  1.00  0.00     0.293 HD
ENDBRANCH   8  26
TORSDOF 6
ENDMDL
MODEL 8
REMARK VINA RESULT:    -6.833      1.744      6.610
REMARK INTER + INTRA:          -8.333
REMARK INTER:                  -8.451
REMARK INTRA:                   0.118
REMARK UNBOUND:                -0.101
REMARK SMILES O=c1c(O)c(-c2ccc(O)c(O)c2)oc2cc(O)cc(O)c12
REMARK SMILES IDX 5 1 3 2 2 3 1 4 22 5 20 6 19 7 17 8 16 9 15 10 14 11 6 12
REMARK SMILES IDX 7 13 8 14 9 15 13 16 11 17 10 18 12 20 4 22 21 24 18 26
REMARK H PARENT 10 19 12 21 4 23 21 25 18 27
REMARK Flexibility Score: inf
ROOT
ATOM      1  C   UNL     1     -43.370 -10.218  11.443  1.00  0.00     0.180 A 
ATOM      2  C   UNL     1     -44.000  -9.285  12.289  1.00  0.00     0.208 A 
ATOM      3  C   UNL     1     -45.117  -9.690  13.035  1.00  0.00     0.238 A 
ATOM      4  O   UNL     1     -45.696  -8.859  13.787  1.00  0.00    -0.285 OA
ATOM      5  C   UNL     1     -45.573 -11.021  12.940  1.00  0.00     0.111 A 
ATOM      6  C   UNL     1     -46.689 -11.511  13.660  1.00  0.00     0.134 A 
ATOM      7  C   UNL     1     -47.074 -12.853  13.518  1.00  0.00     0.093 A 
ATOM      8  C   UNL     1     -46.368 -13.710  12.673  1.00  0.00     0.123 A 
ATOM      9  C   UNL     1     -45.265 -13.233  11.957  1.00  0.00     0.094 A 
ATOM     10  C   UNL     1     -44.866 -11.899  12.084  1.00  0.00     0.146 A 
ATOM     11  O   UNL     1     -43.818 -11.469  11.390  1.00  0.00    -0.452 OA
ENDROOT
BRANCH   1  12
ATOM     12  C   UNL     1     -42.198  -9.862  10.611  1.00  0.00     0.025 A 
ATOM     13  C   UNL     1     -41.156  -9.066  11.119  1.00  0.00     0.016 A 
ATOM     14  C   UNL     1     -40.071  -8.721  10.309  1.00  0.00     0.051 A 
ATOM     15  C   UNL     1     -40.016  -9.153   8.981  1.00  0.00     0.157 A 
ATOM     16  C   UNL     1     -42.150 -10.275   9.270  1.00  0.00     0.062 A 
ATOM     17  C   UNL     1     -41.061  -9.932   8.456  1.00  0.00     0.158 A 
BRANCH  15  18
ATOM     18  O   UNL     1     -38.920  -8.795   8.196  1.00  0.00    -0.504 OA
ATOM     19  H   UNL     1     -38.099  -8.350   8.588  1.00  0.00     0.293 HD
ENDBRANCH  15  18
BRANCH  17  20
ATOM     20  O   UNL     1     -41.016 -10.359   7.130  1.00  0.00    -0.504 OA
ATOM     21  H   UNL     1     -40.149 -10.375   6.607  1.00  0.00     0.293 HD
ENDBRANCH  17  20
ENDBRANCH   1  12
BRANCH   2  22
ATOM     22  O   UNL     1     -43.499  -7.985  12.402  1.00  0.00    -0.502 OA
ATOM     23  H   UNL     1     -42.905  -7.698  13.171  1.00  0.00     0.293 HD
ENDBRANCH   2  22
BRANCH   6  24
ATOM     24  O   UNL     1     -47.415 -10.679  14.513  1.00  0.00    -0.507 OA
ATOM     25  H   UNL     1     -46.961 -10.117  15.225  1.00  0.00     0.293 HD
ENDBRANCH   6  24
BRANCH   8  26
ATOM     26  O   UNL     1     -46.771 -15.038  12.550  1.00  0.00    -0.508 OA
ATOM     27  H   UNL     1     -46.586 -15.718  13.278  1.00  0.00     0.293 HD
ENDBRANCH   8  26
TORSDOF 6
ENDMDL
MODEL 9
REMARK VINA RESULT:    -6.784      2.621      3.737
REMARK INTER + INTRA:          -8.274
REMARK INTER:                  -8.263
REMARK INTRA:                  -0.011
REMARK UNBOUND:                -0.101
REMARK SMILES O=c1c(O)c(-c2ccc(O)c(O)c2)oc2cc(O)cc(O)c12
REMARK SMILES IDX 5 1 3 2 2 3 1 4 22 5 20 6 19 7 17 8 16 9 15 10 14 11 6 12
REMARK SMILES IDX 7 13 8 14 9 15 13 16 11 17 10 18 12 20 4 22 21 24 18 26
REMARK H PARENT 10 19 12 21 4 23 21 25 18 27
REMARK Flexibility Score: inf
ROOT
ATOM      1  C   UNL     1     -44.818 -10.562  13.688  1.00  0.00     0.180 A 
ATOM      2  C   UNL     1     -44.531 -11.062  12.403  1.00  0.00     0.208 A 
ATOM      3  C   UNL     1     -43.622 -10.367  11.592  1.00  0.00     0.238 A 
ATOM      4  O   UNL     1     -43.365 -10.800  10.435  1.00  0.00    -0.285 OA
ATOM      5  C   UNL     1     -43.001  -9.199  12.082  1.00  0.00     0.111 A 
ATOM      6  C   UNL     1     -42.070  -8.443  11.329  1.00  0.00     0.134 A 
ATOM      7  C   UNL     1     -41.489  -7.297  11.893  1.00  0.00     0.093 A 
ATOM      8  C   UNL     1     -41.818  -6.895  13.188  1.00  0.00     0.123 A 
ATOM      9  C   UNL     1     -42.737  -7.637  13.936  1.00  0.00     0.094 A 
ATOM     10  C   UNL     1     -43.329  -8.781  13.394  1.00  0.00     0.146 A 
ATOM     11  O   UNL     1     -44.202  -9.467  14.123  1.00  0.00    -0.452 OA
ENDROOT
BRANCH   1  12
ATOM     12  C   UNL     1     -45.779 -11.229  14.596  1.00  0.00     0.025 A 
ATOM     13  C   UNL     1     -45.409 -11.612  15.898  1.00  0.00     0.016 A 
ATOM     14  C   UNL     1     -46.325 -12.263  16.729  1.00  0.00     0.051 A 
ATOM     15  C   UNL     1     -47.614 -12.551  16.272  1.00  0.00     0.157 A 
ATOM     16  C   UNL     1     -47.068 -11.538  14.133  1.00  0.00     0.062 A 
ATOM     17  C   UNL     1     -47.988 -12.190  14.967  1.00  0.00     0.158 A 
BRANCH  15  18
ATOM     18  O   UNL     1     -48.507 -13.198  17.125  1.00  0.00    -0.504 OA
ATOM     19  H   UNL     1     -49.057 -13.993  16.825  1.00  0.00     0.293 HD
ENDBRANCH  15  18
BRANCH  17  20
ATOM     20  O   UNL     1     -49.271 -12.480  14.502  1.00  0.00    -0.504 OA
ATOM     21  H   UNL     1     -49.533 -12.322  13.537  1.00  0.00     0.293 HD
ENDBRANCH  17  20
ENDBRANCH   1  12
BRANCH   2  22
ATOM     22  O   UNL     1     -45.122 -12.248  11.960  1.00  0.00    -0.502 OA
ATOM     23  H   UNL     1     -45.935 -12.255  11.355  1.00  0.00     0.293 HD
ENDBRANCH   2  22
BRANCH   6  24
ATOM     24  O   UNL     1     -41.720  -8.819  10.032  1.00  0.00    -0.507 OA
ATOM     25  H   UNL     1     -42.279  -8.550   9.230  1.00  0.00     0.293 HD
ENDBRANCH   6  24
BRANCH   8  26
ATOM     26  O   UNL     1     -41.225  -5.753  13.724  1.00  0.00    -0.508 OA
ATOM     27  H   UNL     1     -41.160  -5.609  14.725  1.00  0.00     0.293 HD
ENDBRANCH   8  26
TORSDOF 6
ENDMDL
