MODEL 1
REMARK VINA RESULT:    -1.089      0.000      0.000
REMARK INTER + INTRA:          -9.332
REMARK INTER:                  -2.872
REMARK INTRA:                  -6.460
REMARK UNBOUND:                -6.460
REMARK SMILES CCCCCCCCCCCCCCCCCCCCCCCCCCCCCC(=O)[O-]
REMARK SMILES IDX 16 1 17 2 18 3 19 4 20 5 21 6 22 7 23 8 24 9 25 10 26 11
REMARK SMILES IDX 27 12 28 13 29 14 30 15 31 16 32 17 15 18 14 19 13 20 12 21
REMARK SMILES IDX 11 22 10 23 9 24 8 25 7 26 6 27 5 28 4 29 3 30 2 31 1 32
REMARK H PARENT
REMARK Flexibility Score: inf
ROOT
ATOM      1  C   UNL     1     174.198 178.483 194.445  1.00  0.00     0.000 C 
ENDROOT
BRANCH   1   2
ATOM      2  C   UNL     1     173.708 178.168 193.022  1.00  0.00     0.000 C 
BRANCH   2   3
ATOM      3  C   UNL     1     172.198 177.889 192.968  1.00  0.00     0.000 C 
BRANCH   3   4
ATOM      4  C   UNL     1     171.520 178.722 191.870  1.00  0.00     0.000 C 
BRANCH   4   5
ATOM      5  C   UNL     1     172.056 180.163 191.800  1.00  0.00     0.000 C 
BRANCH   5   6
ATOM      6  C   UNL     1     171.202 181.219 192.531  1.00  0.00     0.000 C 
BRANCH   6   7
ATOM      7  C   UNL     1     171.759 181.692 193.886  1.00  0.00     0.000 C 
BRANCH   7   8
ATOM      8  C   UNL     1     173.285 181.878 193.870  1.00  0.00     0.000 C 
BRANCH   8   9
ATOM      9  C   UNL     1     173.727 183.072 193.008  1.00  0.00     0.000 C 
BRANCH   9  10
ATOM     10  C   UNL     1     174.832 182.705 191.999  1.00  0.00     0.000 C 
BRANCH  10  11
ATOM     11  C   UNL     1     175.475 181.340 192.293  1.00  0.00     0.000 C 
BRANCH  11  12
ATOM     12  C   UNL     1     176.957 181.458 192.682  1.00  0.00     0.000 C 
BRANCH  12  13
ATOM     13  C   UNL     1     177.442 180.184 193.389  1.00  0.00     0.006 C 
BRANCH  13  14
ATOM     14  C   UNL     1     177.637 180.395 194.895  1.00  0.00     0.053 C 
BRANCH  14  15
ATOM     15  C   UNL     1     177.534 179.108 195.655  1.00  0.00     0.041 C 
ATOM     16  O   UNL     1     177.055 179.095 196.818  1.00  0.00    -0.550 OA
ATOM     17  O   UNL     1     177.950 177.920 195.067  1.00  0.00    -0.550 OA
ENDBRANCH  14  15
ENDBRANCH  13  14
ENDBRANCH  12  13
ENDBRANCH  11  12
ENDBRANCH  10  11
ENDBRANCH   9  10
ENDBRANCH   8   9
ENDBRANCH   7   8
ENDBRANCH   6   7
ENDBRANCH   5   6
ENDBRANCH   4   5
ENDBRANCH   3   4
ENDBRANCH   2   3
ENDBRANCH   1   2
BRANCH   1  18
ATOM     18  C   UNL     1     173.052 178.472 195.475  1.00  0.00     0.000 C 
BRANCH  18  19
ATOM     19  C   UNL     1     173.127 177.277 196.438  1.00  0.00     0.000 C 
BRANCH  19  20
ATOM     20  C   UNL     1     173.696 177.666 197.813  1.00  0.00     0.000 C 
BRANCH  20  21
ATOM     21  C   UNL     1     172.689 177.452 198.960  1.00  0.00     0.000 C 
BRANCH  21  22
ATOM     22  C   UNL     1     172.301 178.728 199.735  1.00  0.00     0.000 C 
BRANCH  22  23
ATOM     23  C   UNL     1     173.128 179.956 199.313  1.00  0.00     0.000 C 
BRANCH  23  24
ATOM     24  C   UNL     1     172.265 181.076 198.711  1.00  0.00    -0.000 C 
BRANCH  24  25
ATOM     25  C   UNL     1     172.965 181.798 197.546  1.00  0.00    -0.000 C 
BRANCH  25  26
ATOM     26  C   UNL     1     174.398 181.292 197.308  1.00  0.00    -0.000 C 
BRANCH  26  27
ATOM     27  C   UNL     1     175.473 182.392 197.185  1.00  0.00    -0.000 C 
BRANCH  27  28
ATOM     28  C   UNL     1     174.904 183.825 197.141  1.00  0.00    -0.000 C 
BRANCH  28  29
ATOM     29  C   UNL     1     175.367 184.603 195.896  1.00  0.00    -0.000 C 
BRANCH  29  30
ATOM     30  C   UNL     1     176.627 183.998 195.249  1.00  0.00    -0.000 C 
BRANCH  30  31
ATOM     31  C   UNL     1     177.290 184.880 194.176  1.00  0.00    -0.003 C 
ATOM     32  C   UNL     1     176.296 185.800 193.464  1.00  0.00     0.004 C 
ENDBRANCH  30  31
ENDBRANCH  29  30
ENDBRANCH  28  29
ENDBRANCH  27  28
ENDBRANCH  26  27
ENDBRANCH  25  26
ENDBRANCH  24  25
ENDBRANCH  23  24
ENDBRANCH  22  23
ENDBRANCH  21  22
ENDBRANCH  20  21
ENDBRANCH  19  20
ENDBRANCH  18  19
ENDBRANCH   1  18
TORSDOF 28
ENDMDL
MODEL 2
REMARK VINA RESULT:    -1.072      1.988      6.387
REMARK INTER + INTRA:          -9.287
REMARK INTER:                  -2.252
REMARK INTRA:                  -7.034
REMARK UNBOUND:                -6.460
REMARK SMILES CCCCCCCCCCCCCCCCCCCCCCCCCCCCCC(=O)[O-]
REMARK SMILES IDX 16 1 17 2 18 3 19 4 20 5 21 6 22 7 23 8 24 9 25 10 26 11
REMARK SMILES IDX 27 12 28 13 29 14 30 15 31 16 32 17 15 18 14 19 13 20 12 21
REMARK SMILES IDX 11 22 10 23 9 24 8 25 7 26 6 27 5 28 4 29 3 30 2 31 1 32
REMARK H PARENT
REMARK Flexibility Score: inf
ROOT
ATOM      1  C   UNL     1     174.496 180.576 196.512  1.00  0.00     0.000 C 
ENDROOT
BRANCH   1   2
ATOM      2  C   UNL     1     174.451 181.789 197.457  1.00  0.00     0.000 C 
BRANCH   2   3
ATOM      3  C   UNL     1     173.267 181.729 198.434  1.00  0.00     0.000 C 
BRANCH   3   4
ATOM      4  C   UNL     1     173.744 181.431 199.863  1.00  0.00     0.000 C 
BRANCH   4   5
ATOM      5  C   UNL     1     173.176 180.112 200.418  1.00  0.00     0.000 C 
BRANCH   5   6
ATOM      6  C   UNL     1     172.347 179.280 199.417  1.00  0.00     0.000 C 
BRANCH   6   7
ATOM      7  C   UNL     1     172.705 177.785 199.349  1.00  0.00     0.000 C 
BRANCH   7   8
ATOM      8  C   UNL     1     172.779 177.256 197.907  1.00  0.00     0.000 C 
BRANCH   8   9
ATOM      9  C   UNL     1     174.215 176.919 197.474  1.00  0.00     0.000 C 
BRANCH   9  10
ATOM     10  C   UNL     1     175.222 176.984 198.637  1.00  0.00     0.000 C 
BRANCH  10  11
ATOM     11  C   UNL     1     176.341 178.009 198.396  1.00  0.00     0.000 C 
BRANCH  11  12
ATOM     12  C   UNL     1     176.576 178.925 199.609  1.00  0.00     0.000 C 
BRANCH  12  13
ATOM     13  C   UNL     1     177.283 180.221 199.189  1.00  0.00     0.006 C 
BRANCH  13  14
ATOM     14  C   UNL     1     177.882 180.125 197.781  1.00  0.00     0.053 C 
BRANCH  14  15
ATOM     15  C   UNL     1     179.352 180.419 197.781  1.00  0.00     0.041 C 
ATOM     16  O   UNL     1     179.911 180.857 196.743  1.00  0.00    -0.550 OA
ATOM     17  O   UNL     1     180.098 180.226 198.937  1.00  0.00    -0.550 OA
ENDBRANCH  14  15
ENDBRANCH  13  14
ENDBRANCH  12  13
ENDBRANCH  11  12
ENDBRANCH  10  11
ENDBRANCH   9  10
ENDBRANCH   8   9
ENDBRANCH   7   8
ENDBRANCH   6   7
ENDBRANCH   5   6
ENDBRANCH   4   5
ENDBRANCH   3   4
ENDBRANCH   2   3
ENDBRANCH   1   2
BRANCH   1  18
ATOM     18  C   UNL     1     173.107 180.218 195.952  1.00  0.00     0.000 C 
BRANCH  18  19
ATOM     19  C   UNL     1     173.180 179.397 194.654  1.00  0.00     0.000 C 
BRANCH  19  20
ATOM     20  C   UNL     1     172.543 180.129 193.461  1.00  0.00     0.000 C 
BRANCH  20  21
ATOM     21  C   UNL     1     172.274 181.619 193.747  1.00  0.00     0.000 C 
BRANCH  21  22
ATOM     22  C   UNL     1     173.185 182.605 192.989  1.00  0.00     0.000 C 
BRANCH  22  23
ATOM     23  C   UNL     1     174.499 182.897 193.735  1.00  0.00     0.000 C 
BRANCH  23  24
ATOM     24  C   UNL     1     175.744 182.490 192.930  1.00  0.00    -0.000 C 
BRANCH  24  25
ATOM     25  C   UNL     1     176.032 180.980 193.014  1.00  0.00    -0.000 C 
BRANCH  25  26
ATOM     26  C   UNL     1     177.174 180.646 193.988  1.00  0.00    -0.000 C 
BRANCH  26  27
ATOM     27  C   UNL     1     177.591 179.161 194.031  1.00  0.00    -0.000 C 
BRANCH  27  28
ATOM     28  C   UNL     1     176.625 178.259 194.827  1.00  0.00    -0.000 C 
BRANCH  28  29
ATOM     29  C   UNL     1     176.445 176.875 194.177  1.00  0.00    -0.000 C 
BRANCH  29  30
ATOM     30  C   UNL     1     176.223 176.954 192.655  1.00  0.00    -0.000 C 
BRANCH  30  31
ATOM     31  C   UNL     1     174.766 177.205 192.227  1.00  0.00    -0.003 C 
ATOM     32  C   UNL     1     174.651 178.161 191.038  1.00  0.00     0.004 C 
ENDBRANCH  30  31
ENDBRANCH  29  30
ENDBRANCH  28  29
ENDBRANCH  27  28
ENDBRANCH  26  27
ENDBRANCH  25  26
ENDBRANCH  24  25
ENDBRANCH  23  24
ENDBRANCH  22  23
ENDBRANCH  21  22
ENDBRANCH  20  21
ENDBRANCH  19  20
ENDBRANCH  18  19
ENDBRANCH   1  18
TORSDOF 28
ENDMDL
MODEL 3
REMARK VINA RESULT:    -1.055      2.510      4.591
REMARK INTER + INTRA:          -9.242
REMARK INTER:                  -2.702
REMARK INTRA:                  -6.541
REMARK UNBOUND:                -6.460
REMARK SMILES CCCCCCCCCCCCCCCCCCCCCCCCCCCCCC(=O)[O-]
REMARK SMILES IDX 16 1 17 2 18 3 19 4 20 5 21 6 22 7 23 8 24 9 25 10 26 11
REMARK SMILES IDX 27 12 28 13 29 14 30 15 31 16 32 17 15 18 14 19 13 20 12 21
REMARK SMILES IDX 11 22 10 23 9 24 8 25 7 26 6 27 5 28 4 29 3 30 2 31 1 32
REMARK H PARENT
REMARK Flexibility Score: inf
ROOT
ATOM      1  C   UNL     1     175.244 179.569 193.021  1.00  0.00     0.000 C 
ENDROOT
BRANCH   1   2
ATOM      2  C   UNL     1     174.154 180.653 192.961  1.00  0.00     0.000 C 
BRANCH   2   3
ATOM      3  C   UNL     1     173.953 181.359 194.311  1.00  0.00     0.000 C 
BRANCH   3   4
ATOM      4  C   UNL     1     172.478 181.324 194.738  1.00  0.00     0.000 C 
BRANCH   4   5
ATOM      5  C   UNL     1     171.525 181.799 193.627  1.00  0.00     0.000 C 
BRANCH   5   6
ATOM      6  C   UNL     1     170.949 183.218 193.816  1.00  0.00     0.000 C 
BRANCH   6   7
ATOM      7  C   UNL     1     171.926 184.370 193.516  1.00  0.00     0.000 C 
BRANCH   7   8
ATOM      8  C   UNL     1     172.046 185.368 194.679  1.00  0.00     0.000 C 
BRANCH   8   9
ATOM      9  C   UNL     1     171.547 184.786 196.012  1.00  0.00     0.000 C 
BRANCH   9  10
ATOM     10  C   UNL     1     172.679 184.177 196.860  1.00  0.00     0.000 C 
BRANCH  10  11
ATOM     11  C   UNL     1     173.561 185.245 197.527  1.00  0.00     0.000 C 
BRANCH  11  12
ATOM     12  C   UNL     1     175.062 184.960 197.361  1.00  0.00     0.000 C 
BRANCH  12  13
ATOM     13  C   UNL     1     175.330 184.156 196.081  1.00  0.00     0.006 C 
BRANCH  13  14
ATOM     14  C   UNL     1     176.407 184.806 195.203  1.00  0.00     0.053 C 
BRANCH  14  15
ATOM     15  C   UNL     1     175.837 185.882 194.331  1.00  0.00     0.041 C 
ATOM     16  O   UNL     1     175.911 187.088 194.682  1.00  0.00    -0.550 OA
ATOM     17  O   UNL     1     175.243 185.553 193.119  1.00  0.00    -0.550 OA
ENDBRANCH  14  15
ENDBRANCH  13  14
ENDBRANCH  12  13
ENDBRANCH  11  12
ENDBRANCH  10  11
ENDBRANCH   9  10
ENDBRANCH   8   9
ENDBRANCH   7   8
ENDBRANCH   6   7
ENDBRANCH   5   6
ENDBRANCH   4   5
ENDBRANCH   3   4
ENDBRANCH   2   3
ENDBRANCH   1   2
BRANCH   1  18
ATOM     18  C   UNL     1     174.864 178.408 193.960  1.00  0.00     0.000 C 
BRANCH  18  19
ATOM     19  C   UNL     1     173.496 177.793 193.625  1.00  0.00     0.000 C 
BRANCH  19  20
ATOM     20  C   UNL     1     172.684 177.444 194.884  1.00  0.00     0.000 C 
BRANCH  20  21
ATOM     21  C   UNL     1     173.210 178.150 196.149  1.00  0.00     0.000 C 
BRANCH  21  22
ATOM     22  C   UNL     1     173.617 177.208 197.300  1.00  0.00     0.000 C 
BRANCH  22  23
ATOM     23  C   UNL     1     172.666 177.296 198.507  1.00  0.00     0.000 C 
BRANCH  23  24
ATOM     24  C   UNL     1     173.380 177.731 199.797  1.00  0.00    -0.000 C 
BRANCH  24  25
ATOM     25  C   UNL     1     172.829 179.054 200.358  1.00  0.00    -0.000 C 
BRANCH  25  26
ATOM     26  C   UNL     1     171.872 179.761 199.383  1.00  0.00    -0.000 C 
BRANCH  26  27
ATOM     27  C   UNL     1     172.317 181.165 198.924  1.00  0.00    -0.000 C 
BRANCH  27  28
ATOM     28  C   UNL     1     173.815 181.455 199.149  1.00  0.00    -0.000 C 
BRANCH  28  29
ATOM     29  C   UNL     1     174.667 181.127 197.909  1.00  0.00    -0.000 C 
BRANCH  29  30
ATOM     30  C   UNL     1     175.800 180.129 198.211  1.00  0.00    -0.000 C 
BRANCH  30  31
ATOM     31  C   UNL     1     176.558 179.618 196.972  1.00  0.00    -0.003 C 
ATOM     32  C   UNL     1     177.099 180.750 196.097  1.00  0.00     0.004 C 
ENDBRANCH  30  31
ENDBRANCH  29  30
ENDBRANCH  28  29
ENDBRANCH  27  28
ENDBRANCH  26  27
ENDBRANCH  25  26
ENDBRANCH  24  25
ENDBRANCH  23  24
ENDBRANCH  22  23
ENDBRANCH  21  22
ENDBRANCH  20  21
ENDBRANCH  19  20
ENDBRANCH  18  19
ENDBRANCH   1  18
TORSDOF 28
ENDMDL
MODEL 4
REMARK VINA RESULT:    -1.048      2.405      6.137
REMARK INTER + INTRA:          -9.225
REMARK INTER:                  -2.597
REMARK INTRA:                  -6.628
REMARK UNBOUND:                -6.460
REMARK SMILES CCCCCCCCCCCCCCCCCCCCCCCCCCCCCC(=O)[O-]
REMARK SMILES IDX 16 1 17 2 18 3 19 4 20 5 21 6 22 7 23 8 24 9 25 10 26 11
REMARK SMILES IDX 27 12 28 13 29 14 30 15 31 16 32 17 15 18 14 19 13 20 12 21
REMARK SMILES IDX 11 22 10 23 9 24 8 25 7 26 6 27 5 28 4 29 3 30 2 31 1 32
REMARK H PARENT
REMARK Flexibility Score: inf
ROOT
ATOM      1  C   UNL     1     176.200 181.308 194.575  1.00  0.00     0.000 C 
ENDROOT
BRANCH   1   2
ATOM      2  C   UNL     1     174.863 181.336 193.815  1.00  0.00     0.000 C 
BRANCH   2   3
ATOM      3  C   UNL     1     173.650 181.286 194.757  1.00  0.00     0.000 C 
BRANCH   3   4
ATOM      4  C   UNL     1     172.369 180.924 193.992  1.00  0.00     0.000 C 
BRANCH   4   5
ATOM      5  C   UNL     1     172.648 180.462 192.550  1.00  0.00     0.000 C 
BRANCH   5   6
ATOM      6  C   UNL     1     171.538 179.604 191.908  1.00  0.00     0.000 C 
BRANCH   6   7
ATOM      7  C   UNL     1     171.685 178.084 192.103  1.00  0.00     0.000 C 
BRANCH   7   8
ATOM      8  C   UNL     1     173.153 177.634 192.188  1.00  0.00     0.000 C 
BRANCH   8   9
ATOM      9  C   UNL     1     173.465 176.875 193.487  1.00  0.00     0.000 C 
BRANCH   9  10
ATOM     10  C   UNL     1     172.320 176.953 194.516  1.00  0.00     0.000 C 
BRANCH  10  11
ATOM     11  C   UNL     1     172.827 177.147 195.954  1.00  0.00     0.000 C 
BRANCH  11  12
ATOM     12  C   UNL     1     174.198 177.840 196.008  1.00  0.00     0.000 C 
BRANCH  12  13
ATOM     13  C   UNL     1     174.341 178.675 197.289  1.00  0.00     0.006 C 
BRANCH  13  14
ATOM     14  C   UNL     1     173.003 179.272 197.744  1.00  0.00     0.053 C 
BRANCH  14  15
ATOM     15  C   UNL     1     172.953 179.452 199.230  1.00  0.00     0.041 C 
ATOM     16  O   UNL     1     172.274 180.385 199.732  1.00  0.00    -0.550 OA
ATOM     17  O   UNL     1     173.640 178.576 200.060  1.00  0.00    -0.550 OA
ENDBRANCH  14  15
ENDBRANCH  13  14
ENDBRANCH  12  13
ENDBRANCH  11  12
ENDBRANCH  10  11
ENDBRANCH   9  10
ENDBRANCH   8   9
ENDBRANCH   7   8
ENDBRANCH   6   7
ENDBRANCH   5   6
ENDBRANCH   4   5
ENDBRANCH   3   4
ENDBRANCH   2   3
ENDBRANCH   1   2
BRANCH   1  18
ATOM     18  C   UNL     1     177.018 180.038 194.274  1.00  0.00     0.000 C 
BRANCH  18  19
ATOM     19  C   UNL     1     176.331 179.113 193.257  1.00  0.00     0.000 C 
BRANCH  19  20
ATOM     20  C   UNL     1     177.314 178.551 192.216  1.00  0.00     0.000 C 
BRANCH  20  21
ATOM     21  C   UNL     1     176.883 178.847 190.766  1.00  0.00     0.000 C 
BRANCH  21  22
ATOM     22  C   UNL     1     175.709 179.835 190.623  1.00  0.00     0.000 C 
BRANCH  22  23
ATOM     23  C   UNL     1     174.758 179.469 189.469  1.00  0.00     0.000 C 
BRANCH  23  24
ATOM     24  C   UNL     1     174.453 180.661 188.549  1.00  0.00    -0.000 C 
BRANCH  24  25
ATOM     25  C   UNL     1     173.236 181.476 189.024  1.00  0.00    -0.000 C 
BRANCH  25  26
ATOM     26  C   UNL     1     173.577 182.952 189.291  1.00  0.00    -0.000 C 
BRANCH  26  27
ATOM     27  C   UNL     1     174.153 183.252 190.690  1.00  0.00    -0.000 C 
BRANCH  27  28
ATOM     28  C   UNL     1     174.864 184.617 190.798  1.00  0.00    -0.000 C 
BRANCH  28  29
ATOM     29  C   UNL     1     176.397 184.485 190.742  1.00  0.00    -0.000 C 
BRANCH  29  30
ATOM     30  C   UNL     1     176.918 183.245 191.490  1.00  0.00    -0.000 C 
BRANCH  30  31
ATOM     31  C   UNL     1     178.128 182.554 190.835  1.00  0.00    -0.003 C 
ATOM     32  C   UNL     1     179.076 181.922 191.855  1.00  0.00     0.004 C 
ENDBRANCH  30  31
ENDBRANCH  29  30
ENDBRANCH  28  29
ENDBRANCH  27  28
ENDBRANCH  26  27
ENDBRANCH  25  26
ENDBRANCH  24  25
ENDBRANCH  23  24
ENDBRANCH  22  23
ENDBRANCH  21  22
ENDBRANCH  20  21
ENDBRANCH  19  20
ENDBRANCH  18  19
ENDBRANCH   1  18
TORSDOF 28
ENDMDL
MODEL 5
REMARK VINA RESULT:    -1.019      2.826      6.482
REMARK INTER + INTRA:          -9.146
REMARK INTER:                  -2.999
REMARK INTRA:                  -6.147
REMARK UNBOUND:                -6.460
REMARK SMILES CCCCCCCCCCCCCCCCCCCCCCCCCCCCCC(=O)[O-]
REMARK SMILES IDX 16 1 17 2 18 3 19 4 20 5 21 6 22 7 23 8 24 9 25 10 26 11
REMARK SMILES IDX 27 12 28 13 29 14 30 15 31 16 32 17 15 18 14 19 13 20 12 21
REMARK SMILES IDX 11 22 10 23 9 24 8 25 7 26 6 27 5 28 4 29 3 30 2 31 1 32
REMARK H PARENT
REMARK Flexibility Score: inf
ROOT
ATOM      1  C   UNL     1     174.575 183.081 198.511  1.00  0.00     0.000 C 
ENDROOT
BRANCH   1   2
ATOM      2  C   UNL     1     175.509 182.194 199.351  1.00  0.00     0.000 C 
BRANCH   2   3
ATOM      3  C   UNL     1     175.325 180.698 199.054  1.00  0.00     0.000 C 
BRANCH   3   4
ATOM      4  C   UNL     1     175.640 179.845 200.292  1.00  0.00     0.000 C 
BRANCH   4   5
ATOM      5  C   UNL     1     176.792 178.853 200.054  1.00  0.00     0.000 C 
BRANCH   5   6
ATOM      6  C   UNL     1     177.432 178.911 198.651  1.00  0.00     0.000 C 
BRANCH   6   7
ATOM      7  C   UNL     1     177.312 177.621 197.820  1.00  0.00     0.000 C 
BRANCH   7   8
ATOM      8  C   UNL     1     177.042 177.894 196.331  1.00  0.00     0.000 C 
BRANCH   8   9
ATOM      9  C   UNL     1     176.957 179.395 196.011  1.00  0.00     0.000 C 
BRANCH   9  10
ATOM     10  C   UNL     1     176.366 179.677 194.617  1.00  0.00     0.000 C 
BRANCH  10  11
ATOM     11  C   UNL     1     175.461 180.919 194.597  1.00  0.00     0.000 C 
BRANCH  11  12
ATOM     12  C   UNL     1     174.189 180.738 195.442  1.00  0.00     0.000 C 
BRANCH  12  13
ATOM     13  C   UNL     1     172.932 181.044 194.616  1.00  0.00     0.006 C 
BRANCH  13  14
ATOM     14  C   UNL     1     173.000 182.422 193.947  1.00  0.00     0.053 C 
BRANCH  14  15
ATOM     15  C   UNL     1     171.798 183.257 194.270  1.00  0.00     0.041 C 
ATOM     16  O   UNL     1     171.281 183.991 193.389  1.00  0.00    -0.550 OA
ATOM     17  O   UNL     1     171.238 183.205 195.540  1.00  0.00    -0.550 OA
ENDBRANCH  14  15
ENDBRANCH  13  14
ENDBRANCH  12  13
ENDBRANCH  11  12
ENDBRANCH  10  11
ENDBRANCH   9  10
ENDBRANCH   8   9
ENDBRANCH   7   8
ENDBRANCH   6   7
ENDBRANCH   5   6
ENDBRANCH   4   5
ENDBRANCH   3   4
ENDBRANCH   2   3
ENDBRANCH   1   2
BRANCH   1  18
ATOM     18  C   UNL     1     173.186 182.445 198.312  1.00  0.00     0.000 C 
BRANCH  18  19
ATOM     19  C   UNL     1     172.078 183.178 199.085  1.00  0.00     0.000 C 
BRANCH  19  20
ATOM     20  C   UNL     1     171.274 182.235 199.996  1.00  0.00     0.000 C 
BRANCH  20  21
ATOM     21  C   UNL     1     172.170 181.270 200.797  1.00  0.00     0.000 C 
BRANCH  21  22
ATOM     22  C   UNL     1     171.726 179.794 200.772  1.00  0.00     0.000 C 
BRANCH  22  23
ATOM     23  C   UNL     1     172.009 179.109 199.423  1.00  0.00     0.000 C 
BRANCH  23  24
ATOM     24  C   UNL     1     172.391 177.628 199.576  1.00  0.00    -0.000 C 
BRANCH  24  25
ATOM     25  C   UNL     1     173.655 177.260 198.779  1.00  0.00    -0.000 C 
BRANCH  25  26
ATOM     26  C   UNL     1     173.598 177.740 197.318  1.00  0.00    -0.000 C 
BRANCH  26  27
ATOM     27  C   UNL     1     172.727 176.883 196.376  1.00  0.00    -0.000 C 
BRANCH  27  28
ATOM     28  C   UNL     1     172.793 177.311 194.896  1.00  0.00    -0.000 C 
BRANCH  28  29
ATOM     29  C   UNL     1     174.108 176.882 194.220  1.00  0.00    -0.000 C 
BRANCH  29  30
ATOM     30  C   UNL     1     174.090 177.090 192.694  1.00  0.00    -0.000 C 
BRANCH  30  31
ATOM     31  C   UNL     1     173.662 178.497 192.239  1.00  0.00    -0.003 C 
ATOM     32  C   UNL     1     172.827 178.479 190.957  1.00  0.00     0.004 C 
ENDBRANCH  30  31
ENDBRANCH  29  30
ENDBRANCH  28  29
ENDBRANCH  27  28
ENDBRANCH  26  27
ENDBRANCH  25  26
ENDBRANCH  24  25
ENDBRANCH  23  24
ENDBRANCH  22  23
ENDBRANCH  21  22
ENDBRANCH  20  21
ENDBRANCH  19  20
ENDBRANCH  18  19
ENDBRANCH   1  18
TORSDOF 28
ENDMDL
MODEL 6
REMARK VINA RESULT:    -1.015      2.160      5.919
REMARK INTER + INTRA:          -9.135
REMARK INTER:                  -2.507
REMARK INTRA:                  -6.629
REMARK UNBOUND:                -6.460
REMARK SMILES CCCCCCCCCCCCCCCCCCCCCCCCCCCCCC(=O)[O-]
REMARK SMILES IDX 16 1 17 2 18 3 19 4 20 5 21 6 22 7 23 8 24 9 25 10 26 11
REMARK SMILES IDX 27 12 28 13 29 14 30 15 31 16 32 17 15 18 14 19 13 20 12 21
REMARK SMILES IDX 11 22 10 23 9 24 8 25 7 26 6 27 5 28 4 29 3 30 2 31 1 32
REMARK H PARENT
REMARK Flexibility Score: inf
ROOT
ATOM      1  C   UNL     1     174.145 177.134 196.844  1.00  0.00     0.000 C 
ENDROOT
BRANCH   1   2
ATOM      2  C   UNL     1     175.310 177.233 197.843  1.00  0.00     0.000 C 
BRANCH   2   3
ATOM      3  C   UNL     1     175.100 178.345 198.882  1.00  0.00     0.000 C 
BRANCH   3   4
ATOM      4  C   UNL     1     175.221 177.796 200.312  1.00  0.00     0.000 C 
BRANCH   4   5
ATOM      5  C   UNL     1     173.922 177.953 201.122  1.00  0.00     0.000 C 
BRANCH   5   6
ATOM      6  C   UNL     1     172.708 177.173 200.577  1.00  0.00     0.000 C 
BRANCH   6   7
ATOM      7  C   UNL     1     171.456 178.021 200.288  1.00  0.00     0.000 C 
BRANCH   7   8
ATOM      8  C   UNL     1     171.617 179.487 200.725  1.00  0.00     0.000 C 
BRANCH   8   9
ATOM      9  C   UNL     1     171.658 180.458 199.535  1.00  0.00     0.000 C 
BRANCH   9  10
ATOM     10  C   UNL     1     172.934 181.321 199.510  1.00  0.00     0.000 C 
BRANCH  10  11
ATOM     11  C   UNL     1     173.425 181.693 200.918  1.00  0.00     0.000 C 
BRANCH  11  12
ATOM     12  C   UNL     1     174.775 182.429 200.896  1.00  0.00     0.000 C 
BRANCH  12  13
ATOM     13  C   UNL     1     175.942 181.434 200.819  1.00  0.00     0.006 C 
BRANCH  13  14
ATOM     14  C   UNL     1     176.723 181.559 199.505  1.00  0.00     0.053 C 
BRANCH  14  15
ATOM     15  C   UNL     1     177.940 180.685 199.497  1.00  0.00     0.041 C 
ATOM     16  O   UNL     1     178.750 180.735 198.536  1.00  0.00    -0.550 OA
ATOM     17  O   UNL     1     178.188 179.830 200.564  1.00  0.00    -0.550 OA
ENDBRANCH  14  15
ENDBRANCH  13  14
ENDBRANCH  12  13
ENDBRANCH  11  12
ENDBRANCH  10  11
ENDBRANCH   9  10
ENDBRANCH   8   9
ENDBRANCH   7   8
ENDBRANCH   6   7
ENDBRANCH   5   6
ENDBRANCH   4   5
ENDBRANCH   3   4
ENDBRANCH   2   3
ENDBRANCH   1   2
BRANCH   1  18
ATOM     18  C   UNL     1     173.131 178.281 197.011  1.00  0.00     0.000 C 
BRANCH  18  19
ATOM     19  C   UNL     1     173.237 179.339 195.901  1.00  0.00     0.000 C 
BRANCH  19  20
ATOM     20  C   UNL     1     174.129 178.880 194.735  1.00  0.00     0.000 C 
BRANCH  20  21
ATOM     21  C   UNL     1     175.326 179.819 194.492  1.00  0.00     0.000 C 
BRANCH  21  22
ATOM     22  C   UNL     1     176.154 180.159 195.747  1.00  0.00     0.000 C 
BRANCH  22  23
ATOM     23  C   UNL     1     176.438 181.666 195.883  1.00  0.00     0.000 C 
BRANCH  23  24
ATOM     24  C   UNL     1     175.191 182.531 195.639  1.00  0.00    -0.000 C 
BRANCH  24  25
ATOM     25  C   UNL     1     174.783 183.340 196.884  1.00  0.00    -0.000 C 
BRANCH  25  26
ATOM     26  C   UNL     1     173.340 183.867 196.803  1.00  0.00    -0.000 C 
BRANCH  26  27
ATOM     27  C   UNL     1     172.299 182.859 196.272  1.00  0.00    -0.000 C 
BRANCH  27  28
ATOM     28  C   UNL     1     171.705 183.235 194.900  1.00  0.00    -0.000 C 
BRANCH  28  29
ATOM     29  C   UNL     1     171.599 182.023 193.955  1.00  0.00    -0.000 C 
BRANCH  29  30
ATOM     30  C   UNL     1     172.766 181.942 192.955  1.00  0.00    -0.000 C 
BRANCH  30  31
ATOM     31  C   UNL     1     173.331 183.304 192.509  1.00  0.00    -0.003 C 
ATOM     32  C   UNL     1     173.695 183.340 191.024  1.00  0.00     0.004 C 
ENDBRANCH  30  31
ENDBRANCH  29  30
ENDBRANCH  28  29
ENDBRANCH  27  28
ENDBRANCH  26  27
ENDBRANCH  25  26
ENDBRANCH  24  25
ENDBRANCH  23  24
ENDBRANCH  22  23
ENDBRANCH  21  22
ENDBRANCH  20  21
ENDBRANCH  19  20
ENDBRANCH  18  19
ENDBRANCH   1  18
TORSDOF 28
ENDMDL
MODEL 7
REMARK VINA RESULT:    -1.012      1.815      5.661
REMARK INTER + INTRA:          -9.128
REMARK INTER:                  -2.838
REMARK INTRA:                  -6.290
REMARK UNBOUND:                -6.460
REMARK SMILES CCCCCCCCCCCCCCCCCCCCCCCCCCCCCC(=O)[O-]
REMARK SMILES IDX 16 1 17 2 18 3 19 4 20 5 21 6 22 7 23 8 24 9 25 10 26 11
REMARK SMILES IDX 27 12 28 13 29 14 30 15 31 16 32 17 15 18 14 19 13 20 12 21
REMARK SMILES IDX 11 22 10 23 9 24 8 25 7 26 6 27 5 28 4 29 3 30 2 31 1 32
REMARK H PARENT
REMARK Flexibility Score: inf
ROOT
ATOM      1  C   UNL     1     174.968 182.627 193.425  1.00  0.00     0.000 C 
ENDROOT
BRANCH   1   2
ATOM      2  C   UNL     1     175.093 181.755 194.686  1.00  0.00     0.000 C 
BRANCH   2   3
ATOM      3  C   UNL     1     176.290 180.794 194.619  1.00  0.00     0.000 C 
BRANCH   3   4
ATOM      4  C   UNL     1     176.467 180.229 193.202  1.00  0.00     0.000 C 
BRANCH   4   5
ATOM      5  C   UNL     1     176.016 178.763 193.084  1.00  0.00     0.000 C 
BRANCH   5   6
ATOM      6  C   UNL     1     174.526 178.558 192.737  1.00  0.00     0.000 C 
BRANCH   6   7
ATOM      7  C   UNL     1     173.863 177.329 193.384  1.00  0.00     0.000 C 
BRANCH   7   8
ATOM      8  C   UNL     1     172.724 177.705 194.347  1.00  0.00     0.000 C 
BRANCH   8   9
ATOM      9  C   UNL     1     173.196 178.611 195.496  1.00  0.00     0.000 C 
BRANCH   9  10
ATOM     10  C   UNL     1     173.103 177.929 196.873  1.00  0.00     0.000 C 
BRANCH  10  11
ATOM     11  C   UNL     1     174.230 176.911 197.109  1.00  0.00     0.000 C 
BRANCH  11  12
ATOM     12  C   UNL     1     175.582 177.583 197.398  1.00  0.00     0.000 C 
BRANCH  12  13
ATOM     13  C   UNL     1     176.701 176.948 196.560  1.00  0.00     0.006 C 
BRANCH  13  14
ATOM     14  C   UNL     1     177.823 177.944 196.242  1.00  0.00     0.053 C 
BRANCH  14  15
ATOM     15  C   UNL     1     178.958 177.288 195.516  1.00  0.00     0.041 C 
ATOM     16  O   UNL     1     180.046 177.067 196.109  1.00  0.00    -0.550 OA
ATOM     17  O   UNL     1     178.805 176.903 194.190  1.00  0.00    -0.550 OA
ENDBRANCH  14  15
ENDBRANCH  13  14
ENDBRANCH  12  13
ENDBRANCH  11  12
ENDBRANCH  10  11
ENDBRANCH   9  10
ENDBRANCH   8   9
ENDBRANCH   7   8
ENDBRANCH   6   7
ENDBRANCH   5   6
ENDBRANCH   4   5
ENDBRANCH   3   4
ENDBRANCH   2   3
ENDBRANCH   1   2
BRANCH   1  18
ATOM     18  C   UNL     1     173.542 182.612 192.842  1.00  0.00     0.000 C 
BRANCH  18  19
ATOM     19  C   UNL     1     172.605 181.644 193.580  1.00  0.00     0.000 C 
BRANCH  19  20
ATOM     20  C   UNL     1     171.462 182.372 194.308  1.00  0.00     0.000 C 
BRANCH  20  21
ATOM     21  C   UNL     1     171.582 183.906 194.225  1.00  0.00     0.000 C 
BRANCH  21  22
ATOM     22  C   UNL     1     171.764 184.621 195.579  1.00  0.00     0.000 C 
BRANCH  22  23
ATOM     23  C   UNL     1     173.159 184.393 196.190  1.00  0.00     0.000 C 
BRANCH  23  24
ATOM     24  C   UNL     1     173.100 183.984 197.670  1.00  0.00    -0.000 C 
BRANCH  24  25
ATOM     25  C   UNL     1     172.117 182.827 197.923  1.00  0.00    -0.000 C 
BRANCH  25  26
ATOM     26  C   UNL     1     172.784 181.445 197.808  1.00  0.00    -0.000 C 
BRANCH  26  27
ATOM     27  C   UNL     1     174.272 181.395 198.210  1.00  0.00    -0.000 C 
BRANCH  27  28
ATOM     28  C   UNL     1     174.569 180.471 199.408  1.00  0.00    -0.000 C 
BRANCH  28  29
ATOM     29  C   UNL     1     173.347 180.293 200.328  1.00  0.00    -0.000 C 
BRANCH  29  30
ATOM     30  C   UNL     1     172.896 178.826 200.443  1.00  0.00    -0.000 C 
BRANCH  30  31
ATOM     31  C   UNL     1     171.417 178.575 200.096  1.00  0.00    -0.003 C 
ATOM     32  C   UNL     1     170.978 177.134 200.368  1.00  0.00     0.004 C 
ENDBRANCH  30  31
ENDBRANCH  29  30
ENDBRANCH  28  29
ENDBRANCH  27  28
ENDBRANCH  26  27
ENDBRANCH  25  26
ENDBRANCH  24  25
ENDBRANCH  23  24
ENDBRANCH  22  23
ENDBRANCH  21  22
ENDBRANCH  20  21
ENDBRANCH  19  20
ENDBRANCH  18  19
ENDBRANCH   1  18
TORSDOF 28
ENDMDL
MODEL 8
REMARK VINA RESULT:    -0.997      1.785      5.609
REMARK INTER + INTRA:          -9.089
REMARK INTER:                  -2.698
REMARK INTRA:                  -6.391
REMARK UNBOUND:                -6.460
REMARK SMILES CCCCCCCCCCCCCCCCCCCCCCCCCCCCCC(=O)[O-]
REMARK SMILES IDX 16 1 17 2 18 3 19 4 20 5 21 6 22 7 23 8 24 9 25 10 26 11
REMARK SMILES IDX 27 12 28 13 29 14 30 15 31 16 32 17 15 18 14 19 13 20 12 21
REMARK SMILES IDX 11 22 10 23 9 24 8 25 7 26 6 27 5 28 4 29 3 30 2 31 1 32
REMARK H PARENT
REMARK Flexibility Score: inf
ROOT
ATOM      1  C   UNL     1     173.259 181.490 193.423  1.00  0.00     0.000 C 
ENDROOT
BRANCH   1   2
ATOM      2  C   UNL     1     172.656 181.378 194.833  1.00  0.00     0.000 C 
BRANCH   2   3
ATOM      3  C   UNL     1     173.110 180.107 195.567  1.00  0.00     0.000 C 
BRANCH   3   4
ATOM      4  C   UNL     1     174.128 180.438 196.669  1.00  0.00     0.000 C 
BRANCH   4   5
ATOM      5  C   UNL     1     173.511 181.243 197.826  1.00  0.00     0.000 C 
BRANCH   5   6
ATOM      6  C   UNL     1     173.389 180.485 199.165  1.00  0.00     0.000 C 
BRANCH   6   7
ATOM      7  C   UNL     1     172.254 179.447 199.232  1.00  0.00     0.000 C 
BRANCH   7   8
ATOM      8  C   UNL     1     172.773 178.005 199.359  1.00  0.00     0.000 C 
BRANCH   8   9
ATOM      9  C   UNL     1     172.754 177.249 198.021  1.00  0.00     0.000 C 
BRANCH   9  10
ATOM     10  C   UNL     1     174.165 176.921 197.499  1.00  0.00     0.000 C 
BRANCH  10  11
ATOM     11  C   UNL     1     175.255 177.129 198.563  1.00  0.00     0.000 C 
BRANCH  11  12
ATOM     12  C   UNL     1     176.397 178.031 198.070  1.00  0.00     0.000 C 
BRANCH  12  13
ATOM     13  C   UNL     1     177.193 178.605 199.252  1.00  0.00     0.006 C 
BRANCH  13  14
ATOM     14  C   UNL     1     177.802 179.975 198.930  1.00  0.00     0.053 C 
BRANCH  14  15
ATOM     15  C   UNL     1     179.251 179.866 198.565  1.00  0.00     0.041 C 
ATOM     16  O   UNL     1     179.866 178.781 198.729  1.00  0.00    -0.550 OA
ATOM     17  O   UNL     1     179.915 180.961 198.025  1.00  0.00    -0.550 OA
ENDBRANCH  14  15
ENDBRANCH  13  14
ENDBRANCH  12  13
ENDBRANCH  11  12
ENDBRANCH  10  11
ENDBRANCH   9  10
ENDBRANCH   8   9
ENDBRANCH   7   8
ENDBRANCH   6   7
ENDBRANCH   5   6
ENDBRANCH   4   5
ENDBRANCH   3   4
ENDBRANCH   2   3
ENDBRANCH   1   2
BRANCH   1  18
ATOM     18  C   UNL     1     172.243 182.014 192.391  1.00  0.00     0.000 C 
BRANCH  18  19
ATOM     19  C   UNL     1     171.944 180.997 191.278  1.00  0.00     0.000 C 
BRANCH  19  20
ATOM     20  C   UNL     1     171.019 179.863 191.751  1.00  0.00     0.000 C 
BRANCH  20  21
ATOM     21  C   UNL     1     171.614 178.463 191.504  1.00  0.00     0.000 C 
BRANCH  21  22
ATOM     22  C   UNL     1     172.367 177.853 192.703  1.00  0.00     0.000 C 
BRANCH  22  23
ATOM     23  C   UNL     1     173.895 178.003 192.586  1.00  0.00     0.000 C 
BRANCH  23  24
ATOM     24  C   UNL     1     174.657 177.140 193.604  1.00  0.00    -0.000 C 
BRANCH  24  25
ATOM     25  C   UNL     1     175.733 177.937 194.363  1.00  0.00    -0.000 C 
BRANCH  25  26
ATOM     26  C   UNL     1     176.538 178.872 193.445  1.00  0.00    -0.000 C 
BRANCH  26  27
ATOM     27  C   UNL     1     176.660 180.330 193.934  1.00  0.00    -0.000 C 
BRANCH  27  28
ATOM     28  C   UNL     1     177.484 180.493 195.227  1.00  0.00    -0.000 C 
BRANCH  28  29
ATOM     29  C   UNL     1     177.400 181.920 195.801  1.00  0.00    -0.000 C 
BRANCH  29  30
ATOM     30  C   UNL     1     176.686 182.902 194.855  1.00  0.00    -0.000 C 
BRANCH  30  31
ATOM     31  C   UNL     1     175.465 183.615 195.465  1.00  0.00    -0.003 C 
ATOM     32  C   UNL     1     175.805 184.389 196.740  1.00  0.00     0.004 C 
ENDBRANCH  30  31
ENDBRANCH  29  30
ENDBRANCH  28  29
ENDBRANCH  27  28
ENDBRANCH  26  27
ENDBRANCH  25  26
ENDBRANCH  24  25
ENDBRANCH  23  24
ENDBRANCH  22  23
ENDBRANCH  21  22
ENDBRANCH  20  21
ENDBRANCH  19  20
ENDBRANCH  18  19
ENDBRANCH   1  18
TORSDOF 28
ENDMDL
MODEL 9
REMARK VINA RESULT:     1.336      2.142      5.193
REMARK INTER + INTRA:          -2.938
REMARK INTER:                   3.453
REMARK INTRA:                  -6.391
REMARK UNBOUND:                -6.460
REMARK SMILES CCCCCCCCCCCCCCCCCCCCCCCCCCCCCC(=O)[O-]
REMARK SMILES IDX 16 1 17 2 18 3 19 4 20 5 21 6 22 7 23 8 24 9 25 10 26 11
REMARK SMILES IDX 27 12 28 13 29 14 30 15 31 16 32 17 15 18 14 19 13 20 12 21
REMARK SMILES IDX 11 22 10 23 9 24 8 25 7 26 6 27 5 28 4 29 3 30 2 31 1 32
REMARK H PARENT
REMARK Flexibility Score: inf
ROOT
ATOM      1  C   UNL     1     172.929 181.229 191.734  1.00  0.00     0.000 C 
ENDROOT
BRANCH   1   2
ATOM      2  C   UNL     1     174.132 180.292 191.936  1.00  0.00     0.000 C 
BRANCH   2   3
ATOM      3  C   UNL     1     174.094 179.077 190.996  1.00  0.00     0.000 C 
BRANCH   3   4
ATOM      4  C   UNL     1     172.653 178.742 190.583  1.00  0.00     0.000 C 
BRANCH   4   5
ATOM      5  C   UNL     1     172.137 177.442 191.225  1.00  0.00     0.000 C 
BRANCH   5   6
ATOM      6  C   UNL     1     171.678 177.569 192.692  1.00  0.00     0.000 C 
BRANCH   6   7
ATOM      7  C   UNL     1     172.581 176.875 193.727  1.00  0.00     0.000 C 
BRANCH   7   8
ATOM      8  C   UNL     1     172.736 177.689 195.023  1.00  0.00     0.000 C 
BRANCH   8   9
ATOM      9  C   UNL     1     174.177 178.174 195.248  1.00  0.00     0.000 C 
BRANCH   9  10
ATOM     10  C   UNL     1     175.180 177.550 194.259  1.00  0.00     0.000 C 
BRANCH  10  11
ATOM     11  C   UNL     1     176.480 177.094 194.942  1.00  0.00     0.000 C 
BRANCH  11  12
ATOM     12  C   UNL     1     177.698 177.924 194.507  1.00  0.00     0.000 C 
BRANCH  12  13
ATOM     13  C   UNL     1     177.314 178.930 193.411  1.00  0.00     0.006 C 
BRANCH  13  14
ATOM     14  C   UNL     1     178.287 178.895 192.226  1.00  0.00     0.053 C 
BRANCH  14  15
ATOM     15  C   UNL     1     177.872 179.839 191.139  1.00  0.00     0.041 C 
ATOM     16  O   UNL     1     177.504 181.008 191.421  1.00  0.00    -0.550 OA
ATOM     17  O   UNL     1     177.912 179.430 189.812  1.00  0.00    -0.550 OA
ENDBRANCH  14  15
ENDBRANCH  13  14
ENDBRANCH  12  13
ENDBRANCH  11  12
ENDBRANCH  10  11
ENDBRANCH   9  10
ENDBRANCH   8   9
ENDBRANCH   7   8
ENDBRANCH   6   7
ENDBRANCH   5   6
ENDBRANCH   4   5
ENDBRANCH   3   4
ENDBRANCH   2   3
ENDBRANCH   1   2
BRANCH   1  18
ATOM     18  C   UNL     1     171.943 181.181 192.916  1.00  0.00     0.000 C 
BRANCH  18  19
ATOM     19  C   UNL     1     172.640 181.314 194.280  1.00  0.00     0.000 C 
BRANCH  19  20
ATOM     20  C   UNL     1     172.980 182.773 194.626  1.00  0.00     0.000 C 
BRANCH  20  21
ATOM     21  C   UNL     1     174.497 183.024 194.731  1.00  0.00     0.000 C 
BRANCH  21  22
ATOM     22  C   UNL     1     175.355 181.761 194.945  1.00  0.00     0.000 C 
BRANCH  22  23
ATOM     23  C   UNL     1     176.835 182.084 195.216  1.00  0.00     0.000 C 
BRANCH  23  24
ATOM     24  C   UNL     1     177.384 181.364 196.458  1.00  0.00    -0.000 C 
BRANCH  24  25
ATOM     25  C   UNL     1     176.397 180.325 197.020  1.00  0.00    -0.000 C 
BRANCH  25  26
ATOM     26  C   UNL     1     176.456 180.216 198.553  1.00  0.00    -0.000 C 
BRANCH  26  27
ATOM     27  C   UNL     1     175.139 180.542 199.288  1.00  0.00    -0.000 C 
BRANCH  27  28
ATOM     28  C   UNL     1     174.082 181.238 198.406  1.00  0.00    -0.000 C 
BRANCH  28  29
ATOM     29  C   UNL     1     173.009 180.259 197.895  1.00  0.00    -0.000 C 
BRANCH  29  30
ATOM     30  C   UNL     1     172.518 179.289 198.985  1.00  0.00    -0.000 C 
BRANCH  30  31
ATOM     31  C   UNL     1     172.783 177.801 198.692  1.00  0.00    -0.003 C 
ATOM     32  C   UNL     1     173.641 177.127 199.764  1.00  0.00     0.004 C 
ENDBRANCH  30  31
ENDBRANCH  29  30
ENDBRANCH  28  29
ENDBRANCH  27  28
ENDBRANCH  26  27
ENDBRANCH  25  26
ENDBRANCH  24  25
ENDBRANCH  23  24
ENDBRANCH  22  23
ENDBRANCH  21  22
ENDBRANCH  20  21
ENDBRANCH  19  20
ENDBRANCH  18  19
ENDBRANCH   1  18
TORSDOF 28
ENDMDL
