MODEL 1
REMARK VINA RESULT:    -4.080      0.000      0.000
REMARK INTER + INTRA:         -15.594
REMARK INTER:                 -10.759
REMARK INTRA:                  -4.835
REMARK UNBOUND:                -4.835
REMARK SMILES CCCCCCCCCCCCCCCCCCCCCCCCCCCCCC(=O)[O-]
REMARK SMILES IDX 16 1 17 2 18 3 19 4 20 5 21 6 22 7 23 8 24 9 25 10 26 11
REMARK SMILES IDX 27 12 28 13 29 14 30 15 31 16 32 17 15 18 14 19 13 20 12 21
REMARK SMILES IDX 11 22 10 23 9 24 8 25 7 26 6 27 5 28 4 29 3 30 2 31 1 32
REMARK H PARENT
REMARK Flexibility Score: inf
ROOT
ATOM      1  C   UNL     1      34.016   5.359  41.224  1.00  0.00     0.000 C 
ENDROOT
BRANCH   1   2
ATOM      2  C   UNL     1      35.240   4.462  40.965  1.00  0.00     0.000 C 
BRANCH   2   3
ATOM      3  C   UNL     1      35.361   3.923  39.525  1.00  0.00     0.000 C 
BRANCH   3   4
ATOM      4  C   UNL     1      36.580   4.435  38.730  1.00  0.00     0.000 C 
BRANCH   4   5
ATOM      5  C   UNL     1      36.856   5.942  38.867  1.00  0.00     0.000 C 
BRANCH   5   6
ATOM      6  C   UNL     1      35.765   6.809  38.216  1.00  0.00     0.000 C 
BRANCH   6   7
ATOM      7  C   UNL     1      35.429   8.059  39.047  1.00  0.00     0.000 C 
BRANCH   7   8
ATOM      8  C   UNL     1      36.589   8.495  39.955  1.00  0.00     0.000 C 
BRANCH   8   9
ATOM      9  C   UNL     1      36.132   8.604  41.418  1.00  0.00     0.000 C 
BRANCH   9  10
ATOM     10  C   UNL     1      34.783   9.329  41.572  1.00  0.00     0.000 C 
BRANCH  10  11
ATOM     11  C   UNL     1      33.816   8.696  42.589  1.00  0.00     0.000 C 
BRANCH  11  12
ATOM     12  C   UNL     1      34.367   8.580  44.022  1.00  0.00     0.000 C 
BRANCH  12  13
ATOM     13  C   UNL     1      33.758   9.601  45.007  1.00  0.00     0.006 C 
BRANCH  13  14
ATOM     14  C   UNL     1      32.617   9.002  45.839  1.00  0.00     0.053 C 
BRANCH  14  15
ATOM     15  C   UNL     1      31.333   9.720  45.564  1.00  0.00     0.041 C 
ATOM     16  O   UNL     1      30.648   9.423  44.550  1.00  0.00    -0.550 OA
ATOM     17  O   UNL     1      30.871  10.683  46.452  1.00  0.00    -0.550 OA
ENDBRANCH  14  15
ENDBRANCH  13  14
ENDBRANCH  12  13
ENDBRANCH  11  12
ENDBRANCH  10  11
ENDBRANCH   9  10
ENDBRANCH   8   9
ENDBRANCH   7   8
ENDBRANCH   6   7
ENDBRANCH   5   6
ENDBRANCH   4   5
ENDBRANCH   3   4
ENDBRANCH   2   3
ENDBRANCH   1   2
BRANCH   1  18
ATOM     18  C   UNL     1      32.978   5.291  40.092  1.00  0.00     0.000 C 
BRANCH  18  19
ATOM     19  C   UNL     1      32.257   6.631  39.859  1.00  0.00     0.000 C 
BRANCH  19  20
ATOM     20  C   UNL     1      30.762   6.517  39.497  1.00  0.00     0.000 C 
BRANCH  20  21
ATOM     21  C   UNL     1      30.177   5.092  39.565  1.00  0.00     0.000 C 
BRANCH  21  22
ATOM     22  C   UNL     1      29.232   4.832  40.753  1.00  0.00     0.000 C 
BRANCH  22  23
ATOM     23  C   UNL     1      28.667   6.128  41.358  1.00  0.00     0.000 C 
BRANCH  23  24
ATOM     24  C   UNL     1      29.416   6.561  42.628  1.00  0.00    -0.000 C 
BRANCH  24  25
ATOM     25  C   UNL     1      30.415   5.500  43.119  1.00  0.00    -0.000 C 
BRANCH  25  26
ATOM     26  C   UNL     1      31.662   6.113  43.776  1.00  0.00    -0.000 C 
BRANCH  26  27
ATOM     27  C   UNL     1      32.118   5.372  45.052  1.00  0.00    -0.000 C 
BRANCH  27  28
ATOM     28  C   UNL     1      31.147   5.585  46.227  1.00  0.00    -0.000 C 
BRANCH  28  29
ATOM     29  C   UNL     1      31.559   4.803  47.485  1.00  0.00    -0.000 C 
BRANCH  29  30
ATOM     30  C   UNL     1      31.827   5.722  48.690  1.00  0.00    -0.000 C 
BRANCH  30  31
ATOM     31  C   UNL     1      31.552   5.028  50.033  1.00  0.00    -0.003 C 
ATOM     32  C   UNL     1      31.613   3.503  49.938  1.00  0.00     0.004 C 
ENDBRANCH  30  31
ENDBRANCH  29  30
ENDBRANCH  28  29
ENDBRANCH  27  28
ENDBRANCH  26  27
ENDBRANCH  25  26
ENDBRANCH  24  25
ENDBRANCH  23  24
ENDBRANCH  22  23
ENDBRANCH  21  22
ENDBRANCH  20  21
ENDBRANCH  19  20
ENDBRANCH  18  19
ENDBRANCH   1  18
TORSDOF 28
ENDMDL
MODEL 2
REMARK VINA RESULT:    -3.996      3.243      6.513
REMARK INTER + INTRA:         -15.372
REMARK INTER:                 -10.810
REMARK INTRA:                  -4.561
REMARK UNBOUND:                -4.835
REMARK SMILES CCCCCCCCCCCCCCCCCCCCCCCCCCCCCC(=O)[O-]
REMARK SMILES IDX 16 1 17 2 18 3 19 4 20 5 21 6 22 7 23 8 24 9 25 10 26 11
REMARK SMILES IDX 27 12 28 13 29 14 30 15 31 16 32 17 15 18 14 19 13 20 12 21
REMARK SMILES IDX 11 22 10 23 9 24 8 25 7 26 6 27 5 28 4 29 3 30 2 31 1 32
REMARK H PARENT
REMARK Flexibility Score: inf
ROOT
ATOM      1  C   UNL     1      30.127   5.766  39.356  1.00  0.00     0.000 C 
ENDROOT
BRANCH   1   2
ATOM      2  C   UNL     1      30.380   7.277  39.209  1.00  0.00     0.000 C 
BRANCH   2   3
ATOM      3  C   UNL     1      29.432   8.180  40.025  1.00  0.00     0.000 C 
BRANCH   3   4
ATOM      4  C   UNL     1      30.089   8.931  41.202  1.00  0.00     0.000 C 
BRANCH   4   5
ATOM      5  C   UNL     1      31.566   9.303  40.990  1.00  0.00     0.000 C 
BRANCH   5   6
ATOM      6  C   UNL     1      32.396   9.208  42.282  1.00  0.00     0.000 C 
BRANCH   6   7
ATOM      7  C   UNL     1      33.887   8.950  42.009  1.00  0.00     0.000 C 
BRANCH   7   8
ATOM      8  C   UNL     1      34.709   8.808  43.300  1.00  0.00     0.000 C 
BRANCH   8   9
ATOM      9  C   UNL     1      33.851   9.119  44.536  1.00  0.00     0.000 C 
BRANCH   9  10
ATOM     10  C   UNL     1      34.146   8.182  45.721  1.00  0.00     0.000 C 
BRANCH  10  11
ATOM     11  C   UNL     1      32.942   7.890  46.635  1.00  0.00     0.000 C 
BRANCH  11  12
ATOM     12  C   UNL     1      32.409   6.447  46.567  1.00  0.00     0.000 C 
BRANCH  12  13
ATOM     13  C   UNL     1      31.364   6.119  47.655  1.00  0.00     0.006 C 
BRANCH  13  14
ATOM     14  C   UNL     1      31.890   5.111  48.686  1.00  0.00     0.053 C 
BRANCH  14  15
ATOM     15  C   UNL     1      30.773   4.614  49.549  1.00  0.00     0.041 C 
ATOM     16  O   UNL     1      30.908   3.547  50.204  1.00  0.00    -0.550 OA
ATOM     17  O   UNL     1      29.603   5.353  49.667  1.00  0.00    -0.550 OA
ENDBRANCH  14  15
ENDBRANCH  13  14
ENDBRANCH  12  13
ENDBRANCH  11  12
ENDBRANCH  10  11
ENDBRANCH   9  10
ENDBRANCH   8   9
ENDBRANCH   7   8
ENDBRANCH   6   7
ENDBRANCH   5   6
ENDBRANCH   4   5
ENDBRANCH   3   4
ENDBRANCH   2   3
ENDBRANCH   1   2
BRANCH   1  18
ATOM     18  C   UNL     1      31.397   4.984  39.731  1.00  0.00     0.000 C 
BRANCH  18  19
ATOM     19  C   UNL     1      32.395   5.821  40.552  1.00  0.00     0.000 C 
BRANCH  19  20
ATOM     20  C   UNL     1      32.876   5.169  41.863  1.00  0.00     0.000 C 
BRANCH  20  21
ATOM     21  C   UNL     1      32.314   5.797  43.154  1.00  0.00     0.000 C 
BRANCH  21  22
ATOM     22  C   UNL     1      30.778   5.844  43.240  1.00  0.00     0.000 C 
BRANCH  22  23
ATOM     23  C   UNL     1      30.143   4.445  43.303  1.00  0.00     0.000 C 
BRANCH  23  24
ATOM     24  C   UNL     1      28.610   4.488  43.196  1.00  0.00    -0.000 C 
BRANCH  24  25
ATOM     25  C   UNL     1      28.097   5.788  42.555  1.00  0.00    -0.000 C 
BRANCH  25  26
ATOM     26  C   UNL     1      27.076   5.538  41.432  1.00  0.00    -0.000 C 
BRANCH  26  27
ATOM     27  C   UNL     1      26.739   4.046  41.223  1.00  0.00    -0.000 C 
BRANCH  27  28
ATOM     28  C   UNL     1      25.346   3.845  40.601  1.00  0.00    -0.000 C 
BRANCH  28  29
ATOM     29  C   UNL     1      24.358   3.171  41.567  1.00  0.00    -0.000 C 
BRANCH  29  30
ATOM     30  C   UNL     1      23.855   1.813  41.047  1.00  0.00    -0.000 C 
BRANCH  30  31
ATOM     31  C   UNL     1      24.092   1.635  39.539  1.00  0.00    -0.003 C 
ATOM     32  C   UNL     1      22.858   1.970  38.701  1.00  0.00     0.004 C 
ENDBRANCH  30  31
ENDBRANCH  29  30
ENDBRANCH  28  29
ENDBRANCH  27  28
ENDBRANCH  26  27
ENDBRANCH  25  26
ENDBRANCH  24  25
ENDBRANCH  23  24
ENDBRANCH  22  23
ENDBRANCH  21  22
ENDBRANCH  20  21
ENDBRANCH  19  20
ENDBRANCH  18  19
ENDBRANCH   1  18
TORSDOF 28
ENDMDL
MODEL 3
REMARK VINA RESULT:    -3.895      1.215      1.993
REMARK INTER + INTRA:         -15.104
REMARK INTER:                  -9.582
REMARK INTRA:                  -5.523
REMARK UNBOUND:                -4.835
REMARK SMILES CCCCCCCCCCCCCCCCCCCCCCCCCCCCCC(=O)[O-]
REMARK SMILES IDX 16 1 17 2 18 3 19 4 20 5 21 6 22 7 23 8 24 9 25 10 26 11
REMARK SMILES IDX 27 12 28 13 29 14 30 15 31 16 32 17 15 18 14 19 13 20 12 21
REMARK SMILES IDX 11 22 10 23 9 24 8 25 7 26 6 27 5 28 4 29 3 30 2 31 1 32
REMARK H PARENT
REMARK Flexibility Score: inf
ROOT
ATOM      1  C   UNL     1      34.439   4.990  41.192  1.00  0.00     0.000 C 
ENDROOT
BRANCH   1   2
ATOM      2  C   UNL     1      35.596   4.042  40.829  1.00  0.00     0.000 C 
BRANCH   2   3
ATOM      3  C   UNL     1      35.872   3.898  39.319  1.00  0.00     0.000 C 
BRANCH   3   4
ATOM      4  C   UNL     1      36.870   4.917  38.730  1.00  0.00     0.000 C 
BRANCH   4   5
ATOM      5  C   UNL     1      36.224   6.136  38.049  1.00  0.00     0.000 C 
BRANCH   5   6
ATOM      6  C   UNL     1      36.155   7.366  38.970  1.00  0.00     0.000 C 
BRANCH   6   7
ATOM      7  C   UNL     1      35.420   8.550  38.321  1.00  0.00     0.000 C 
BRANCH   7   8
ATOM      8  C   UNL     1      34.791   9.496  39.356  1.00  0.00     0.000 C 
BRANCH   8   9
ATOM      9  C   UNL     1      34.918   8.922  40.776  1.00  0.00     0.000 C 
BRANCH   9  10
ATOM     10  C   UNL     1      33.739   9.310  41.686  1.00  0.00     0.000 C 
BRANCH  10  11
ATOM     11  C   UNL     1      33.449   8.322  42.831  1.00  0.00     0.000 C 
BRANCH  11  12
ATOM     12  C   UNL     1      34.418   8.408  44.024  1.00  0.00     0.000 C 
BRANCH  12  13
ATOM     13  C   UNL     1      33.877   7.751  45.312  1.00  0.00     0.006 C 
BRANCH  13  14
ATOM     14  C   UNL     1      33.724   8.756  46.462  1.00  0.00     0.053 C 
BRANCH  14  15
ATOM     15  C   UNL     1      32.583   9.687  46.197  1.00  0.00     0.041 C 
ATOM     16  O   UNL     1      32.696  10.915  46.455  1.00  0.00    -0.550 OA
ATOM     17  O   UNL     1      31.413   9.207  45.623  1.00  0.00    -0.550 OA
ENDBRANCH  14  15
ENDBRANCH  13  14
ENDBRANCH  12  13
ENDBRANCH  11  12
ENDBRANCH  10  11
ENDBRANCH   9  10
ENDBRANCH   8   9
ENDBRANCH   7   8
ENDBRANCH   6   7
ENDBRANCH   5   6
ENDBRANCH   4   5
ENDBRANCH   3   4
ENDBRANCH   2   3
ENDBRANCH   1   2
BRANCH   1  18
ATOM     18  C   UNL     1      33.316   4.988  40.141  1.00  0.00     0.000 C 
BRANCH  18  19
ATOM     19  C   UNL     1      32.539   6.316  40.093  1.00  0.00     0.000 C 
BRANCH  19  20
ATOM     20  C   UNL     1      32.187   6.819  38.678  1.00  0.00     0.000 C 
BRANCH  20  21
ATOM     21  C   UNL     1      30.776   7.422  38.528  1.00  0.00     0.000 C 
BRANCH  21  22
ATOM     22  C   UNL     1      30.509   8.675  39.382  1.00  0.00     0.000 C 
BRANCH  22  23
ATOM     23  C   UNL     1      29.275   8.527  40.288  1.00  0.00     0.000 C 
BRANCH  23  24
ATOM     24  C   UNL     1      29.562   7.684  41.540  1.00  0.00    -0.000 C 
BRANCH  24  25
ATOM     25  C   UNL     1      28.799   6.348  41.545  1.00  0.00    -0.000 C 
BRANCH  25  26
ATOM     26  C   UNL     1      29.121   5.482  42.775  1.00  0.00    -0.000 C 
BRANCH  26  27
ATOM     27  C   UNL     1      30.513   4.818  42.717  1.00  0.00    -0.000 C 
BRANCH  27  28
ATOM     28  C   UNL     1      31.463   5.364  43.797  1.00  0.00    -0.000 C 
BRANCH  28  29
ATOM     29  C   UNL     1      30.716   5.896  45.030  1.00  0.00    -0.000 C 
BRANCH  29  30
ATOM     30  C   UNL     1      31.177   5.225  46.336  1.00  0.00    -0.000 C 
BRANCH  30  31
ATOM     31  C   UNL     1      30.965   6.121  47.566  1.00  0.00    -0.003 C 
ATOM     32  C   UNL     1      31.889   5.760  48.730  1.00  0.00     0.004 C 
ENDBRANCH  30  31
ENDBRANCH  29  30
ENDBRANCH  28  29
ENDBRANCH  27  28
ENDBRANCH  26  27
ENDBRANCH  25  26
ENDBRANCH  24  25
ENDBRANCH  23  24
ENDBRANCH  22  23
ENDBRANCH  21  22
ENDBRANCH  20  21
ENDBRANCH  19  20
ENDBRANCH  18  19
ENDBRANCH   1  18
TORSDOF 28
ENDMDL
MODEL 4
REMARK VINA RESULT:    -3.880      2.898      6.860
REMARK INTER + INTRA:         -15.066
REMARK INTER:                  -9.773
REMARK INTRA:                  -5.293
REMARK UNBOUND:                -4.835
REMARK SMILES CCCCCCCCCCCCCCCCCCCCCCCCCCCCCC(=O)[O-]
REMARK SMILES IDX 16 1 17 2 18 3 19 4 20 5 21 6 22 7 23 8 24 9 25 10 26 11
REMARK SMILES IDX 27 12 28 13 29 14 30 15 31 16 32 17 15 18 14 19 13 20 12 21
REMARK SMILES IDX 11 22 10 23 9 24 8 25 7 26 6 27 5 28 4 29 3 30 2 31 1 32
REMARK H PARENT
REMARK Flexibility Score: inf
ROOT
ATOM      1  C   UNL     1      30.207   7.140  42.133  1.00  0.00     0.000 C 
ENDROOT
BRANCH   1   2
ATOM      2  C   UNL     1      28.844   7.802  41.860  1.00  0.00     0.000 C 
BRANCH   2   3
ATOM      3  C   UNL     1      27.943   7.978  43.099  1.00  0.00     0.000 C 
BRANCH   3   4
ATOM      4  C   UNL     1      26.752   7.002  43.192  1.00  0.00     0.000 C 
BRANCH   4   5
ATOM      5  C   UNL     1      26.018   6.747  41.864  1.00  0.00     0.000 C 
BRANCH   5   6
ATOM      6  C   UNL     1      26.058   5.270  41.436  1.00  0.00     0.000 C 
BRANCH   6   7
ATOM      7  C   UNL     1      27.013   4.430  42.298  1.00  0.00     0.000 C 
BRANCH   7   8
ATOM      8  C   UNL     1      28.257   3.966  41.523  1.00  0.00     0.000 C 
BRANCH   8   9
ATOM      9  C   UNL     1      28.155   4.346  40.038  1.00  0.00     0.000 C 
BRANCH   9  10
ATOM     10  C   UNL     1      29.422   3.990  39.240  1.00  0.00     0.000 C 
BRANCH  10  11
ATOM     11  C   UNL     1      30.471   5.113  39.151  1.00  0.00     0.000 C 
BRANCH  11  12
ATOM     12  C   UNL     1      31.772   4.849  39.931  1.00  0.00     0.000 C 
BRANCH  12  13
ATOM     13  C   UNL     1      32.801   5.995  39.828  1.00  0.00     0.006 C 
BRANCH  13  14
ATOM     14  C   UNL     1      33.910   5.883  40.883  1.00  0.00     0.053 C 
BRANCH  14  15
ATOM     15  C   UNL     1      35.038   5.044  40.371  1.00  0.00     0.041 C 
ATOM     16  O   UNL     1      35.303   3.939  40.916  1.00  0.00    -0.550 OA
ATOM     17  O   UNL     1      35.766   5.459  39.263  1.00  0.00    -0.550 OA
ENDBRANCH  14  15
ENDBRANCH  13  14
ENDBRANCH  12  13
ENDBRANCH  11  12
ENDBRANCH  10  11
ENDBRANCH   9  10
ENDBRANCH   8   9
ENDBRANCH   7   8
ENDBRANCH   6   7
ENDBRANCH   5   6
ENDBRANCH   4   5
ENDBRANCH   3   4
ENDBRANCH   2   3
ENDBRANCH   1   2
BRANCH   1  18
ATOM     18  C   UNL     1      30.227   6.340  43.446  1.00  0.00     0.000 C 
BRANCH  18  19
ATOM     19  C   UNL     1      31.535   5.554  43.649  1.00  0.00     0.000 C 
BRANCH  19  20
ATOM     20  C   UNL     1      32.372   5.978  44.873  1.00  0.00     0.000 C 
BRANCH  20  21
ATOM     21  C   UNL     1      33.434   7.062  44.599  1.00  0.00     0.000 C 
BRANCH  21  22
ATOM     22  C   UNL     1      33.128   8.442  45.209  1.00  0.00     0.000 C 
BRANCH  22  23
ATOM     23  C   UNL     1      32.242   9.310  44.300  1.00  0.00     0.000 C 
BRANCH  23  24
ATOM     24  C   UNL     1      30.904   9.680  44.961  1.00  0.00    -0.000 C 
BRANCH  24  25
ATOM     25  C   UNL     1      30.830   9.246  46.434  1.00  0.00    -0.000 C 
BRANCH  25  26
ATOM     26  C   UNL     1      29.445   8.705  46.828  1.00  0.00    -0.000 C 
BRANCH  26  27
ATOM     27  C   UNL     1      29.227   7.225  46.445  1.00  0.00    -0.000 C 
BRANCH  27  28
ATOM     28  C   UNL     1      29.244   6.298  47.674  1.00  0.00    -0.000 C 
BRANCH  28  29
ATOM     29  C   UNL     1      30.651   6.127  48.268  1.00  0.00    -0.000 C 
BRANCH  29  30
ATOM     30  C   UNL     1      30.692   5.087  49.401  1.00  0.00    -0.000 C 
BRANCH  30  31
ATOM     31  C   UNL     1      31.724   3.978  49.147  1.00  0.00    -0.003 C 
ATOM     32  C   UNL     1      32.667   3.760  50.331  1.00  0.00     0.004 C 
ENDBRANCH  30  31
ENDBRANCH  29  30
ENDBRANCH  28  29
ENDBRANCH  27  28
ENDBRANCH  26  27
ENDBRANCH  25  26
ENDBRANCH  24  25
ENDBRANCH  23  24
ENDBRANCH  22  23
ENDBRANCH  21  22
ENDBRANCH  20  21
ENDBRANCH  19  20
ENDBRANCH  18  19
ENDBRANCH   1  18
TORSDOF 28
ENDMDL
MODEL 5
REMARK VINA RESULT:    -3.873     14.649     17.904
REMARK INTER + INTRA:         -15.047
REMARK INTER:                  -8.599
REMARK INTRA:                  -6.448
REMARK UNBOUND:                -4.835
REMARK SMILES CCCCCCCCCCCCCCCCCCCCCCCCCCCCCC(=O)[O-]
REMARK SMILES IDX 16 1 17 2 18 3 19 4 20 5 21 6 22 7 23 8 24 9 25 10 26 11
REMARK SMILES IDX 27 12 28 13 29 14 30 15 31 16 32 17 15 18 14 19 13 20 12 21
REMARK SMILES IDX 11 22 10 23 9 24 8 25 7 26 6 27 5 28 4 29 3 30 2 31 1 32
REMARK H PARENT
REMARK Flexibility Score: inf
ROOT
ATOM      1  C   UNL     1      23.671  -5.879  48.739  1.00  0.00     0.000 C 
ENDROOT
BRANCH   1   2
ATOM      2  C   UNL     1      22.212  -5.583  49.130  1.00  0.00     0.000 C 
BRANCH   2   3
ATOM      3  C   UNL     1      21.327  -6.829  49.342  1.00  0.00     0.000 C 
BRANCH   3   4
ATOM      4  C   UNL     1      20.006  -6.579  50.097  1.00  0.00     0.000 C 
BRANCH   4   5
ATOM      5  C   UNL     1      19.861  -5.171  50.702  1.00  0.00     0.000 C 
BRANCH   5   6
ATOM      6  C   UNL     1      19.818  -5.185  52.239  1.00  0.00     0.000 C 
BRANCH   6   7
ATOM      7  C   UNL     1      20.701  -6.287  52.846  1.00  0.00     0.000 C 
BRANCH   7   8
ATOM      8  C   UNL     1      21.404  -5.839  54.137  1.00  0.00     0.000 C 
BRANCH   8   9
ATOM      9  C   UNL     1      22.931  -5.923  53.991  1.00  0.00     0.000 C 
BRANCH   9  10
ATOM     10  C   UNL     1      23.401  -5.786  52.532  1.00  0.00     0.000 C 
BRANCH  10  11
ATOM     11  C   UNL     1      24.071  -4.442  52.188  1.00  0.00     0.000 C 
BRANCH  11  12
ATOM     12  C   UNL     1      23.105  -3.334  51.732  1.00  0.00     0.000 C 
BRANCH  12  13
ATOM     13  C   UNL     1      22.474  -2.542  52.897  1.00  0.00     0.006 C 
BRANCH  13  14
ATOM     14  C   UNL     1      23.529  -1.902  53.808  1.00  0.00     0.053 C 
BRANCH  14  15
ATOM     15  C   UNL     1      23.341  -2.351  55.223  1.00  0.00     0.041 C 
ATOM     16  O   UNL     1      24.337  -2.474  55.985  1.00  0.00    -0.550 OA
ATOM     17  O   UNL     1      22.064  -2.588  55.715  1.00  0.00    -0.550 OA
ENDBRANCH  14  15
ENDBRANCH  13  14
ENDBRANCH  12  13
ENDBRANCH  11  12
ENDBRANCH  10  11
ENDBRANCH   9  10
ENDBRANCH   8   9
ENDBRANCH   7   8
ENDBRANCH   6   7
ENDBRANCH   5   6
ENDBRANCH   4   5
ENDBRANCH   3   4
ENDBRANCH   2   3
ENDBRANCH   1   2
BRANCH   1  18
ATOM     18  C   UNL     1      23.952  -5.618  47.250  1.00  0.00     0.000 C 
BRANCH  18  19
ATOM     19  C   UNL     1      24.212  -6.910  46.454  1.00  0.00     0.000 C 
BRANCH  19  20
ATOM     20  C   UNL     1      22.950  -7.611  45.913  1.00  0.00     0.000 C 
BRANCH  20  21
ATOM     21  C   UNL     1      21.984  -6.706  45.122  1.00  0.00     0.000 C 
BRANCH  21  22
ATOM     22  C   UNL     1      20.626  -6.452  45.800  1.00  0.00     0.000 C 
BRANCH  22  23
ATOM     23  C   UNL     1      20.373  -4.962  46.088  1.00  0.00     0.000 C 
BRANCH  23  24
ATOM     24  C   UNL     1      21.324  -4.042  45.305  1.00  0.00    -0.000 C 
BRANCH  24  25
ATOM     25  C   UNL     1      20.747  -2.632  45.098  1.00  0.00    -0.000 C 
BRANCH  25  26
ATOM     26  C   UNL     1      21.582  -1.538  45.784  1.00  0.00    -0.000 C 
BRANCH  26  27
ATOM     27  C   UNL     1      22.835  -2.078  46.506  1.00  0.00    -0.000 C 
BRANCH  27  28
ATOM     28  C   UNL     1      22.784  -1.829  48.024  1.00  0.00    -0.000 C 
BRANCH  28  29
ATOM     29  C   UNL     1      21.482  -2.335  48.665  1.00  0.00    -0.000 C 
BRANCH  29  30
ATOM     30  C   UNL     1      20.634  -1.197  49.259  1.00  0.00    -0.000 C 
BRANCH  30  31
ATOM     31  C   UNL     1      19.224  -1.131  48.650  1.00  0.00    -0.003 C 
ATOM     32  C   UNL     1      18.666  -2.511  48.297  1.00  0.00     0.004 C 
ENDBRANCH  30  31
ENDBRANCH  29  30
ENDBRANCH  28  29
ENDBRANCH  27  28
ENDBRANCH  26  27
ENDBRANCH  25  26
ENDBRANCH  24  25
ENDBRANCH  23  24
ENDBRANCH  22  23
ENDBRANCH  21  22
ENDBRANCH  20  21
ENDBRANCH  19  20
ENDBRANCH  18  19
ENDBRANCH   1  18
TORSDOF 28
ENDMDL
MODEL 6
REMARK VINA RESULT:    -3.857      2.539      5.731
REMARK INTER + INTRA:         -15.005
REMARK INTER:                  -9.298
REMARK INTRA:                  -5.707
REMARK UNBOUND:                -4.835
REMARK SMILES CCCCCCCCCCCCCCCCCCCCCCCCCCCCCC(=O)[O-]
REMARK SMILES IDX 16 1 17 2 18 3 19 4 20 5 21 6 22 7 23 8 24 9 25 10 26 11
REMARK SMILES IDX 27 12 28 13 29 14 30 15 31 16 32 17 15 18 14 19 13 20 12 21
REMARK SMILES IDX 11 22 10 23 9 24 8 25 7 26 6 27 5 28 4 29 3 30 2 31 1 32
REMARK H PARENT
REMARK Flexibility Score: inf
ROOT
ATOM      1  C   UNL     1      33.981   5.299  41.342  1.00  0.00     0.000 C 
ENDROOT
BRANCH   1   2
ATOM      2  C   UNL     1      32.566   5.782  40.974  1.00  0.00     0.000 C 
BRANCH   2   3
ATOM      3  C   UNL     1      31.851   4.945  39.894  1.00  0.00     0.000 C 
BRANCH   3   4
ATOM      4  C   UNL     1      30.764   5.691  39.093  1.00  0.00     0.000 C 
BRANCH   4   5
ATOM      5  C   UNL     1      31.114   7.143  38.724  1.00  0.00     0.000 C 
BRANCH   5   6
ATOM      6  C   UNL     1      29.996   8.136  39.084  1.00  0.00     0.000 C 
BRANCH   6   7
ATOM      7  C   UNL     1      30.453   9.202  40.093  1.00  0.00     0.000 C 
BRANCH   7   8
ATOM      8  C   UNL     1      29.732   9.087  41.445  1.00  0.00     0.000 C 
BRANCH   8   9
ATOM      9  C   UNL     1      30.621   8.390  42.487  1.00  0.00     0.000 C 
BRANCH   9  10
ATOM     10  C   UNL     1      29.820   7.515  43.468  1.00  0.00     0.000 C 
BRANCH  10  11
ATOM     11  C   UNL     1      29.984   5.997  43.267  1.00  0.00     0.000 C 
BRANCH  11  12
ATOM     12  C   UNL     1      28.677   5.235  42.983  1.00  0.00     0.000 C 
BRANCH  12  13
ATOM     13  C   UNL     1      28.096   5.501  41.578  1.00  0.00     0.006 C 
BRANCH  13  14
ATOM     14  C   UNL     1      27.926   4.212  40.762  1.00  0.00     0.053 C 
BRANCH  14  15
ATOM     15  C   UNL     1      26.485   3.813  40.707  1.00  0.00     0.041 C 
ATOM     16  O   UNL     1      25.946   3.539  39.602  1.00  0.00    -0.550 OA
ATOM     17  O   UNL     1      25.750   3.696  41.881  1.00  0.00    -0.550 OA
ENDBRANCH  14  15
ENDBRANCH  13  14
ENDBRANCH  12  13
ENDBRANCH  11  12
ENDBRANCH  10  11
ENDBRANCH   9  10
ENDBRANCH   8   9
ENDBRANCH   7   8
ENDBRANCH   6   7
ENDBRANCH   5   6
ENDBRANCH   4   5
ENDBRANCH   3   4
ENDBRANCH   2   3
ENDBRANCH   1   2
BRANCH   1  18
ATOM     18  C   UNL     1      34.706   4.628  40.163  1.00  0.00     0.000 C 
BRANCH  18  19
ATOM     19  C   UNL     1      35.966   5.394  39.721  1.00  0.00     0.000 C 
BRANCH  19  20
ATOM     20  C   UNL     1      35.772   6.339  38.519  1.00  0.00     0.000 C 
BRANCH  20  21
ATOM     21  C   UNL     1      35.787   7.843  38.857  1.00  0.00     0.000 C 
BRANCH  21  22
ATOM     22  C   UNL     1      34.429   8.429  39.284  1.00  0.00     0.000 C 
BRANCH  22  23
ATOM     23  C   UNL     1      34.456   9.018  40.705  1.00  0.00     0.000 C 
BRANCH  23  24
ATOM     24  C   UNL     1      35.771   8.719  41.442  1.00  0.00    -0.000 C 
BRANCH  24  25
ATOM     25  C   UNL     1      35.649   8.884  42.966  1.00  0.00    -0.000 C 
BRANCH  25  26
ATOM     26  C   UNL     1      34.192   9.036  43.435  1.00  0.00    -0.000 C 
BRANCH  26  27
ATOM     27  C   UNL     1      33.719   7.898  44.363  1.00  0.00    -0.000 C 
BRANCH  27  28
ATOM     28  C   UNL     1      33.328   8.410  45.761  1.00  0.00    -0.000 C 
BRANCH  28  29
ATOM     29  C   UNL     1      32.248   7.544  46.429  1.00  0.00    -0.000 C 
BRANCH  29  30
ATOM     30  C   UNL     1      32.319   6.070  45.995  1.00  0.00    -0.000 C 
BRANCH  30  31
ATOM     31  C   UNL     1      31.507   5.145  46.914  1.00  0.00    -0.003 C 
ATOM     32  C   UNL     1      31.388   5.681  48.342  1.00  0.00     0.004 C 
ENDBRANCH  30  31
ENDBRANCH  29  30
ENDBRANCH  28  29
ENDBRANCH  27  28
ENDBRANCH  26  27
ENDBRANCH  25  26
ENDBRANCH  24  25
ENDBRANCH  23  24
ENDBRANCH  22  23
ENDBRANCH  21  22
ENDBRANCH  20  21
ENDBRANCH  19  20
ENDBRANCH  18  19
ENDBRANCH   1  18
TORSDOF 28
ENDMDL
MODEL 7
REMARK VINA RESULT:    -3.853      2.587      5.070
REMARK INTER + INTRA:         -14.995
REMARK INTER:                 -10.386
REMARK INTRA:                  -4.608
REMARK UNBOUND:                -4.835
REMARK SMILES CCCCCCCCCCCCCCCCCCCCCCCCCCCCCC(=O)[O-]
REMARK SMILES IDX 16 1 17 2 18 3 19 4 20 5 21 6 22 7 23 8 24 9 25 10 26 11
REMARK SMILES IDX 27 12 28 13 29 14 30 15 31 16 32 17 15 18 14 19 13 20 12 21
REMARK SMILES IDX 11 22 10 23 9 24 8 25 7 26 6 27 5 28 4 29 3 30 2 31 1 32
REMARK H PARENT
REMARK Flexibility Score: inf
ROOT
ATOM      1  C   UNL     1      32.636   5.755  40.274  1.00  0.00     0.000 C 
ENDROOT
BRANCH   1   2
ATOM      2  C   UNL     1      33.348   5.026  41.428  1.00  0.00     0.000 C 
BRANCH   2   3
ATOM      3  C   UNL     1      34.811   4.628  41.145  1.00  0.00     0.000 C 
BRANCH   3   4
ATOM      4  C   UNL     1      35.136   4.316  39.670  1.00  0.00     0.000 C 
BRANCH   4   5
ATOM      5  C   UNL     1      36.586   4.613  39.250  1.00  0.00     0.000 C 
BRANCH   5   6
ATOM      6  C   UNL     1      36.848   6.113  39.032  1.00  0.00     0.000 C 
BRANCH   6   7
ATOM      7  C   UNL     1      35.617   6.856  38.488  1.00  0.00     0.000 C 
BRANCH   7   8
ATOM      8  C   UNL     1      35.226   8.066  39.351  1.00  0.00     0.000 C 
BRANCH   8   9
ATOM      9  C   UNL     1      36.043   8.102  40.651  1.00  0.00     0.000 C 
BRANCH   9  10
ATOM     10  C   UNL     1      35.170   8.312  41.901  1.00  0.00     0.000 C 
BRANCH  10  11
ATOM     11  C   UNL     1      33.760   8.867  41.624  1.00  0.00     0.000 C 
BRANCH  11  12
ATOM     12  C   UNL     1      32.923   9.169  42.880  1.00  0.00     0.000 C 
BRANCH  12  13
ATOM     13  C   UNL     1      32.422   7.905  43.611  1.00  0.00     0.006 C 
BRANCH  13  14
ATOM     14  C   UNL     1      32.206   8.143  45.111  1.00  0.00     0.053 C 
BRANCH  14  15
ATOM     15  C   UNL     1      33.463   8.646  45.749  1.00  0.00     0.041 C 
ATOM     16  O   UNL     1      33.464   9.744  46.366  1.00  0.00    -0.550 OA
ATOM     17  O   UNL     1      34.621   7.880  45.703  1.00  0.00    -0.550 OA
ENDBRANCH  14  15
ENDBRANCH  13  14
ENDBRANCH  12  13
ENDBRANCH  11  12
ENDBRANCH  10  11
ENDBRANCH   9  10
ENDBRANCH   8   9
ENDBRANCH   7   8
ENDBRANCH   6   7
ENDBRANCH   5   6
ENDBRANCH   4   5
ENDBRANCH   3   4
ENDBRANCH   2   3
ENDBRANCH   1   2
BRANCH   1  18
ATOM     18  C   UNL     1      31.375   5.018  39.793  1.00  0.00     0.000 C 
BRANCH  18  19
ATOM     19  C   UNL     1      30.695   5.711  38.598  1.00  0.00     0.000 C 
BRANCH  19  20
ATOM     20  C   UNL     1      31.271   7.093  38.227  1.00  0.00     0.000 C 
BRANCH  20  21
ATOM     21  C   UNL     1      30.225   8.208  38.029  1.00  0.00     0.000 C 
BRANCH  21  22
ATOM     22  C   UNL     1      30.249   9.320  39.093  1.00  0.00     0.000 C 
BRANCH  22  23
ATOM     23  C   UNL     1      30.198   8.771  40.529  1.00  0.00     0.000 C 
BRANCH  23  24
ATOM     24  C   UNL     1      28.805   8.245  40.909  1.00  0.00    -0.000 C 
BRANCH  24  25
ATOM     25  C   UNL     1      28.862   7.102  41.936  1.00  0.00    -0.000 C 
BRANCH  25  26
ATOM     26  C   UNL     1      28.353   5.765  41.371  1.00  0.00    -0.000 C 
BRANCH  26  27
ATOM     27  C   UNL     1      26.869   5.483  41.691  1.00  0.00    -0.000 C 
BRANCH  27  28
ATOM     28  C   UNL     1      26.477   4.025  41.392  1.00  0.00    -0.000 C 
BRANCH  28  29
ATOM     29  C   UNL     1      25.268   3.918  40.448  1.00  0.00    -0.000 C 
BRANCH  29  30
ATOM     30  C   UNL     1      24.460   2.627  40.665  1.00  0.00    -0.000 C 
BRANCH  30  31
ATOM     31  C   UNL     1      24.448   1.722  39.423  1.00  0.00    -0.003 C 
ATOM     32  C   UNL     1      23.497   0.532  39.564  1.00  0.00     0.004 C 
ENDBRANCH  30  31
ENDBRANCH  29  30
ENDBRANCH  28  29
ENDBRANCH  27  28
ENDBRANCH  26  27
ENDBRANCH  25  26
ENDBRANCH  24  25
ENDBRANCH  23  24
ENDBRANCH  22  23
ENDBRANCH  21  22
ENDBRANCH  20  21
ENDBRANCH  19  20
ENDBRANCH  18  19
ENDBRANCH   1  18
TORSDOF 28
ENDMDL
MODEL 8
REMARK VINA RESULT:    -3.851      4.227      8.127
REMARK INTER + INTRA:         -14.988
REMARK INTER:                 -10.409
REMARK INTRA:                  -4.580
REMARK UNBOUND:                -4.835
REMARK SMILES CCCCCCCCCCCCCCCCCCCCCCCCCCCCCC(=O)[O-]
REMARK SMILES IDX 16 1 17 2 18 3 19 4 20 5 21 6 22 7 23 8 24 9 25 10 26 11
REMARK SMILES IDX 27 12 28 13 29 14 30 15 31 16 32 17 15 18 14 19 13 20 12 21
REMARK SMILES IDX 11 22 10 23 9 24 8 25 7 26 6 27 5 28 4 29 3 30 2 31 1 32
REMARK H PARENT
REMARK Flexibility Score: inf
ROOT
ATOM      1  C   UNL     1      29.496   5.690  41.413  1.00  0.00     0.000 C 
ENDROOT
BRANCH   1   2
ATOM      2  C   UNL     1      28.454   4.670  40.918  1.00  0.00     0.000 C 
BRANCH   2   3
ATOM      3  C   UNL     1      27.750   3.864  42.029  1.00  0.00     0.000 C 
BRANCH   3   4
ATOM      4  C   UNL     1      27.968   4.388  43.463  1.00  0.00     0.000 C 
BRANCH   4   5
ATOM      5  C   UNL     1      26.699   4.897  44.167  1.00  0.00     0.000 C 
BRANCH   5   6
ATOM      6  C   UNL     1      26.778   6.389  44.535  1.00  0.00     0.000 C 
BRANCH   6   7
ATOM      7  C   UNL     1      26.957   7.292  43.304  1.00  0.00     0.000 C 
BRANCH   7   8
ATOM      8  C   UNL     1      25.875   7.064  42.239  1.00  0.00     0.000 C 
BRANCH   8   9
ATOM      9  C   UNL     1      24.507   7.566  42.726  1.00  0.00     0.000 C 
BRANCH   9  10
ATOM     10  C   UNL     1      23.431   6.464  42.730  1.00  0.00     0.000 C 
BRANCH  10  11
ATOM     11  C   UNL     1      23.724   5.267  41.808  1.00  0.00     0.000 C 
BRANCH  11  12
ATOM     12  C   UNL     1      23.460   3.885  42.435  1.00  0.00     0.000 C 
BRANCH  12  13
ATOM     13  C   UNL     1      24.362   2.766  41.872  1.00  0.00     0.006 C 
BRANCH  13  14
ATOM     14  C   UNL     1      24.511   2.846  40.347  1.00  0.00     0.053 C 
BRANCH  14  15
ATOM     15  C   UNL     1      23.739   1.747  39.686  1.00  0.00     0.041 C 
ATOM     16  O   UNL     1      23.709   0.598  40.200  1.00  0.00    -0.550 OA
ATOM     17  O   UNL     1      23.013   2.006  38.530  1.00  0.00    -0.550 OA
ENDBRANCH  14  15
ENDBRANCH  13  14
ENDBRANCH  12  13
ENDBRANCH  11  12
ENDBRANCH  10  11
ENDBRANCH   9  10
ENDBRANCH   8   9
ENDBRANCH   7   8
ENDBRANCH   6   7
ENDBRANCH   5   6
ENDBRANCH   4   5
ENDBRANCH   3   4
ENDBRANCH   2   3
ENDBRANCH   1   2
BRANCH   1  18
ATOM     18  C   UNL     1      29.973   6.639  40.302  1.00  0.00     0.000 C 
BRANCH  18  19
ATOM     19  C   UNL     1      30.796   5.924  39.215  1.00  0.00     0.000 C 
BRANCH  19  20
ATOM     20  C   UNL     1      31.917   5.005  39.740  1.00  0.00     0.000 C 
BRANCH  20  21
ATOM     21  C   UNL     1      33.239   5.718  40.092  1.00  0.00     0.000 C 
BRANCH  21  22
ATOM     22  C   UNL     1      33.586   5.742  41.592  1.00  0.00     0.000 C 
BRANCH  22  23
ATOM     23  C   UNL     1      33.794   7.168  42.131  1.00  0.00     0.000 C 
BRANCH  23  24
ATOM     24  C   UNL     1      32.978   7.441  43.404  1.00  0.00    -0.000 C 
BRANCH  24  25
ATOM     25  C   UNL     1      32.446   6.153  44.056  1.00  0.00    -0.000 C 
BRANCH  25  26
ATOM     26  C   UNL     1      31.046   6.329  44.668  1.00  0.00    -0.000 C 
BRANCH  26  27
ATOM     27  C   UNL     1      30.758   5.366  45.839  1.00  0.00    -0.000 C 
BRANCH  27  28
ATOM     28  C   UNL     1      29.671   5.909  46.785  1.00  0.00    -0.000 C 
BRANCH  28  29
ATOM     29  C   UNL     1      30.169   6.070  48.230  1.00  0.00    -0.000 C 
BRANCH  29  30
ATOM     30  C   UNL     1      31.646   5.671  48.395  1.00  0.00    -0.000 C 
BRANCH  30  31
ATOM     31  C   UNL     1      31.904   4.887  49.691  1.00  0.00    -0.003 C 
ATOM     32  C   UNL     1      32.229   3.414  49.439  1.00  0.00     0.004 C 
ENDBRANCH  30  31
ENDBRANCH  29  30
ENDBRANCH  28  29
ENDBRANCH  27  28
ENDBRANCH  26  27
ENDBRANCH  25  26
ENDBRANCH  24  25
ENDBRANCH  23  24
ENDBRANCH  22  23
ENDBRANCH  21  22
ENDBRANCH  20  21
ENDBRANCH  19  20
ENDBRANCH  18  19
ENDBRANCH   1  18
TORSDOF 28
ENDMDL
MODEL 9
REMARK VINA RESULT:    -3.829     11.158     15.084
REMARK INTER + INTRA:         -14.931
REMARK INTER:                 -10.059
REMARK INTRA:                  -4.872
REMARK UNBOUND:                -4.835
REMARK SMILES CCCCCCCCCCCCCCCCCCCCCCCCCCCCCC(=O)[O-]
REMARK SMILES IDX 16 1 17 2 18 3 19 4 20 5 21 6 22 7 23 8 24 9 25 10 26 11
REMARK SMILES IDX 27 12 28 13 29 14 30 15 31 16 32 17 15 18 14 19 13 20 12 21
REMARK SMILES IDX 11 22 10 23 9 24 8 25 7 26 6 27 5 28 4 29 3 30 2 31 1 32
REMARK H PARENT
REMARK Flexibility Score: inf
ROOT
ATOM      1  C   UNL     1      21.727  -2.332  45.378  1.00  0.00     0.000 C 
ENDROOT
BRANCH   1   2
ATOM      2  C   UNL     1      20.249  -2.647  45.084  1.00  0.00     0.000 C 
BRANCH   2   3
ATOM      3  C   UNL     1      19.235  -1.937  46.004  1.00  0.00     0.000 C 
BRANCH   3   4
ATOM      4  C   UNL     1      17.862  -1.640  45.366  1.00  0.00     0.000 C 
BRANCH   4   5
ATOM      5  C   UNL     1      17.922  -1.033  43.954  1.00  0.00     0.000 C 
BRANCH   5   6
ATOM      6  C   UNL     1      17.521   0.452  43.926  1.00  0.00     0.000 C 
BRANCH   6   7
ATOM      7  C   UNL     1      18.614   1.349  43.323  1.00  0.00     0.000 C 
BRANCH   7   8
ATOM      8  C   UNL     1      20.007   1.055  43.902  1.00  0.00     0.000 C 
BRANCH   8   9
ATOM      9  C   UNL     1      20.269   1.896  45.161  1.00  0.00     0.000 C 
BRANCH   9  10
ATOM     10  C   UNL     1      21.427   2.895  44.985  1.00  0.00     0.000 C 
BRANCH  10  11
ATOM     11  C   UNL     1      22.206   2.760  43.664  1.00  0.00     0.000 C 
BRANCH  11  12
ATOM     12  C   UNL     1      21.743   3.701  42.537  1.00  0.00     0.000 C 
BRANCH  12  13
ATOM     13  C   UNL     1      21.844   3.079  41.128  1.00  0.00     0.006 C 
BRANCH  13  14
ATOM     14  C   UNL     1      22.857   1.929  41.067  1.00  0.00     0.053 C 
BRANCH  14  15
ATOM     15  C   UNL     1      23.559   1.917  39.746  1.00  0.00     0.041 C 
ATOM     16  O   UNL     1      24.762   2.284  39.665  1.00  0.00    -0.550 OA
ATOM     17  O   UNL     1      22.901   1.456  38.613  1.00  0.00    -0.550 OA
ENDBRANCH  14  15
ENDBRANCH  13  14
ENDBRANCH  12  13
ENDBRANCH  11  12
ENDBRANCH  10  11
ENDBRANCH   9  10
ENDBRANCH   8   9
ENDBRANCH   7   8
ENDBRANCH   6   7
ENDBRANCH   5   6
ENDBRANCH   4   5
ENDBRANCH   3   4
ENDBRANCH   2   3
ENDBRANCH   1   2
BRANCH   1  18
ATOM     18  C   UNL     1      21.904  -1.110  46.294  1.00  0.00     0.000 C 
BRANCH  18  19
ATOM     19  C   UNL     1      23.165  -0.291  45.963  1.00  0.00     0.000 C 
BRANCH  19  20
ATOM     20  C   UNL     1      23.663   0.633  47.092  1.00  0.00     0.000 C 
BRANCH  20  21
ATOM     21  C   UNL     1      25.029   0.252  47.698  1.00  0.00     0.000 C 
BRANCH  21  22
ATOM     22  C   UNL     1      25.842  -0.769  46.882  1.00  0.00     0.000 C 
BRANCH  22  23
ATOM     23  C   UNL     1      26.099  -2.076  47.651  1.00  0.00     0.000 C 
BRANCH  23  24
ATOM     24  C   UNL     1      25.116  -3.191  47.262  1.00  0.00    -0.000 C 
BRANCH  24  25
ATOM     25  C   UNL     1      23.962  -3.344  48.268  1.00  0.00    -0.000 C 
BRANCH  25  26
ATOM     26  C   UNL     1      23.218  -4.682  48.124  1.00  0.00    -0.000 C 
BRANCH  26  27
ATOM     27  C   UNL     1      24.048  -5.780  47.424  1.00  0.00    -0.000 C 
BRANCH  27  28
ATOM     28  C   UNL     1      23.189  -6.652  46.491  1.00  0.00    -0.000 C 
BRANCH  28  29
ATOM     29  C   UNL     1      22.125  -5.841  45.735  1.00  0.00    -0.000 C 
BRANCH  29  30
ATOM     30  C   UNL     1      20.721  -6.465  45.839  1.00  0.00    -0.000 C 
BRANCH  30  31
ATOM     31  C   UNL     1      20.112  -6.312  47.241  1.00  0.00    -0.003 C 
ATOM     32  C   UNL     1      18.855  -5.440  47.251  1.00  0.00     0.004 C 
ENDBRANCH  30  31
ENDBRANCH  29  30
ENDBRANCH  28  29
ENDBRANCH  27  28
ENDBRANCH  26  27
ENDBRANCH  25  26
ENDBRANCH  24  25
ENDBRANCH  23  24
ENDBRANCH  22  23
ENDBRANCH  21  22
ENDBRANCH  20  21
ENDBRANCH  19  20
ENDBRANCH  18  19
ENDBRANCH   1  18
TORSDOF 28
ENDMDL
