MODEL 1
REMARK VINA RESULT:    -3.077      0.000      0.000
REMARK INTER + INTRA:          -6.284
REMARK INTER:                  -4.876
REMARK INTRA:                  -1.408
REMARK UNBOUND:                -1.408
REMARK SMILES CCCCCCCCCCCC(=O)[O-]
REMARK SMILES IDX 7 1 8 2 9 3 10 4 11 5 12 6 13 7 14 8 6 9 5 10 4 11 3 12 2 13
REMARK SMILES IDX 1 14
REMARK H PARENT
REMARK Flexibility Score: inf
ROOT
ATOM      1  C   UNL     1      55.093  81.766  32.584  1.00  0.00     0.000 C 
ENDROOT
BRANCH   1   2
ATOM      2  C   UNL     1      53.622  82.145  32.368  1.00  0.00     0.000 C 
BRANCH   2   3
ATOM      3  C   UNL     1      53.143  81.723  30.975  1.00  0.00     0.000 C 
BRANCH   3   4
ATOM      4  C   UNL     1      52.316  82.834  30.316  1.00  0.00     0.006 C 
BRANCH   4   5
ATOM      5  C   UNL     1      51.503  83.605  31.360  1.00  0.00     0.053 C 
BRANCH   5   6
ATOM      6  C   UNL     1      50.133  83.019  31.494  1.00  0.00     0.041 C 
ATOM      7  O   UNL     1      49.487  83.159  32.566  1.00  0.00    -0.550 OA
ATOM      8  O   UNL     1      49.550  82.361  30.419  1.00  0.00    -0.550 OA
ENDBRANCH   5   6
ENDBRANCH   4   5
ENDBRANCH   3   4
ENDBRANCH   2   3
ENDBRANCH   1   2
BRANCH   1   9
ATOM      9  C   UNL     1      55.963  83.020  32.762  1.00  0.00     0.000 C 
BRANCH   9  10
ATOM     10  C   UNL     1      55.237  84.311  32.350  1.00  0.00    -0.000 C 
BRANCH  10  11
ATOM     11  C   UNL     1      55.727  84.859  30.998  1.00  0.00    -0.000 C 
BRANCH  11  12
ATOM     12  C   UNL     1      56.997  84.150  30.500  1.00  0.00    -0.000 C 
BRANCH  12  13
ATOM     13  C   UNL     1      56.873  83.660  29.051  1.00  0.00    -0.003 C 
ATOM     14  C   UNL     1      56.269  82.260  28.995  1.00  0.00     0.004 C 
ENDBRANCH  12  13
ENDBRANCH  11  12
ENDBRANCH  10  11
ENDBRANCH   9  10
ENDBRANCH   1   9
TORSDOF 10
ENDMDL
MODEL 2
REMARK VINA RESULT:    -2.911      1.157      1.777
REMARK INTER + INTRA:          -6.020
REMARK INTER:                  -4.762
REMARK INTRA:                  -1.258
REMARK UNBOUND:                -1.408
REMARK SMILES CCCCCCCCCCCC(=O)[O-]
REMARK SMILES IDX 7 1 8 2 9 3 10 4 11 5 12 6 13 7 14 8 6 9 5 10 4 11 3 12 2 13
REMARK SMILES IDX 1 14
REMARK H PARENT
REMARK Flexibility Score: inf
ROOT
ATOM      1  C   UNL     1      53.855  82.273  32.321  1.00  0.00     0.000 C 
ENDROOT
BRANCH   1   2
ATOM      2  C   UNL     1      53.467  81.718  30.945  1.00  0.00     0.000 C 
BRANCH   2   3
ATOM      3  C   UNL     1      52.769  82.788  30.097  1.00  0.00     0.000 C 
BRANCH   3   4
ATOM      4  C   UNL     1      51.364  83.086  30.634  1.00  0.00     0.006 C 
BRANCH   4   5
ATOM      5  C   UNL     1      51.231  84.557  31.036  1.00  0.00     0.053 C 
BRANCH   5   6
ATOM      6  C   UNL     1      50.966  84.677  32.504  1.00  0.00     0.041 C 
ATOM      7  O   UNL     1      51.880  85.057  33.283  1.00  0.00    -0.550 OA
ATOM      8  O   UNL     1      49.698  84.416  33.005  1.00  0.00    -0.550 OA
ENDBRANCH   5   6
ENDBRANCH   4   5
ENDBRANCH   3   4
ENDBRANCH   2   3
ENDBRANCH   1   2
BRANCH   1   9
ATOM      9  C   UNL     1      55.361  82.107  32.576  1.00  0.00     0.000 C 
BRANCH   9  10
ATOM     10  C   UNL     1      56.085  83.452  32.756  1.00  0.00    -0.000 C 
BRANCH  10  11
ATOM     11  C   UNL     1      55.294  84.633  32.167  1.00  0.00    -0.000 C 
BRANCH  11  12
ATOM     12  C   UNL     1      55.715  84.965  30.726  1.00  0.00    -0.000 C 
BRANCH  12  13
ATOM     13  C   UNL     1      57.059  84.332  30.341  1.00  0.00    -0.003 C 
ATOM     14  C   UNL     1      56.901  83.391  29.151  1.00  0.00     0.004 C 
ENDBRANCH  12  13
ENDBRANCH  11  12
ENDBRANCH  10  11
ENDBRANCH   9  10
ENDBRANCH   1   9
TORSDOF 10
ENDMDL
MODEL 3
REMARK VINA RESULT:    -2.873      1.165      2.484
REMARK INTER + INTRA:          -5.960
REMARK INTER:                  -4.583
REMARK INTRA:                  -1.376
REMARK UNBOUND:                -1.408
REMARK SMILES CCCCCCCCCCCC(=O)[O-]
REMARK SMILES IDX 7 1 8 2 9 3 10 4 11 5 12 6 13 7 14 8 6 9 5 10 4 11 3 12 2 13
REMARK SMILES IDX 1 14
REMARK H PARENT
REMARK Flexibility Score: inf
ROOT
ATOM      1  C   UNL     1      52.414  81.342  30.510  1.00  0.00     0.000 C 
ENDROOT
BRANCH   1   2
ATOM      2  C   UNL     1      52.930  81.697  31.910  1.00  0.00     0.000 C 
BRANCH   2   3
ATOM      3  C   UNL     1      52.503  83.114  32.311  1.00  0.00     0.000 C 
BRANCH   3   4
ATOM      4  C   UNL     1      51.746  83.805  31.171  1.00  0.00     0.006 C 
BRANCH   4   5
ATOM      5  C   UNL     1      50.457  84.454  31.682  1.00  0.00     0.053 C 
BRANCH   5   6
ATOM      6  C   UNL     1      49.391  83.422  31.874  1.00  0.00     0.041 C 
ATOM      7  O   UNL     1      48.753  83.365  32.959  1.00  0.00    -0.550 OA
ATOM      8  O   UNL     1      49.069  82.553  30.839  1.00  0.00    -0.550 OA
ENDBRANCH   5   6
ENDBRANCH   4   5
ENDBRANCH   3   4
ENDBRANCH   2   3
ENDBRANCH   1   2
BRANCH   1   9
ATOM      9  C   UNL     1      53.577  80.993  29.568  1.00  0.00     0.000 C 
BRANCH   9  10
ATOM     10  C   UNL     1      54.936  81.484  30.093  1.00  0.00    -0.000 C 
BRANCH  10  11
ATOM     11  C   UNL     1      55.450  82.721  29.336  1.00  0.00    -0.000 C 
BRANCH  11  12
ATOM     12  C   UNL     1      55.500  83.976  30.222  1.00  0.00    -0.000 C 
BRANCH  12  13
ATOM     13  C   UNL     1      56.652  83.939  31.237  1.00  0.00    -0.003 C 
ATOM     14  C   UNL     1      56.124  83.813  32.662  1.00  0.00     0.004 C 
ENDBRANCH  12  13
ENDBRANCH  11  12
ENDBRANCH  10  11
ENDBRANCH   9  10
ENDBRANCH   1   9
TORSDOF 10
ENDMDL
MODEL 4
REMARK VINA RESULT:    -2.858      1.045      2.641
REMARK INTER + INTRA:          -5.937
REMARK INTER:                  -4.498
REMARK INTRA:                  -1.438
REMARK UNBOUND:                -1.408
REMARK SMILES CCCCCCCCCCCC(=O)[O-]
REMARK SMILES IDX 7 1 8 2 9 3 10 4 11 5 12 6 13 7 14 8 6 9 5 10 4 11 3 12 2 13
REMARK SMILES IDX 1 14
REMARK H PARENT
REMARK Flexibility Score: inf
ROOT
ATOM      1  C   UNL     1      55.033  81.457  29.338  1.00  0.00     0.000 C 
ENDROOT
BRANCH   1   2
ATOM      2  C   UNL     1      53.698  81.223  30.057  1.00  0.00     0.000 C 
BRANCH   2   3
ATOM      3  C   UNL     1      53.026  82.552  30.417  1.00  0.00     0.000 C 
BRANCH   3   4
ATOM      4  C   UNL     1      52.411  82.497  31.821  1.00  0.00     0.006 C 
BRANCH   4   5
ATOM      5  C   UNL     1      51.871  83.867  32.239  1.00  0.00     0.053 C 
BRANCH   5   6
ATOM      6  C   UNL     1      50.376  83.884  32.168  1.00  0.00     0.041 C 
ATOM      7  O   UNL     1      49.745  82.839  31.859  1.00  0.00    -0.550 OA
ATOM      8  O   UNL     1      49.679  85.041  32.490  1.00  0.00    -0.550 OA
ENDBRANCH   5   6
ENDBRANCH   4   5
ENDBRANCH   3   4
ENDBRANCH   2   3
ENDBRANCH   1   2
BRANCH   1   9
ATOM      9  C   UNL     1      55.237  82.947  29.028  1.00  0.00     0.000 C 
BRANCH   9  10
ATOM     10  C   UNL     1      56.708  83.382  29.138  1.00  0.00    -0.000 C 
BRANCH  10  11
ATOM     11  C   UNL     1      56.967  84.289  30.354  1.00  0.00    -0.000 C 
BRANCH  11  12
ATOM     12  C   UNL     1      55.707  85.047  30.802  1.00  0.00    -0.000 C 
BRANCH  12  13
ATOM     13  C   UNL     1      55.376  84.821  32.284  1.00  0.00    -0.003 C 
ATOM     14  C   UNL     1      56.066  83.568  32.816  1.00  0.00     0.004 C 
ENDBRANCH  12  13
ENDBRANCH  11  12
ENDBRANCH  10  11
ENDBRANCH   9  10
ENDBRANCH   1   9
TORSDOF 10
ENDMDL
MODEL 5
REMARK VINA RESULT:    -2.854      1.451      3.265
REMARK INTER + INTRA:          -5.930
REMARK INTER:                  -4.507
REMARK INTRA:                  -1.424
REMARK UNBOUND:                -1.408
REMARK SMILES CCCCCCCCCCCC(=O)[O-]
REMARK SMILES IDX 7 1 8 2 9 3 10 4 11 5 12 6 13 7 14 8 6 9 5 10 4 11 3 12 2 13
REMARK SMILES IDX 1 14
REMARK H PARENT
REMARK Flexibility Score: inf
ROOT
ATOM      1  C   UNL     1      53.029  83.798  29.911  1.00  0.00     0.000 C 
ENDROOT
BRANCH   1   2
ATOM      2  C   UNL     1      52.745  84.915  30.922  1.00  0.00     0.000 C 
BRANCH   2   3
ATOM      3  C   UNL     1      52.567  84.347  32.335  1.00  0.00     0.000 C 
BRANCH   3   4
ATOM      4  C   UNL     1      51.413  85.042  33.067  1.00  0.00     0.006 C 
BRANCH   4   5
ATOM      5  C   UNL     1      50.156  85.086  32.194  1.00  0.00     0.053 C 
BRANCH   5   6
ATOM      6  C   UNL     1      49.299  83.886  32.450  1.00  0.00     0.041 C 
ATOM      7  O   UNL     1      49.361  82.889  31.683  1.00  0.00    -0.550 OA
ATOM      8  O   UNL     1      48.468  83.849  33.562  1.00  0.00    -0.550 OA
ENDBRANCH   5   6
ENDBRANCH   4   5
ENDBRANCH   3   4
ENDBRANCH   2   3
ENDBRANCH   1   2
BRANCH   1   9
ATOM      9  C   UNL     1      52.581  82.434  30.457  1.00  0.00     0.000 C 
BRANCH   9  10
ATOM     10  C   UNL     1      53.630  81.332  30.238  1.00  0.00    -0.000 C 
BRANCH  10  11
ATOM     11  C   UNL     1      55.032  81.745  30.720  1.00  0.00    -0.000 C 
BRANCH  11  12
ATOM     12  C   UNL     1      55.136  81.798  32.253  1.00  0.00    -0.000 C 
BRANCH  12  13
ATOM     13  C   UNL     1      55.915  83.023  32.752  1.00  0.00    -0.003 C 
ATOM     14  C   UNL     1      56.431  83.858  31.584  1.00  0.00     0.004 C 
ENDBRANCH  12  13
ENDBRANCH  11  12
ENDBRANCH  10  11
ENDBRANCH   9  10
ENDBRANCH   1   9
TORSDOF 10
ENDMDL
MODEL 6
REMARK VINA RESULT:    -2.655      2.823      5.264
REMARK INTER + INTRA:          -5.615
REMARK INTER:                  -4.212
REMARK INTRA:                  -1.403
REMARK UNBOUND:                -1.408
REMARK SMILES CCCCCCCCCCCC(=O)[O-]
REMARK SMILES IDX 7 1 8 2 9 3 10 4 11 5 12 6 13 7 14 8 6 9 5 10 4 11 3 12 2 13
REMARK SMILES IDX 1 14
REMARK H PARENT
REMARK Flexibility Score: inf
ROOT
ATOM      1  C   UNL     1      53.143  81.769  30.117  1.00  0.00     0.000 C 
ENDROOT
BRANCH   1   2
ATOM      2  C   UNL     1      52.579  81.396  31.493  1.00  0.00     0.000 C 
BRANCH   2   3
ATOM      3  C   UNL     1      53.563  81.765  32.610  1.00  0.00     0.000 C 
BRANCH   3   4
ATOM      4  C   UNL     1      55.006  81.775  32.092  1.00  0.00     0.006 C 
BRANCH   4   5
ATOM      5  C   UNL     1      55.821  82.885  32.760  1.00  0.00     0.053 C 
BRANCH   5   6
ATOM      6  C   UNL     1      56.076  84.000  31.795  1.00  0.00     0.041 C 
ATOM      7  O   UNL     1      57.079  83.962  31.034  1.00  0.00    -0.550 OA
ATOM      8  O   UNL     1      55.181  85.057  31.702  1.00  0.00    -0.550 OA
ENDBRANCH   5   6
ENDBRANCH   4   5
ENDBRANCH   3   4
ENDBRANCH   2   3
ENDBRANCH   1   2
BRANCH   1   9
ATOM      9  C   UNL     1      52.172  82.682  29.354  1.00  0.00     0.000 C 
BRANCH   9  10
ATOM     10  C   UNL     1      52.475  84.176  29.559  1.00  0.00    -0.000 C 
BRANCH  10  11
ATOM     11  C   UNL     1      51.368  84.900  30.344  1.00  0.00    -0.000 C 
BRANCH  11  12
ATOM     12  C   UNL     1      51.626  84.905  31.860  1.00  0.00    -0.000 C 
BRANCH  12  13
ATOM     13  C   UNL     1      50.413  84.423  32.668  1.00  0.00    -0.003 C 
ATOM     14  C   UNL     1      49.542  83.481  31.842  1.00  0.00     0.004 C 
ENDBRANCH  12  13
ENDBRANCH  11  12
ENDBRANCH  10  11
ENDBRANCH   9  10
ENDBRANCH   1   9
TORSDOF 10
ENDMDL
MODEL 7
REMARK VINA RESULT:    -2.606      1.933      2.848
REMARK INTER + INTRA:          -5.537
REMARK INTER:                  -4.312
REMARK INTRA:                  -1.225
REMARK UNBOUND:                -1.408
REMARK SMILES CCCCCCCCCCCC(=O)[O-]
REMARK SMILES IDX 7 1 8 2 9 3 10 4 11 5 12 6 13 7 14 8 6 9 5 10 4 11 3 12 2 13
REMARK SMILES IDX 1 14
REMARK H PARENT
REMARK Flexibility Score: inf
ROOT
ATOM      1  C   UNL     1      53.050  82.371  31.390  1.00  0.00     0.000 C 
ENDROOT
BRANCH   1   2
ATOM      2  C   UNL     1      51.709  81.642  31.545  1.00  0.00     0.000 C 
BRANCH   2   3
ATOM      3  C   UNL     1      50.619  82.307  30.696  1.00  0.00     0.000 C 
BRANCH   3   4
ATOM      4  C   UNL     1      49.627  83.075  31.578  1.00  0.00     0.006 C 
BRANCH   4   5
ATOM      5  C   UNL     1      50.027  84.548  31.701  1.00  0.00     0.053 C 
BRANCH   5   6
ATOM      6  C   UNL     1      50.476  84.853  33.095  1.00  0.00     0.041 C 
ATOM      7  O   UNL     1      51.701  85.000  33.348  1.00  0.00    -0.550 OA
ATOM      8  O   UNL     1      49.539  85.024  34.105  1.00  0.00    -0.550 OA
ENDBRANCH   5   6
ENDBRANCH   4   5
ENDBRANCH   3   4
ENDBRANCH   2   3
ENDBRANCH   1   2
BRANCH   1   9
ATOM      9  C   UNL     1      53.173  83.006  29.997  1.00  0.00     0.000 C 
BRANCH   9  10
ATOM     10  C   UNL     1      53.322  84.536  30.052  1.00  0.00    -0.000 C 
BRANCH  10  11
ATOM     11  C   UNL     1      54.356  84.992  31.095  1.00  0.00    -0.000 C 
BRANCH  11  12
ATOM     12  C   UNL     1      55.792  84.983  30.545  1.00  0.00    -0.000 C 
BRANCH  12  13
ATOM     13  C   UNL     1      56.676  83.921  31.214  1.00  0.00    -0.003 C 
ATOM     14  C   UNL     1      56.223  83.653  32.646  1.00  0.00     0.004 C 
ENDBRANCH  12  13
ENDBRANCH  11  12
ENDBRANCH  10  11
ENDBRANCH   9  10
ENDBRANCH   1   9
TORSDOF 10
ENDMDL
MODEL 8
REMARK VINA RESULT:    -2.600      1.563      3.024
REMARK INTER + INTRA:          -5.528
REMARK INTER:                  -4.307
REMARK INTRA:                  -1.221
REMARK UNBOUND:                -1.408
REMARK SMILES CCCCCCCCCCCC(=O)[O-]
REMARK SMILES IDX 7 1 8 2 9 3 10 4 11 5 12 6 13 7 14 8 6 9 5 10 4 11 3 12 2 13
REMARK SMILES IDX 1 14
REMARK H PARENT
REMARK Flexibility Score: inf
ROOT
ATOM      1  C   UNL     1      54.206  85.125  32.632  1.00  0.00     0.000 C 
ENDROOT
BRANCH   1   2
ATOM      2  C   UNL     1      52.871  85.125  31.876  1.00  0.00     0.000 C 
BRANCH   2   3
ATOM      3  C   UNL     1      51.751  84.530  32.737  1.00  0.00     0.000 C 
BRANCH   3   4
ATOM      4  C   UNL     1      50.371  84.932  32.201  1.00  0.00     0.006 C 
BRANCH   4   5
ATOM      5  C   UNL     1      50.365  84.964  30.671  1.00  0.00     0.053 C 
BRANCH   5   6
ATOM      6  C   UNL     1      49.614  83.789  30.126  1.00  0.00     0.041 C 
ATOM      7  O   UNL     1      49.487  83.642  28.882  1.00  0.00    -0.550 OA
ATOM      8  O   UNL     1      49.098  82.833  30.990  1.00  0.00    -0.550 OA
ENDBRANCH   5   6
ENDBRANCH   4   5
ENDBRANCH   3   4
ENDBRANCH   2   3
ENDBRANCH   1   2
BRANCH   1   9
ATOM      9  C   UNL     1      55.260  84.295  31.884  1.00  0.00     0.000 C 
BRANCH   9  10
ATOM     10  C   UNL     1      55.652  83.013  32.638  1.00  0.00    -0.000 C 
BRANCH  10  11
ATOM     11  C   UNL     1      55.003  81.753  32.039  1.00  0.00    -0.000 C 
BRANCH  11  12
ATOM     12  C   UNL     1      54.996  81.769  30.501  1.00  0.00    -0.000 C 
BRANCH  12  13
ATOM     13  C   UNL     1      53.654  81.316  29.910  1.00  0.00    -0.003 C 
ATOM     14  C   UNL     1      52.527  81.468  30.928  1.00  0.00     0.004 C 
ENDBRANCH  12  13
ENDBRANCH  11  12
ENDBRANCH  10  11
ENDBRANCH   9  10
ENDBRANCH   1   9
TORSDOF 10
ENDMDL
