MODEL 1
REMARK VINA RESULT:    -4.986      0.000      0.000
REMARK INTER + INTRA:         -10.754
REMARK INTER:                  -9.067
REMARK INTRA:                  -1.687
REMARK UNBOUND:                -1.687
REMARK SMILES CCCCCCCCCCCCCCCC(=O)[O-]
REMARK SMILES IDX 9 1 10 2 11 3 12 4 13 5 14 6 15 7 16 8 17 9 18 10 8 11 7 12
REMARK SMILES IDX 6 13 5 14 4 15 3 16 2 17 1 18
REMARK H PARENT
REMARK Flexibility Score: inf
ROOT
ATOM      1  C   UNL     1       4.772   1.705  12.916  1.00  0.00     0.000 C 
ENDROOT
BRANCH   1   2
ATOM      2  C   UNL     1       4.572   3.222  13.082  1.00  0.00     0.000 C 
BRANCH   2   3
ATOM      3  C   UNL     1       3.708   3.570  14.304  1.00  0.00     0.000 C 
BRANCH   3   4
ATOM      4  C   UNL     1       4.485   3.460  15.627  1.00  0.00     0.000 C 
BRANCH   4   5
ATOM      5  C   UNL     1       4.119   2.202  16.434  1.00  0.00     0.000 C 
BRANCH   5   6
ATOM      6  C   UNL     1       2.720   1.630  16.141  1.00  0.00     0.006 C 
BRANCH   6   7
ATOM      7  C   UNL     1       2.766   0.273  15.426  1.00  0.00     0.053 C 
BRANCH   7   8
ATOM      8  C   UNL     1       1.386  -0.168  15.053  1.00  0.00     0.041 C 
ATOM      9  O   UNL     1       0.400   0.586  15.268  1.00  0.00    -0.550 OA
ATOM     10  O   UNL     1       1.193  -1.390  14.424  1.00  0.00    -0.550 OA
ENDBRANCH   7   8
ENDBRANCH   6   7
ENDBRANCH   5   6
ENDBRANCH   4   5
ENDBRANCH   3   4
ENDBRANCH   2   3
ENDBRANCH   1   2
BRANCH   1  11
ATOM     11  C   UNL     1       6.256   1.305  12.897  1.00  0.00     0.000 C 
BRANCH  11  12
ATOM     12  C   UNL     1       6.544   0.067  13.765  1.00  0.00    -0.000 C 
BRANCH  12  13
ATOM     13  C   UNL     1       5.738  -1.164  13.318  1.00  0.00    -0.000 C 
BRANCH  13  14
ATOM     14  C   UNL     1       5.184  -1.968  14.507  1.00  0.00    -0.000 C 
BRANCH  14  15
ATOM     15  C   UNL     1       5.992  -1.750  15.797  1.00  0.00    -0.000 C 
BRANCH  15  16
ATOM     16  C   UNL     1       5.101  -1.427  17.005  1.00  0.00    -0.000 C 
BRANCH  16  17
ATOM     17  C   UNL     1       5.942  -1.256  18.275  1.00  0.00    -0.003 C 
ATOM     18  C   UNL     1       5.329  -0.213  19.207  1.00  0.00     0.004 C 
ENDBRANCH  16  17
ENDBRANCH  15  16
ENDBRANCH  14  15
ENDBRANCH  13  14
ENDBRANCH  12  13
ENDBRANCH  11  12
ENDBRANCH   1  11
TORSDOF 14
ENDMDL
MODEL 2
REMARK VINA RESULT:    -4.935      1.132      3.366
REMARK INTER + INTRA:         -10.660
REMARK INTER:                  -8.480
REMARK INTRA:                  -2.180
REMARK UNBOUND:                -1.687
REMARK SMILES CCCCCCCCCCCCCCCC(=O)[O-]
REMARK SMILES IDX 9 1 10 2 11 3 12 4 13 5 14 6 15 7 16 8 17 9 18 10 8 11 7 12
REMARK SMILES IDX 6 13 5 14 4 15 3 16 2 17 1 18
REMARK H PARENT
REMARK Flexibility Score: inf
ROOT
ATOM      1  C   UNL     1       4.742   3.257  13.454  1.00  0.00     0.000 C 
ENDROOT
BRANCH   1   2
ATOM      2  C   UNL     1       4.891   1.822  12.917  1.00  0.00     0.000 C 
BRANCH   2   3
ATOM      3  C   UNL     1       6.289   1.240  13.178  1.00  0.00     0.000 C 
BRANCH   3   4
ATOM      4  C   UNL     1       6.348   0.402  14.467  1.00  0.00     0.000 C 
BRANCH   4   5
ATOM      5  C   UNL     1       6.241  -1.111  14.202  1.00  0.00     0.000 C 
BRANCH   5   6
ATOM      6  C   UNL     1       4.971  -1.778  14.762  1.00  0.00     0.006 C 
BRANCH   6   7
ATOM      7  C   UNL     1       3.710  -1.429  13.963  1.00  0.00     0.053 C 
BRANCH   7   8
ATOM      8  C   UNL     1       2.494  -1.550  14.826  1.00  0.00     0.041 C 
ATOM      9  O   UNL     1       2.610  -1.832  16.048  1.00  0.00    -0.550 OA
ATOM     10  O   UNL     1       1.236  -1.302  14.294  1.00  0.00    -0.550 OA
ENDBRANCH   7   8
ENDBRANCH   6   7
ENDBRANCH   5   6
ENDBRANCH   4   5
ENDBRANCH   3   4
ENDBRANCH   2   3
ENDBRANCH   1   2
BRANCH   1  11
ATOM     11  C   UNL     1       3.985   3.309  14.790  1.00  0.00     0.000 C 
BRANCH  11  12
ATOM     12  C   UNL     1       3.031   2.116  14.974  1.00  0.00    -0.000 C 
BRANCH  12  13
ATOM     13  C   UNL     1       2.913   1.678  16.443  1.00  0.00    -0.000 C 
BRANCH  13  14
ATOM     14  C   UNL     1       4.283   1.555  17.133  1.00  0.00    -0.000 C 
BRANCH  14  15
ATOM     15  C   UNL     1       4.178   1.599  18.666  1.00  0.00    -0.000 C 
BRANCH  15  16
ATOM     16  C   UNL     1       4.698   0.316  19.331  1.00  0.00    -0.000 C 
BRANCH  16  17
ATOM     17  C   UNL     1       5.036  -0.748  18.280  1.00  0.00    -0.003 C 
ATOM     18  C   UNL     1       6.336  -1.469  18.623  1.00  0.00     0.004 C 
ENDBRANCH  16  17
ENDBRANCH  15  16
ENDBRANCH  14  15
ENDBRANCH  13  14
ENDBRANCH  12  13
ENDBRANCH  11  12
ENDBRANCH   1  11
TORSDOF 14
ENDMDL
MODEL 3
REMARK VINA RESULT:    -4.845      2.375      4.867
REMARK INTER + INTRA:         -10.497
REMARK INTER:                  -8.518
REMARK INTRA:                  -1.979
REMARK UNBOUND:                -1.687
REMARK SMILES CCCCCCCCCCCCCCCC(=O)[O-]
REMARK SMILES IDX 9 1 10 2 11 3 12 4 13 5 14 6 15 7 16 8 17 9 18 10 8 11 7 12
REMARK SMILES IDX 6 13 5 14 4 15 3 16 2 17 1 18
REMARK H PARENT
REMARK Flexibility Score: inf
ROOT
ATOM      1  C   UNL     1       6.184   1.661  12.875  1.00  0.00     0.000 C 
ENDROOT
BRANCH   1   2
ATOM      2  C   UNL     1       6.574   0.576  13.893  1.00  0.00     0.000 C 
BRANCH   2   3
ATOM      3  C   UNL     1       6.582  -0.832  13.277  1.00  0.00     0.000 C 
BRANCH   3   4
ATOM      4  C   UNL     1       6.647  -1.942  14.340  1.00  0.00     0.000 C 
BRANCH   4   5
ATOM      5  C   UNL     1       5.527  -1.831  15.390  1.00  0.00     0.000 C 
BRANCH   5   6
ATOM      6  C   UNL     1       6.013  -1.643  16.839  1.00  0.00     0.006 C 
BRANCH   6   7
ATOM      7  C   UNL     1       4.880  -1.284  17.808  1.00  0.00     0.053 C 
BRANCH   7   8
ATOM      8  C   UNL     1       5.432  -0.644  19.043  1.00  0.00     0.041 C 
ATOM      9  O   UNL     1       4.767   0.235  19.652  1.00  0.00    -0.550 OA
ATOM     10  O   UNL     1       6.659  -1.052  19.549  1.00  0.00    -0.550 OA
ENDBRANCH   7   8
ENDBRANCH   6   7
ENDBRANCH   5   6
ENDBRANCH   4   5
ENDBRANCH   3   4
ENDBRANCH   2   3
ENDBRANCH   1   2
BRANCH   1  11
ATOM     11  C   UNL     1       4.675   1.957  12.880  1.00  0.00     0.000 C 
BRANCH  11  12
ATOM     12  C   UNL     1       4.365   3.430  13.199  1.00  0.00    -0.000 C 
BRANCH  12  13
ATOM     13  C   UNL     1       3.632   3.600  14.540  1.00  0.00    -0.000 C 
BRANCH  13  14
ATOM     14  C   UNL     1       4.508   3.209  15.744  1.00  0.00    -0.000 C 
BRANCH  14  15
ATOM     15  C   UNL     1       4.087   1.869  16.370  1.00  0.00    -0.000 C 
BRANCH  15  16
ATOM     16  C   UNL     1       2.642   1.482  16.022  1.00  0.00    -0.000 C 
BRANCH  16  17
ATOM     17  C   UNL     1       2.567   0.033  15.529  1.00  0.00    -0.003 C 
ATOM     18  C   UNL     1       1.682  -0.084  14.292  1.00  0.00     0.004 C 
ENDBRANCH  16  17
ENDBRANCH  15  16
ENDBRANCH  14  15
ENDBRANCH  13  14
ENDBRANCH  12  13
ENDBRANCH  11  12
ENDBRANCH   1  11
TORSDOF 14
ENDMDL
MODEL 4
REMARK VINA RESULT:    -4.776      2.479      3.766
REMARK INTER + INTRA:         -10.373
REMARK INTER:                  -8.588
REMARK INTRA:                  -1.785
REMARK UNBOUND:                -1.687
REMARK SMILES CCCCCCCCCCCCCCCC(=O)[O-]
REMARK SMILES IDX 9 1 10 2 11 3 12 4 13 5 14 6 15 7 16 8 17 9 18 10 8 11 7 12
REMARK SMILES IDX 6 13 5 14 4 15 3 16 2 17 1 18
REMARK H PARENT
REMARK Flexibility Score: inf
ROOT
ATOM      1  C   UNL     1       4.804   3.228  12.875  1.00  0.00     0.000 C 
ENDROOT
BRANCH   1   2
ATOM      2  C   UNL     1       3.714   3.527  13.919  1.00  0.00     0.000 C 
BRANCH   2   3
ATOM      3  C   UNL     1       4.240   3.438  15.360  1.00  0.00     0.000 C 
BRANCH   3   4
ATOM      4  C   UNL     1       3.493   2.384  16.196  1.00  0.00     0.000 C 
BRANCH   4   5
ATOM      5  C   UNL     1       4.322   1.866  17.385  1.00  0.00     0.000 C 
BRANCH   5   6
ATOM      6  C   UNL     1       5.470   0.912  17.006  1.00  0.00     0.006 C 
BRANCH   6   7
ATOM      7  C   UNL     1       5.210  -0.537  17.434  1.00  0.00     0.053 C 
BRANCH   7   8
ATOM      8  C   UNL     1       5.500  -0.712  18.891  1.00  0.00     0.041 C 
ATOM      9  O   UNL     1       6.537  -1.322  19.263  1.00  0.00    -0.550 OA
ATOM     10  O   UNL     1       4.649  -0.159  19.840  1.00  0.00    -0.550 OA
ENDBRANCH   7   8
ENDBRANCH   6   7
ENDBRANCH   5   6
ENDBRANCH   4   5
ENDBRANCH   3   4
ENDBRANCH   2   3
ENDBRANCH   1   2
BRANCH   1  11
ATOM     11  C   UNL     1       5.619   1.971  13.220  1.00  0.00     0.000 C 
BRANCH  11  12
ATOM     12  C   UNL     1       4.816   0.674  13.015  1.00  0.00    -0.000 C 
BRANCH  12  13
ATOM     13  C   UNL     1       5.660  -0.586  13.266  1.00  0.00    -0.000 C 
BRANCH  13  14
ATOM     14  C   UNL     1       4.910  -1.642  14.098  1.00  0.00    -0.000 C 
BRANCH  14  15
ATOM     15  C   UNL     1       3.475  -1.878  13.599  1.00  0.00    -0.000 C 
BRANCH  15  16
ATOM     16  C   UNL     1       2.456  -1.952  14.744  1.00  0.00    -0.000 C 
BRANCH  16  17
ATOM     17  C   UNL     1       2.083  -0.549  15.238  1.00  0.00    -0.003 C 
ATOM     18  C   UNL     1       0.679  -0.159  14.782  1.00  0.00     0.004 C 
ENDBRANCH  16  17
ENDBRANCH  15  16
ENDBRANCH  14  15
ENDBRANCH  13  14
ENDBRANCH  12  13
ENDBRANCH  11  12
ENDBRANCH   1  11
TORSDOF 14
ENDMDL
MODEL 5
REMARK VINA RESULT:    -4.694      1.840      4.204
REMARK INTER + INTRA:         -10.223
REMARK INTER:                  -8.133
REMARK INTRA:                  -2.090
REMARK UNBOUND:                -1.687
REMARK SMILES CCCCCCCCCCCCCCCC(=O)[O-]
REMARK SMILES IDX 9 1 10 2 11 3 12 4 13 5 14 6 15 7 16 8 17 9 18 10 8 11 7 12
REMARK SMILES IDX 6 13 5 14 4 15 3 16 2 17 1 18
REMARK H PARENT
REMARK Flexibility Score: inf
ROOT
ATOM      1  C   UNL     1       5.218  -1.451  16.935  1.00  0.00     0.000 C 
ENDROOT
BRANCH   1   2
ATOM      2  C   UNL     1       5.852  -0.397  17.859  1.00  0.00     0.000 C 
BRANCH   2   3
ATOM      3  C   UNL     1       4.840   0.198  18.852  1.00  0.00     0.000 C 
BRANCH   3   4
ATOM      4  C   UNL     1       4.390   1.615  18.456  1.00  0.00     0.000 C 
BRANCH   4   5
ATOM      5  C   UNL     1       3.873   1.696  17.009  1.00  0.00     0.000 C 
BRANCH   5   6
ATOM      6  C   UNL     1       4.833   2.376  16.016  1.00  0.00     0.006 C 
BRANCH   6   7
ATOM      7  C   UNL     1       4.386   3.790  15.623  1.00  0.00     0.053 C 
BRANCH   7   8
ATOM      8  C   UNL     1       3.400   3.733  14.499  1.00  0.00     0.041 C 
ATOM      9  O   UNL     1       2.165   3.690  14.741  1.00  0.00    -0.550 OA
ATOM     10  O   UNL     1       3.843   3.777  13.183  1.00  0.00    -0.550 OA
ENDBRANCH   7   8
ENDBRANCH   6   7
ENDBRANCH   5   6
ENDBRANCH   4   5
ENDBRANCH   3   4
ENDBRANCH   2   3
ENDBRANCH   1   2
BRANCH   1  11
ATOM     11  C   UNL     1       6.160  -1.880  15.799  1.00  0.00     0.000 C 
BRANCH  11  12
ATOM     12  C   UNL     1       6.388  -0.760  14.768  1.00  0.00    -0.000 C 
BRANCH  12  13
ATOM     13  C   UNL     1       5.527  -0.936  13.507  1.00  0.00    -0.000 C 
BRANCH  13  14
ATOM     14  C   UNL     1       4.686   0.313  13.188  1.00  0.00    -0.000 C 
BRANCH  14  15
ATOM     15  C   UNL     1       3.184   0.091  13.426  1.00  0.00    -0.000 C 
BRANCH  15  16
ATOM     16  C   UNL     1       2.881  -1.278  14.054  1.00  0.00    -0.000 C 
BRANCH  16  17
ATOM     17  C   UNL     1       1.893  -1.140  15.218  1.00  0.00    -0.003 C 
ATOM     18  C   UNL     1       0.948   0.038  15.002  1.00  0.00     0.004 C 
ENDBRANCH  16  17
ENDBRANCH  15  16
ENDBRANCH  14  15
ENDBRANCH  13  14
ENDBRANCH  12  13
ENDBRANCH  11  12
ENDBRANCH   1  11
TORSDOF 14
ENDMDL
MODEL 6
REMARK VINA RESULT:    -4.673      1.119      5.031
REMARK INTER + INTRA:         -10.184
REMARK INTER:                  -8.188
REMARK INTRA:                  -1.996
REMARK UNBOUND:                -1.687
REMARK SMILES CCCCCCCCCCCCCCCC(=O)[O-]
REMARK SMILES IDX 9 1 10 2 11 3 12 4 13 5 14 6 15 7 16 8 17 9 18 10 8 11 7 12
REMARK SMILES IDX 6 13 5 14 4 15 3 16 2 17 1 18
REMARK H PARENT
REMARK Flexibility Score: inf
ROOT
ATOM      1  C   UNL     1       5.114  -1.054  17.739  1.00  0.00     0.000 C 
ENDROOT
BRANCH   1   2
ATOM      2  C   UNL     1       6.191  -1.715  16.861  1.00  0.00     0.000 C 
BRANCH   2   3
ATOM      3  C   UNL     1       5.776  -1.793  15.383  1.00  0.00     0.000 C 
BRANCH   3   4
ATOM      4  C   UNL     1       6.299  -0.602  14.560  1.00  0.00     0.000 C 
BRANCH   4   5
ATOM      5  C   UNL     1       5.514  -0.389  13.253  1.00  0.00     0.000 C 
BRANCH   5   6
ATOM      6  C   UNL     1       4.057  -0.883  13.284  1.00  0.00     0.006 C 
BRANCH   6   7
ATOM      7  C   UNL     1       3.088   0.145  13.881  1.00  0.00     0.053 C 
BRANCH   7   8
ATOM      8  C   UNL     1       2.040  -0.538  14.701  1.00  0.00     0.041 C 
ATOM      9  O   UNL     1       2.357  -1.135  15.764  1.00  0.00    -0.550 OA
ATOM     10  O   UNL     1       0.707  -0.474  14.319  1.00  0.00    -0.550 OA
ENDBRANCH   7   8
ENDBRANCH   6   7
ENDBRANCH   5   6
ENDBRANCH   4   5
ENDBRANCH   3   4
ENDBRANCH   2   3
ENDBRANCH   1   2
BRANCH   1  11
ATOM     11  C   UNL     1       5.558   0.313  18.284  1.00  0.00     0.000 C 
BRANCH  11  12
ATOM     12  C   UNL     1       4.381   1.293  18.443  1.00  0.00    -0.000 C 
BRANCH  12  13
ATOM     13  C   UNL     1       3.831   1.777  17.091  1.00  0.00    -0.000 C 
BRANCH  13  14
ATOM     14  C   UNL     1       4.939   2.292  16.155  1.00  0.00    -0.000 C 
BRANCH  14  15
ATOM     15  C   UNL     1       4.629   3.685  15.585  1.00  0.00    -0.000 C 
BRANCH  15  16
ATOM     16  C   UNL     1       3.336   3.711  14.756  1.00  0.00    -0.000 C 
BRANCH  16  17
ATOM     17  C   UNL     1       3.643   3.930  13.270  1.00  0.00    -0.003 C 
ATOM     18  C   UNL     1       5.002   3.346  12.895  1.00  0.00     0.004 C 
ENDBRANCH  16  17
ENDBRANCH  15  16
ENDBRANCH  14  15
ENDBRANCH  13  14
ENDBRANCH  12  13
ENDBRANCH  11  12
ENDBRANCH   1  11
TORSDOF 14
ENDMDL
MODEL 7
REMARK VINA RESULT:    -4.641      1.182      3.394
REMARK INTER + INTRA:         -10.127
REMARK INTER:                  -8.292
REMARK INTRA:                  -1.835
REMARK UNBOUND:                -1.687
REMARK SMILES CCCCCCCCCCCCCCCC(=O)[O-]
REMARK SMILES IDX 9 1 10 2 11 3 12 4 13 5 14 6 15 7 16 8 17 9 18 10 8 11 7 12
REMARK SMILES IDX 6 13 5 14 4 15 3 16 2 17 1 18
REMARK H PARENT
REMARK Flexibility Score: inf
ROOT
ATOM      1  C   UNL     1       3.379   3.500  14.758  1.00  0.00     0.000 C 
ENDROOT
BRANCH   1   2
ATOM      2  C   UNL     1       4.636   3.489  13.870  1.00  0.00     0.000 C 
BRANCH   2   3
ATOM      3  C   UNL     1       4.726   2.229  12.995  1.00  0.00     0.000 C 
BRANCH   3   4
ATOM      4  C   UNL     1       5.968   1.378  13.313  1.00  0.00     0.000 C 
BRANCH   4   5
ATOM      5  C   UNL     1       5.669  -0.132  13.329  1.00  0.00     0.000 C 
BRANCH   5   6
ATOM      6  C   UNL     1       4.195  -0.504  13.088  1.00  0.00     0.006 C 
BRANCH   6   7
ATOM      7  C   UNL     1       3.762  -1.762  13.851  1.00  0.00     0.053 C 
BRANCH   7   8
ATOM      8  C   UNL     1       2.517  -1.495  14.636  1.00  0.00     0.041 C 
ATOM      9  O   UNL     1       1.482  -1.071  14.057  1.00  0.00    -0.550 OA
ATOM     10  O   UNL     1       2.483  -1.761  15.998  1.00  0.00    -0.550 OA
ENDBRANCH   7   8
ENDBRANCH   6   7
ENDBRANCH   5   6
ENDBRANCH   4   5
ENDBRANCH   3   4
ENDBRANCH   2   3
ENDBRANCH   1   2
BRANCH   1  11
ATOM     11  C   UNL     1       2.853   2.086  15.050  1.00  0.00     0.000 C 
BRANCH  11  12
ATOM     12  C   UNL     1       2.836   1.764  16.555  1.00  0.00    -0.000 C 
BRANCH  12  13
ATOM     13  C   UNL     1       4.239   1.462  17.108  1.00  0.00    -0.000 C 
BRANCH  13  14
ATOM     14  C   UNL     1       4.308   1.587  18.641  1.00  0.00    -0.000 C 
BRANCH  14  15
ATOM     15  C   UNL     1       4.678   0.261  19.325  1.00  0.00    -0.000 C 
BRANCH  15  16
ATOM     16  C   UNL     1       6.083  -0.228  18.943  1.00  0.00    -0.000 C 
BRANCH  16  17
ATOM     17  C   UNL     1       6.033  -1.656  18.387  1.00  0.00    -0.003 C 
ATOM     18  C   UNL     1       5.883  -1.650  16.868  1.00  0.00     0.004 C 
ENDBRANCH  16  17
ENDBRANCH  15  16
ENDBRANCH  14  15
ENDBRANCH  13  14
ENDBRANCH  12  13
ENDBRANCH  11  12
ENDBRANCH   1  11
TORSDOF 14
ENDMDL
MODEL 8
REMARK VINA RESULT:    -4.601      0.958      4.850
REMARK INTER + INTRA:         -10.054
REMARK INTER:                  -8.305
REMARK INTRA:                  -1.750
REMARK UNBOUND:                -1.687
REMARK SMILES CCCCCCCCCCCCCCCC(=O)[O-]
REMARK SMILES IDX 9 1 10 2 11 3 12 4 13 5 14 6 15 7 16 8 17 9 18 10 8 11 7 12
REMARK SMILES IDX 6 13 5 14 4 15 3 16 2 17 1 18
REMARK H PARENT
REMARK Flexibility Score: inf
ROOT
ATOM      1  C   UNL     1       4.445   1.644  18.873  1.00  0.00     0.000 C 
ENDROOT
BRANCH   1   2
ATOM      2  C   UNL     1       4.686   0.185  19.299  1.00  0.00     0.000 C 
BRANCH   2   3
ATOM      3  C   UNL     1       5.981  -0.394  18.708  1.00  0.00     0.000 C 
BRANCH   3   4
ATOM      4  C   UNL     1       5.734  -1.671  17.885  1.00  0.00     0.000 C 
BRANCH   4   5
ATOM      5  C   UNL     1       5.304  -1.376  16.437  1.00  0.00     0.000 C 
BRANCH   5   6
ATOM      6  C   UNL     1       3.795  -1.517  16.168  1.00  0.00     0.006 C 
BRANCH   6   7
ATOM      7  C   UNL     1       3.331  -0.733  14.934  1.00  0.00     0.053 C 
BRANCH   7   8
ATOM      8  C   UNL     1       1.852  -0.512  14.981  1.00  0.00     0.041 C 
ATOM      9  O   UNL     1       1.383   0.532  15.506  1.00  0.00    -0.550 OA
ATOM     10  O   UNL     1       0.993  -1.436  14.400  1.00  0.00    -0.550 OA
ENDBRANCH   7   8
ENDBRANCH   6   7
ENDBRANCH   5   6
ENDBRANCH   4   5
ENDBRANCH   3   4
ENDBRANCH   2   3
ENDBRANCH   1   2
BRANCH   1  11
ATOM     11  C   UNL     1       3.742   1.750  17.510  1.00  0.00     0.000 C 
BRANCH  11  12
ATOM     12  C   UNL     1       4.703   2.173  16.383  1.00  0.00    -0.000 C 
BRANCH  12  13
ATOM     13  C   UNL     1       4.368   3.562  15.816  1.00  0.00    -0.000 C 
BRANCH  13  14
ATOM     14  C   UNL     1       3.542   3.486  14.520  1.00  0.00    -0.000 C 
BRANCH  14  15
ATOM     15  C   UNL     1       4.423   3.355  13.266  1.00  0.00    -0.000 C 
BRANCH  15  16
ATOM     16  C   UNL     1       4.730   1.893  12.909  1.00  0.00    -0.000 C 
BRANCH  16  17
ATOM     17  C   UNL     1       6.242   1.644  12.875  1.00  0.00    -0.003 C 
ATOM     18  C   UNL     1       6.614   0.401  13.679  1.00  0.00     0.004 C 
ENDBRANCH  16  17
ENDBRANCH  15  16
ENDBRANCH  14  15
ENDBRANCH  13  14
ENDBRANCH  12  13
ENDBRANCH  11  12
ENDBRANCH   1  11
TORSDOF 14
ENDMDL
MODEL 9
REMARK VINA RESULT:    -4.449      2.215      3.498
REMARK INTER + INTRA:          -9.776
REMARK INTER:                  -7.720
REMARK INTRA:                  -2.056
REMARK UNBOUND:                -1.687
REMARK SMILES CCCCCCCCCCCCCCCC(=O)[O-]
REMARK SMILES IDX 9 1 10 2 11 3 12 4 13 5 14 6 15 7 16 8 17 9 18 10 8 11 7 12
REMARK SMILES IDX 6 13 5 14 4 15 3 16 2 17 1 18
REMARK H PARENT
REMARK Flexibility Score: inf
ROOT
ATOM      1  C   UNL     1       4.526  -0.279  13.109  1.00  0.00     0.000 C 
ENDROOT
BRANCH   1   2
ATOM      2  C   UNL     1       3.873  -1.648  13.369  1.00  0.00     0.000 C 
BRANCH   2   3
ATOM      3  C   UNL     1       2.627  -1.544  14.263  1.00  0.00     0.000 C 
BRANCH   3   4
ATOM      4  C   UNL     1       1.983  -0.147  14.217  1.00  0.00     0.000 C 
BRANCH   4   5
ATOM      5  C   UNL     1       1.851   0.496  15.609  1.00  0.00     0.000 C 
BRANCH   5   6
ATOM      6  C   UNL     1       2.872   1.609  15.907  1.00  0.00     0.006 C 
BRANCH   6   7
ATOM      7  C   UNL     1       2.859   2.731  14.861  1.00  0.00     0.053 C 
BRANCH   7   8
ATOM      8  C   UNL     1       4.208   3.368  14.761  1.00  0.00     0.041 C 
ATOM      9  O   UNL     1       4.735   3.900  15.774  1.00  0.00    -0.550 OA
ATOM     10  O   UNL     1       4.907   3.332  13.562  1.00  0.00    -0.550 OA
ENDBRANCH   7   8
ENDBRANCH   6   7
ENDBRANCH   5   6
ENDBRANCH   4   5
ENDBRANCH   3   4
ENDBRANCH   2   3
ENDBRANCH   1   2
BRANCH   1  11
ATOM     11  C   UNL     1       6.029  -0.274  13.430  1.00  0.00     0.000 C 
BRANCH  11  12
ATOM     12  C   UNL     1       6.359  -1.051  14.717  1.00  0.00    -0.000 C 
BRANCH  12  13
ATOM     13  C   UNL     1       5.849  -0.339  15.981  1.00  0.00    -0.000 C 
BRANCH  13  14
ATOM     14  C   UNL     1       5.120  -1.295  16.941  1.00  0.00    -0.000 C 
BRANCH  14  15
ATOM     15  C   UNL     1       5.934  -1.588  18.213  1.00  0.00    -0.000 C 
BRANCH  15  16
ATOM     16  C   UNL     1       6.024  -0.374  19.149  1.00  0.00    -0.000 C 
BRANCH  16  17
ATOM     17  C   UNL     1       4.631   0.058  19.622  1.00  0.00    -0.003 C 
ATOM     18  C   UNL     1       4.305   1.475  19.158  1.00  0.00     0.004 C 
ENDBRANCH  16  17
ENDBRANCH  15  16
ENDBRANCH  14  15
ENDBRANCH  13  14
ENDBRANCH  12  13
ENDBRANCH  11  12
ENDBRANCH   1  11
TORSDOF 14
ENDMDL
