MODEL 1
REMARK VINA RESULT:    -7.093      0.000      0.000
REMARK INTER + INTRA:         -11.661
REMARK INTER:                  -9.789
REMARK INTRA:                  -1.872
REMARK UNBOUND:                -1.872
REMARK SMILES CC[C@H](CC[C@H](C)[C@@H]1CC[C@@H]2[C@@H]3CC=C4C[C@H](O)CC[C@@]4(C)[C@@H]3CC[C@]21C)C(C)C
REMARK SMILES IDX 5 1 4 2 3 3 2 4 1 5 28 6 29 7 30 8 6 9 7 10 8 11 9 12 26 13
REMARK SMILES IDX 10 14 11 15 25 16 27 17 12 18 24 19 23 20 13 21 21 22 14 23
REMARK SMILES IDX 15 24 20 25 22 26 16 27 19 28 17 29 18 30
REMARK H PARENT 18 31
REMARK Flexibility Score: inf
ROOT
ATOM      1  C   UNL     1     180.467 182.584 184.835  1.00  0.00     0.004 C 
ENDROOT
BRANCH   1   2
ATOM      2  C   UNL     1     179.007 182.903 184.450  1.00  0.00     0.004 C 
BRANCH   2   3
ATOM      3  C   UNL     1     178.775 182.953 182.906  1.00  0.00    -0.009 C 
BRANCH   3   4
ATOM      4  C   UNL     1     177.628 183.934 182.533  1.00  0.00     0.000 C 
ATOM      5  C   UNL     1     177.127 184.746 183.728  1.00  0.00     0.004 C 
ENDBRANCH   3   4
BRANCH   3   6
ATOM      6  C   UNL     1     180.103 183.273 182.147  1.00  0.00    -0.014 C 
ATOM      7  C   UNL     1     180.157 184.706 181.596  1.00  0.00     0.007 C 
ATOM      8  C   UNL     1     180.403 182.263 181.027  1.00  0.00     0.007 C 
ENDBRANCH   3   6
ENDBRANCH   2   3
ENDBRANCH   1   2
BRANCH   1   9
ATOM      9  C   UNL     1     180.628 181.180 185.510  1.00  0.00    -0.011 C 
ATOM     10  C   UNL     1     180.840 181.366 187.025  1.00  0.00     0.008 C 
BRANCH   9  11
ATOM     11  C   UNL     1     181.793 180.359 184.851  1.00  0.00    -0.002 C 
ATOM     12  C   UNL     1     182.629 181.217 183.856  1.00  0.00     0.005 C 
ATOM     13  C   UNL     1     181.440 179.078 184.025  1.00  0.00    -0.026 C 
ATOM     14  C   UNL     1     183.120 180.285 182.740  1.00  0.00     0.005 C 
ATOM     15  C   UNL     1     182.745 178.902 183.237  1.00  0.00    -0.001 C 
ATOM     16  C   UNL     1     181.257 177.780 184.855  1.00  0.00     0.007 C 
ATOM     17  C   UNL     1     180.203 179.350 183.117  1.00  0.00     0.012 C 
ATOM     18  C   UNL     1     182.850 177.690 182.278  1.00  0.00     0.000 C 
ATOM     19  C   UNL     1     181.161 176.539 183.942  1.00  0.00     0.005 C 
ATOM     20  C   UNL     1     182.363 176.359 182.955  1.00  0.00     0.003 C 
ATOM     21  C   UNL     1     182.314 177.849 180.843  1.00  0.00     0.031 C 
ATOM     22  C   UNL     1     182.168 175.157 181.916  1.00  0.00    -0.008 C 
ATOM     23  C   UNL     1     182.828 176.688 180.039  1.00  0.00    -0.027 C 
ATOM     24  C   UNL     1     182.859 175.451 180.576  1.00  0.00    -0.065 C 
ATOM     25  C   UNL     1     182.759 173.840 182.517  1.00  0.00     0.014 C 
ATOM     26  C   UNL     1     180.678 174.887 181.576  1.00  0.00     0.016 C 
ATOM     27  C   UNL     1     183.583 174.328 179.871  1.00  0.00     0.063 C 
ATOM     28  C   UNL     1     184.277 173.736 182.294  1.00  0.00     0.033 C 
ATOM     29  C   UNL     1     184.658 173.709 180.788  1.00  0.00     0.118 C 
BRANCH  29  30
ATOM     30  O   UNL     1     184.897 172.388 180.374  1.00  0.00    -0.393 OA
ATOM     31  H   UNL     1     184.201 171.821 180.800  1.00  0.00     0.210 HD
ENDBRANCH  29  30
ENDBRANCH   9  11
ENDBRANCH   1   9
TORSDOF 7
ENDMDL
MODEL 2
REMARK VINA RESULT:    -7.014      3.460      8.710
REMARK INTER + INTRA:         -11.551
REMARK INTER:                 -10.141
REMARK INTRA:                  -1.410
REMARK UNBOUND:                -1.872
REMARK SMILES CC[C@H](CC[C@H](C)[C@@H]1CC[C@@H]2[C@@H]3CC=C4C[C@H](O)CC[C@@]4(C)[C@@H]3CC[C@]21C)C(C)C
REMARK SMILES IDX 5 1 4 2 3 3 2 4 1 5 28 6 29 7 30 8 6 9 7 10 8 11 9 12 26 13
REMARK SMILES IDX 10 14 11 15 25 16 27 17 12 18 24 19 23 20 13 21 21 22 14 23
REMARK SMILES IDX 15 24 20 25 22 26 16 27 19 28 17 29 18 30
REMARK H PARENT 18 31
REMARK Flexibility Score: inf
ROOT
ATOM      1  C   UNL     1     181.650 174.848 179.179  1.00  0.00     0.004 C 
ENDROOT
BRANCH   1   2
ATOM      2  C   UNL     1     181.976 173.677 178.228  1.00  0.00     0.004 C 
BRANCH   2   3
ATOM      3  C   UNL     1     180.986 172.477 178.368  1.00  0.00    -0.009 C 
BRANCH   3   4
ATOM      4  C   UNL     1     180.480 171.990 176.981  1.00  0.00     0.000 C 
ATOM      5  C   UNL     1     178.956 172.017 176.861  1.00  0.00     0.004 C 
ENDBRANCH   3   4
BRANCH   3   6
ATOM      6  C   UNL     1     181.617 171.323 179.213  1.00  0.00    -0.014 C 
ATOM      7  C   UNL     1     181.500 171.546 180.728  1.00  0.00     0.007 C 
ATOM      8  C   UNL     1     183.078 171.039 178.829  1.00  0.00     0.007 C 
ENDBRANCH   3   6
ENDBRANCH   2   3
ENDBRANCH   1   2
BRANCH   1   9
ATOM      9  C   UNL     1     182.921 175.444 179.873  1.00  0.00    -0.011 C 
ATOM     10  C   UNL     1     184.136 174.547 179.565  1.00  0.00     0.008 C 
BRANCH   9  11
ATOM     11  C   UNL     1     182.699 175.620 181.418  1.00  0.00    -0.002 C 
ATOM     12  C   UNL     1     181.357 174.990 181.896  1.00  0.00     0.005 C 
ATOM     13  C   UNL     1     182.659 177.066 182.014  1.00  0.00    -0.026 C 
ATOM     14  C   UNL     1     180.840 175.836 183.067  1.00  0.00     0.005 C 
ATOM     15  C   UNL     1     181.991 176.779 183.366  1.00  0.00    -0.001 C 
ATOM     16  C   UNL     1     184.041 177.691 182.339  1.00  0.00     0.007 C 
ATOM     17  C   UNL     1     181.816 178.002 181.096  1.00  0.00     0.012 C 
ATOM     18  C   UNL     1     181.774 177.970 184.330  1.00  0.00     0.000 C 
ATOM     19  C   UNL     1     183.891 178.999 183.145  1.00  0.00     0.005 C 
ATOM     20  C   UNL     1     183.059 178.861 184.465  1.00  0.00     0.003 C 
ATOM     21  C   UNL     1     180.492 178.809 184.174  1.00  0.00     0.031 C 
ATOM     22  C   UNL     1     182.787 180.256 185.201  1.00  0.00    -0.008 C 
ATOM     23  C   UNL     1     180.357 179.660 185.406  1.00  0.00    -0.027 C 
ATOM     24  C   UNL     1     181.443 180.248 185.947  1.00  0.00    -0.065 C 
ATOM     25  C   UNL     1     183.935 180.546 186.223  1.00  0.00     0.014 C 
ATOM     26  C   UNL     1     182.722 181.456 184.220  1.00  0.00     0.016 C 
ATOM     27  C   UNL     1     181.362 180.907 187.303  1.00  0.00     0.063 C 
ATOM     28  C   UNL     1     183.703 179.834 187.567  1.00  0.00     0.033 C 
ATOM     29  C   UNL     1     182.399 180.299 188.271  1.00  0.00     0.118 C 
BRANCH  29  30
ATOM     30  O   UNL     1     182.697 181.246 189.265  1.00  0.00    -0.393 OA
ATOM     31  H   UNL     1     182.446 180.839 190.136  1.00  0.00     0.210 HD
ENDBRANCH  29  30
ENDBRANCH   9  11
ENDBRANCH   1   9
TORSDOF 7
ENDMDL
MODEL 3
REMARK VINA RESULT:    -6.850      2.388      4.621
REMARK INTER + INTRA:         -11.326
REMARK INTER:                 -10.145
REMARK INTRA:                  -1.180
REMARK UNBOUND:                -1.872
REMARK SMILES CC[C@H](CC[C@H](C)[C@@H]1CC[C@@H]2[C@@H]3CC=C4C[C@H](O)CC[C@@]4(C)[C@@H]3CC[C@]21C)C(C)C
REMARK SMILES IDX 5 1 4 2 3 3 2 4 1 5 28 6 29 7 30 8 6 9 7 10 8 11 9 12 26 13
REMARK SMILES IDX 10 14 11 15 25 16 27 17 12 18 24 19 23 20 13 21 21 22 14 23
REMARK SMILES IDX 15 24 20 25 22 26 16 27 19 28 17 29 18 30
REMARK H PARENT 18 31
REMARK Flexibility Score: inf
ROOT
ATOM      1  C   UNL     1     180.401 185.048 181.588  1.00  0.00     0.004 C 
ENDROOT
BRANCH   1   2
ATOM      2  C   UNL     1     180.717 186.483 181.117  1.00  0.00     0.004 C 
BRANCH   2   3
ATOM      3  C   UNL     1     181.633 187.268 182.109  1.00  0.00    -0.009 C 
BRANCH   3   4
ATOM      4  C   UNL     1     183.136 186.953 181.869  1.00  0.00     0.000 C 
ATOM      5  C   UNL     1     183.750 186.101 182.981  1.00  0.00     0.004 C 
ENDBRANCH   3   4
BRANCH   3   6
ATOM      6  C   UNL     1     181.330 188.801 182.062  1.00  0.00    -0.014 C 
ATOM      7  C   UNL     1     181.231 189.356 180.633  1.00  0.00     0.007 C 
ATOM      8  C   UNL     1     182.332 189.628 182.884  1.00  0.00     0.007 C 
ENDBRANCH   3   6
ENDBRANCH   2   3
ENDBRANCH   1   2
BRANCH   1   9
ATOM      9  C   UNL     1     181.319 183.969 180.921  1.00  0.00    -0.011 C 
ATOM     10  C   UNL     1     181.657 184.409 179.483  1.00  0.00     0.008 C 
BRANCH   9  11
ATOM     11  C   UNL     1     180.651 182.547 180.957  1.00  0.00    -0.002 C 
ATOM     12  C   UNL     1     179.406 182.505 181.892  1.00  0.00     0.005 C 
ATOM     13  C   UNL     1     181.506 181.325 181.427  1.00  0.00    -0.026 C 
ATOM     14  C   UNL     1     179.330 181.098 182.499  1.00  0.00     0.005 C 
ATOM     15  C   UNL     1     180.386 180.320 181.736  1.00  0.00    -0.001 C 
ATOM     16  C   UNL     1     182.387 180.667 180.333  1.00  0.00     0.007 C 
ATOM     17  C   UNL     1     182.350 181.710 182.679  1.00  0.00     0.012 C 
ATOM     18  C   UNL     1     180.798 178.909 182.222  1.00  0.00     0.000 C 
ATOM     19  C   UNL     1     182.991 179.334 180.824  1.00  0.00     0.005 C 
ATOM     20  C   UNL     1     181.942 178.293 181.341  1.00  0.00     0.003 C 
ATOM     21  C   UNL     1     181.040 178.700 183.728  1.00  0.00     0.031 C 
ATOM     22  C   UNL     1     182.601 176.984 181.986  1.00  0.00    -0.008 C 
ATOM     23  C   UNL     1     181.088 177.218 183.976  1.00  0.00    -0.027 C 
ATOM     24  C   UNL     1     181.724 176.406 183.108  1.00  0.00    -0.065 C 
ATOM     25  C   UNL     1     182.800 175.895 180.881  1.00  0.00     0.014 C 
ATOM     26  C   UNL     1     183.987 177.257 182.627  1.00  0.00     0.016 C 
ATOM     27  C   UNL     1     181.582 174.906 183.218  1.00  0.00     0.063 C 
ATOM     28  C   UNL     1     181.516 175.083 180.636  1.00  0.00     0.033 C 
ATOM     29  C   UNL     1     181.050 174.308 181.898  1.00  0.00     0.118 C 
BRANCH  29  30
ATOM     30  O   UNL     1     181.454 172.965 181.817  1.00  0.00    -0.393 OA
ATOM     31  H   UNL     1     180.668 172.411 182.068  1.00  0.00     0.210 HD
ENDBRANCH  29  30
ENDBRANCH   9  11
ENDBRANCH   1   9
TORSDOF 7
ENDMDL
MODEL 4
REMARK VINA RESULT:    -6.764      2.975      5.464
REMARK INTER + INTRA:         -11.206
REMARK INTER:                 -10.098
REMARK INTRA:                  -1.108
REMARK UNBOUND:                -1.872
REMARK SMILES CC[C@H](CC[C@H](C)[C@@H]1CC[C@@H]2[C@@H]3CC=C4C[C@H](O)CC[C@@]4(C)[C@@H]3CC[C@]21C)C(C)C
REMARK SMILES IDX 5 1 4 2 3 3 2 4 1 5 28 6 29 7 30 8 6 9 7 10 8 11 9 12 26 13
REMARK SMILES IDX 10 14 11 15 25 16 27 17 12 18 24 19 23 20 13 21 21 22 14 23
REMARK SMILES IDX 15 24 20 25 22 26 16 27 19 28 17 29 18 30
REMARK H PARENT 18 31
REMARK Flexibility Score: inf
ROOT
ATOM      1  C   UNL     1     182.447 178.405 184.398  1.00  0.00     0.004 C 
ENDROOT
BRANCH   1   2
ATOM      2  C   UNL     1     180.951 178.511 184.764  1.00  0.00     0.004 C 
BRANCH   2   3
ATOM      3  C   UNL     1     180.623 179.746 185.661  1.00  0.00    -0.009 C 
BRANCH   3   4
ATOM      4  C   UNL     1     181.917 180.460 186.144  1.00  0.00     0.000 C 
ATOM      5  C   UNL     1     182.170 180.284 187.642  1.00  0.00     0.004 C 
ENDBRANCH   3   4
BRANCH   3   6
ATOM      6  C   UNL     1     179.637 180.721 184.940  1.00  0.00    -0.014 C 
ATOM      7  C   UNL     1     179.157 180.199 183.577  1.00  0.00     0.007 C 
ATOM      8  C   UNL     1     180.211 182.139 184.792  1.00  0.00     0.007 C 
ENDBRANCH   3   6
ENDBRANCH   2   3
ENDBRANCH   1   2
BRANCH   1   9
ATOM      9  C   UNL     1     182.685 178.111 182.878  1.00  0.00    -0.011 C 
ATOM     10  C   UNL     1     182.402 179.389 182.063  1.00  0.00     0.008 C 
BRANCH   9  11
ATOM     11  C   UNL     1     181.815 176.898 182.387  1.00  0.00    -0.002 C 
ATOM     12  C   UNL     1     181.887 175.688 183.365  1.00  0.00     0.005 C 
ATOM     13  C   UNL     1     182.126 176.263 180.992  1.00  0.00    -0.026 C 
ATOM     14  C   UNL     1     181.760 174.409 182.528  1.00  0.00     0.005 C 
ATOM     15  C   UNL     1     181.402 174.918 181.144  1.00  0.00    -0.001 C 
ATOM     16  C   UNL     1     181.473 176.971 179.776  1.00  0.00     0.007 C 
ATOM     17  C   UNL     1     183.666 176.115 180.801  1.00  0.00     0.012 C 
ATOM     18  C   UNL     1     181.427 173.946 179.940  1.00  0.00     0.000 C 
ATOM     19  C   UNL     1     181.630 176.135 178.488  1.00  0.00     0.005 C 
ATOM     20  C   UNL     1     181.087 174.670 178.589  1.00  0.00     0.003 C 
ATOM     21  C   UNL     1     182.623 172.985 179.805  1.00  0.00     0.031 C 
ATOM     22  C   UNL     1     181.399 173.778 177.298  1.00  0.00    -0.008 C 
ATOM     23  C   UNL     1     182.254 171.945 178.784  1.00  0.00    -0.027 C 
ATOM     24  C   UNL     1     181.589 172.299 177.666  1.00  0.00    -0.065 C 
ATOM     25  C   UNL     1     180.222 173.903 176.275  1.00  0.00     0.014 C 
ATOM     26  C   UNL     1     182.699 174.205 176.567  1.00  0.00     0.016 C 
ATOM     27  C   UNL     1     181.011 171.243 176.753  1.00  0.00     0.063 C 
ATOM     28  C   UNL     1     179.065 172.945 176.609  1.00  0.00     0.033 C 
ATOM     29  C   UNL     1     179.494 171.453 176.565  1.00  0.00     0.118 C 
BRANCH  29  30
ATOM     30  O   UNL     1     179.107 170.875 175.345  1.00  0.00    -0.393 OA
ATOM     31  H   UNL     1     178.357 171.423 174.991  1.00  0.00     0.210 HD
ENDBRANCH  29  30
ENDBRANCH   9  11
ENDBRANCH   1   9
TORSDOF 7
ENDMDL
MODEL 5
REMARK VINA RESULT:    -6.730      1.453      2.889
REMARK INTER + INTRA:         -11.160
REMARK INTER:                  -9.639
REMARK INTRA:                  -1.521
REMARK UNBOUND:                -1.872
REMARK SMILES CC[C@H](CC[C@H](C)[C@@H]1CC[C@@H]2[C@@H]3CC=C4C[C@H](O)CC[C@@]4(C)[C@@H]3CC[C@]21C)C(C)C
REMARK SMILES IDX 5 1 4 2 3 3 2 4 1 5 28 6 29 7 30 8 6 9 7 10 8 11 9 12 26 13
REMARK SMILES IDX 10 14 11 15 25 16 27 17 12 18 24 19 23 20 13 21 21 22 14 23
REMARK SMILES IDX 15 24 20 25 22 26 16 27 19 28 17 29 18 30
REMARK H PARENT 18 31
REMARK Flexibility Score: inf
ROOT
ATOM      1  C   UNL     1     181.124 181.975 185.168  1.00  0.00     0.004 C 
ENDROOT
BRANCH   1   2
ATOM      2  C   UNL     1     180.632 183.257 184.462  1.00  0.00     0.004 C 
BRANCH   2   3
ATOM      3  C   UNL     1     179.136 183.180 184.020  1.00  0.00    -0.009 C 
BRANCH   3   4
ATOM      4  C   UNL     1     178.293 184.319 184.659  1.00  0.00     0.000 C 
ATOM      5  C   UNL     1     177.121 184.757 183.780  1.00  0.00     0.004 C 
ENDBRANCH   3   4
BRANCH   3   6
ATOM      6  C   UNL     1     179.011 183.148 182.462  1.00  0.00    -0.014 C 
ATOM      7  C   UNL     1     179.078 181.729 181.878  1.00  0.00     0.007 C 
ATOM      8  C   UNL     1     180.037 184.057 181.767  1.00  0.00     0.007 C 
ENDBRANCH   3   6
ENDBRANCH   2   3
ENDBRANCH   1   2
BRANCH   1   9
ATOM      9  C   UNL     1     182.082 181.115 184.276  1.00  0.00    -0.011 C 
ATOM     10  C   UNL     1     182.685 182.007 183.173  1.00  0.00     0.008 C 
BRANCH   9  11
ATOM     11  C   UNL     1     181.339 179.866 183.680  1.00  0.00    -0.002 C 
ATOM     12  C   UNL     1     180.499 179.112 184.753  1.00  0.00     0.005 C 
ATOM     13  C   UNL     1     182.187 178.732 183.013  1.00  0.00    -0.026 C 
ATOM     14  C   UNL     1     180.509 177.622 184.385  1.00  0.00     0.005 C 
ATOM     15  C   UNL     1     181.157 177.594 183.014  1.00  0.00    -0.001 C 
ATOM     16  C   UNL     1     182.568 178.971 181.528  1.00  0.00     0.007 C 
ATOM     17  C   UNL     1     183.446 178.425 183.879  1.00  0.00     0.012 C 
ATOM     18  C   UNL     1     181.579 176.240 182.394  1.00  0.00     0.000 C 
ATOM     19  C   UNL     1     183.179 177.702 180.895  1.00  0.00     0.005 C 
ATOM     20  C   UNL     1     182.284 176.422 181.003  1.00  0.00     0.003 C 
ATOM     21  C   UNL     1     182.309 175.224 183.292  1.00  0.00     0.031 C 
ATOM     22  C   UNL     1     183.001 175.091 180.478  1.00  0.00    -0.008 C 
ATOM     23  C   UNL     1     182.303 173.902 182.577  1.00  0.00    -0.027 C 
ATOM     24  C   UNL     1     182.520 173.850 181.247  1.00  0.00    -0.065 C 
ATOM     25  C   UNL     1     182.701 174.896 178.956  1.00  0.00     0.014 C 
ATOM     26  C   UNL     1     184.543 175.126 180.650  1.00  0.00     0.016 C 
ATOM     27  C   UNL     1     182.287 172.568 180.483  1.00  0.00     0.063 C 
ATOM     28  C   UNL     1     181.344 174.212 178.719  1.00  0.00     0.033 C 
ATOM     29  C   UNL     1     181.276 172.789 179.338  1.00  0.00     0.118 C 
BRANCH  29  30
ATOM     30  O   UNL     1     181.500 171.820 178.346  1.00  0.00    -0.393 OA
ATOM     31  H   UNL     1     182.306 172.106 177.840  1.00  0.00     0.210 HD
ENDBRANCH  29  30
ENDBRANCH   9  11
ENDBRANCH   1   9
TORSDOF 7
ENDMDL
MODEL 6
REMARK VINA RESULT:    -6.705      2.018      4.728
REMARK INTER + INTRA:         -11.125
REMARK INTER:                  -9.553
REMARK INTRA:                  -1.572
REMARK UNBOUND:                -1.872
REMARK SMILES CC[C@H](CC[C@H](C)[C@@H]1CC[C@@H]2[C@@H]3CC=C4C[C@H](O)CC[C@@]4(C)[C@@H]3CC[C@]21C)C(C)C
REMARK SMILES IDX 5 1 4 2 3 3 2 4 1 5 28 6 29 7 30 8 6 9 7 10 8 11 9 12 26 13
REMARK SMILES IDX 10 14 11 15 25 16 27 17 12 18 24 19 23 20 13 21 21 22 14 23
REMARK SMILES IDX 15 24 20 25 22 26 16 27 19 28 17 29 18 30
REMARK H PARENT 18 31
REMARK Flexibility Score: inf
ROOT
ATOM      1  C   UNL     1     181.253 181.242 184.939  1.00  0.00     0.004 C 
ENDROOT
BRANCH   1   2
ATOM      2  C   UNL     1     182.444 181.670 185.823  1.00  0.00     0.004 C 
BRANCH   2   3
ATOM      3  C   UNL     1     183.257 180.462 186.387  1.00  0.00    -0.009 C 
BRANCH   3   4
ATOM      4  C   UNL     1     184.782 180.766 186.420  1.00  0.00     0.000 C 
ATOM      5  C   UNL     1     185.506 180.314 185.151  1.00  0.00     0.004 C 
ENDBRANCH   3   4
BRANCH   3   6
ATOM      6  C   UNL     1     182.708 180.014 187.780  1.00  0.00    -0.014 C 
ATOM      7  C   UNL     1     181.934 181.121 188.511  1.00  0.00     0.007 C 
ATOM      8  C   UNL     1     183.804 179.442 188.692  1.00  0.00     0.007 C 
ENDBRANCH   3   6
ENDBRANCH   2   3
ENDBRANCH   1   2
BRANCH   1   9
ATOM      9  C   UNL     1     181.691 180.775 183.509  1.00  0.00    -0.011 C 
ATOM     10  C   UNL     1     181.318 181.863 182.483  1.00  0.00     0.008 C 
BRANCH   9  11
ATOM     11  C   UNL     1     181.059 179.383 183.144  1.00  0.00    -0.002 C 
ATOM     12  C   UNL     1     180.490 178.648 184.394  1.00  0.00     0.005 C 
ATOM     13  C   UNL     1     181.959 178.303 182.460  1.00  0.00    -0.026 C 
ATOM     14  C   UNL     1     180.661 177.142 184.162  1.00  0.00     0.005 C 
ATOM     15  C   UNL     1     181.112 177.049 182.717  1.00  0.00    -0.001 C 
ATOM     16  C   UNL     1     182.095 178.426 180.919  1.00  0.00     0.007 C 
ATOM     17  C   UNL     1     183.356 178.254 183.149  1.00  0.00     0.012 C 
ATOM     18  C   UNL     1     181.633 175.701 182.162  1.00  0.00     0.000 C 
ATOM     19  C   UNL     1     182.787 177.185 180.316  1.00  0.00     0.005 C 
ATOM     20  C   UNL     1     182.106 175.820 180.670  1.00  0.00     0.003 C 
ATOM     21  C   UNL     1     182.617 174.890 183.026  1.00  0.00     0.031 C 
ATOM     22  C   UNL     1     182.927 174.543 180.163  1.00  0.00    -0.008 C 
ATOM     23  C   UNL     1     182.700 173.508 182.439  1.00  0.00    -0.027 C 
ATOM     24  C   UNL     1     182.737 173.341 181.102  1.00  0.00    -0.065 C 
ATOM     25  C   UNL     1     182.451 174.147 178.726  1.00  0.00     0.014 C 
ATOM     26  C   UNL     1     184.456 174.793 180.096  1.00  0.00     0.016 C 
ATOM     27  C   UNL     1     182.586 171.965 180.498  1.00  0.00     0.063 C 
ATOM     28  C   UNL     1     181.185 173.274 178.759  1.00  0.00     0.033 C 
ATOM     29  C   UNL     1     181.407 171.929 179.504  1.00  0.00     0.118 C 
BRANCH  29  30
ATOM     30  O   UNL     1     181.628 170.895 178.579  1.00  0.00    -0.393 OA
ATOM     31  H   UNL     1     181.505 171.287 177.674  1.00  0.00     0.210 HD
ENDBRANCH  29  30
ENDBRANCH   9  11
ENDBRANCH   1   9
TORSDOF 7
ENDMDL
MODEL 7
REMARK VINA RESULT:    -6.700      3.373      8.617
REMARK INTER + INTRA:         -11.118
REMARK INTER:                  -9.334
REMARK INTRA:                  -1.784
REMARK UNBOUND:                -1.872
REMARK SMILES CC[C@H](CC[C@H](C)[C@@H]1CC[C@@H]2[C@@H]3CC=C4C[C@H](O)CC[C@@]4(C)[C@@H]3CC[C@]21C)C(C)C
REMARK SMILES IDX 5 1 4 2 3 3 2 4 1 5 28 6 29 7 30 8 6 9 7 10 8 11 9 12 26 13
REMARK SMILES IDX 10 14 11 15 25 16 27 17 12 18 24 19 23 20 13 21 21 22 14 23
REMARK SMILES IDX 15 24 20 25 22 26 16 27 19 28 17 29 18 30
REMARK H PARENT 18 31
REMARK Flexibility Score: inf
ROOT
ATOM      1  C   UNL     1     182.309 174.921 178.682  1.00  0.00     0.004 C 
ENDROOT
BRANCH   1   2
ATOM      2  C   UNL     1     183.440 173.934 178.325  1.00  0.00     0.004 C 
BRANCH   2   3
ATOM      3  C   UNL     1     183.145 172.469 178.779  1.00  0.00    -0.009 C 
BRANCH   3   4
ATOM      4  C   UNL     1     184.114 172.016 179.907  1.00  0.00     0.000 C 
ATOM      5  C   UNL     1     184.879 173.180 180.539  1.00  0.00     0.004 C 
ENDBRANCH   3   4
BRANCH   3   6
ATOM      6  C   UNL     1     181.644 172.294 179.177  1.00  0.00    -0.014 C 
ATOM      7  C   UNL     1     181.454 171.649 180.558  1.00  0.00     0.007 C 
ATOM      8  C   UNL     1     180.837 171.525 178.118  1.00  0.00     0.007 C 
ENDBRANCH   3   6
ENDBRANCH   2   3
ENDBRANCH   1   2
BRANCH   1   9
ATOM      9  C   UNL     1     182.839 176.264 179.290  1.00  0.00    -0.011 C 
ATOM     10  C   UNL     1     184.235 176.567 178.711  1.00  0.00     0.008 C 
BRANCH   9  11
ATOM     11  C   UNL     1     182.852 176.215 180.860  1.00  0.00    -0.002 C 
ATOM     12  C   UNL     1     181.732 175.294 181.430  1.00  0.00     0.005 C 
ATOM     13  C   UNL     1     182.673 177.549 181.657  1.00  0.00    -0.026 C 
ATOM     14  C   UNL     1     181.285 175.887 182.773  1.00  0.00     0.005 C 
ATOM     15  C   UNL     1     182.297 176.987 183.035  1.00  0.00    -0.001 C 
ATOM     16  C   UNL     1     183.966 178.379 181.867  1.00  0.00     0.007 C 
ATOM     17  C   UNL     1     181.544 178.410 181.014  1.00  0.00     0.012 C 
ATOM     18  C   UNL     1     182.049 177.997 184.182  1.00  0.00     0.000 C 
ATOM     19  C   UNL     1     183.737 179.533 182.865  1.00  0.00     0.005 C 
ATOM     20  C   UNL     1     183.173 179.091 184.257  1.00  0.00     0.003 C 
ATOM     21  C   UNL     1     180.638 178.594 184.334  1.00  0.00     0.031 C 
ATOM     22  C   UNL     1     182.799 180.315 185.218  1.00  0.00    -0.008 C 
ATOM     23  C   UNL     1     180.571 179.256 185.682  1.00  0.00    -0.027 C 
ATOM     24  C   UNL     1     181.620 179.970 186.140  1.00  0.00    -0.065 C 
ATOM     25  C   UNL     1     184.038 180.694 186.095  1.00  0.00     0.014 C 
ATOM     26  C   UNL     1     182.373 181.587 184.440  1.00  0.00     0.016 C 
ATOM     27  C   UNL     1     181.658 180.440 187.575  1.00  0.00     0.063 C 
ATOM     28  C   UNL     1     184.155 179.800 187.342  1.00  0.00     0.033 C 
ATOM     29  C   UNL     1     182.929 179.928 188.285  1.00  0.00     0.118 C 
BRANCH  29  30
ATOM     30  O   UNL     1     183.227 180.793 189.352  1.00  0.00    -0.393 OA
ATOM     31  H   UNL     1     182.454 181.408 189.450  1.00  0.00     0.210 HD
ENDBRANCH  29  30
ENDBRANCH   9  11
ENDBRANCH   1   9
TORSDOF 7
ENDMDL
MODEL 8
REMARK VINA RESULT:    -6.690      3.440      8.679
REMARK INTER + INTRA:         -11.105
REMARK INTER:                  -9.801
REMARK INTRA:                  -1.303
REMARK UNBOUND:                -1.872
REMARK SMILES CC[C@H](CC[C@H](C)[C@@H]1CC[C@@H]2[C@@H]3CC=C4C[C@H](O)CC[C@@]4(C)[C@@H]3CC[C@]21C)C(C)C
REMARK SMILES IDX 5 1 4 2 3 3 2 4 1 5 28 6 29 7 30 8 6 9 7 10 8 11 9 12 26 13
REMARK SMILES IDX 10 14 11 15 25 16 27 17 12 18 24 19 23 20 13 21 21 22 14 23
REMARK SMILES IDX 15 24 20 25 22 26 16 27 19 28 17 29 18 30
REMARK H PARENT 18 31
REMARK Flexibility Score: inf
ROOT
ATOM      1  C   UNL     1     181.610 174.857 179.181  1.00  0.00     0.004 C 
ENDROOT
BRANCH   1   2
ATOM      2  C   UNL     1     181.993 174.049 177.923  1.00  0.00     0.004 C 
BRANCH   2   3
ATOM      3  C   UNL     1     181.356 172.623 177.890  1.00  0.00    -0.009 C 
BRANCH   3   4
ATOM      4  C   UNL     1     181.260 172.008 179.315  1.00  0.00     0.000 C 
ATOM      5  C   UNL     1     182.419 171.062 179.633  1.00  0.00     0.004 C 
ENDBRANCH   3   4
BRANCH   3   6
ATOM      6  C   UNL     1     179.977 172.639 177.154  1.00  0.00    -0.014 C 
ATOM      7  C   UNL     1     179.478 171.237 176.771  1.00  0.00     0.007 C 
ATOM      8  C   UNL     1     179.975 173.558 175.922  1.00  0.00     0.007 C 
ENDBRANCH   3   6
ENDBRANCH   2   3
ENDBRANCH   1   2
BRANCH   1   9
ATOM      9  C   UNL     1     182.822 175.630 179.803  1.00  0.00    -0.011 C 
ATOM     10  C   UNL     1     184.132 174.916 179.416  1.00  0.00     0.008 C 
BRANCH   9  11
ATOM     11  C   UNL     1     182.669 175.772 181.360  1.00  0.00    -0.002 C 
ATOM     12  C   UNL     1     181.389 175.064 181.895  1.00  0.00     0.005 C 
ATOM     13  C   UNL     1     182.584 177.205 181.981  1.00  0.00    -0.026 C 
ATOM     14  C   UNL     1     180.888 175.865 183.104  1.00  0.00     0.005 C 
ATOM     15  C   UNL     1     182.001 176.864 183.360  1.00  0.00    -0.001 C 
ATOM     16  C   UNL     1     183.946 177.899 182.247  1.00  0.00     0.007 C 
ATOM     17  C   UNL     1     181.647 178.107 181.123  1.00  0.00     0.012 C 
ATOM     18  C   UNL     1     181.771 178.029 184.354  1.00  0.00     0.000 C 
ATOM     19  C   UNL     1     183.767 179.186 183.081  1.00  0.00     0.005 C 
ATOM     20  C   UNL     1     183.013 178.985 184.439  1.00  0.00     0.003 C 
ATOM     21  C   UNL     1     180.440 178.800 184.276  1.00  0.00     0.031 C 
ATOM     22  C   UNL     1     182.705 180.353 185.210  1.00  0.00    -0.008 C 
ATOM     23  C   UNL     1     180.323 179.625 185.527  1.00  0.00    -0.027 C 
ATOM     24  C   UNL     1     181.403 180.263 186.022  1.00  0.00    -0.065 C 
ATOM     25  C   UNL     1     183.887 180.690 186.178  1.00  0.00     0.014 C 
ATOM     26  C   UNL     1     182.527 181.562 184.254  1.00  0.00     0.016 C 
ATOM     27  C   UNL     1     181.356 180.898 187.392  1.00  0.00     0.063 C 
ATOM     28  C   UNL     1     183.761 179.948 187.520  1.00  0.00     0.033 C 
ATOM     29  C   UNL     1     182.472 180.333 188.296  1.00  0.00     0.118 C 
BRANCH  29  30
ATOM     30  O   UNL     1     182.770 181.280 189.289  1.00  0.00    -0.393 OA
ATOM     31  H   UNL     1     183.438 181.905 188.901  1.00  0.00     0.210 HD
ENDBRANCH  29  30
ENDBRANCH   9  11
ENDBRANCH   1   9
TORSDOF 7
ENDMDL
MODEL 9
REMARK VINA RESULT:    -6.617      3.157      8.873
REMARK INTER + INTRA:         -11.004
REMARK INTER:                  -9.201
REMARK INTRA:                  -1.803
REMARK UNBOUND:                -1.872
REMARK SMILES CC[C@H](CC[C@H](C)[C@@H]1CC[C@@H]2[C@@H]3CC=C4C[C@H](O)CC[C@@]4(C)[C@@H]3CC[C@]21C)C(C)C
REMARK SMILES IDX 5 1 4 2 3 3 2 4 1 5 28 6 29 7 30 8 6 9 7 10 8 11 9 12 26 13
REMARK SMILES IDX 10 14 11 15 25 16 27 17 12 18 24 19 23 20 13 21 21 22 14 23
REMARK SMILES IDX 15 24 20 25 22 26 16 27 19 28 17 29 18 30
REMARK H PARENT 18 31
REMARK Flexibility Score: inf
ROOT
ATOM      1  C   UNL     1     184.240 172.827 178.892  1.00  0.00     0.004 C 
ENDROOT
BRANCH   1   2
ATOM      2  C   UNL     1     183.519 172.103 177.735  1.00  0.00     0.004 C 
BRANCH   2   3
ATOM      3  C   UNL     1     182.294 171.257 178.207  1.00  0.00    -0.009 C 
BRANCH   3   4
ATOM      4  C   UNL     1     182.348 170.978 179.736  1.00  0.00     0.000 C 
ATOM      5  C   UNL     1     181.236 171.688 180.509  1.00  0.00     0.004 C 
ENDBRANCH   3   4
BRANCH   3   6
ATOM      6  C   UNL     1     180.948 171.920 177.768  1.00  0.00    -0.014 C 
ATOM      7  C   UNL     1     180.023 170.963 177.000  1.00  0.00     0.007 C 
ATOM      8  C   UNL     1     181.160 173.212 176.964  1.00  0.00     0.007 C 
ENDBRANCH   3   6
ENDBRANCH   2   3
ENDBRANCH   1   2
BRANCH   1   9
ATOM      9  C   UNL     1     184.018 174.377 178.876  1.00  0.00    -0.011 C 
ATOM     10  C   UNL     1     185.031 175.025 177.913  1.00  0.00     0.008 C 
BRANCH   9  11
ATOM     11  C   UNL     1     184.114 174.983 180.323  1.00  0.00    -0.002 C 
ATOM     12  C   UNL     1     183.949 173.898 181.428  1.00  0.00     0.005 C 
ATOM     13  C   UNL     1     183.096 176.094 180.743  1.00  0.00    -0.026 C 
ATOM     14  C   UNL     1     183.262 174.562 182.629  1.00  0.00     0.005 C 
ATOM     15  C   UNL     1     183.254 176.035 182.269  1.00  0.00    -0.001 C 
ATOM     16  C   UNL     1     183.476 177.539 180.324  1.00  0.00     0.007 C 
ATOM     17  C   UNL     1     181.664 175.721 180.257  1.00  0.00     0.012 C 
ATOM     18  C   UNL     1     182.420 177.026 183.118  1.00  0.00     0.000 C 
ATOM     19  C   UNL     1     182.552 178.579 180.993  1.00  0.00     0.005 C 
ATOM     20  C   UNL     1     182.491 178.490 182.555  1.00  0.00     0.003 C 
ATOM     21  C   UNL     1     180.989 176.619 183.515  1.00  0.00     0.031 C 
ATOM     22  C   UNL     1     181.413 179.473 183.213  1.00  0.00    -0.008 C 
ATOM     23  C   UNL     1     180.532 177.567 184.589  1.00  0.00    -0.027 C 
ATOM     24  C   UNL     1     180.821 178.881 184.501  1.00  0.00    -0.065 C 
ATOM     25  C   UNL     1     182.084 180.846 183.543  1.00  0.00     0.014 C 
ATOM     26  C   UNL     1     180.205 179.757 182.282  1.00  0.00     0.016 C 
ATOM     27  C   UNL     1     180.575 179.799 185.676  1.00  0.00     0.063 C 
ATOM     28  C   UNL     1     182.823 180.816 184.893  1.00  0.00     0.033 C 
ATOM     29  C   UNL     1     181.874 180.523 186.086  1.00  0.00     0.118 C 
BRANCH  29  30
ATOM     30  O   UNL     1     181.535 181.721 186.739  1.00  0.00    -0.393 OA
ATOM     31  H   UNL     1     181.111 182.309 186.060  1.00  0.00     0.210 HD
ENDBRANCH  29  30
ENDBRANCH   9  11
ENDBRANCH   1   9
TORSDOF 7
ENDMDL
