MODEL 1
REMARK VINA RESULT:    -3.461      0.000      0.000
REMARK INTER + INTRA:         -15.429
REMARK INTER:                  -9.126
REMARK INTRA:                  -6.303
REMARK UNBOUND:                -6.303
REMARK SMILES CCCCCCCCCCCCCCCCCCCCCCCCCCCCCC(=O)[O-]
REMARK SMILES IDX 16 1 17 2 18 3 19 4 20 5 21 6 22 7 23 8 24 9 25 10 26 11
REMARK SMILES IDX 27 12 28 13 29 14 30 15 31 16 32 17 15 18 14 19 13 20 12 21
REMARK SMILES IDX 11 22 10 23 9 24 8 25 7 26 6 27 5 28 4 29 3 30 2 31 1 32
REMARK H PARENT
REMARK Flexibility Score: inf
ROOT
ATOM      1  C   UNL     1     132.142 143.112 119.091  1.00  0.00     0.000 C 
ENDROOT
BRANCH   1   2
ATOM      2  C   UNL     1     133.562 143.227 118.518  1.00  0.00     0.000 C 
BRANCH   2   3
ATOM      3  C   UNL     1     134.460 144.163 119.344  1.00  0.00     0.000 C 
BRANCH   3   4
ATOM      4  C   UNL     1     134.782 145.475 118.608  1.00  0.00     0.000 C 
BRANCH   4   5
ATOM      5  C   UNL     1     134.011 146.677 119.177  1.00  0.00     0.000 C 
BRANCH   5   6
ATOM      6  C   UNL     1     133.400 146.391 120.560  1.00  0.00     0.000 C 
BRANCH   6   7
ATOM      7  C   UNL     1     131.981 146.983 120.709  1.00  0.00     0.000 C 
BRANCH   7   8
ATOM      8  C   UNL     1     131.024 146.584 119.570  1.00  0.00     0.000 C 
BRANCH   8   9
ATOM      9  C   UNL     1     129.666 146.023 120.034  1.00  0.00     0.000 C 
BRANCH   9  10
ATOM     10  C   UNL     1     128.904 145.195 118.977  1.00  0.00     0.000 C 
BRANCH  10  11
ATOM     11  C   UNL     1     127.622 144.512 119.485  1.00  0.00     0.000 C 
BRANCH  11  12
ATOM     12  C   UNL     1     127.706 144.115 120.968  1.00  0.00     0.000 C 
BRANCH  12  13
ATOM     13  C   UNL     1     127.562 142.598 121.193  1.00  0.00     0.006 C 
BRANCH  13  14
ATOM     14  C   UNL     1     128.080 142.120 122.560  1.00  0.00     0.053 C 
BRANCH  14  15
ATOM     15  C   UNL     1     128.283 140.638 122.613  1.00  0.00     0.041 C 
ATOM     16  O   UNL     1     127.791 139.899 121.719  1.00  0.00    -0.550 OA
ATOM     17  O   UNL     1     128.990 140.067 123.662  1.00  0.00    -0.550 OA
ENDBRANCH  14  15
ENDBRANCH  13  14
ENDBRANCH  12  13
ENDBRANCH  11  12
ENDBRANCH  10  11
ENDBRANCH   9  10
ENDBRANCH   8   9
ENDBRANCH   7   8
ENDBRANCH   6   7
ENDBRANCH   5   6
ENDBRANCH   4   5
ENDBRANCH   3   4
ENDBRANCH   2   3
ENDBRANCH   1   2
BRANCH   1  18
ATOM     18  C   UNL     1     132.155 142.422 120.463  1.00  0.00     0.000 C 
BRANCH  18  19
ATOM     19  C   UNL     1     131.374 143.206 121.533  1.00  0.00     0.000 C 
BRANCH  19  20
ATOM     20  C   UNL     1     132.196 143.607 122.774  1.00  0.00     0.000 C 
BRANCH  20  21
ATOM     21  C   UNL     1     131.679 144.852 123.524  1.00  0.00     0.000 C 
BRANCH  21  22
ATOM     22  C   UNL     1     130.157 145.084 123.432  1.00  0.00     0.000 C 
BRANCH  22  23
ATOM     23  C   UNL     1     129.647 146.345 124.151  1.00  0.00     0.000 C 
BRANCH  23  24
ATOM     24  C   UNL     1     128.189 146.209 124.625  1.00  0.00    -0.000 C 
BRANCH  24  25
ATOM     25  C   UNL     1     127.765 144.740 124.804  1.00  0.00    -0.000 C 
BRANCH  25  26
ATOM     26  C   UNL     1     126.957 144.474 126.095  1.00  0.00    -0.000 C 
BRANCH  26  27
ATOM     27  C   UNL     1     127.222 145.499 127.214  1.00  0.00    -0.000 C 
BRANCH  27  28
ATOM     28  C   UNL     1     128.322 145.095 128.215  1.00  0.00    -0.000 C 
BRANCH  28  29
ATOM     29  C   UNL     1     129.690 145.762 127.981  1.00  0.00    -0.000 C 
BRANCH  29  30
ATOM     30  C   UNL     1     130.723 144.813 127.349  1.00  0.00    -0.000 C 
BRANCH  30  31
ATOM     31  C   UNL     1     130.283 143.341 127.410  1.00  0.00    -0.003 C 
ATOM     32  C   UNL     1     130.569 142.586 126.112  1.00  0.00     0.004 C 
ENDBRANCH  30  31
ENDBRANCH  29  30
ENDBRANCH  28  29
ENDBRANCH  27  28
ENDBRANCH  26  27
ENDBRANCH  25  26
ENDBRANCH  24  25
ENDBRANCH  23  24
ENDBRANCH  22  23
ENDBRANCH  21  22
ENDBRANCH  20  21
ENDBRANCH  19  20
ENDBRANCH  18  19
ENDBRANCH   1  18
TORSDOF 28
ENDMDL
MODEL 2
REMARK VINA RESULT:    -3.356      2.222      5.645
REMARK INTER + INTRA:         -15.152
REMARK INTER:                 -10.266
REMARK INTRA:                  -4.887
REMARK UNBOUND:                -6.303
REMARK SMILES CCCCCCCCCCCCCCCCCCCCCCCCCCCCCC(=O)[O-]
REMARK SMILES IDX 16 1 17 2 18 3 19 4 20 5 21 6 22 7 23 8 24 9 25 10 26 11
REMARK SMILES IDX 27 12 28 13 29 14 30 15 31 16 32 17 15 18 14 19 13 20 12 21
REMARK SMILES IDX 11 22 10 23 9 24 8 25 7 26 6 27 5 28 4 29 3 30 2 31 1 32
REMARK H PARENT
REMARK Flexibility Score: inf
ROOT
ATOM      1  C   UNL     1     135.165 144.167 118.645  1.00  0.00     0.000 C 
ENDROOT
BRANCH   1   2
ATOM      2  C   UNL     1     134.898 145.639 118.300  1.00  0.00     0.000 C 
BRANCH   2   3
ATOM      3  C   UNL     1     134.149 146.384 119.418  1.00  0.00     0.000 C 
BRANCH   3   4
ATOM      4  C   UNL     1     134.832 146.235 120.788  1.00  0.00     0.000 C 
BRANCH   4   5
ATOM      5  C   UNL     1     133.848 145.833 121.898  1.00  0.00     0.000 C 
BRANCH   5   6
ATOM      6  C   UNL     1     133.006 147.016 122.406  1.00  0.00     0.000 C 
BRANCH   6   7
ATOM      7  C   UNL     1     131.794 146.557 123.247  1.00  0.00     0.000 C 
BRANCH   7   8
ATOM      8  C   UNL     1     131.880 145.088 123.701  1.00  0.00     0.000 C 
BRANCH   8   9
ATOM      9  C   UNL     1     130.569 144.510 124.270  1.00  0.00     0.000 C 
BRANCH   9  10
ATOM     10  C   UNL     1     129.276 145.132 123.700  1.00  0.00     0.000 C 
BRANCH  10  11
ATOM     11  C   UNL     1     128.286 145.657 124.753  1.00  0.00     0.000 C 
BRANCH  11  12
ATOM     12  C   UNL     1     127.710 144.540 125.638  1.00  0.00     0.000 C 
BRANCH  12  13
ATOM     13  C   UNL     1     127.758 144.877 127.140  1.00  0.00     0.006 C 
BRANCH  13  14
ATOM     14  C   UNL     1     129.059 145.567 127.581  1.00  0.00     0.053 C 
BRANCH  14  15
ATOM     15  C   UNL     1     130.137 144.590 127.938  1.00  0.00     0.041 C 
ATOM     16  O   UNL     1     129.838 143.417 128.287  1.00  0.00    -0.550 OA
ATOM     17  O   UNL     1     131.469 144.980 127.912  1.00  0.00    -0.550 OA
ENDBRANCH  14  15
ENDBRANCH  13  14
ENDBRANCH  12  13
ENDBRANCH  11  12
ENDBRANCH  10  11
ENDBRANCH   9  10
ENDBRANCH   8   9
ENDBRANCH   7   8
ENDBRANCH   6   7
ENDBRANCH   5   6
ENDBRANCH   4   5
ENDBRANCH   3   4
ENDBRANCH   2   3
ENDBRANCH   1   2
BRANCH   1  18
ATOM     18  C   UNL     1     133.984 143.279 118.224  1.00  0.00     0.000 C 
BRANCH  18  19
ATOM     19  C   UNL     1     133.127 142.820 119.417  1.00  0.00     0.000 C 
BRANCH  19  20
ATOM     20  C   UNL     1     131.615 143.084 119.271  1.00  0.00     0.000 C 
BRANCH  20  21
ATOM     21  C   UNL     1     131.017 144.041 120.323  1.00  0.00     0.000 C 
BRANCH  21  22
ATOM     22  C   UNL     1     130.715 145.465 119.814  1.00  0.00     0.000 C 
BRANCH  22  23
ATOM     23  C   UNL     1     129.244 145.901 119.935  1.00  0.00     0.000 C 
BRANCH  23  24
ATOM     24  C   UNL     1     128.359 145.315 118.820  1.00  0.00    -0.000 C 
BRANCH  24  25
ATOM     25  C   UNL     1     127.494 144.141 119.313  1.00  0.00    -0.000 C 
BRANCH  25  26
ATOM     26  C   UNL     1     127.320 144.092 120.849  1.00  0.00    -0.000 C 
BRANCH  26  27
ATOM     27  C   UNL     1     127.580 142.702 121.458  1.00  0.00    -0.000 C 
BRANCH  27  28
ATOM     28  C   UNL     1     127.836 141.582 120.430  1.00  0.00    -0.000 C 
BRANCH  28  29
ATOM     29  C   UNL     1     128.995 140.631 120.781  1.00  0.00    -0.000 C 
BRANCH  29  30
ATOM     30  C   UNL     1     128.921 139.289 120.031  1.00  0.00    -0.000 C 
BRANCH  30  31
ATOM     31  C   UNL     1     127.492 138.943 119.586  1.00  0.00    -0.003 C 
ATOM     32  C   UNL     1     127.447 137.768 118.608  1.00  0.00     0.004 C 
ENDBRANCH  30  31
ENDBRANCH  29  30
ENDBRANCH  28  29
ENDBRANCH  27  28
ENDBRANCH  26  27
ENDBRANCH  25  26
ENDBRANCH  24  25
ENDBRANCH  23  24
ENDBRANCH  22  23
ENDBRANCH  21  22
ENDBRANCH  20  21
ENDBRANCH  19  20
ENDBRANCH  18  19
ENDBRANCH   1  18
TORSDOF 28
ENDMDL
MODEL 3
REMARK VINA RESULT:    -3.310      1.708      6.658
REMARK INTER + INTRA:         -15.030
REMARK INTER:                  -9.608
REMARK INTRA:                  -5.422
REMARK UNBOUND:                -6.303
REMARK SMILES CCCCCCCCCCCCCCCCCCCCCCCCCCCCCC(=O)[O-]
REMARK SMILES IDX 16 1 17 2 18 3 19 4 20 5 21 6 22 7 23 8 24 9 25 10 26 11
REMARK SMILES IDX 27 12 28 13 29 14 30 15 31 16 32 17 15 18 14 19 13 20 12 21
REMARK SMILES IDX 11 22 10 23 9 24 8 25 7 26 6 27 5 28 4 29 3 30 2 31 1 32
REMARK H PARENT
REMARK Flexibility Score: inf
ROOT
ATOM      1  C   UNL     1     127.229 146.721 121.601  1.00  0.00     0.000 C 
ENDROOT
BRANCH   1   2
ATOM      2  C   UNL     1     127.067 146.557 123.119  1.00  0.00     0.000 C 
BRANCH   2   3
ATOM      3  C   UNL     1     128.385 146.765 123.883  1.00  0.00     0.000 C 
BRANCH   3   4
ATOM      4  C   UNL     1     129.619 146.392 123.044  1.00  0.00     0.000 C 
BRANCH   4   5
ATOM      5  C   UNL     1     130.801 145.922 123.909  1.00  0.00     0.000 C 
BRANCH   5   6
ATOM      6  C   UNL     1     130.401 145.659 125.371  1.00  0.00     0.000 C 
BRANCH   6   7
ATOM      7  C   UNL     1     130.141 144.162 125.649  1.00  0.00     0.000 C 
BRANCH   7   8
ATOM      8  C   UNL     1     128.673 143.843 125.986  1.00  0.00     0.000 C 
BRANCH   8   9
ATOM      9  C   UNL     1     127.965 142.920 124.976  1.00  0.00     0.000 C 
BRANCH   9  10
ATOM     10  C   UNL     1     128.431 143.068 123.512  1.00  0.00     0.000 C 
BRANCH  10  11
ATOM     11  C   UNL     1     128.630 141.745 122.754  1.00  0.00     0.000 C 
BRANCH  11  12
ATOM     12  C   UNL     1     127.648 141.576 121.583  1.00  0.00     0.000 C 
BRANCH  12  13
ATOM     13  C   UNL     1     128.281 140.881 120.363  1.00  0.00     0.006 C 
BRANCH  13  14
ATOM     14  C   UNL     1     129.790 140.626 120.505  1.00  0.00     0.053 C 
BRANCH  14  15
ATOM     15  C   UNL     1     130.160 139.198 120.248  1.00  0.00     0.041 C 
ATOM     16  O   UNL     1     129.620 138.274 120.913  1.00  0.00    -0.550 OA
ATOM     17  O   UNL     1     131.120 138.886 119.296  1.00  0.00    -0.550 OA
ENDBRANCH  14  15
ENDBRANCH  13  14
ENDBRANCH  12  13
ENDBRANCH  11  12
ENDBRANCH  10  11
ENDBRANCH   9  10
ENDBRANCH   8   9
ENDBRANCH   7   8
ENDBRANCH   6   7
ENDBRANCH   5   6
ENDBRANCH   4   5
ENDBRANCH   3   4
ENDBRANCH   2   3
ENDBRANCH   1   2
BRANCH   1  18
ATOM     18  C   UNL     1     126.903 145.411 120.867  1.00  0.00     0.000 C 
BRANCH  18  19
ATOM     19  C   UNL     1     126.885 145.573 119.336  1.00  0.00     0.000 C 
BRANCH  19  20
ATOM     20  C   UNL     1     128.134 145.034 118.611  1.00  0.00     0.000 C 
BRANCH  20  21
ATOM     21  C   UNL     1     129.086 144.196 119.489  1.00  0.00     0.000 C 
BRANCH  21  22
ATOM     22  C   UNL     1     130.481 144.814 119.713  1.00  0.00     0.000 C 
BRANCH  22  23
ATOM     23  C   UNL     1     130.520 146.352 119.700  1.00  0.00     0.000 C 
BRANCH  23  24
ATOM     24  C   UNL     1     131.878 146.915 120.154  1.00  0.00    -0.000 C 
BRANCH  24  25
ATOM     25  C   UNL     1     132.936 146.871 119.037  1.00  0.00    -0.000 C 
BRANCH  25  26
ATOM     26  C   UNL     1     134.309 146.327 119.494  1.00  0.00    -0.000 C 
BRANCH  26  27
ATOM     27  C   UNL     1     134.952 145.349 118.493  1.00  0.00    -0.000 C 
BRANCH  27  28
ATOM     28  C   UNL     1     134.889 143.866 118.904  1.00  0.00    -0.000 C 
BRANCH  28  29
ATOM     29  C   UNL     1     133.579 143.144 118.535  1.00  0.00    -0.000 C 
BRANCH  29  30
ATOM     30  C   UNL     1     133.040 142.257 119.671  1.00  0.00    -0.000 C 
BRANCH  30  31
ATOM     31  C   UNL     1     133.733 142.536 121.014  1.00  0.00    -0.003 C 
ATOM     32  C   UNL     1     132.990 143.574 121.857  1.00  0.00     0.004 C 
ENDBRANCH  30  31
ENDBRANCH  29  30
ENDBRANCH  28  29
ENDBRANCH  27  28
ENDBRANCH  26  27
ENDBRANCH  25  26
ENDBRANCH  24  25
ENDBRANCH  23  24
ENDBRANCH  22  23
ENDBRANCH  21  22
ENDBRANCH  20  21
ENDBRANCH  19  20
ENDBRANCH  18  19
ENDBRANCH   1  18
TORSDOF 28
ENDMDL
MODEL 4
REMARK VINA RESULT:    -3.270      2.227      5.781
REMARK INTER + INTRA:         -14.924
REMARK INTER:                  -9.336
REMARK INTRA:                  -5.588
REMARK UNBOUND:                -6.303
REMARK SMILES CCCCCCCCCCCCCCCCCCCCCCCCCCCCCC(=O)[O-]
REMARK SMILES IDX 16 1 17 2 18 3 19 4 20 5 21 6 22 7 23 8 24 9 25 10 26 11
REMARK SMILES IDX 27 12 28 13 29 14 30 15 31 16 32 17 15 18 14 19 13 20 12 21
REMARK SMILES IDX 11 22 10 23 9 24 8 25 7 26 6 27 5 28 4 29 3 30 2 31 1 32
REMARK H PARENT
REMARK Flexibility Score: inf
ROOT
ATOM      1  C   UNL     1     132.227 146.460 121.292  1.00  0.00     0.000 C 
ENDROOT
BRANCH   1   2
ATOM      2  C   UNL     1     131.253 146.691 120.127  1.00  0.00     0.000 C 
BRANCH   2   3
ATOM      3  C   UNL     1     130.295 145.509 119.911  1.00  0.00     0.000 C 
BRANCH   3   4
ATOM      4  C   UNL     1     129.021 145.912 119.148  1.00  0.00     0.000 C 
BRANCH   4   5
ATOM      5  C   UNL     1     128.128 144.707 118.810  1.00  0.00     0.000 C 
BRANCH   5   6
ATOM      6  C   UNL     1     128.334 143.525 119.774  1.00  0.00     0.000 C 
BRANCH   6   7
ATOM      7  C   UNL     1     127.302 143.518 120.923  1.00  0.00     0.000 C 
BRANCH   7   8
ATOM      8  C   UNL     1     127.743 144.335 122.152  1.00  0.00     0.000 C 
BRANCH   8   9
ATOM      9  C   UNL     1     127.198 145.775 122.199  1.00  0.00     0.000 C 
BRANCH   9  10
ATOM     10  C   UNL     1     127.957 146.733 123.142  1.00  0.00     0.000 C 
BRANCH  10  11
ATOM     11  C   UNL     1     129.370 146.272 123.540  1.00  0.00     0.000 C 
BRANCH  11  12
ATOM     12  C   UNL     1     129.828 146.853 124.888  1.00  0.00     0.000 C 
BRANCH  12  13
ATOM     13  C   UNL     1     129.821 145.813 126.025  1.00  0.00     0.006 C 
BRANCH  13  14
ATOM     14  C   UNL     1     128.415 145.332 126.419  1.00  0.00     0.053 C 
BRANCH  14  15
ATOM     15  C   UNL     1     128.328 144.922 127.856  1.00  0.00     0.041 C 
ATOM     16  O   UNL     1     127.275 145.137 128.513  1.00  0.00    -0.550 OA
ATOM     17  O   UNL     1     129.417 144.329 128.480  1.00  0.00    -0.550 OA
ENDBRANCH  14  15
ENDBRANCH  13  14
ENDBRANCH  12  13
ENDBRANCH  11  12
ENDBRANCH  10  11
ENDBRANCH   9  10
ENDBRANCH   8   9
ENDBRANCH   7   8
ENDBRANCH   6   7
ENDBRANCH   5   6
ENDBRANCH   4   5
ENDBRANCH   3   4
ENDBRANCH   2   3
ENDBRANCH   1   2
BRANCH   1  18
ATOM     18  C   UNL     1     133.678 146.387 120.791  1.00  0.00     0.000 C 
BRANCH  18  19
ATOM     19  C   UNL     1     133.793 146.574 119.267  1.00  0.00     0.000 C 
BRANCH  19  20
ATOM     20  C   UNL     1     135.082 146.009 118.639  1.00  0.00     0.000 C 
BRANCH  20  21
ATOM     21  C   UNL     1     134.965 144.569 118.096  1.00  0.00     0.000 C 
BRANCH  21  22
ATOM     22  C   UNL     1     135.335 143.461 119.104  1.00  0.00     0.000 C 
BRANCH  22  23
ATOM     23  C   UNL     1     134.222 142.434 119.377  1.00  0.00     0.000 C 
BRANCH  23  24
ATOM     24  C   UNL     1     132.819 143.067 119.375  1.00  0.00    -0.000 C 
BRANCH  24  25
ATOM     25  C   UNL     1     131.708 142.033 119.631  1.00  0.00    -0.000 C 
BRANCH  25  26
ATOM     26  C   UNL     1     131.179 142.027 121.084  1.00  0.00    -0.000 C 
BRANCH  26  27
ATOM     27  C   UNL     1     132.047 142.841 122.062  1.00  0.00    -0.000 C 
BRANCH  27  28
ATOM     28  C   UNL     1     131.308 143.350 123.315  1.00  0.00    -0.000 C 
BRANCH  28  29
ATOM     29  C   UNL     1     130.879 142.252 124.307  1.00  0.00    -0.000 C 
BRANCH  29  30
ATOM     30  C   UNL     1     129.396 142.349 124.707  1.00  0.00    -0.000 C 
BRANCH  30  31
ATOM     31  C   UNL     1     128.543 141.240 124.073  1.00  0.00    -0.003 C 
ATOM     32  C   UNL     1     129.369 140.019 123.666  1.00  0.00     0.004 C 
ENDBRANCH  30  31
ENDBRANCH  29  30
ENDBRANCH  28  29
ENDBRANCH  27  28
ENDBRANCH  26  27
ENDBRANCH  25  26
ENDBRANCH  24  25
ENDBRANCH  23  24
ENDBRANCH  22  23
ENDBRANCH  21  22
ENDBRANCH  20  21
ENDBRANCH  19  20
ENDBRANCH  18  19
ENDBRANCH   1  18
TORSDOF 28
ENDMDL
MODEL 5
REMARK VINA RESULT:    -3.252      2.029      4.920
REMARK INTER + INTRA:         -14.878
REMARK INTER:                  -9.055
REMARK INTRA:                  -5.823
REMARK UNBOUND:                -6.303
REMARK SMILES CCCCCCCCCCCCCCCCCCCCCCCCCCCCCC(=O)[O-]
REMARK SMILES IDX 16 1 17 2 18 3 19 4 20 5 21 6 22 7 23 8 24 9 25 10 26 11
REMARK SMILES IDX 27 12 28 13 29 14 30 15 31 16 32 17 15 18 14 19 13 20 12 21
REMARK SMILES IDX 11 22 10 23 9 24 8 25 7 26 6 27 5 28 4 29 3 30 2 31 1 32
REMARK H PARENT
REMARK Flexibility Score: inf
ROOT
ATOM      1  C   UNL     1     135.500 144.593 118.939  1.00  0.00     0.000 C 
ENDROOT
BRANCH   1   2
ATOM      2  C   UNL     1     135.063 143.474 117.982  1.00  0.00     0.000 C 
BRANCH   2   3
ATOM      3  C   UNL     1     133.646 142.958 118.280  1.00  0.00     0.000 C 
BRANCH   3   4
ATOM      4  C   UNL     1     133.441 142.619 119.766  1.00  0.00     0.000 C 
BRANCH   4   5
ATOM      5  C   UNL     1     131.959 142.425 120.129  1.00  0.00     0.000 C 
BRANCH   5   6
ATOM      6  C   UNL     1     131.006 143.005 119.071  1.00  0.00     0.000 C 
BRANCH   6   7
ATOM      7  C   UNL     1     129.838 143.796 119.702  1.00  0.00     0.000 C 
BRANCH   7   8
ATOM      8  C   UNL     1     128.668 142.906 120.162  1.00  0.00     0.000 C 
BRANCH   8   9
ATOM      9  C   UNL     1     127.579 143.638 120.968  1.00  0.00     0.000 C 
BRANCH   9  10
ATOM     10  C   UNL     1     127.201 145.038 120.440  1.00  0.00     0.000 C 
BRANCH  10  11
ATOM     11  C   UNL     1     127.149 146.145 121.508  1.00  0.00     0.000 C 
BRANCH  11  12
ATOM     12  C   UNL     1     128.458 146.266 122.304  1.00  0.00     0.000 C 
BRANCH  12  13
ATOM     13  C   UNL     1     128.247 146.808 123.731  1.00  0.00     0.006 C 
BRANCH  13  14
ATOM     14  C   UNL     1     127.157 146.065 124.522  1.00  0.00     0.053 C 
BRANCH  14  15
ATOM     15  C   UNL     1     127.691 144.878 125.262  1.00  0.00     0.041 C 
ATOM     16  O   UNL     1     128.556 145.031 126.164  1.00  0.00    -0.550 OA
ATOM     17  O   UNL     1     127.256 143.600 124.938  1.00  0.00    -0.550 OA
ENDBRANCH  14  15
ENDBRANCH  13  14
ENDBRANCH  12  13
ENDBRANCH  11  12
ENDBRANCH  10  11
ENDBRANCH   9  10
ENDBRANCH   8   9
ENDBRANCH   7   8
ENDBRANCH   6   7
ENDBRANCH   5   6
ENDBRANCH   4   5
ENDBRANCH   3   4
ENDBRANCH   2   3
ENDBRANCH   1   2
BRANCH   1  18
ATOM     18  C   UNL     1     134.830 145.925 118.570  1.00  0.00     0.000 C 
BRANCH  18  19
ATOM     19  C   UNL     1     134.093 146.571 119.757  1.00  0.00     0.000 C 
BRANCH  19  20
ATOM     20  C   UNL     1     132.573 146.313 119.796  1.00  0.00     0.000 C 
BRANCH  20  21
ATOM     21  C   UNL     1     131.878 146.717 121.113  1.00  0.00     0.000 C 
BRANCH  21  22
ATOM     22  C   UNL     1     132.685 146.422 122.394  1.00  0.00     0.000 C 
BRANCH  22  23
ATOM     23  C   UNL     1     132.690 144.948 122.834  1.00  0.00     0.000 C 
BRANCH  23  24
ATOM     24  C   UNL     1     131.564 144.624 123.832  1.00  0.00    -0.000 C 
BRANCH  24  25
ATOM     25  C   UNL     1     130.568 143.590 123.277  1.00  0.00    -0.000 C 
BRANCH  25  26
ATOM     26  C   UNL     1     130.581 142.240 124.030  1.00  0.00    -0.000 C 
BRANCH  26  27
ATOM     27  C   UNL     1     130.060 141.058 123.190  1.00  0.00    -0.000 C 
BRANCH  27  28
ATOM     28  C   UNL     1     128.540 140.822 123.278  1.00  0.00    -0.000 C 
BRANCH  28  29
ATOM     29  C   UNL     1     127.967 139.872 122.210  1.00  0.00    -0.000 C 
BRANCH  29  30
ATOM     30  C   UNL     1     129.025 138.924 121.618  1.00  0.00    -0.000 C 
BRANCH  30  31
ATOM     31  C   UNL     1     129.125 139.035 120.088  1.00  0.00    -0.003 C 
ATOM     32  C   UNL     1     130.468 138.543 119.548  1.00  0.00     0.004 C 
ENDBRANCH  30  31
ENDBRANCH  29  30
ENDBRANCH  28  29
ENDBRANCH  27  28
ENDBRANCH  26  27
ENDBRANCH  25  26
ENDBRANCH  24  25
ENDBRANCH  23  24
ENDBRANCH  22  23
ENDBRANCH  21  22
ENDBRANCH  20  21
ENDBRANCH  19  20
ENDBRANCH  18  19
ENDBRANCH   1  18
TORSDOF 28
ENDMDL
MODEL 6
REMARK VINA RESULT:    -3.250      2.485      6.400
REMARK INTER + INTRA:         -14.873
REMARK INTER:                  -8.921
REMARK INTRA:                  -5.951
REMARK UNBOUND:                -6.303
REMARK SMILES CCCCCCCCCCCCCCCCCCCCCCCCCCCCCC(=O)[O-]
REMARK SMILES IDX 16 1 17 2 18 3 19 4 20 5 21 6 22 7 23 8 24 9 25 10 26 11
REMARK SMILES IDX 27 12 28 13 29 14 30 15 31 16 32 17 15 18 14 19 13 20 12 21
REMARK SMILES IDX 11 22 10 23 9 24 8 25 7 26 6 27 5 28 4 29 3 30 2 31 1 32
REMARK H PARENT
REMARK Flexibility Score: inf
ROOT
ATOM      1  C   UNL     1     132.512 144.795 122.411  1.00  0.00     0.000 C 
ENDROOT
BRANCH   1   2
ATOM      2  C   UNL     1     131.369 144.882 121.389  1.00  0.00     0.000 C 
BRANCH   2   3
ATOM      3  C   UNL     1     131.665 145.873 120.251  1.00  0.00     0.000 C 
BRANCH   3   4
ATOM      4  C   UNL     1     130.385 146.414 119.591  1.00  0.00     0.000 C 
BRANCH   4   5
ATOM      5  C   UNL     1     129.115 146.042 120.374  1.00  0.00     0.000 C 
BRANCH   5   6
ATOM      6  C   UNL     1     127.897 145.819 119.461  1.00  0.00     0.000 C 
BRANCH   6   7
ATOM      7  C   UNL     1     128.024 144.534 118.613  1.00  0.00     0.000 C 
BRANCH   7   8
ATOM      8  C   UNL     1     128.656 143.354 119.374  1.00  0.00     0.000 C 
BRANCH   8   9
ATOM      9  C   UNL     1     127.674 142.552 120.250  1.00  0.00     0.000 C 
BRANCH   9  10
ATOM     10  C   UNL     1     127.602 142.994 121.728  1.00  0.00     0.000 C 
BRANCH  10  11
ATOM     11  C   UNL     1     128.856 142.684 122.563  1.00  0.00     0.000 C 
BRANCH  11  12
ATOM     12  C   UNL     1     128.905 143.475 123.880  1.00  0.00     0.000 C 
BRANCH  12  13
ATOM     13  C   UNL     1     128.156 144.819 123.803  1.00  0.00     0.006 C 
BRANCH  13  14
ATOM     14  C   UNL     1     129.059 146.047 124.006  1.00  0.00     0.053 C 
BRANCH  14  15
ATOM     15  C   UNL     1     129.826 145.991 125.290  1.00  0.00     0.041 C 
ATOM     16  O   UNL     1     131.075 146.152 125.289  1.00  0.00    -0.550 OA
ATOM     17  O   UNL     1     129.169 145.734 126.486  1.00  0.00    -0.550 OA
ENDBRANCH  14  15
ENDBRANCH  13  14
ENDBRANCH  12  13
ENDBRANCH  11  12
ENDBRANCH  10  11
ENDBRANCH   9  10
ENDBRANCH   8   9
ENDBRANCH   7   8
ENDBRANCH   6   7
ENDBRANCH   5   6
ENDBRANCH   4   5
ENDBRANCH   3   4
ENDBRANCH   2   3
ENDBRANCH   1   2
BRANCH   1  18
ATOM     18  C   UNL     1     133.546 145.906 122.177  1.00  0.00     0.000 C 
BRANCH  18  19
ATOM     19  C   UNL     1     134.997 145.411 122.318  1.00  0.00     0.000 C 
BRANCH  19  20
ATOM     20  C   UNL     1     136.063 146.340 121.704  1.00  0.00     0.000 C 
BRANCH  20  21
ATOM     21  C   UNL     1     136.447 146.017 120.246  1.00  0.00     0.000 C 
BRANCH  21  22
ATOM     22  C   UNL     1     135.562 146.687 119.174  1.00  0.00     0.000 C 
BRANCH  22  23
ATOM     23  C   UNL     1     134.817 145.712 118.245  1.00  0.00     0.000 C 
BRANCH  23  24
ATOM     24  C   UNL     1     135.060 144.238 118.615  1.00  0.00    -0.000 C 
BRANCH  24  25
ATOM     25  C   UNL     1     133.754 143.427 118.683  1.00  0.00    -0.000 C 
BRANCH  25  26
ATOM     26  C   UNL     1     133.925 142.012 119.284  1.00  0.00    -0.000 C 
BRANCH  26  27
ATOM     27  C   UNL     1     133.819 141.975 120.820  1.00  0.00    -0.000 C 
BRANCH  27  28
ATOM     28  C   UNL     1     132.593 141.217 121.367  1.00  0.00    -0.000 C 
BRANCH  28  29
ATOM     29  C   UNL     1     131.395 141.139 120.403  1.00  0.00    -0.000 C 
BRANCH  29  30
ATOM     30  C   UNL     1     130.904 139.699 120.168  1.00  0.00    -0.000 C 
BRANCH  30  31
ATOM     31  C   UNL     1     129.545 139.425 120.832  1.00  0.00    -0.003 C 
ATOM     32  C   UNL     1     128.496 138.921 119.840  1.00  0.00     0.004 C 
ENDBRANCH  30  31
ENDBRANCH  29  30
ENDBRANCH  28  29
ENDBRANCH  27  28
ENDBRANCH  26  27
ENDBRANCH  25  26
ENDBRANCH  24  25
ENDBRANCH  23  24
ENDBRANCH  22  23
ENDBRANCH  21  22
ENDBRANCH  20  21
ENDBRANCH  19  20
ENDBRANCH  18  19
ENDBRANCH   1  18
TORSDOF 28
ENDMDL
MODEL 7
REMARK VINA RESULT:    -3.215      2.680      6.046
REMARK INTER + INTRA:         -14.781
REMARK INTER:                  -9.049
REMARK INTRA:                  -5.732
REMARK UNBOUND:                -6.303
REMARK SMILES CCCCCCCCCCCCCCCCCCCCCCCCCCCCCC(=O)[O-]
REMARK SMILES IDX 16 1 17 2 18 3 19 4 20 5 21 6 22 7 23 8 24 9 25 10 26 11
REMARK SMILES IDX 27 12 28 13 29 14 30 15 31 16 32 17 15 18 14 19 13 20 12 21
REMARK SMILES IDX 11 22 10 23 9 24 8 25 7 26 6 27 5 28 4 29 3 30 2 31 1 32
REMARK H PARENT
REMARK Flexibility Score: inf
ROOT
ATOM      1  C   UNL     1     131.228 143.792 120.323  1.00  0.00     0.000 C 
ENDROOT
BRANCH   1   2
ATOM      2  C   UNL     1     129.872 143.180 119.942  1.00  0.00     0.000 C 
BRANCH   2   3
ATOM      3  C   UNL     1     129.043 144.097 119.027  1.00  0.00     0.000 C 
BRANCH   3   4
ATOM      4  C   UNL     1     127.573 144.200 119.469  1.00  0.00     0.000 C 
BRANCH   4   5
ATOM      5  C   UNL     1     126.974 145.592 119.207  1.00  0.00     0.000 C 
BRANCH   5   6
ATOM      6  C   UNL     1     126.875 146.446 120.482  1.00  0.00     0.000 C 
BRANCH   6   7
ATOM      7  C   UNL     1     127.375 145.693 121.735  1.00  0.00     0.000 C 
BRANCH   7   8
ATOM      8  C   UNL     1     128.594 146.353 122.406  1.00  0.00     0.000 C 
BRANCH   8   9
ATOM      9  C   UNL     1     128.426 146.644 123.909  1.00  0.00     0.000 C 
BRANCH   9  10
ATOM     10  C   UNL     1     127.254 145.906 124.593  1.00  0.00     0.000 C 
BRANCH  10  11
ATOM     11  C   UNL     1     127.608 145.207 125.917  1.00  0.00     0.000 C 
BRANCH  11  12
ATOM     12  C   UNL     1     129.035 145.522 126.394  1.00  0.00     0.000 C 
BRANCH  12  13
ATOM     13  C   UNL     1     129.309 145.041 127.831  1.00  0.00     0.006 C 
BRANCH  13  14
ATOM     14  C   UNL     1     129.854 146.138 128.761  1.00  0.00     0.053 C 
BRANCH  14  15
ATOM     15  C   UNL     1     131.340 146.060 128.934  1.00  0.00     0.041 C 
ATOM     16  O   UNL     1     132.011 145.226 128.270  1.00  0.00    -0.550 OA
ATOM     17  O   UNL     1     131.981 146.886 129.846  1.00  0.00    -0.550 OA
ENDBRANCH  14  15
ENDBRANCH  13  14
ENDBRANCH  12  13
ENDBRANCH  11  12
ENDBRANCH  10  11
ENDBRANCH   9  10
ENDBRANCH   8   9
ENDBRANCH   7   8
ENDBRANCH   6   7
ENDBRANCH   5   6
ENDBRANCH   4   5
ENDBRANCH   3   4
ENDBRANCH   2   3
ENDBRANCH   1   2
BRANCH   1  18
ATOM     18  C   UNL     1     131.228 145.312 120.101  1.00  0.00     0.000 C 
BRANCH  18  19
ATOM     19  C   UNL     1     132.646 145.909 120.054  1.00  0.00     0.000 C 
BRANCH  19  20
ATOM     20  C   UNL     1     133.287 146.170 121.432  1.00  0.00     0.000 C 
BRANCH  20  21
ATOM     21  C   UNL     1     132.330 146.741 122.498  1.00  0.00     0.000 C 
BRANCH  21  22
ATOM     22  C   UNL     1     132.086 145.824 123.714  1.00  0.00     0.000 C 
BRANCH  22  23
ATOM     23  C   UNL     1     132.816 144.470 123.664  1.00  0.00     0.000 C 
BRANCH  23  24
ATOM     24  C   UNL     1     131.920 143.297 124.101  1.00  0.00    -0.000 C 
BRANCH  24  25
ATOM     25  C   UNL     1     130.446 143.506 123.709  1.00  0.00    -0.000 C 
BRANCH  25  26
ATOM     26  C   UNL     1     129.487 142.438 124.285  1.00  0.00    -0.000 C 
BRANCH  26  27
ATOM     27  C   UNL     1     128.132 142.366 123.557  1.00  0.00    -0.000 C 
BRANCH  27  28
ATOM     28  C   UNL     1     128.030 141.263 122.486  1.00  0.00    -0.000 C 
BRANCH  28  29
ATOM     29  C   UNL     1     129.294 140.399 122.321  1.00  0.00    -0.000 C 
BRANCH  29  30
ATOM     30  C   UNL     1     129.339 139.648 120.978  1.00  0.00    -0.000 C 
BRANCH  30  31
ATOM     31  C   UNL     1     128.118 139.950 120.095  1.00  0.00    -0.003 C 
ATOM     32  C   UNL     1     127.302 138.699 119.770  1.00  0.00     0.004 C 
ENDBRANCH  30  31
ENDBRANCH  29  30
ENDBRANCH  28  29
ENDBRANCH  27  28
ENDBRANCH  26  27
ENDBRANCH  25  26
ENDBRANCH  24  25
ENDBRANCH  23  24
ENDBRANCH  22  23
ENDBRANCH  21  22
ENDBRANCH  20  21
ENDBRANCH  19  20
ENDBRANCH  18  19
ENDBRANCH   1  18
TORSDOF 28
ENDMDL
MODEL 8
REMARK VINA RESULT:    -3.186      2.788      5.750
REMARK INTER + INTRA:         -14.704
REMARK INTER:                  -8.549
REMARK INTRA:                  -6.155
REMARK UNBOUND:                -6.303
REMARK SMILES CCCCCCCCCCCCCCCCCCCCCCCCCCCCCC(=O)[O-]
REMARK SMILES IDX 16 1 17 2 18 3 19 4 20 5 21 6 22 7 23 8 24 9 25 10 26 11
REMARK SMILES IDX 27 12 28 13 29 14 30 15 31 16 32 17 15 18 14 19 13 20 12 21
REMARK SMILES IDX 11 22 10 23 9 24 8 25 7 26 6 27 5 28 4 29 3 30 2 31 1 32
REMARK H PARENT
REMARK Flexibility Score: inf
ROOT
ATOM      1  C   UNL     1     128.632 141.964 124.224  1.00  0.00     0.000 C 
ENDROOT
BRANCH   1   2
ATOM      2  C   UNL     1     129.234 142.366 122.870  1.00  0.00     0.000 C 
BRANCH   2   3
ATOM      3  C   UNL     1     128.580 141.633 121.688  1.00  0.00     0.000 C 
BRANCH   3   4
ATOM      4  C   UNL     1     128.663 142.433 120.377  1.00  0.00     0.000 C 
BRANCH   4   5
ATOM      5  C   UNL     1     127.379 143.229 120.088  1.00  0.00     0.000 C 
BRANCH   5   6
ATOM      6  C   UNL     1     127.641 144.507 119.273  1.00  0.00     0.000 C 
BRANCH   6   7
ATOM      7  C   UNL     1     127.156 145.779 120.002  1.00  0.00     0.000 C 
BRANCH   7   8
ATOM      8  C   UNL     1     127.094 145.626 121.533  1.00  0.00     0.000 C 
BRANCH   8   9
ATOM      9  C   UNL     1     128.204 146.369 122.302  1.00  0.00     0.000 C 
BRANCH   9  10
ATOM     10  C   UNL     1     129.597 145.708 122.244  1.00  0.00     0.000 C 
BRANCH  10  11
ATOM     11  C   UNL     1     130.642 146.460 121.402  1.00  0.00     0.000 C 
BRANCH  11  12
ATOM     12  C   UNL     1     130.961 145.750 120.076  1.00  0.00     0.000 C 
BRANCH  12  13
ATOM     13  C   UNL     1     131.918 144.555 120.249  1.00  0.00     0.006 C 
BRANCH  13  14
ATOM     14  C   UNL     1     133.351 144.831 119.764  1.00  0.00     0.053 C 
BRANCH  14  15
ATOM     15  C   UNL     1     134.222 145.407 120.837  1.00  0.00     0.041 C 
ATOM     16  O   UNL     1     135.009 144.664 121.480  1.00  0.00    -0.550 OA
ATOM     17  O   UNL     1     134.146 146.758 121.147  1.00  0.00    -0.550 OA
ENDBRANCH  14  15
ENDBRANCH  13  14
ENDBRANCH  12  13
ENDBRANCH  11  12
ENDBRANCH  10  11
ENDBRANCH   9  10
ENDBRANCH   8   9
ENDBRANCH   7   8
ENDBRANCH   6   7
ENDBRANCH   5   6
ENDBRANCH   4   5
ENDBRANCH   3   4
ENDBRANCH   2   3
ENDBRANCH   1   2
BRANCH   1  18
ATOM     18  C   UNL     1     128.107 143.193 124.981  1.00  0.00     0.000 C 
BRANCH  18  19
ATOM     19  C   UNL     1     129.134 143.765 125.975  1.00  0.00     0.000 C 
BRANCH  19  20
ATOM     20  C   UNL     1     128.892 145.230 126.389  1.00  0.00     0.000 C 
BRANCH  20  21
ATOM     21  C   UNL     1     129.853 146.254 125.751  1.00  0.00     0.000 C 
BRANCH  21  22
ATOM     22  C   UNL     1     130.695 147.071 126.752  1.00  0.00     0.000 C 
BRANCH  22  23
ATOM     23  C   UNL     1     130.828 146.445 128.152  1.00  0.00     0.000 C 
BRANCH  23  24
ATOM     24  C   UNL     1     132.292 146.189 128.550  1.00  0.00    -0.000 C 
BRANCH  24  25
ATOM     25  C   UNL     1     133.260 146.351 127.364  1.00  0.00    -0.000 C 
BRANCH  25  26
ATOM     26  C   UNL     1     133.960 145.038 126.944  1.00  0.00    -0.000 C 
BRANCH  26  27
ATOM     27  C   UNL     1     134.371 145.004 125.460  1.00  0.00    -0.000 C 
BRANCH  27  28
ATOM     28  C   UNL     1     133.269 145.436 124.472  1.00  0.00    -0.000 C 
BRANCH  28  29
ATOM     29  C   UNL     1     132.334 144.304 124.007  1.00  0.00    -0.000 C 
BRANCH  29  30
ATOM     30  C   UNL     1     133.002 142.918 124.043  1.00  0.00    -0.000 C 
BRANCH  30  31
ATOM     31  C   UNL     1     132.289 141.945 124.995  1.00  0.00    -0.003 C 
ATOM     32  C   UNL     1     133.257 141.001 125.708  1.00  0.00     0.004 C 
ENDBRANCH  30  31
ENDBRANCH  29  30
ENDBRANCH  28  29
ENDBRANCH  27  28
ENDBRANCH  26  27
ENDBRANCH  25  26
ENDBRANCH  24  25
ENDBRANCH  23  24
ENDBRANCH  22  23
ENDBRANCH  21  22
ENDBRANCH  20  21
ENDBRANCH  19  20
ENDBRANCH  18  19
ENDBRANCH   1  18
TORSDOF 28
ENDMDL
MODEL 9
REMARK VINA RESULT:    -3.011      2.063      6.050
REMARK INTER + INTRA:         -14.243
REMARK INTER:                  -8.473
REMARK INTRA:                  -5.769
REMARK UNBOUND:                -6.303
REMARK SMILES CCCCCCCCCCCCCCCCCCCCCCCCCCCCCC(=O)[O-]
REMARK SMILES IDX 16 1 17 2 18 3 19 4 20 5 21 6 22 7 23 8 24 9 25 10 26 11
REMARK SMILES IDX 27 12 28 13 29 14 30 15 31 16 32 17 15 18 14 19 13 20 12 21
REMARK SMILES IDX 11 22 10 23 9 24 8 25 7 26 6 27 5 28 4 29 3 30 2 31 1 32
REMARK H PARENT
REMARK Flexibility Score: inf
ROOT
ATOM      1  C   UNL     1     130.282 139.682 120.122  1.00  0.00     0.000 C 
ENDROOT
BRANCH   1   2
ATOM      2  C   UNL     1     129.055 139.924 121.013  1.00  0.00     0.000 C 
BRANCH   2   3
ATOM      3  C   UNL     1     127.741 139.965 120.216  1.00  0.00     0.000 C 
BRANCH   3   4
ATOM      4  C   UNL     1     126.875 141.187 120.568  1.00  0.00     0.000 C 
BRANCH   4   5
ATOM      5  C   UNL     1     127.598 142.176 121.497  1.00  0.00     0.000 C 
BRANCH   5   6
ATOM      6  C   UNL     1     127.608 143.612 120.945  1.00  0.00     0.000 C 
BRANCH   6   7
ATOM      7  C   UNL     1     127.650 143.649 119.402  1.00  0.00     0.000 C 
BRANCH   7   8
ATOM      8  C   UNL     1     128.250 144.948 118.832  1.00  0.00     0.000 C 
BRANCH   8   9
ATOM      9  C   UNL     1     128.712 145.965 119.893  1.00  0.00     0.000 C 
BRANCH   9  10
ATOM     10  C   UNL     1     130.194 146.386 119.796  1.00  0.00     0.000 C 
BRANCH  10  11
ATOM     11  C   UNL     1     130.960 146.387 121.130  1.00  0.00     0.000 C 
BRANCH  11  12
ATOM     12  C   UNL     1     130.605 145.185 122.021  1.00  0.00     0.000 C 
BRANCH  12  13
ATOM     13  C   UNL     1     129.909 145.595 123.333  1.00  0.00     0.006 C 
BRANCH  13  14
ATOM     14  C   UNL     1     129.770 144.447 124.347  1.00  0.00     0.053 C 
BRANCH  14  15
ATOM     15  C   UNL     1     128.420 144.412 124.995  1.00  0.00     0.041 C 
ATOM     16  O   UNL     1     127.605 143.495 124.710  1.00  0.00    -0.550 OA
ATOM     17  O   UNL     1     128.050 145.405 125.892  1.00  0.00    -0.550 OA
ENDBRANCH  14  15
ENDBRANCH  13  14
ENDBRANCH  12  13
ENDBRANCH  11  12
ENDBRANCH  10  11
ENDBRANCH   9  10
ENDBRANCH   8   9
ENDBRANCH   7   8
ENDBRANCH   6   7
ENDBRANCH   5   6
ENDBRANCH   4   5
ENDBRANCH   3   4
ENDBRANCH   2   3
ENDBRANCH   1   2
BRANCH   1  18
ATOM     18  C   UNL     1     131.496 140.477 120.627  1.00  0.00     0.000 C 
BRANCH  18  19
ATOM     19  C   UNL     1     131.212 141.985 120.751  1.00  0.00     0.000 C 
BRANCH  19  20
ATOM     20  C   UNL     1     131.249 142.765 119.422  1.00  0.00     0.000 C 
BRANCH  20  21
ATOM     21  C   UNL     1     132.661 143.018 118.854  1.00  0.00     0.000 C 
BRANCH  21  22
ATOM     22  C   UNL     1     133.399 144.231 119.459  1.00  0.00     0.000 C 
BRANCH  22  23
ATOM     23  C   UNL     1     134.636 144.697 118.672  1.00  0.00     0.000 C 
BRANCH  23  24
ATOM     24  C   UNL     1     134.989 146.170 118.941  1.00  0.00    -0.000 C 
BRANCH  24  25
ATOM     25  C   UNL     1     136.268 146.323 119.784  1.00  0.00    -0.000 C 
BRANCH  25  26
ATOM     26  C   UNL     1     136.011 146.797 121.233  1.00  0.00    -0.000 C 
BRANCH  26  27
ATOM     27  C   UNL     1     135.609 145.662 122.193  1.00  0.00    -0.000 C 
BRANCH  27  28
ATOM     28  C   UNL     1     134.181 145.769 122.761  1.00  0.00    -0.000 C 
BRANCH  28  29
ATOM     29  C   UNL     1     133.754 144.603 123.672  1.00  0.00    -0.000 C 
BRANCH  29  30
ATOM     30  C   UNL     1     134.070 143.222 123.071  1.00  0.00    -0.000 C 
BRANCH  30  31
ATOM     31  C   UNL     1     133.178 142.111 123.646  1.00  0.00    -0.003 C 
ATOM     32  C   UNL     1     132.979 142.238 125.156  1.00  0.00     0.004 C 
ENDBRANCH  30  31
ENDBRANCH  29  30
ENDBRANCH  28  29
ENDBRANCH  27  28
ENDBRANCH  26  27
ENDBRANCH  25  26
ENDBRANCH  24  25
ENDBRANCH  23  24
ENDBRANCH  22  23
ENDBRANCH  21  22
ENDBRANCH  20  21
ENDBRANCH  19  20
ENDBRANCH  18  19
ENDBRANCH   1  18
TORSDOF 28
ENDMDL
