MODEL 1
REMARK VINA RESULT:    -3.647      0.000      0.000
REMARK INTER + INTRA:          -6.325
REMARK INTER:                  -5.780
REMARK INTRA:                  -0.546
REMARK UNBOUND:                -0.546
REMARK SMILES CCCCCCCCCCCC(=O)[O-]
REMARK SMILES IDX 7 1 8 2 9 3 10 4 11 5 12 6 13 7 14 8 6 9 5 10 4 11 3 12 2 13
REMARK SMILES IDX 1 14
REMARK H PARENT
REMARK Flexibility Score: inf
ROOT
ATOM      1  C   UNL     1      26.618  61.991  76.914  1.00  0.00     0.000 C 
ENDROOT
BRANCH   1   2
ATOM      2  C   UNL     1      26.694  61.696  78.420  1.00  0.00     0.000 C 
BRANCH   2   3
ATOM      3  C   UNL     1      25.442  62.170  79.179  1.00  0.00     0.000 C 
BRANCH   3   4
ATOM      4  C   UNL     1      25.619  62.110  80.705  1.00  0.00     0.006 C 
BRANCH   4   5
ATOM      5  C   UNL     1      27.070  62.350  81.142  1.00  0.00     0.053 C 
BRANCH   5   6
ATOM      6  C   UNL     1      27.476  61.347  82.176  1.00  0.00     0.041 C 
ATOM      7  O   UNL     1      27.488  61.662  83.394  1.00  0.00    -0.550 OA
ATOM      8  O   UNL     1      27.792  60.048  81.798  1.00  0.00    -0.550 OA
ENDBRANCH   5   6
ENDBRANCH   4   5
ENDBRANCH   3   4
ENDBRANCH   2   3
ENDBRANCH   1   2
BRANCH   1   9
ATOM      9  C   UNL     1      25.444  62.912  76.547  1.00  0.00     0.000 C 
BRANCH   9  10
ATOM     10  C   UNL     1      25.892  64.009  75.574  1.00  0.00    -0.000 C 
BRANCH  10  11
ATOM     11  C   UNL     1      25.394  65.387  76.028  1.00  0.00    -0.000 C 
BRANCH  11  12
ATOM     12  C   UNL     1      26.352  66.497  75.573  1.00  0.00    -0.000 C 
BRANCH  12  13
ATOM     13  C   UNL     1      25.871  67.897  75.980  1.00  0.00    -0.003 C 
ATOM     14  C   UNL     1      24.615  67.861  76.850  1.00  0.00     0.004 C 
ENDBRANCH  12  13
ENDBRANCH  11  12
ENDBRANCH  10  11
ENDBRANCH   9  10
ENDBRANCH   1   9
TORSDOF 10
ENDMDL
MODEL 2
REMARK VINA RESULT:    -3.561      2.090      2.913
REMARK INTER + INTRA:          -6.189
REMARK INTER:                  -5.181
REMARK INTRA:                  -1.008
REMARK UNBOUND:                -0.546
REMARK SMILES CCCCCCCCCCCC(=O)[O-]
REMARK SMILES IDX 7 1 8 2 9 3 10 4 11 5 12 6 13 7 14 8 6 9 5 10 4 11 3 12 2 13
REMARK SMILES IDX 1 14
REMARK H PARENT
REMARK Flexibility Score: inf
ROOT
ATOM      1  C   UNL     1      24.743  63.142  74.468  1.00  0.00     0.000 C 
ENDROOT
BRANCH   1   2
ATOM      2  C   UNL     1      24.003  62.886  75.791  1.00  0.00     0.000 C 
BRANCH   2   3
ATOM      3  C   UNL     1      24.929  62.995  77.015  1.00  0.00     0.000 C 
BRANCH   3   4
ATOM      4  C   UNL     1      26.336  62.439  76.742  1.00  0.00     0.006 C 
BRANCH   4   5
ATOM      5  C   UNL     1      26.605  61.120  77.478  1.00  0.00     0.053 C 
BRANCH   5   6
ATOM      6  C   UNL     1      27.446  61.362  78.692  1.00  0.00     0.041 C 
ATOM      7  O   UNL     1      26.929  61.841  79.735  1.00  0.00    -0.550 OA
ATOM      8  O   UNL     1      28.790  61.012  78.688  1.00  0.00    -0.550 OA
ENDBRANCH   5   6
ENDBRANCH   4   5
ENDBRANCH   3   4
ENDBRANCH   2   3
ENDBRANCH   1   2
BRANCH   1   9
ATOM      9  C   UNL     1      24.773  64.629  74.083  1.00  0.00     0.000 C 
BRANCH   9  10
ATOM     10  C   UNL     1      26.213  65.107  73.859  1.00  0.00    -0.000 C 
BRANCH  10  11
ATOM     11  C   UNL     1      26.766  65.799  75.110  1.00  0.00    -0.000 C 
BRANCH  11  12
ATOM     12  C   UNL     1      25.630  66.365  75.975  1.00  0.00    -0.000 C 
BRANCH  12  13
ATOM     13  C   UNL     1      25.544  67.898  75.908  1.00  0.00    -0.003 C 
ATOM     14  C   UNL     1      24.514  68.475  76.878  1.00  0.00     0.004 C 
ENDBRANCH  12  13
ENDBRANCH  11  12
ENDBRANCH  10  11
ENDBRANCH   9  10
ENDBRANCH   1   9
TORSDOF 10
ENDMDL
MODEL 3
REMARK VINA RESULT:    -3.469      6.867     10.255
REMARK INTER + INTRA:          -6.043
REMARK INTER:                  -4.525
REMARK INTRA:                  -1.518
REMARK UNBOUND:                -0.546
REMARK SMILES CCCCCCCCCCCC(=O)[O-]
REMARK SMILES IDX 7 1 8 2 9 3 10 4 11 5 12 6 13 7 14 8 6 9 5 10 4 11 3 12 2 13
REMARK SMILES IDX 1 14
REMARK H PARENT
REMARK Flexibility Score: inf
ROOT
ATOM      1  C   UNL     1      30.598  57.684  86.036  1.00  0.00     0.000 C 
ENDROOT
BRANCH   1   2
ATOM      2  C   UNL     1      30.310  58.404  84.709  1.00  0.00     0.000 C 
BRANCH   2   3
ATOM      3  C   UNL     1      28.926  58.053  84.134  1.00  0.00     0.000 C 
BRANCH   3   4
ATOM      4  C   UNL     1      28.303  59.217  83.346  1.00  0.00     0.006 C 
BRANCH   4   5
ATOM      5  C   UNL     1      26.958  59.673  83.926  1.00  0.00     0.053 C 
BRANCH   5   6
ATOM      6  C   UNL     1      26.855  61.166  83.892  1.00  0.00     0.041 C 
ATOM      7  O   UNL     1      27.628  61.838  83.161  1.00  0.00    -0.550 OA
ATOM      8  O   UNL     1      25.871  61.812  84.630  1.00  0.00    -0.550 OA
ENDBRANCH   5   6
ENDBRANCH   4   5
ENDBRANCH   3   4
ENDBRANCH   2   3
ENDBRANCH   1   2
BRANCH   1   9
ATOM      9  C   UNL     1      29.395  56.876  86.546  1.00  0.00     0.000 C 
BRANCH   9  10
ATOM     10  C   UNL     1      29.257  57.000  88.068  1.00  0.00    -0.000 C 
BRANCH  10  11
ATOM     11  C   UNL     1      27.835  57.418  88.462  1.00  0.00    -0.000 C 
BRANCH  11  12
ATOM     12  C   UNL     1      27.231  58.367  87.416  1.00  0.00    -0.000 C 
BRANCH  12  13
ATOM     13  C   UNL     1      27.300  59.840  87.845  1.00  0.00    -0.003 C 
ATOM     14  C   UNL     1      28.457  60.594  87.190  1.00  0.00     0.004 C 
ENDBRANCH  12  13
ENDBRANCH  11  12
ENDBRANCH  10  11
ENDBRANCH   9  10
ENDBRANCH   1   9
TORSDOF 10
ENDMDL
MODEL 4
REMARK VINA RESULT:    -3.454      1.945      2.889
REMARK INTER + INTRA:          -6.020
REMARK INTER:                  -5.205
REMARK INTRA:                  -0.815
REMARK UNBOUND:                -0.546
REMARK SMILES CCCCCCCCCCCC(=O)[O-]
REMARK SMILES IDX 7 1 8 2 9 3 10 4 11 5 12 6 13 7 14 8 6 9 5 10 4 11 3 12 2 13
REMARK SMILES IDX 1 14
REMARK H PARENT
REMARK Flexibility Score: inf
ROOT
ATOM      1  C   UNL     1      24.800  62.912  78.669  1.00  0.00     0.000 C 
ENDROOT
BRANCH   1   2
ATOM      2  C   UNL     1      25.447  61.519  78.603  1.00  0.00     0.000 C 
BRANCH   2   3
ATOM      3  C   UNL     1      26.434  61.272  79.757  1.00  0.00     0.000 C 
BRANCH   3   4
ATOM      4  C   UNL     1      27.883  61.619  79.378  1.00  0.00     0.006 C 
BRANCH   4   5
ATOM      5  C   UNL     1      28.319  60.978  78.054  1.00  0.00     0.053 C 
BRANCH   5   6
ATOM      6  C   UNL     1      29.052  59.699  78.309  1.00  0.00     0.041 C 
ATOM      7  O   UNL     1      29.390  58.959  77.349  1.00  0.00    -0.550 OA
ATOM      8  O   UNL     1      29.407  59.348  79.606  1.00  0.00    -0.550 OA
ENDBRANCH   5   6
ENDBRANCH   4   5
ENDBRANCH   3   4
ENDBRANCH   2   3
ENDBRANCH   1   2
BRANCH   1   9
ATOM      9  C   UNL     1      24.551  63.517  77.279  1.00  0.00     0.000 C 
BRANCH   9  10
ATOM     10  C   UNL     1      25.621  63.056  76.281  1.00  0.00    -0.000 C 
BRANCH  10  11
ATOM     11  C   UNL     1      26.246  64.250  75.551  1.00  0.00    -0.000 C 
BRANCH  11  12
ATOM     12  C   UNL     1      25.447  65.536  75.812  1.00  0.00    -0.000 C 
BRANCH  12  13
ATOM     13  C   UNL     1      26.298  66.804  75.648  1.00  0.00    -0.003 C 
ATOM     14  C   UNL     1      25.563  68.070  76.087  1.00  0.00     0.004 C 
ENDBRANCH  12  13
ENDBRANCH  11  12
ENDBRANCH  10  11
ENDBRANCH   9  10
ENDBRANCH   1   9
TORSDOF 10
ENDMDL
MODEL 5
REMARK VINA RESULT:    -3.415      2.569      3.709
REMARK INTER + INTRA:          -5.957
REMARK INTER:                  -4.955
REMARK INTRA:                  -1.002
REMARK UNBOUND:                -0.546
REMARK SMILES CCCCCCCCCCCC(=O)[O-]
REMARK SMILES IDX 7 1 8 2 9 3 10 4 11 5 12 6 13 7 14 8 6 9 5 10 4 11 3 12 2 13
REMARK SMILES IDX 1 14
REMARK H PARENT
REMARK Flexibility Score: inf
ROOT
ATOM      1  C   UNL     1      23.884  64.210  76.857  1.00  0.00     0.000 C 
ENDROOT
BRANCH   1   2
ATOM      2  C   UNL     1      24.764  63.316  77.745  1.00  0.00     0.000 C 
BRANCH   2   3
ATOM      3  C   UNL     1      25.933  62.683  76.972  1.00  0.00     0.000 C 
BRANCH   3   4
ATOM      4  C   UNL     1      26.759  61.718  77.838  1.00  0.00     0.006 C 
BRANCH   4   5
ATOM      5  C   UNL     1      27.395  60.585  77.022  1.00  0.00     0.053 C 
BRANCH   5   6
ATOM      6  C   UNL     1      28.779  60.300  77.515  1.00  0.00     0.041 C 
ATOM      7  O   UNL     1      29.046  60.391  78.741  1.00  0.00    -0.550 OA
ATOM      8  O   UNL     1      29.761  59.883  76.626  1.00  0.00    -0.550 OA
ENDBRANCH   5   6
ENDBRANCH   4   5
ENDBRANCH   3   4
ENDBRANCH   2   3
ENDBRANCH   1   2
BRANCH   1   9
ATOM      9  C   UNL     1      23.908  65.684  77.288  1.00  0.00     0.000 C 
BRANCH   9  10
ATOM     10  C   UNL     1      24.242  66.597  76.102  1.00  0.00    -0.000 C 
BRANCH  10  11
ATOM     11  C   UNL     1      25.717  67.015  76.124  1.00  0.00    -0.000 C 
BRANCH  11  12
ATOM     12  C   UNL     1      26.551  66.139  75.178  1.00  0.00    -0.000 C 
BRANCH  12  13
ATOM     13  C   UNL     1      25.765  65.699  73.933  1.00  0.00    -0.003 C 
ATOM     14  C   UNL     1      25.827  64.191  73.697  1.00  0.00     0.004 C 
ENDBRANCH  12  13
ENDBRANCH  11  12
ENDBRANCH  10  11
ENDBRANCH   9  10
ENDBRANCH   1   9
TORSDOF 10
ENDMDL
MODEL 6
REMARK VINA RESULT:    -3.376      7.477      9.830
REMARK INTER + INTRA:          -5.895
REMARK INTER:                  -4.222
REMARK INTRA:                  -1.673
REMARK UNBOUND:                -0.546
REMARK SMILES CCCCCCCCCCCC(=O)[O-]
REMARK SMILES IDX 7 1 8 2 9 3 10 4 11 5 12 6 13 7 14 8 6 9 5 10 4 11 3 12 2 13
REMARK SMILES IDX 1 14
REMARK H PARENT
REMARK Flexibility Score: inf
ROOT
ATOM      1  C   UNL     1      26.908  58.834  88.407  1.00  0.00     0.000 C 
ENDROOT
BRANCH   1   2
ATOM      2  C   UNL     1      27.685  60.016  87.806  1.00  0.00     0.000 C 
BRANCH   2   3
ATOM      3  C   UNL     1      28.702  59.574  86.740  1.00  0.00     0.000 C 
BRANCH   3   4
ATOM      4  C   UNL     1      29.033  58.075  86.827  1.00  0.00     0.006 C 
BRANCH   4   5
ATOM      5  C   UNL     1      29.232  57.431  85.449  1.00  0.00     0.053 C 
BRANCH   5   6
ATOM      6  C   UNL     1      30.507  57.911  84.829  1.00  0.00     0.041 C 
ATOM      7  O   UNL     1      31.608  57.705  85.402  1.00  0.00    -0.550 OA
ATOM      8  O   UNL     1      30.483  58.542  83.591  1.00  0.00    -0.550 OA
ENDBRANCH   5   6
ENDBRANCH   4   5
ENDBRANCH   3   4
ENDBRANCH   2   3
ENDBRANCH   1   2
BRANCH   1   9
ATOM      9  C   UNL     1      25.490  58.700  87.831  1.00  0.00     0.000 C 
BRANCH   9  10
ATOM     10  C   UNL     1      25.357  57.421  86.995  1.00  0.00    -0.000 C 
BRANCH  10  11
ATOM     11  C   UNL     1      25.432  57.731  85.495  1.00  0.00    -0.000 C 
BRANCH  11  12
ATOM     12  C   UNL     1      24.969  59.166  85.206  1.00  0.00    -0.000 C 
BRANCH  12  13
ATOM     13  C   UNL     1      25.935  59.924  84.282  1.00  0.00    -0.003 C 
ATOM     14  C   UNL     1      26.116  61.386  84.688  1.00  0.00     0.004 C 
ENDBRANCH  12  13
ENDBRANCH  11  12
ENDBRANCH  10  11
ENDBRANCH   9  10
ENDBRANCH   1   9
TORSDOF 10
ENDMDL
MODEL 7
REMARK VINA RESULT:    -3.359      6.237      8.755
REMARK INTER + INTRA:          -5.868
REMARK INTER:                  -4.416
REMARK INTRA:                  -1.452
REMARK UNBOUND:                -0.546
REMARK SMILES CCCCCCCCCCCC(=O)[O-]
REMARK SMILES IDX 7 1 8 2 9 3 10 4 11 5 12 6 13 7 14 8 6 9 5 10 4 11 3 12 2 13
REMARK SMILES IDX 1 14
REMARK H PARENT
REMARK Flexibility Score: inf
ROOT
ATOM      1  C   UNL     1      25.536  61.038  84.499  1.00  0.00     0.000 C 
ENDROOT
BRANCH   1   2
ATOM      2  C   UNL     1      26.069  61.415  83.107  1.00  0.00     0.000 C 
BRANCH   2   3
ATOM      3  C   UNL     1      27.599  61.285  83.005  1.00  0.00     0.000 C 
BRANCH   3   4
ATOM      4  C   UNL     1      28.035  59.977  82.324  1.00  0.00     0.006 C 
BRANCH   4   5
ATOM      5  C   UNL     1      28.416  58.884  83.331  1.00  0.00     0.053 C 
BRANCH   5   6
ATOM      6  C   UNL     1      29.904  58.745  83.412  1.00  0.00     0.041 C 
ATOM      7  O   UNL     1      30.623  59.051  82.426  1.00  0.00    -0.550 OA
ATOM      8  O   UNL     1      30.500  58.327  84.595  1.00  0.00    -0.550 OA
ENDBRANCH   5   6
ENDBRANCH   4   5
ENDBRANCH   3   4
ENDBRANCH   2   3
ENDBRANCH   1   2
BRANCH   1   9
ATOM      9  C   UNL     1      24.757  59.714  84.497  1.00  0.00     0.000 C 
BRANCH   9  10
ATOM     10  C   UNL     1      25.354  58.725  85.505  1.00  0.00    -0.000 C 
BRANCH  10  11
ATOM     11  C   UNL     1      26.127  59.459  86.607  1.00  0.00    -0.000 C 
BRANCH  11  12
ATOM     12  C   UNL     1      27.548  58.894  86.753  1.00  0.00    -0.000 C 
BRANCH  12  13
ATOM     13  C   UNL     1      28.578  59.973  87.117  1.00  0.00    -0.003 C 
ATOM     14  C   UNL     1      27.949  61.354  87.302  1.00  0.00     0.004 C 
ENDBRANCH  12  13
ENDBRANCH  11  12
ENDBRANCH  10  11
ENDBRANCH   9  10
ENDBRANCH   1   9
TORSDOF 10
ENDMDL
MODEL 8
REMARK VINA RESULT:    -3.285      6.633      9.340
REMARK INTER + INTRA:          -5.751
REMARK INTER:                  -4.523
REMARK INTRA:                  -1.228
REMARK UNBOUND:                -0.546
REMARK SMILES CCCCCCCCCCCC(=O)[O-]
REMARK SMILES IDX 7 1 8 2 9 3 10 4 11 5 12 6 13 7 14 8 6 9 5 10 4 11 3 12 2 13
REMARK SMILES IDX 1 14
REMARK H PARENT
REMARK Flexibility Score: inf
ROOT
ATOM      1  C   UNL     1      26.857  61.354  83.591  1.00  0.00     0.000 C 
ENDROOT
BRANCH   1   2
ATOM      2  C   UNL     1      27.736  60.396  82.771  1.00  0.00     0.000 C 
BRANCH   2   3
ATOM      3  C   UNL     1      27.559  58.926  83.190  1.00  0.00     0.000 C 
BRANCH   3   4
ATOM      4  C   UNL     1      28.895  58.169  83.262  1.00  0.00     0.006 C 
BRANCH   4   5
ATOM      5  C   UNL     1      30.097  59.053  82.903  1.00  0.00     0.053 C 
BRANCH   5   6
ATOM      6  C   UNL     1      30.759  58.552  81.658  1.00  0.00     0.041 C 
ATOM      7  O   UNL     1      30.066  58.115  80.703  1.00  0.00    -0.550 OA
ATOM      8  O   UNL     1      32.141  58.616  81.532  1.00  0.00    -0.550 OA
ENDBRANCH   5   6
ENDBRANCH   4   5
ENDBRANCH   3   4
ENDBRANCH   2   3
ENDBRANCH   1   2
BRANCH   1   9
ATOM      9  C   UNL     1      26.463  60.774  84.958  1.00  0.00     0.000 C 
BRANCH   9  10
ATOM     10  C   UNL     1      27.276  61.425  86.084  1.00  0.00    -0.000 C 
BRANCH  10  11
ATOM     11  C   UNL     1      27.609  60.408  87.183  1.00  0.00    -0.000 C 
BRANCH  11  12
ATOM     12  C   UNL     1      28.774  59.502  86.761  1.00  0.00    -0.000 C 
BRANCH  12  13
ATOM     13  C   UNL     1      28.579  58.044  87.202  1.00  0.00    -0.003 C 
ATOM     14  C   UNL     1      27.631  57.908  88.393  1.00  0.00     0.004 C 
ENDBRANCH  12  13
ENDBRANCH  11  12
ENDBRANCH  10  11
ENDBRANCH   9  10
ENDBRANCH   1   9
TORSDOF 10
ENDMDL
