MODEL 1
REMARK VINA RESULT:    27.751      0.000      0.000
REMARK INTER + INTRA:          36.986
REMARK INTER:                  36.673
REMARK INTRA:                   0.313
REMARK UNBOUND:                 0.313
REMARK SMILES CC[C@@H](C=C[C@@H](C)[C@H]1CC[C@H]2[C@H]3CC=C4C[C@@H](O)CC[C@]4(C)[C@H]3CC[C@]12C)C(C)C
REMARK SMILES IDX 6 1 7 2 5 3 4 4 3 5 2 6 1 7 28 8 29 9 30 10 8 11 9 12 26 13
REMARK SMILES IDX 10 14 11 15 25 16 27 17 12 18 24 19 23 20 13 21 21 22 14 23
REMARK SMILES IDX 15 24 20 25 22 26 16 27 19 28 17 29 18 30
REMARK H PARENT 18 31
REMARK Flexibility Score: inf
ROOT
ATOM      1  C   UNL     1       5.535  78.969   6.671  1.00  0.00     0.012 C 
ATOM      2  C   UNL     1       5.200  80.118   7.638  1.00  0.00     0.012 C 
ENDROOT
BRANCH   1   3
ATOM      3  C   UNL     1       4.805  77.684   7.046  1.00  0.00    -0.028 C 
ATOM      4  C   UNL     1       4.131  77.392   8.181  1.00  0.00    -0.027 C 
BRANCH   4   5
ATOM      5  C   UNL     1       3.936  78.283   9.398  1.00  0.00     0.014 C 
BRANCH   5   6
ATOM      6  C   UNL     1       3.775  77.435  10.686  1.00  0.00     0.004 C 
ATOM      7  C   UNL     1       4.739  77.775  11.823  1.00  0.00     0.004 C 
ENDBRANCH   5   6
BRANCH   5   8
ATOM      8  C   UNL     1       2.805  79.352   9.212  1.00  0.00    -0.011 C 
ATOM      9  C   UNL     1       1.789  78.901   8.150  1.00  0.00     0.008 C 
ATOM     10  C   UNL     1       2.044  79.722  10.502  1.00  0.00     0.008 C 
ENDBRANCH   5   8
ENDBRANCH   4   5
ENDBRANCH   1   3
BRANCH   1  11
ATOM     11  C   UNL     1       7.065  78.742   6.449  1.00  0.00     0.002 C 
ATOM     12  C   UNL     1       7.564  77.432   7.121  1.00  0.00     0.005 C 
ATOM     13  C   UNL     1       7.627  78.642   4.992  1.00  0.00    -0.026 C 
ATOM     14  C   UNL     1       8.792  76.954   6.324  1.00  0.00     0.005 C 
ATOM     15  C   UNL     1       9.024  78.075   5.328  1.00  0.00    -0.001 C 
ATOM     16  C   UNL     1       7.842  79.990   4.260  1.00  0.00     0.007 C 
ATOM     17  C   UNL     1       6.730  77.699   4.127  1.00  0.00     0.012 C 
ATOM     18  C   UNL     1      10.027  77.890   4.166  1.00  0.00     0.000 C 
ATOM     19  C   UNL     1       8.802  79.854   3.045  1.00  0.00     0.005 C 
ATOM     20  C   UNL     1      10.193  79.244   3.420  1.00  0.00     0.003 C 
ATOM     21  C   UNL     1       9.716  76.754   3.185  1.00  0.00     0.031 C 
ATOM     22  C   UNL     1      11.275  79.150   2.249  1.00  0.00    -0.008 C 
ATOM     23  C   UNL     1      10.791  76.652   2.155  1.00  0.00    -0.027 C 
ATOM     24  C   UNL     1      11.448  77.728   1.674  1.00  0.00    -0.065 C 
ATOM     25  C   UNL     1      12.662  79.559   2.847  1.00  0.00     0.014 C 
ATOM     26  C   UNL     1      10.928  80.124   1.092  1.00  0.00     0.016 C 
ATOM     27  C   UNL     1      12.590  77.494   0.703  1.00  0.00     0.063 C 
ATOM     28  C   UNL     1      13.856  79.347   1.895  1.00  0.00     0.033 C 
ATOM     29  C   UNL     1      13.913  77.902   1.367  1.00  0.00     0.118 C 
BRANCH  29  30
ATOM     30  O   UNL     1      14.987  77.742   0.474  1.00  0.00    -0.393 OA
ATOM     31  H   UNL     1      14.609  77.661  -0.441  1.00  0.00     0.210 HD
ENDBRANCH  29  30
ENDBRANCH   1  11
TORSDOF 6
ENDMDL
MODEL 2
REMARK VINA RESULT:    29.676      3.177      9.846
REMARK INTER + INTRA:          39.530
REMARK INTER:                  40.382
REMARK INTRA:                  -0.852
REMARK UNBOUND:                 0.313
REMARK SMILES CC[C@@H](C=C[C@@H](C)[C@H]1CC[C@H]2[C@H]3CC=C4C[C@@H](O)CC[C@]4(C)[C@H]3CC[C@]12C)C(C)C
REMARK SMILES IDX 6 1 7 2 5 3 4 4 3 5 2 6 1 7 28 8 29 9 30 10 8 11 9 12 26 13
REMARK SMILES IDX 10 14 11 15 25 16 27 17 12 18 24 19 23 20 13 21 21 22 14 23
REMARK SMILES IDX 15 24 20 25 22 26 16 27 19 28 17 29 18 30
REMARK H PARENT 18 31
REMARK Flexibility Score: inf
ROOT
ATOM      1  C   UNL     1      11.453  78.889   2.908  1.00  0.00     0.012 C 
ATOM      2  C   UNL     1      12.703  79.519   3.547  1.00  0.00     0.012 C 
ENDROOT
BRANCH   1   3
ATOM      3  C   UNL     1      11.523  78.916   1.385  1.00  0.00    -0.028 C 
ATOM      4  C   UNL     1      12.495  78.444   0.572  1.00  0.00    -0.027 C 
BRANCH   4   5
ATOM      5  C   UNL     1      13.793  77.764   0.978  1.00  0.00     0.014 C 
BRANCH   5   6
ATOM      6  C   UNL     1      15.003  78.714   0.782  1.00  0.00     0.004 C 
ATOM      7  C   UNL     1      14.831  79.784  -0.295  1.00  0.00     0.004 C 
ENDBRANCH   5   6
BRANCH   5   8
ATOM      8  C   UNL     1      13.993  76.358   0.314  1.00  0.00    -0.011 C 
ATOM      9  C   UNL     1      14.236  76.492  -1.199  1.00  0.00     0.008 C 
ATOM     10  C   UNL     1      15.125  75.507   0.925  1.00  0.00     0.008 C 
ENDBRANCH   5   8
ENDBRANCH   4   5
ENDBRANCH   1   3
BRANCH   1  11
ATOM     11  C   UNL     1      10.100  79.451   3.452  1.00  0.00     0.002 C 
ATOM     12  C   UNL     1       9.255  80.124   2.334  1.00  0.00     0.005 C 
ATOM     13  C   UNL     1       9.085  78.483   4.144  1.00  0.00    -0.026 C 
ATOM     14  C   UNL     1       7.777  80.013   2.754  1.00  0.00     0.005 C 
ATOM     15  C   UNL     1       7.852  79.413   4.147  1.00  0.00    -0.001 C 
ATOM     16  C   UNL     1       9.394  78.127   5.620  1.00  0.00     0.007 C 
ATOM     17  C   UNL     1       8.917  77.178   3.302  1.00  0.00     0.012 C 
ATOM     18  C   UNL     1       6.569  78.910   4.848  1.00  0.00     0.000 C 
ATOM     19  C   UNL     1       8.150  77.563   6.363  1.00  0.00     0.005 C 
ATOM     20  C   UNL     1       6.913  78.518   6.312  1.00  0.00     0.003 C 
ATOM     21  C   UNL     1       5.813  77.781   4.137  1.00  0.00     0.031 C 
ATOM     22  C   UNL     1       5.617  78.059   7.125  1.00  0.00    -0.008 C 
ATOM     23  C   UNL     1       4.571  77.438   4.889  1.00  0.00    -0.027 C 
ATOM     24  C   UNL     1       4.492  77.489   6.235  1.00  0.00    -0.065 C 
ATOM     25  C   UNL     1       5.025  79.323   7.833  1.00  0.00     0.014 C 
ATOM     26  C   UNL     1       5.984  77.011   8.209  1.00  0.00     0.016 C 
ATOM     27  C   UNL     1       3.149  77.214   6.884  1.00  0.00     0.063 C 
ATOM     28  C   UNL     1       3.662  79.093   8.516  1.00  0.00     0.033 C 
ATOM     29  C   UNL     1       2.629  78.501   7.540  1.00  0.00     0.118 C 
BRANCH  29  30
ATOM     30  O   UNL     1       1.406  78.268   8.193  1.00  0.00    -0.393 OA
ATOM     31  H   UNL     1       0.739  78.900   7.816  1.00  0.00     0.210 HD
ENDBRANCH  29  30
ENDBRANCH   1  11
TORSDOF 6
ENDMDL
