MODEL 1
REMARK VINA RESULT:    19.868      0.000      0.000
REMARK INTER + INTRA:          42.978
REMARK INTER:                  43.097
REMARK INTRA:                  -0.119
REMARK UNBOUND:                -0.119
REMARK SMILES CCCCCCCCCCCCCCCCCCCCCC(=O)[O-]
REMARK SMILES IDX 12 1 11 2 10 3 9 4 8 5 7 6 6 7 5 8 4 9 3 10 2 11 1 12 13 13
REMARK SMILES IDX 14 14 15 15 16 16 17 17 18 18 19 19 20 20 21 21 22 22 23 23
REMARK SMILES IDX 24 24
REMARK H PARENT
REMARK Flexibility Score: inf
ROOT
ATOM      1  C   UNL     1       3.125  47.775  15.332  1.00  0.00     0.000 C 
ENDROOT
BRANCH   1   2
ATOM      2  C   UNL     1       3.241  46.245  15.254  1.00  0.00     0.000 C 
BRANCH   2   3
ATOM      3  C   UNL     1       3.132  45.570  16.633  1.00  0.00     0.000 C 
BRANCH   3   4
ATOM      4  C   UNL     1       2.565  46.517  17.703  1.00  0.00    -0.000 C 
BRANCH   4   5
ATOM      5  C   UNL     1       1.481  45.850  18.563  1.00  0.00    -0.000 C 
BRANCH   5   6
ATOM      6  C   UNL     1       1.885  45.847  20.044  1.00  0.00    -0.000 C 
BRANCH   6   7
ATOM      7  C   UNL     1       1.736  44.464  20.701  1.00  0.00    -0.000 C 
BRANCH   7   8
ATOM      8  C   UNL     1       2.722  44.182  21.850  1.00  0.00    -0.000 C 
BRANCH   8   9
ATOM      9  C   UNL     1       2.270  43.048  22.794  1.00  0.00    -0.000 C 
BRANCH   9  10
ATOM     10  C   UNL     1       2.564  41.655  22.212  1.00  0.00    -0.000 C 
BRANCH  10  11
ATOM     11  C   UNL     1       3.959  41.140  22.598  1.00  0.00    -0.003 C 
ATOM     12  C   UNL     1       4.247  41.302  24.091  1.00  0.00     0.004 C 
ENDBRANCH  10  11
ENDBRANCH   9  10
ENDBRANCH   8   9
ENDBRANCH   7   8
ENDBRANCH   6   7
ENDBRANCH   5   6
ENDBRANCH   4   5
ENDBRANCH   3   4
ENDBRANCH   2   3
ENDBRANCH   1   2
BRANCH   1  13
ATOM     13  C   UNL     1       3.879  48.489  14.201  1.00  0.00     0.000 C 
BRANCH  13  14
ATOM     14  C   UNL     1       4.182  47.523  13.050  1.00  0.00     0.000 C 
BRANCH  14  15
ATOM     15  C   UNL     1       4.838  48.253  11.870  1.00  0.00     0.000 C 
BRANCH  15  16
ATOM     16  C   UNL     1       3.845  48.590  10.744  1.00  0.00     0.000 C 
BRANCH  16  17
ATOM     17  C   UNL     1       4.512  48.822   9.372  1.00  0.00     0.000 C 
BRANCH  17  18
ATOM     18  C   UNL     1       5.396  50.083   9.354  1.00  0.00     0.000 C 
BRANCH  18  19
ATOM     19  C   UNL     1       6.819  49.828   9.882  1.00  0.00     0.000 C 
BRANCH  19  20
ATOM     20  C   UNL     1       7.781  49.166   8.876  1.00  0.00     0.006 C 
BRANCH  20  21
ATOM     21  C   UNL     1       8.447  47.876   9.383  1.00  0.00     0.053 C 
BRANCH  21  22
ATOM     22  C   UNL     1       7.989  47.510  10.759  1.00  0.00     0.041 C 
ATOM     23  O   UNL     1       6.958  46.805  10.919  1.00  0.00    -0.550 OA
ATOM     24  O   UNL     1       8.697  47.954  11.868  1.00  0.00    -0.550 OA
ENDBRANCH  21  22
ENDBRANCH  20  21
ENDBRANCH  19  20
ENDBRANCH  18  19
ENDBRANCH  17  18
ENDBRANCH  16  17
ENDBRANCH  15  16
ENDBRANCH  14  15
ENDBRANCH  13  14
ENDBRANCH   1  13
TORSDOF 20
ENDMDL
MODEL 2
REMARK VINA RESULT:    20.214      1.554      3.042
REMARK INTER + INTRA:          43.729
REMARK INTER:                  44.563
REMARK INTRA:                  -0.835
REMARK UNBOUND:                -0.119
REMARK SMILES CCCCCCCCCCCCCCCCCCCCCC(=O)[O-]
REMARK SMILES IDX 12 1 11 2 10 3 9 4 8 5 7 6 6 7 5 8 4 9 3 10 2 11 1 12 13 13
REMARK SMILES IDX 14 14 15 15 16 16 17 17 18 18 19 19 20 20 21 21 22 22 23 23
REMARK SMILES IDX 24 24
REMARK H PARENT
REMARK Flexibility Score: inf
ROOT
ATOM      1  C   UNL     1       3.218  45.585  17.736  1.00  0.00     0.000 C 
ENDROOT
BRANCH   1   2
ATOM      2  C   UNL     1       2.053  46.392  18.328  1.00  0.00     0.000 C 
BRANCH   2   3
ATOM      3  C   UNL     1       1.937  46.236  19.854  1.00  0.00     0.000 C 
BRANCH   3   4
ATOM      4  C   UNL     1       1.632  44.789  20.272  1.00  0.00    -0.000 C 
BRANCH   4   5
ATOM      5  C   UNL     1       2.806  44.131  21.011  1.00  0.00    -0.000 C 
BRANCH   5   6
ATOM      6  C   UNL     1       2.300  43.234  22.151  1.00  0.00    -0.000 C 
BRANCH   6   7
ATOM      7  C   UNL     1       2.820  41.790  22.049  1.00  0.00    -0.000 C 
BRANCH   7   8
ATOM      8  C   UNL     1       3.711  41.338  23.221  1.00  0.00    -0.000 C 
BRANCH   8   9
ATOM      9  C   UNL     1       4.939  42.243  23.456  1.00  0.00    -0.000 C 
BRANCH   9  10
ATOM     10  C   UNL     1       6.213  41.674  22.808  1.00  0.00    -0.000 C 
BRANCH  10  11
ATOM     11  C   UNL     1       7.468  42.481  23.173  1.00  0.00    -0.003 C 
ATOM     12  C   UNL     1       8.575  42.343  22.129  1.00  0.00     0.004 C 
ENDBRANCH  10  11
ENDBRANCH   9  10
ENDBRANCH   8   9
ENDBRANCH   7   8
ENDBRANCH   6   7
ENDBRANCH   5   6
ENDBRANCH   4   5
ENDBRANCH   3   4
ENDBRANCH   2   3
ENDBRANCH   1   2
BRANCH   1  13
ATOM     13  C   UNL     1       3.247  45.615  16.201  1.00  0.00     0.000 C 
BRANCH  13  14
ATOM     14  C   UNL     1       2.770  46.972  15.672  1.00  0.00     0.000 C 
BRANCH  14  15
ATOM     15  C   UNL     1       3.815  47.605  14.743  1.00  0.00     0.000 C 
BRANCH  15  16
ATOM     16  C   UNL     1       3.391  47.598  13.265  1.00  0.00     0.000 C 
BRANCH  16  17
ATOM     17  C   UNL     1       4.503  48.045  12.293  1.00  0.00     0.000 C 
BRANCH  17  18
ATOM     18  C   UNL     1       3.950  48.459  10.917  1.00  0.00     0.000 C 
BRANCH  18  19
ATOM     19  C   UNL     1       4.998  48.365   9.794  1.00  0.00     0.000 C 
BRANCH  19  20
ATOM     20  C   UNL     1       6.036  49.504   9.770  1.00  0.00     0.006 C 
BRANCH  20  21
ATOM     21  C   UNL     1       7.410  49.105   9.208  1.00  0.00     0.053 C 
BRANCH  21  22
ATOM     22  C   UNL     1       7.828  47.742   9.663  1.00  0.00     0.041 C 
ATOM     23  O   UNL     1       7.744  46.759   8.881  1.00  0.00    -0.550 OA
ATOM     24  O   UNL     1       8.305  47.557  10.953  1.00  0.00    -0.550 OA
ENDBRANCH  21  22
ENDBRANCH  20  21
ENDBRANCH  19  20
ENDBRANCH  18  19
ENDBRANCH  17  18
ENDBRANCH  16  17
ENDBRANCH  15  16
ENDBRANCH  14  15
ENDBRANCH  13  14
ENDBRANCH   1  13
TORSDOF 20
ENDMDL
MODEL 3
REMARK VINA RESULT:    20.307      8.175     11.848
REMARK INTER + INTRA:          43.932
REMARK INTER:                  44.461
REMARK INTRA:                  -0.529
REMARK UNBOUND:                -0.119
REMARK SMILES CCCCCCCCCCCCCCCCCCCCCC(=O)[O-]
REMARK SMILES IDX 12 1 11 2 10 3 9 4 8 5 7 6 6 7 5 8 4 9 3 10 2 11 1 12 13 13
REMARK SMILES IDX 14 14 15 15 16 16 17 17 18 18 19 19 20 20 21 21 22 22 23 23
REMARK SMILES IDX 24 24
REMARK H PARENT
REMARK Flexibility Score: inf
ROOT
ATOM      1  C   UNL     1      12.804  50.484  13.684  1.00  0.00     0.000 C 
ENDROOT
BRANCH   1   2
ATOM      2  C   UNL     1      13.624  51.773  13.842  1.00  0.00     0.000 C 
BRANCH   2   3
ATOM      3  C   UNL     1      14.526  52.055  12.627  1.00  0.00     0.000 C 
BRANCH   3   4
ATOM      4  C   UNL     1      15.791  52.840  13.009  1.00  0.00    -0.000 C 
BRANCH   4   5
ATOM      5  C   UNL     1      15.797  53.261  14.485  1.00  0.00    -0.000 C 
BRANCH   5   6
ATOM      6  C   UNL     1      16.750  52.375  15.302  1.00  0.00    -0.000 C 
BRANCH   6   7
ATOM      7  C   UNL     1      16.020  51.538  16.366  1.00  0.00    -0.000 C 
BRANCH   7   8
ATOM      8  C   UNL     1      16.894  50.481  17.070  1.00  0.00    -0.000 C 
BRANCH   8   9
ATOM      9  C   UNL     1      18.391  50.853  17.135  1.00  0.00    -0.000 C 
BRANCH   9  10
ATOM     10  C   UNL     1      18.958  50.732  18.559  1.00  0.00    -0.000 C 
BRANCH  10  11
ATOM     11  C   UNL     1      18.330  49.569  19.343  1.00  0.00    -0.003 C 
ATOM     12  C   UNL     1      19.273  49.007  20.407  1.00  0.00     0.004 C 
ENDBRANCH  10  11
ENDBRANCH   9  10
ENDBRANCH   8   9
ENDBRANCH   7   8
ENDBRANCH   6   7
ENDBRANCH   5   6
ENDBRANCH   4   5
ENDBRANCH   3   4
ENDBRANCH   2   3
ENDBRANCH   1   2
BRANCH   1  13
ATOM     13  C   UNL     1      12.198  49.996  15.008  1.00  0.00     0.000 C 
BRANCH  13  14
ATOM     14  C   UNL     1      11.160  48.895  14.762  1.00  0.00     0.000 C 
BRANCH  14  15
ATOM     15  C   UNL     1      10.395  49.135  13.454  1.00  0.00     0.000 C 
BRANCH  15  16
ATOM     16  C   UNL     1       9.310  48.078  13.188  1.00  0.00     0.000 C 
BRANCH  16  17
ATOM     17  C   UNL     1       8.327  48.460  12.061  1.00  0.00     0.000 C 
BRANCH  17  18
ATOM     18  C   UNL     1       8.452  47.537  10.835  1.00  0.00     0.000 C 
BRANCH  18  19
ATOM     19  C   UNL     1       7.765  48.107   9.581  1.00  0.00     0.000 C 
BRANCH  19  20
ATOM     20  C   UNL     1       7.232  49.546   9.723  1.00  0.00     0.006 C 
BRANCH  20  21
ATOM     21  C   UNL     1       5.792  49.747   9.226  1.00  0.00     0.053 C 
BRANCH  21  22
ATOM     22  C   UNL     1       4.875  48.668   9.708  1.00  0.00     0.041 C 
ATOM     23  O   UNL     1       5.110  47.463   9.426  1.00  0.00    -0.550 OA
ATOM     24  O   UNL     1       3.757  48.992  10.463  1.00  0.00    -0.550 OA
ENDBRANCH  21  22
ENDBRANCH  20  21
ENDBRANCH  19  20
ENDBRANCH  18  19
ENDBRANCH  17  18
ENDBRANCH  16  17
ENDBRANCH  15  16
ENDBRANCH  14  15
ENDBRANCH  13  14
ENDBRANCH   1  13
TORSDOF 20
ENDMDL
MODEL 4
REMARK VINA RESULT:    20.853      3.778     11.870
REMARK INTER + INTRA:          45.116
REMARK INTER:                  46.103
REMARK INTRA:                  -0.987
REMARK UNBOUND:                -0.119
REMARK SMILES CCCCCCCCCCCCCCCCCCCCCC(=O)[O-]
REMARK SMILES IDX 12 1 11 2 10 3 9 4 8 5 7 6 6 7 5 8 4 9 3 10 2 11 1 12 13 13
REMARK SMILES IDX 14 14 15 15 16 16 17 17 18 18 19 19 20 20 21 21 22 22 23 23
REMARK SMILES IDX 24 24
REMARK H PARENT
REMARK Flexibility Score: inf
ROOT
ATOM      1  C   UNL     1       2.334  46.117  17.665  1.00  0.00     0.000 C 
ENDROOT
BRANCH   1   2
ATOM      2  C   UNL     1       3.163  46.178  16.373  1.00  0.00     0.000 C 
BRANCH   2   3
ATOM      3  C   UNL     1       2.940  47.481  15.585  1.00  0.00     0.000 C 
BRANCH   3   4
ATOM      4  C   UNL     1       2.921  47.249  14.066  1.00  0.00    -0.000 C 
BRANCH   4   5
ATOM      5  C   UNL     1       4.153  47.843  13.366  1.00  0.00    -0.000 C 
BRANCH   5   6
ATOM      6  C   UNL     1       4.129  47.532  11.863  1.00  0.00    -0.000 C 
BRANCH   6   7
ATOM      7  C   UNL     1       4.288  48.788  10.990  1.00  0.00    -0.000 C 
BRANCH   7   8
ATOM      8  C   UNL     1       4.910  48.540   9.603  1.00  0.00    -0.000 C 
BRANCH   8   9
ATOM      9  C   UNL     1       5.967  49.591   9.198  1.00  0.00    -0.000 C 
BRANCH   9  10
ATOM     10  C   UNL     1       7.386  49.000   9.154  1.00  0.00    -0.000 C 
BRANCH  10  11
ATOM     11  C   UNL     1       7.486  47.660   9.899  1.00  0.00    -0.003 C 
ATOM     12  C   UNL     1       7.975  47.827  11.337  1.00  0.00     0.004 C 
ENDBRANCH  10  11
ENDBRANCH   9  10
ENDBRANCH   8   9
ENDBRANCH   7   8
ENDBRANCH   6   7
ENDBRANCH   5   6
ENDBRANCH   4   5
ENDBRANCH   3   4
ENDBRANCH   2   3
ENDBRANCH   1   2
BRANCH   1  13
ATOM     13  C   UNL     1       2.851  45.065  18.657  1.00  0.00     0.000 C 
BRANCH  13  14
ATOM     14  C   UNL     1       2.641  45.528  20.103  1.00  0.00     0.000 C 
BRANCH  14  15
ATOM     15  C   UNL     1       1.753  44.544  20.878  1.00  0.00     0.000 C 
BRANCH  15  16
ATOM     16  C   UNL     1       2.542  43.679  21.876  1.00  0.00     0.000 C 
BRANCH  16  17
ATOM     17  C   UNL     1       2.159  42.184  21.845  1.00  0.00     0.000 C 
BRANCH  17  18
ATOM     18  C   UNL     1       3.200  41.297  22.553  1.00  0.00     0.000 C 
BRANCH  18  19
ATOM     19  C   UNL     1       4.279  42.108  23.292  1.00  0.00     0.000 C 
BRANCH  19  20
ATOM     20  C   UNL     1       5.723  41.604  23.099  1.00  0.00     0.006 C 
BRANCH  20  21
ATOM     21  C   UNL     1       6.802  42.692  23.219  1.00  0.00     0.053 C 
BRANCH  21  22
ATOM     22  C   UNL     1       8.136  42.217  22.734  1.00  0.00     0.041 C 
ATOM     23  O   UNL     1       9.195  42.712  23.201  1.00  0.00    -0.550 OA
ATOM     24  O   UNL     1       8.209  41.230  21.760  1.00  0.00    -0.550 OA
ENDBRANCH  21  22
ENDBRANCH  20  21
ENDBRANCH  19  20
ENDBRANCH  18  19
ENDBRANCH  17  18
ENDBRANCH  16  17
ENDBRANCH  15  16
ENDBRANCH  14  15
ENDBRANCH  13  14
ENDBRANCH   1  13
TORSDOF 20
ENDMDL
MODEL 5
REMARK VINA RESULT:    20.900      3.253      3.732
REMARK INTER + INTRA:          45.218
REMARK INTER:                  46.316
REMARK INTRA:                  -1.098
REMARK UNBOUND:                -0.119
REMARK SMILES CCCCCCCCCCCCCCCCCCCCCC(=O)[O-]
REMARK SMILES IDX 12 1 11 2 10 3 9 4 8 5 7 6 6 7 5 8 4 9 3 10 2 11 1 12 13 13
REMARK SMILES IDX 14 14 15 15 16 16 17 17 18 18 19 19 20 20 21 21 22 22 23 23
REMARK SMILES IDX 24 24
REMARK H PARENT
REMARK Flexibility Score: inf
ROOT
ATOM      1  C   UNL     1       3.536  46.106  16.116  1.00  0.00     0.000 C 
ENDROOT
BRANCH   1   2
ATOM      2  C   UNL     1       2.511  45.538  17.108  1.00  0.00     0.000 C 
BRANCH   2   3
ATOM      3  C   UNL     1       3.122  45.245  18.490  1.00  0.00     0.000 C 
BRANCH   3   4
ATOM      4  C   UNL     1       2.463  46.070  19.607  1.00  0.00    -0.000 C 
BRANCH   4   5
ATOM      5  C   UNL     1       3.404  47.141  20.179  1.00  0.00    -0.000 C 
BRANCH   5   6
ATOM      6  C   UNL     1       4.529  46.495  21.002  1.00  0.00    -0.000 C 
BRANCH   6   7
ATOM      7  C   UNL     1       5.931  46.913  20.528  1.00  0.00    -0.000 C 
BRANCH   7   8
ATOM      8  C   UNL     1       6.959  45.768  20.455  1.00  0.00    -0.000 C 
BRANCH   8   9
ATOM      9  C   UNL     1       8.163  46.070  19.538  1.00  0.00    -0.000 C 
BRANCH   9  10
ATOM     10  C   UNL     1       9.495  45.621  20.162  1.00  0.00    -0.000 C 
BRANCH  10  11
ATOM     11  C   UNL     1       9.554  44.103  20.391  1.00  0.00    -0.003 C 
ATOM     12  C   UNL     1      10.943  43.526  20.123  1.00  0.00     0.004 C 
ENDBRANCH  10  11
ENDBRANCH   9  10
ENDBRANCH   8   9
ENDBRANCH   7   8
ENDBRANCH   6   7
ENDBRANCH   5   6
ENDBRANCH   4   5
ENDBRANCH   3   4
ENDBRANCH   2   3
ENDBRANCH   1   2
BRANCH   1  13
ATOM     13  C   UNL     1       2.986  47.285  15.298  1.00  0.00     0.000 C 
BRANCH  13  14
ATOM     14  C   UNL     1       3.355  47.143  13.817  1.00  0.00     0.000 C 
BRANCH  14  15
ATOM     15  C   UNL     1       4.306  48.262  13.371  1.00  0.00     0.000 C 
BRANCH  15  16
ATOM     16  C   UNL     1       4.875  48.041  11.959  1.00  0.00     0.000 C 
BRANCH  16  17
ATOM     17  C   UNL     1       3.798  47.958  10.858  1.00  0.00     0.000 C 
BRANCH  17  18
ATOM     18  C   UNL     1       4.049  48.958   9.714  1.00  0.00     0.000 C 
BRANCH  18  19
ATOM     19  C   UNL     1       5.375  49.726   9.866  1.00  0.00     0.000 C 
BRANCH  19  20
ATOM     20  C   UNL     1       6.522  49.236   8.961  1.00  0.00     0.006 C 
BRANCH  20  21
ATOM     21  C   UNL     1       7.873  49.071   9.675  1.00  0.00     0.053 C 
BRANCH  21  22
ATOM     22  C   UNL     1       7.929  47.818  10.491  1.00  0.00     0.041 C 
ATOM     23  O   UNL     1       7.401  46.758  10.063  1.00  0.00    -0.550 OA
ATOM     24  O   UNL     1       8.557  47.822  11.729  1.00  0.00    -0.550 OA
ENDBRANCH  21  22
ENDBRANCH  20  21
ENDBRANCH  19  20
ENDBRANCH  18  19
ENDBRANCH  17  18
ENDBRANCH  16  17
ENDBRANCH  15  16
ENDBRANCH  14  15
ENDBRANCH  13  14
ENDBRANCH   1  13
TORSDOF 20
ENDMDL
MODEL 6
REMARK VINA RESULT:    21.020      2.209      3.130
REMARK INTER + INTRA:          45.477
REMARK INTER:                  44.342
REMARK INTRA:                   1.134
REMARK UNBOUND:                -0.119
REMARK SMILES CCCCCCCCCCCCCCCCCCCCCC(=O)[O-]
REMARK SMILES IDX 12 1 11 2 10 3 9 4 8 5 7 6 6 7 5 8 4 9 3 10 2 11 1 12 13 13
REMARK SMILES IDX 14 14 15 15 16 16 17 17 18 18 19 19 20 20 21 21 22 22 23 23
REMARK SMILES IDX 24 24
REMARK H PARENT
REMARK Flexibility Score: inf
ROOT
ATOM      1  C   UNL     1       4.143  48.021  13.699  1.00  0.00     0.000 C 
ENDROOT
BRANCH   1   2
ATOM      2  C   UNL     1       3.208  47.544  14.820  1.00  0.00     0.000 C 
BRANCH   2   3
ATOM      3  C   UNL     1       3.485  46.091  15.245  1.00  0.00     0.000 C 
BRANCH   3   4
ATOM      4  C   UNL     1       2.963  45.785  16.658  1.00  0.00    -0.000 C 
BRANCH   4   5
ATOM      5  C   UNL     1       3.248  44.339  17.090  1.00  0.00    -0.000 C 
BRANCH   5   6
ATOM      6  C   UNL     1       2.240  43.879  18.153  1.00  0.00    -0.000 C 
BRANCH   6   7
ATOM      7  C   UNL     1       2.346  44.680  19.462  1.00  0.00    -0.000 C 
BRANCH   7   8
ATOM      8  C   UNL     1       1.234  45.726  19.673  1.00  0.00    -0.000 C 
BRANCH   8   9
ATOM      9  C   UNL     1       1.734  47.186  19.616  1.00  0.00    -0.000 C 
BRANCH   9  10
ATOM     10  C   UNL     1       2.834  47.463  20.654  1.00  0.00    -0.000 C 
BRANCH  10  11
ATOM     11  C   UNL     1       4.091  46.612  20.417  1.00  0.00    -0.003 C 
ATOM     12  C   UNL     1       5.377  47.362  20.764  1.00  0.00     0.004 C 
ENDBRANCH  10  11
ENDBRANCH   9  10
ENDBRANCH   8   9
ENDBRANCH   7   8
ENDBRANCH   6   7
ENDBRANCH   5   6
ENDBRANCH   4   5
ENDBRANCH   3   4
ENDBRANCH   2   3
ENDBRANCH   1   2
BRANCH   1  13
ATOM     13  C   UNL     1       3.391  48.393  12.413  1.00  0.00     0.000 C 
BRANCH  13  14
ATOM     14  C   UNL     1       4.206  48.012  11.172  1.00  0.00     0.000 C 
BRANCH  14  15
ATOM     15  C   UNL     1       3.818  48.877   9.965  1.00  0.00     0.000 C 
BRANCH  15  16
ATOM     16  C   UNL     1       4.964  49.047   8.953  1.00  0.00     0.000 C 
BRANCH  16  17
ATOM     17  C   UNL     1       5.998  50.121   9.354  1.00  0.00     0.000 C 
BRANCH  17  18
ATOM     18  C   UNL     1       7.335  49.507   9.809  1.00  0.00     0.000 C 
BRANCH  18  19
ATOM     19  C   UNL     1       7.831  48.388   8.876  1.00  0.00     0.000 C 
BRANCH  19  20
ATOM     20  C   UNL     1       8.135  47.045   9.569  1.00  0.00     0.006 C 
BRANCH  20  21
ATOM     21  C   UNL     1       7.390  46.828  10.896  1.00  0.00     0.053 C 
BRANCH  21  22
ATOM     22  C   UNL     1       7.889  47.736  11.975  1.00  0.00     0.041 C 
ATOM     23  O   UNL     1       8.824  48.546  11.741  1.00  0.00    -0.550 OA
ATOM     24  O   UNL     1       7.326  47.683  13.242  1.00  0.00    -0.550 OA
ENDBRANCH  21  22
ENDBRANCH  20  21
ENDBRANCH  19  20
ENDBRANCH  18  19
ENDBRANCH  17  18
ENDBRANCH  16  17
ENDBRANCH  15  16
ENDBRANCH  14  15
ENDBRANCH  13  14
ENDBRANCH   1  13
TORSDOF 20
ENDMDL
MODEL 7
REMARK VINA RESULT:    21.136      3.222      3.833
REMARK INTER + INTRA:          45.729
REMARK INTER:                  46.734
REMARK INTRA:                  -1.005
REMARK UNBOUND:                -0.119
REMARK SMILES CCCCCCCCCCCCCCCCCCCCCC(=O)[O-]
REMARK SMILES IDX 12 1 11 2 10 3 9 4 8 5 7 6 6 7 5 8 4 9 3 10 2 11 1 12 13 13
REMARK SMILES IDX 14 14 15 15 16 16 17 17 18 18 19 19 20 20 21 21 22 22 23 23
REMARK SMILES IDX 24 24
REMARK H PARENT
REMARK Flexibility Score: inf
ROOT
ATOM      1  C   UNL     1       3.436  45.490  16.526  1.00  0.00     0.000 C 
ENDROOT
BRANCH   1   2
ATOM      2  C   UNL     1       2.975  45.131  17.947  1.00  0.00     0.000 C 
BRANCH   2   3
ATOM      3  C   UNL     1       2.804  46.370  18.845  1.00  0.00     0.000 C 
BRANCH   3   4
ATOM      4  C   UNL     1       3.443  46.179  20.230  1.00  0.00    -0.000 C 
BRANCH   4   5
ATOM      5  C   UNL     1       4.722  47.012  20.405  1.00  0.00    -0.000 C 
BRANCH   5   6
ATOM      6  C   UNL     1       5.865  46.146  20.955  1.00  0.00    -0.000 C 
BRANCH   6   7
ATOM      7  C   UNL     1       6.934  45.827  19.896  1.00  0.00    -0.000 C 
BRANCH   7   8
ATOM      8  C   UNL     1       8.380  45.781  20.428  1.00  0.00    -0.000 C 
BRANCH   8   9
ATOM      9  C   UNL     1       9.287  44.781  19.679  1.00  0.00    -0.000 C 
BRANCH   9  10
ATOM     10  C   UNL     1       9.225  43.371  20.290  1.00  0.00    -0.000 C 
BRANCH  10  11
ATOM     11  C   UNL     1       9.274  43.395  21.825  1.00  0.00    -0.003 C 
ATOM     12  C   UNL     1       8.679  42.132  22.448  1.00  0.00     0.004 C 
ENDBRANCH  10  11
ENDBRANCH   9  10
ENDBRANCH   8   9
ENDBRANCH   7   8
ENDBRANCH   6   7
ENDBRANCH   5   6
ENDBRANCH   4   5
ENDBRANCH   3   4
ENDBRANCH   2   3
ENDBRANCH   1   2
BRANCH   1  13
ATOM     13  C   UNL     1       2.848  46.817  16.025  1.00  0.00     0.000 C 
BRANCH  13  14
ATOM     14  C   UNL     1       3.075  46.982  14.518  1.00  0.00     0.000 C 
BRANCH  14  15
ATOM     15  C   UNL     1       4.014  48.160  14.223  1.00  0.00     0.000 C 
BRANCH  15  16
ATOM     16  C   UNL     1       4.798  47.990  12.910  1.00  0.00     0.000 C 
BRANCH  16  17
ATOM     17  C   UNL     1       3.907  47.713  11.682  1.00  0.00     0.000 C 
BRANCH  17  18
ATOM     18  C   UNL     1       3.969  48.849  10.643  1.00  0.00     0.000 C 
BRANCH  18  19
ATOM     19  C   UNL     1       5.275  48.847   9.828  1.00  0.00     0.000 C 
BRANCH  19  20
ATOM     20  C   UNL     1       5.865  47.453   9.540  1.00  0.00     0.006 C 
BRANCH  20  21
ATOM     21  C   UNL     1       7.401  47.390   9.568  1.00  0.00     0.053 C 
BRANCH  21  22
ATOM     22  C   UNL     1       7.978  48.245  10.652  1.00  0.00     0.041 C 
ATOM     23  O   UNL     1       8.121  49.484  10.476  1.00  0.00    -0.550 OA
ATOM     24  O   UNL     1       8.366  47.673  11.856  1.00  0.00    -0.550 OA
ENDBRANCH  21  22
ENDBRANCH  20  21
ENDBRANCH  19  20
ENDBRANCH  18  19
ENDBRANCH  17  18
ENDBRANCH  16  17
ENDBRANCH  15  16
ENDBRANCH  14  15
ENDBRANCH  13  14
ENDBRANCH   1  13
TORSDOF 20
ENDMDL
MODEL 8
REMARK VINA RESULT:    21.165      7.955     12.102
REMARK INTER + INTRA:          45.791
REMARK INTER:                  46.673
REMARK INTRA:                  -0.881
REMARK UNBOUND:                -0.119
REMARK SMILES CCCCCCCCCCCCCCCCCCCCCC(=O)[O-]
REMARK SMILES IDX 12 1 11 2 10 3 9 4 8 5 7 6 6 7 5 8 4 9 3 10 2 11 1 12 13 13
REMARK SMILES IDX 14 14 15 15 16 16 17 17 18 18 19 19 20 20 21 21 22 22 23 23
REMARK SMILES IDX 24 24
REMARK H PARENT
REMARK Flexibility Score: inf
ROOT
ATOM      1  C   UNL     1      11.937  49.369  14.974  1.00  0.00     0.000 C 
ENDROOT
BRANCH   1   2
ATOM      2  C   UNL     1      10.466  48.927  14.983  1.00  0.00     0.000 C 
BRANCH   2   3
ATOM      3  C   UNL     1       9.927  48.630  13.572  1.00  0.00     0.000 C 
BRANCH   3   4
ATOM      4  C   UNL     1       8.467  48.152  13.593  1.00  0.00    -0.000 C 
BRANCH   4   5
ATOM      5  C   UNL     1       7.878  48.001  12.183  1.00  0.00    -0.000 C 
BRANCH   5   6
ATOM      6  C   UNL     1       8.829  48.586  11.129  1.00  0.00    -0.000 C 
BRANCH   6   7
ATOM      7  C   UNL     1       8.697  47.900   9.759  1.00  0.00    -0.000 C 
BRANCH   7   8
ATOM      8  C   UNL     1       7.527  48.402   8.892  1.00  0.00    -0.000 C 
BRANCH   8   9
ATOM      9  C   UNL     1       6.394  49.069   9.702  1.00  0.00    -0.000 C 
BRANCH   9  10
ATOM     10  C   UNL     1       5.049  49.032   8.957  1.00  0.00    -0.000 C 
BRANCH  10  11
ATOM     11  C   UNL     1       3.858  48.822   9.906  1.00  0.00    -0.003 C 
ATOM     12  C   UNL     1       4.293  48.335  11.288  1.00  0.00     0.004 C 
ENDBRANCH  10  11
ENDBRANCH   9  10
ENDBRANCH   8   9
ENDBRANCH   7   8
ENDBRANCH   6   7
ENDBRANCH   5   6
ENDBRANCH   4   5
ENDBRANCH   3   4
ENDBRANCH   2   3
ENDBRANCH   1   2
BRANCH   1  13
ATOM     13  C   UNL     1      12.161  50.684  14.213  1.00  0.00     0.000 C 
BRANCH  13  14
ATOM     14  C   UNL     1      13.611  50.798  13.730  1.00  0.00     0.000 C 
BRANCH  14  15
ATOM     15  C   UNL     1      14.011  52.263  13.511  1.00  0.00     0.000 C 
BRANCH  15  16
ATOM     16  C   UNL     1      15.342  52.417  12.756  1.00  0.00     0.000 C 
BRANCH  16  17
ATOM     17  C   UNL     1      16.296  53.460  13.376  1.00  0.00     0.000 C 
BRANCH  17  18
ATOM     18  C   UNL     1      16.496  53.245  14.888  1.00  0.00     0.000 C 
BRANCH  18  19
ATOM     19  C   UNL     1      17.005  51.834  15.233  1.00  0.00     0.000 C 
BRANCH  19  20
ATOM     20  C   UNL     1      16.711  51.366  16.672  1.00  0.00     0.006 C 
BRANCH  20  21
ATOM     21  C   UNL     1      17.516  50.137  17.122  1.00  0.00     0.053 C 
BRANCH  21  22
ATOM     22  C   UNL     1      18.489  50.469  18.210  1.00  0.00     0.041 C 
ATOM     23  O   UNL     1      19.391  51.326  18.014  1.00  0.00    -0.550 OA
ATOM     24  O   UNL     1      18.403  49.828  19.438  1.00  0.00    -0.550 OA
ENDBRANCH  21  22
ENDBRANCH  20  21
ENDBRANCH  19  20
ENDBRANCH  18  19
ENDBRANCH  17  18
ENDBRANCH  16  17
ENDBRANCH  15  16
ENDBRANCH  14  15
ENDBRANCH  13  14
ENDBRANCH   1  13
TORSDOF 20
ENDMDL
MODEL 9
REMARK VINA RESULT:    21.224      3.697      4.363
REMARK INTER + INTRA:          45.921
REMARK INTER:                  47.349
REMARK INTRA:                  -1.428
REMARK UNBOUND:                -0.119
REMARK SMILES CCCCCCCCCCCCCCCCCCCCCC(=O)[O-]
REMARK SMILES IDX 12 1 11 2 10 3 9 4 8 5 7 6 6 7 5 8 4 9 3 10 2 11 1 12 13 13
REMARK SMILES IDX 14 14 15 15 16 16 17 17 18 18 19 19 20 20 21 21 22 22 23 23
REMARK SMILES IDX 24 24
REMARK H PARENT
REMARK Flexibility Score: inf
ROOT
ATOM      1  C   UNL     1       3.417  46.618  15.994  1.00  0.00     0.000 C 
ENDROOT
BRANCH   1   2
ATOM      2  C   UNL     1       3.380  45.085  15.897  1.00  0.00     0.000 C 
BRANCH   2   3
ATOM      3  C   UNL     1       4.612  44.421  16.536  1.00  0.00     0.000 C 
BRANCH   3   4
ATOM      4  C   UNL     1       5.924  45.114  16.134  1.00  0.00    -0.000 C 
BRANCH   4   5
ATOM      5  C   UNL     1       7.148  44.509  16.837  1.00  0.00    -0.000 C 
BRANCH   5   6
ATOM      6  C   UNL     1       7.858  45.562  17.700  1.00  0.00    -0.000 C 
BRANCH   6   7
ATOM      7  C   UNL     1       7.713  45.296  19.208  1.00  0.00    -0.000 C 
BRANCH   7   8
ATOM      8  C   UNL     1       8.895  45.783  20.069  1.00  0.00    -0.000 C 
BRANCH   8   9
ATOM      9  C   UNL     1      10.092  44.808  20.093  1.00  0.00    -0.000 C 
BRANCH   9  10
ATOM     10  C   UNL     1       9.650  43.352  20.319  1.00  0.00    -0.000 C 
BRANCH  10  11
ATOM     11  C   UNL     1      10.134  42.412  19.203  1.00  0.00    -0.003 C 
ATOM     12  C   UNL     1       9.123  41.310  18.889  1.00  0.00     0.004 C 
ENDBRANCH  10  11
ENDBRANCH   9  10
ENDBRANCH   8   9
ENDBRANCH   7   8
ENDBRANCH   6   7
ENDBRANCH   5   6
ENDBRANCH   4   5
ENDBRANCH   3   4
ENDBRANCH   2   3
ENDBRANCH   1   2
BRANCH   1  13
ATOM     13  C   UNL     1       2.822  47.309  14.758  1.00  0.00     0.000 C 
BRANCH  13  14
ATOM     14  C   UNL     1       3.794  48.351  14.194  1.00  0.00     0.000 C 
BRANCH  14  15
ATOM     15  C   UNL     1       5.022  47.681  13.562  1.00  0.00     0.000 C 
BRANCH  15  16
ATOM     16  C   UNL     1       5.244  48.092  12.096  1.00  0.00     0.000 C 
BRANCH  16  17
ATOM     17  C   UNL     1       3.938  48.342  11.312  1.00  0.00     0.000 C 
BRANCH  17  18
ATOM     18  C   UNL     1       4.191  48.999   9.943  1.00  0.00     0.000 C 
BRANCH  18  19
ATOM     19  C   UNL     1       5.472  48.488   9.258  1.00  0.00     0.000 C 
BRANCH  19  20
ATOM     20  C   UNL     1       6.495  49.580   8.887  1.00  0.00     0.006 C 
BRANCH  20  21
ATOM     21  C   UNL     1       7.965  49.144   9.001  1.00  0.00     0.053 C 
BRANCH  21  22
ATOM     22  C   UNL     1       8.105  47.806   9.656  1.00  0.00     0.041 C 
ATOM     23  O   UNL     1       8.529  47.720  10.839  1.00  0.00    -0.550 OA
ATOM     24  O   UNL     1       7.773  46.653   8.958  1.00  0.00    -0.550 OA
ENDBRANCH  21  22
ENDBRANCH  20  21
ENDBRANCH  19  20
ENDBRANCH  18  19
ENDBRANCH  17  18
ENDBRANCH  16  17
ENDBRANCH  15  16
ENDBRANCH  14  15
ENDBRANCH  13  14
ENDBRANCH   1  13
TORSDOF 20
ENDMDL
