MODEL 1
REMARK VINA RESULT:    -5.672      0.000      0.000
REMARK INTER + INTRA:         -16.868
REMARK INTER:                 -14.292
REMARK INTRA:                  -2.576
REMARK UNBOUND:                -2.576
REMARK SMILES CCCCCCCCCCCCCCCCCCCCCCCCCCCC(=O)[O-]
REMARK SMILES IDX 15 1 16 2 17 3 18 4 19 5 20 6 21 7 22 8 23 9 24 10 25 11
REMARK SMILES IDX 26 12 27 13 28 14 29 15 30 16 14 17 13 18 12 19 11 20 10 21
REMARK SMILES IDX 9 22 8 23 7 24 6 25 5 26 4 27 3 28 2 29 1 30
REMARK H PARENT
REMARK Flexibility Score: inf
ROOT
ATOM      1  C   UNL     1      -6.366  28.510 -23.593  1.00  0.00     0.000 C 
ENDROOT
BRANCH   1   2
ATOM      2  C   UNL     1      -6.188  29.264 -22.262  1.00  0.00     0.000 C 
BRANCH   2   3
ATOM      3  C   UNL     1      -5.115  28.684 -21.322  1.00  0.00     0.000 C 
BRANCH   3   4
ATOM      4  C   UNL     1      -5.580  27.415 -20.588  1.00  0.00     0.000 C 
BRANCH   4   5
ATOM      5  C   UNL     1      -6.217  27.716 -19.222  1.00  0.00     0.000 C 
BRANCH   5   6
ATOM      6  C   UNL     1      -5.777  29.073 -18.646  1.00  0.00     0.000 C 
BRANCH   6   7
ATOM      7  C   UNL     1      -6.981  29.971 -18.315  1.00  0.00     0.000 C 
BRANCH   7   8
ATOM      8  C   UNL     1      -6.609  31.465 -18.334  1.00  0.00     0.000 C 
BRANCH   8   9
ATOM      9  C   UNL     1      -6.710  32.072 -19.742  1.00  0.00     0.000 C 
BRANCH   9  10
ATOM     10  C   UNL     1      -5.440  32.853 -20.120  1.00  0.00     0.000 C 
BRANCH  10  11
ATOM     11  C   UNL     1      -4.686  32.219 -21.300  1.00  0.00     0.000 C 
BRANCH  11  12
ATOM     12  C   UNL     1      -3.162  32.405 -21.195  1.00  0.00     0.006 C 
BRANCH  12  13
ATOM     13  C   UNL     1      -2.565  31.614 -20.021  1.00  0.00     0.053 C 
BRANCH  13  14
ATOM     14  C   UNL     1      -1.279  32.216 -19.544  1.00  0.00     0.041 C 
ATOM     15  O   UNL     1      -1.280  33.337 -18.970  1.00  0.00    -0.550 OA
ATOM     16  O   UNL     1      -0.086  31.523 -19.698  1.00  0.00    -0.550 OA
ENDBRANCH  13  14
ENDBRANCH  12  13
ENDBRANCH  11  12
ENDBRANCH  10  11
ENDBRANCH   9  10
ENDBRANCH   8   9
ENDBRANCH   7   8
ENDBRANCH   6   7
ENDBRANCH   5   6
ENDBRANCH   4   5
ENDBRANCH   3   4
ENDBRANCH   2   3
ENDBRANCH   1   2
BRANCH   1  17
ATOM     17  C   UNL     1      -7.835  28.183 -23.904  1.00  0.00     0.000 C 
BRANCH  17  18
ATOM     18  C   UNL     1      -8.050  27.765 -25.367  1.00  0.00     0.000 C 
BRANCH  18  19
ATOM     19  C   UNL     1      -6.762  27.840 -26.207  1.00  0.00     0.000 C 
BRANCH  19  20
ATOM     20  C   UNL     1      -6.985  27.459 -27.684  1.00  0.00     0.000 C 
BRANCH  20  21
ATOM     21  C   UNL     1      -7.170  25.953 -27.948  1.00  0.00     0.000 C 
BRANCH  21  22
ATOM     22  C   UNL     1      -8.547  25.611 -28.544  1.00  0.00    -0.000 C 
BRANCH  22  23
ATOM     23  C   UNL     1      -9.621  25.396 -27.464  1.00  0.00    -0.000 C 
BRANCH  23  24
ATOM     24  C   UNL     1      -9.283  24.234 -26.513  1.00  0.00    -0.000 C 
BRANCH  24  25
ATOM     25  C   UNL     1     -10.520  23.399 -26.143  1.00  0.00    -0.000 C 
BRANCH  25  26
ATOM     26  C   UNL     1     -10.176  22.193 -25.255  1.00  0.00    -0.000 C 
BRANCH  26  27
ATOM     27  C   UNL     1      -9.221  22.556 -24.104  1.00  0.00    -0.000 C 
BRANCH  27  28
ATOM     28  C   UNL     1      -9.891  23.215 -22.881  1.00  0.00    -0.000 C 
BRANCH  28  29
ATOM     29  C   UNL     1      -9.207  22.872 -21.540  1.00  0.00    -0.003 C 
ATOM     30  C   UNL     1     -10.210  22.741 -20.395  1.00  0.00     0.004 C 
ENDBRANCH  28  29
ENDBRANCH  27  28
ENDBRANCH  26  27
ENDBRANCH  25  26
ENDBRANCH  24  25
ENDBRANCH  23  24
ENDBRANCH  22  23
ENDBRANCH  21  22
ENDBRANCH  20  21
ENDBRANCH  19  20
ENDBRANCH  18  19
ENDBRANCH  17  18
ENDBRANCH   1  17
TORSDOF 26
ENDMDL
MODEL 2
REMARK VINA RESULT:    -5.662      2.368      3.412
REMARK INTER + INTRA:         -16.844
REMARK INTER:                 -14.128
REMARK INTRA:                  -2.716
REMARK UNBOUND:                -2.576
REMARK SMILES CCCCCCCCCCCCCCCCCCCCCCCCCCCC(=O)[O-]
REMARK SMILES IDX 15 1 16 2 17 3 18 4 19 5 20 6 21 7 22 8 23 9 24 10 25 11
REMARK SMILES IDX 26 12 27 13 28 14 29 15 30 16 14 17 13 18 12 19 11 20 10 21
REMARK SMILES IDX 9 22 8 23 7 24 6 25 5 26 4 27 3 28 2 29 1 30
REMARK H PARENT
REMARK Flexibility Score: inf
ROOT
ATOM      1  C   UNL     1      -5.722  28.522 -22.563  1.00  0.00     0.000 C 
ENDROOT
BRANCH   1   2
ATOM      2  C   UNL     1      -5.931  28.035 -21.117  1.00  0.00     0.000 C 
BRANCH   2   3
ATOM      3  C   UNL     1      -4.759  27.232 -20.523  1.00  0.00     0.000 C 
BRANCH   3   4
ATOM      4  C   UNL     1      -3.404  27.946 -20.671  1.00  0.00     0.000 C 
BRANCH   4   5
ATOM      5  C   UNL     1      -2.861  28.476 -19.336  1.00  0.00     0.000 C 
BRANCH   5   6
ATOM      6  C   UNL     1      -2.325  29.915 -19.439  1.00  0.00     0.000 C 
BRANCH   6   7
ATOM      7  C   UNL     1      -2.528  30.500 -20.846  1.00  0.00     0.000 C 
BRANCH   7   8
ATOM      8  C   UNL     1      -3.344  31.806 -20.815  1.00  0.00     0.000 C 
BRANCH   8   9
ATOM      9  C   UNL     1      -4.852  31.552 -20.964  1.00  0.00     0.000 C 
BRANCH   9  10
ATOM     10  C   UNL     1      -5.678  32.469 -20.046  1.00  0.00     0.000 C 
BRANCH  10  11
ATOM     11  C   UNL     1      -6.810  31.719 -19.324  1.00  0.00     0.000 C 
BRANCH  11  12
ATOM     12  C   UNL     1      -6.331  30.403 -18.687  1.00  0.00     0.006 C 
BRANCH  12  13
ATOM     13  C   UNL     1      -7.212  29.983 -17.500  1.00  0.00     0.053 C 
BRANCH  13  14
ATOM     14  C   UNL     1      -6.943  28.570 -17.082  1.00  0.00     0.041 C 
ATOM     15  O   UNL     1      -6.486  28.326 -15.935  1.00  0.00    -0.550 OA
ATOM     16  O   UNL     1      -7.232  27.521 -17.945  1.00  0.00    -0.550 OA
ENDBRANCH  13  14
ENDBRANCH  12  13
ENDBRANCH  11  12
ENDBRANCH  10  11
ENDBRANCH   9  10
ENDBRANCH   8   9
ENDBRANCH   7   8
ENDBRANCH   6   7
ENDBRANCH   5   6
ENDBRANCH   4   5
ENDBRANCH   3   4
ENDBRANCH   2   3
ENDBRANCH   1   2
BRANCH   1  17
ATOM     17  C   UNL     1      -7.042  28.848 -23.281  1.00  0.00     0.000 C 
BRANCH  17  18
ATOM     18  C   UNL     1      -7.125  28.215 -24.678  1.00  0.00     0.000 C 
BRANCH  18  19
ATOM     19  C   UNL     1      -8.480  27.537 -24.950  1.00  0.00     0.000 C 
BRANCH  19  20
ATOM     20  C   UNL     1      -8.851  27.511 -26.446  1.00  0.00     0.000 C 
BRANCH  20  21
ATOM     21  C   UNL     1      -7.791  26.882 -27.370  1.00  0.00     0.000 C 
BRANCH  21  22
ATOM     22  C   UNL     1      -8.246  25.549 -27.989  1.00  0.00    -0.000 C 
BRANCH  22  23
ATOM     23  C   UNL     1      -9.532  25.007 -27.343  1.00  0.00    -0.000 C 
BRANCH  23  24
ATOM     24  C   UNL     1      -9.252  24.109 -26.125  1.00  0.00    -0.000 C 
BRANCH  24  25
ATOM     25  C   UNL     1     -10.400  23.125 -25.844  1.00  0.00    -0.000 C 
BRANCH  25  26
ATOM     26  C   UNL     1     -10.123  22.223 -24.631  1.00  0.00    -0.000 C 
BRANCH  26  27
ATOM     27  C   UNL     1      -9.380  22.959 -23.501  1.00  0.00    -0.000 C 
BRANCH  27  28
ATOM     28  C   UNL     1     -10.261  23.380 -22.306  1.00  0.00    -0.000 C 
BRANCH  28  29
ATOM     29  C   UNL     1      -9.923  22.636 -20.996  1.00  0.00    -0.003 C 
ATOM     30  C   UNL     1      -8.537  22.996 -20.464  1.00  0.00     0.004 C 
ENDBRANCH  28  29
ENDBRANCH  27  28
ENDBRANCH  26  27
ENDBRANCH  25  26
ENDBRANCH  24  25
ENDBRANCH  23  24
ENDBRANCH  22  23
ENDBRANCH  21  22
ENDBRANCH  20  21
ENDBRANCH  19  20
ENDBRANCH  18  19
ENDBRANCH  17  18
ENDBRANCH   1  17
TORSDOF 26
ENDMDL
MODEL 3
REMARK VINA RESULT:    -5.645      1.776      3.313
REMARK INTER + INTRA:         -16.800
REMARK INTER:                 -14.062
REMARK INTRA:                  -2.738
REMARK UNBOUND:                -2.576
REMARK SMILES CCCCCCCCCCCCCCCCCCCCCCCCCCCC(=O)[O-]
REMARK SMILES IDX 15 1 16 2 17 3 18 4 19 5 20 6 21 7 22 8 23 9 24 10 25 11
REMARK SMILES IDX 26 12 27 13 28 14 29 15 30 16 14 17 13 18 12 19 11 20 10 21
REMARK SMILES IDX 9 22 8 23 7 24 6 25 5 26 4 27 3 28 2 29 1 30
REMARK H PARENT
REMARK Flexibility Score: inf
ROOT
ATOM      1  C   UNL     1      -6.954  28.866 -22.825  1.00  0.00     0.000 C 
ENDROOT
BRANCH   1   2
ATOM      2  C   UNL     1      -5.511  29.159 -23.277  1.00  0.00     0.000 C 
BRANCH   2   3
ATOM      3  C   UNL     1      -4.560  29.628 -22.160  1.00  0.00     0.000 C 
BRANCH   3   4
ATOM      4  C   UNL     1      -4.195  31.118 -22.267  1.00  0.00     0.000 C 
BRANCH   4   5
ATOM      5  C   UNL     1      -3.385  31.621 -21.062  1.00  0.00     0.000 C 
BRANCH   5   6
ATOM      6  C   UNL     1      -4.276  32.101 -19.903  1.00  0.00     0.000 C 
BRANCH   6   7
ATOM      7  C   UNL     1      -5.599  32.701 -20.410  1.00  0.00     0.000 C 
BRANCH   7   8
ATOM      8  C   UNL     1      -6.818  31.888 -19.937  1.00  0.00     0.000 C 
BRANCH   8   9
ATOM      9  C   UNL     1      -6.865  31.746 -18.408  1.00  0.00     0.000 C 
BRANCH   9  10
ATOM     10  C   UNL     1      -6.762  30.275 -17.969  1.00  0.00     0.000 C 
BRANCH  10  11
ATOM     11  C   UNL     1      -6.685  29.306 -19.160  1.00  0.00     0.000 C 
BRANCH  11  12
ATOM     12  C   UNL     1      -6.298  27.879 -18.735  1.00  0.00     0.006 C 
BRANCH  12  13
ATOM     13  C   UNL     1      -5.756  27.055 -19.913  1.00  0.00     0.053 C 
BRANCH  13  14
ATOM     14  C   UNL     1      -4.282  26.817 -19.791  1.00  0.00     0.041 C 
ATOM     15  O   UNL     1      -3.741  25.868 -20.418  1.00  0.00    -0.550 OA
ATOM     16  O   UNL     1      -3.501  27.663 -19.016  1.00  0.00    -0.550 OA
ENDBRANCH  13  14
ENDBRANCH  12  13
ENDBRANCH  11  12
ENDBRANCH  10  11
ENDBRANCH   9  10
ENDBRANCH   8   9
ENDBRANCH   7   8
ENDBRANCH   6   7
ENDBRANCH   5   6
ENDBRANCH   4   5
ENDBRANCH   3   4
ENDBRANCH   2   3
ENDBRANCH   1   2
BRANCH   1  17
ATOM     17  C   UNL     1      -7.772  28.116 -23.889  1.00  0.00     0.000 C 
BRANCH  17  18
ATOM     18  C   UNL     1      -7.082  28.098 -25.261  1.00  0.00     0.000 C 
BRANCH  18  19
ATOM     19  C   UNL     1      -8.024  27.672 -26.401  1.00  0.00     0.000 C 
BRANCH  19  20
ATOM     20  C   UNL     1      -7.295  26.932 -27.540  1.00  0.00     0.000 C 
BRANCH  20  21
ATOM     21  C   UNL     1      -7.950  25.610 -27.982  1.00  0.00     0.000 C 
BRANCH  21  22
ATOM     22  C   UNL     1      -9.341  25.390 -27.365  1.00  0.00    -0.000 C 
BRANCH  22  23
ATOM     23  C   UNL     1      -9.349  24.271 -26.310  1.00  0.00    -0.000 C 
BRANCH  23  24
ATOM     24  C   UNL     1     -10.609  23.391 -26.386  1.00  0.00    -0.000 C 
BRANCH  24  25
ATOM     25  C   UNL     1     -11.002  22.808 -25.018  1.00  0.00    -0.000 C 
BRANCH  25  26
ATOM     26  C   UNL     1      -9.783  22.484 -24.139  1.00  0.00    -0.000 C 
BRANCH  26  27
ATOM     27  C   UNL     1      -9.890  23.092 -22.729  1.00  0.00    -0.000 C 
BRANCH  27  28
ATOM     28  C   UNL     1      -8.652  22.886 -21.833  1.00  0.00    -0.000 C 
BRANCH  28  29
ATOM     29  C   UNL     1      -8.988  22.757 -20.332  1.00  0.00    -0.003 C 
ATOM     30  C   UNL     1     -10.427  22.300 -20.097  1.00  0.00     0.004 C 
ENDBRANCH  28  29
ENDBRANCH  27  28
ENDBRANCH  26  27
ENDBRANCH  25  26
ENDBRANCH  24  25
ENDBRANCH  23  24
ENDBRANCH  22  23
ENDBRANCH  21  22
ENDBRANCH  20  21
ENDBRANCH  19  20
ENDBRANCH  18  19
ENDBRANCH  17  18
ENDBRANCH   1  17
TORSDOF 26
ENDMDL
MODEL 4
REMARK VINA RESULT:    -5.632      3.495      9.984
REMARK INTER + INTRA:         -16.769
REMARK INTER:                 -13.951
REMARK INTRA:                  -2.818
REMARK UNBOUND:                -2.576
REMARK SMILES CCCCCCCCCCCCCCCCCCCCCCCCCCCC(=O)[O-]
REMARK SMILES IDX 15 1 16 2 17 3 18 4 19 5 20 6 21 7 22 8 23 9 24 10 25 11
REMARK SMILES IDX 26 12 27 13 28 14 29 15 30 16 14 17 13 18 12 19 11 20 10 21
REMARK SMILES IDX 9 22 8 23 7 24 6 25 5 26 4 27 3 28 2 29 1 30
REMARK H PARENT
REMARK Flexibility Score: inf
ROOT
ATOM      1  C   UNL     1      -6.653  28.785 -23.489  1.00  0.00     0.000 C 
ENDROOT
BRANCH   1   2
ATOM      2  C   UNL     1      -7.979  28.113 -23.893  1.00  0.00     0.000 C 
BRANCH   2   3
ATOM      3  C   UNL     1      -8.072  27.690 -25.371  1.00  0.00     0.000 C 
BRANCH   3   4
ATOM      4  C   UNL     1      -6.760  27.907 -26.144  1.00  0.00     0.000 C 
BRANCH   4   5
ATOM      5  C   UNL     1      -6.624  26.979 -27.360  1.00  0.00     0.000 C 
BRANCH   5   6
ATOM      6  C   UNL     1      -7.928  26.860 -28.168  1.00  0.00     0.000 C 
BRANCH   6   7
ATOM      7  C   UNL     1      -8.417  25.404 -28.253  1.00  0.00     0.000 C 
BRANCH   7   8
ATOM      8  C   UNL     1      -9.589  25.132 -27.292  1.00  0.00     0.000 C 
BRANCH   8   9
ATOM      9  C   UNL     1      -9.295  23.970 -26.331  1.00  0.00     0.000 C 
BRANCH   9  10
ATOM     10  C   UNL     1     -10.587  23.353 -25.769  1.00  0.00     0.000 C 
BRANCH  10  11
ATOM     11  C   UNL     1     -10.313  22.228 -24.758  1.00  0.00     0.000 C 
BRANCH  11  12
ATOM     12  C   UNL     1      -9.342  22.659 -23.645  1.00  0.00     0.006 C 
BRANCH  12  13
ATOM     13  C   UNL     1     -10.075  23.312 -22.463  1.00  0.00     0.053 C 
BRANCH  13  14
ATOM     14  C   UNL     1      -9.571  22.800 -21.148  1.00  0.00     0.041 C 
ATOM     15  O   UNL     1     -10.295  22.049 -20.443  1.00  0.00    -0.550 OA
ATOM     16  O   UNL     1      -8.290  23.120 -20.720  1.00  0.00    -0.550 OA
ENDBRANCH  13  14
ENDBRANCH  12  13
ENDBRANCH  11  12
ENDBRANCH  10  11
ENDBRANCH   9  10
ENDBRANCH   8   9
ENDBRANCH   7   8
ENDBRANCH   6   7
ENDBRANCH   5   6
ENDBRANCH   4   5
ENDBRANCH   3   4
ENDBRANCH   2   3
ENDBRANCH   1   2
BRANCH   1  17
ATOM     17  C   UNL     1      -6.241  28.472 -22.042  1.00  0.00     0.000 C 
BRANCH  17  18
ATOM     18  C   UNL     1      -6.016  29.740 -21.205  1.00  0.00     0.000 C 
BRANCH  18  19
ATOM     19  C   UNL     1      -6.573  29.621 -19.774  1.00  0.00     0.000 C 
BRANCH  19  20
ATOM     20  C   UNL     1      -6.492  30.943 -18.985  1.00  0.00     0.000 C 
BRANCH  20  21
ATOM     21  C   UNL     1      -6.738  32.216 -19.817  1.00  0.00     0.000 C 
BRANCH  21  22
ATOM     22  C   UNL     1      -5.885  33.410 -19.357  1.00  0.00    -0.000 C 
BRANCH  22  23
ATOM     23  C   UNL     1      -4.825  33.814 -20.397  1.00  0.00    -0.000 C 
BRANCH  23  24
ATOM     24  C   UNL     1      -4.394  32.639 -21.293  1.00  0.00    -0.000 C 
BRANCH  24  25
ATOM     25  C   UNL     1      -2.992  32.116 -20.942  1.00  0.00    -0.000 C 
BRANCH  25  26
ATOM     26  C   UNL     1      -3.007  31.115 -19.775  1.00  0.00    -0.000 C 
BRANCH  26  27
ATOM     27  C   UNL     1      -2.329  29.780 -20.131  1.00  0.00    -0.000 C 
BRANCH  27  28
ATOM     28  C   UNL     1      -2.991  28.528 -19.518  1.00  0.00    -0.000 C 
BRANCH  28  29
ATOM     29  C   UNL     1      -3.210  27.384 -20.532  1.00  0.00    -0.003 C 
ATOM     30  C   UNL     1      -4.079  26.264 -19.964  1.00  0.00     0.004 C 
ENDBRANCH  28  29
ENDBRANCH  27  28
ENDBRANCH  26  27
ENDBRANCH  25  26
ENDBRANCH  24  25
ENDBRANCH  23  24
ENDBRANCH  22  23
ENDBRANCH  21  22
ENDBRANCH  20  21
ENDBRANCH  19  20
ENDBRANCH  18  19
ENDBRANCH  17  18
ENDBRANCH   1  17
TORSDOF 26
ENDMDL
MODEL 5
REMARK VINA RESULT:    -5.567      3.442      9.611
REMARK INTER + INTRA:         -16.605
REMARK INTER:                 -13.936
REMARK INTRA:                  -2.669
REMARK UNBOUND:                -2.576
REMARK SMILES CCCCCCCCCCCCCCCCCCCCCCCCCCCC(=O)[O-]
REMARK SMILES IDX 15 1 16 2 17 3 18 4 19 5 20 6 21 7 22 8 23 9 24 10 25 11
REMARK SMILES IDX 26 12 27 13 28 14 29 15 30 16 14 17 13 18 12 19 11 20 10 21
REMARK SMILES IDX 9 22 8 23 7 24 6 25 5 26 4 27 3 28 2 29 1 30
REMARK H PARENT
REMARK Flexibility Score: inf
ROOT
ATOM      1  C   UNL     1      -6.259  28.511 -23.756  1.00  0.00     0.000 C 
ENDROOT
BRANCH   1   2
ATOM      2  C   UNL     1      -7.734  28.184 -24.056  1.00  0.00     0.000 C 
BRANCH   2   3
ATOM      3  C   UNL     1      -8.027  27.759 -25.506  1.00  0.00     0.000 C 
BRANCH   3   4
ATOM      4  C   UNL     1      -6.775  27.765 -26.400  1.00  0.00     0.000 C 
BRANCH   4   5
ATOM      5  C   UNL     1      -7.059  27.272 -27.827  1.00  0.00     0.000 C 
BRANCH   5   6
ATOM      6  C   UNL     1      -7.428  25.779 -27.880  1.00  0.00     0.000 C 
BRANCH   6   7
ATOM      7  C   UNL     1      -8.863  25.563 -28.391  1.00  0.00     0.000 C 
BRANCH   7   8
ATOM      8  C   UNL     1      -9.841  25.247 -27.245  1.00  0.00     0.000 C 
BRANCH   8   9
ATOM      9  C   UNL     1      -9.387  24.040 -26.409  1.00  0.00     0.000 C 
BRANCH   9  10
ATOM     10  C   UNL     1     -10.583  23.253 -25.847  1.00  0.00     0.000 C 
BRANCH  10  11
ATOM     11  C   UNL     1     -10.159  22.186 -24.823  1.00  0.00     0.000 C 
BRANCH  11  12
ATOM     12  C   UNL     1      -9.221  22.748 -23.740  1.00  0.00     0.006 C 
BRANCH  12  13
ATOM     13  C   UNL     1     -10.000  23.326 -22.549  1.00  0.00     0.053 C 
BRANCH  13  14
ATOM     14  C   UNL     1      -9.490  22.795 -21.244  1.00  0.00     0.041 C 
ATOM     15  O   UNL     1      -8.373  23.170 -20.802  1.00  0.00    -0.550 OA
ATOM     16  O   UNL     1     -10.266  21.917 -20.499  1.00  0.00    -0.550 OA
ENDBRANCH  13  14
ENDBRANCH  12  13
ENDBRANCH  11  12
ENDBRANCH  10  11
ENDBRANCH   9  10
ENDBRANCH   8   9
ENDBRANCH   7   8
ENDBRANCH   6   7
ENDBRANCH   5   6
ENDBRANCH   4   5
ENDBRANCH   3   4
ENDBRANCH   2   3
ENDBRANCH   1   2
BRANCH   1  17
ATOM     17  C   UNL     1      -6.080  29.359 -22.487  1.00  0.00     0.000 C 
BRANCH  17  18
ATOM     18  C   UNL     1      -4.621  29.784 -22.263  1.00  0.00     0.000 C 
BRANCH  18  19
ATOM     19  C   UNL     1      -4.428  31.311 -22.307  1.00  0.00     0.000 C 
BRANCH  19  20
ATOM     20  C   UNL     1      -3.318  31.805 -21.358  1.00  0.00     0.000 C 
BRANCH  20  21
ATOM     21  C   UNL     1      -3.795  32.733 -20.224  1.00  0.00     0.000 C 
BRANCH  21  22
ATOM     22  C   UNL     1      -5.207  33.296 -20.461  1.00  0.00    -0.000 C 
BRANCH  22  23
ATOM     23  C   UNL     1      -6.172  32.971 -19.308  1.00  0.00    -0.000 C 
BRANCH  23  24
ATOM     24  C   UNL     1      -6.961  31.671 -19.541  1.00  0.00    -0.000 C 
BRANCH  24  25
ATOM     25  C   UNL     1      -6.699  30.621 -18.449  1.00  0.00    -0.000 C 
BRANCH  25  26
ATOM     26  C   UNL     1      -5.877  29.427 -18.959  1.00  0.00    -0.000 C 
BRANCH  26  27
ATOM     27  C   UNL     1      -6.646  28.096 -18.871  1.00  0.00    -0.000 C 
BRANCH  27  28
ATOM     28  C   UNL     1      -5.867  26.858 -19.358  1.00  0.00    -0.000 C 
BRANCH  28  29
ATOM     29  C   UNL     1      -4.620  27.203 -20.201  1.00  0.00    -0.003 C 
ATOM     30  C   UNL     1      -3.318  26.926 -19.451  1.00  0.00     0.004 C 
ENDBRANCH  28  29
ENDBRANCH  27  28
ENDBRANCH  26  27
ENDBRANCH  25  26
ENDBRANCH  24  25
ENDBRANCH  23  24
ENDBRANCH  22  23
ENDBRANCH  21  22
ENDBRANCH  20  21
ENDBRANCH  19  20
ENDBRANCH  18  19
ENDBRANCH  17  18
ENDBRANCH   1  17
TORSDOF 26
ENDMDL
MODEL 6
REMARK VINA RESULT:    -5.514      1.888      2.845
REMARK INTER + INTRA:         -16.470
REMARK INTER:                 -14.018
REMARK INTRA:                  -2.452
REMARK UNBOUND:                -2.576
REMARK SMILES CCCCCCCCCCCCCCCCCCCCCCCCCCCC(=O)[O-]
REMARK SMILES IDX 15 1 16 2 17 3 18 4 19 5 20 6 21 7 22 8 23 9 24 10 25 11
REMARK SMILES IDX 26 12 27 13 28 14 29 15 30 16 14 17 13 18 12 19 11 20 10 21
REMARK SMILES IDX 9 22 8 23 7 24 6 25 5 26 4 27 3 28 2 29 1 30
REMARK H PARENT
REMARK Flexibility Score: inf
ROOT
ATOM      1  C   UNL     1      -6.174  28.765 -23.961  1.00  0.00     0.000 C 
ENDROOT
BRANCH   1   2
ATOM      2  C   UNL     1      -5.597  29.262 -22.623  1.00  0.00     0.000 C 
BRANCH   2   3
ATOM      3  C   UNL     1      -6.244  28.652 -21.366  1.00  0.00     0.000 C 
BRANCH   3   4
ATOM      4  C   UNL     1      -5.481  27.430 -20.828  1.00  0.00     0.000 C 
BRANCH   4   5
ATOM      5  C   UNL     1      -4.490  27.790 -19.710  1.00  0.00     0.000 C 
BRANCH   5   6
ATOM      6  C   UNL     1      -3.084  28.116 -20.243  1.00  0.00     0.000 C 
BRANCH   6   7
ATOM      7  C   UNL     1      -2.496  29.371 -19.576  1.00  0.00     0.000 C 
BRANCH   7   8
ATOM      8  C   UNL     1      -3.359  30.620 -19.834  1.00  0.00     0.000 C 
BRANCH   8   9
ATOM      9  C   UNL     1      -3.098  31.229 -21.221  1.00  0.00     0.000 C 
BRANCH   9  10
ATOM     10  C   UNL     1      -4.002  32.445 -21.488  1.00  0.00     0.000 C 
BRANCH  10  11
ATOM     11  C   UNL     1      -4.265  33.276 -20.222  1.00  0.00     0.000 C 
BRANCH  11  12
ATOM     12  C   UNL     1      -5.667  33.910 -20.214  1.00  0.00     0.006 C 
BRANCH  12  13
ATOM     13  C   UNL     1      -6.522  33.400 -19.044  1.00  0.00     0.053 C 
BRANCH  13  14
ATOM     14  C   UNL     1      -6.846  31.944 -19.188  1.00  0.00     0.041 C 
ATOM     15  O   UNL     1      -7.416  31.523 -20.229  1.00  0.00    -0.550 OA
ATOM     16  O   UNL     1      -6.484  31.048 -18.191  1.00  0.00    -0.550 OA
ENDBRANCH  13  14
ENDBRANCH  12  13
ENDBRANCH  11  12
ENDBRANCH  10  11
ENDBRANCH   9  10
ENDBRANCH   8   9
ENDBRANCH   7   8
ENDBRANCH   6   7
ENDBRANCH   5   6
ENDBRANCH   4   5
ENDBRANCH   3   4
ENDBRANCH   2   3
ENDBRANCH   1   2
BRANCH   1  17
ATOM     17  C   UNL     1      -7.573  28.145 -23.817  1.00  0.00     0.000 C 
BRANCH  17  18
ATOM     18  C   UNL     1      -8.190  27.761 -25.170  1.00  0.00     0.000 C 
BRANCH  18  19
ATOM     19  C   UNL     1      -7.140  27.595 -26.283  1.00  0.00     0.000 C 
BRANCH  19  20
ATOM     20  C   UNL     1      -7.766  27.330 -27.667  1.00  0.00     0.000 C 
BRANCH  20  21
ATOM     21  C   UNL     1      -8.027  25.847 -27.991  1.00  0.00     0.000 C 
BRANCH  21  22
ATOM     22  C   UNL     1      -9.380  25.342 -27.462  1.00  0.00    -0.000 C 
BRANCH  22  23
ATOM     23  C   UNL     1      -9.224  24.285 -26.355  1.00  0.00    -0.000 C 
BRANCH  23  24
ATOM     24  C   UNL     1     -10.461  23.379 -26.221  1.00  0.00    -0.000 C 
BRANCH  24  25
ATOM     25  C   UNL     1     -10.355  22.414 -25.029  1.00  0.00    -0.000 C 
BRANCH  25  26
ATOM     26  C   UNL     1      -9.264  22.826 -24.027  1.00  0.00    -0.000 C 
BRANCH  26  27
ATOM     27  C   UNL     1      -9.782  22.886 -22.578  1.00  0.00    -0.000 C 
BRANCH  27  28
ATOM     28  C   UNL     1      -8.696  23.112 -21.506  1.00  0.00    -0.000 C 
BRANCH  28  29
ATOM     29  C   UNL     1      -8.998  22.412 -20.163  1.00  0.00    -0.003 C 
ATOM     30  C   UNL     1     -10.483  22.455 -19.807  1.00  0.00     0.004 C 
ENDBRANCH  28  29
ENDBRANCH  27  28
ENDBRANCH  26  27
ENDBRANCH  25  26
ENDBRANCH  24  25
ENDBRANCH  23  24
ENDBRANCH  22  23
ENDBRANCH  21  22
ENDBRANCH  20  21
ENDBRANCH  19  20
ENDBRANCH  18  19
ENDBRANCH  17  18
ENDBRANCH   1  17
TORSDOF 26
ENDMDL
MODEL 7
REMARK VINA RESULT:    -5.332      1.967      3.806
REMARK INTER + INTRA:         -16.013
REMARK INTER:                 -13.258
REMARK INTRA:                  -2.754
REMARK UNBOUND:                -2.576
REMARK SMILES CCCCCCCCCCCCCCCCCCCCCCCCCCCC(=O)[O-]
REMARK SMILES IDX 15 1 16 2 17 3 18 4 19 5 20 6 21 7 22 8 23 9 24 10 25 11
REMARK SMILES IDX 26 12 27 13 28 14 29 15 30 16 14 17 13 18 12 19 11 20 10 21
REMARK SMILES IDX 9 22 8 23 7 24 6 25 5 26 4 27 3 28 2 29 1 30
REMARK H PARENT
REMARK Flexibility Score: inf
ROOT
ATOM      1  C   UNL     1      -6.169  27.982 -21.242  1.00  0.00     0.000 C 
ENDROOT
BRANCH   1   2
ATOM      2  C   UNL     1      -4.807  27.770 -20.554  1.00  0.00     0.000 C 
BRANCH   2   3
ATOM      3  C   UNL     1      -3.667  28.665 -21.074  1.00  0.00     0.000 C 
BRANCH   3   4
ATOM      4  C   UNL     1      -3.358  29.849 -20.142  1.00  0.00     0.000 C 
BRANCH   4   5
ATOM      5  C   UNL     1      -2.973  31.125 -20.907  1.00  0.00     0.000 C 
BRANCH   5   6
ATOM      6  C   UNL     1      -1.971  32.002 -20.137  1.00  0.00     0.000 C 
BRANCH   6   7
ATOM      7  C   UNL     1      -1.754  33.361 -20.824  1.00  0.00     0.000 C 
BRANCH   7   8
ATOM      8  C   UNL     1      -2.045  34.539 -19.877  1.00  0.00     0.000 C 
BRANCH   8   9
ATOM      9  C   UNL     1      -3.437  34.438 -19.235  1.00  0.00     0.000 C 
BRANCH   9  10
ATOM     10  C   UNL     1      -4.545  34.891 -20.201  1.00  0.00     0.000 C 
BRANCH  10  11
ATOM     11  C   UNL     1      -5.473  33.739 -20.620  1.00  0.00     0.000 C 
BRANCH  11  12
ATOM     12  C   UNL     1      -6.403  33.287 -19.480  1.00  0.00     0.006 C 
BRANCH  12  13
ATOM     13  C   UNL     1      -6.814  31.814 -19.622  1.00  0.00     0.053 C 
BRANCH  13  14
ATOM     14  C   UNL     1      -6.804  31.106 -18.302  1.00  0.00     0.041 C 
ATOM     15  O   UNL     1      -6.541  29.875 -18.247  1.00  0.00    -0.550 OA
ATOM     16  O   UNL     1      -7.046  31.811 -17.131  1.00  0.00    -0.550 OA
ENDBRANCH  13  14
ENDBRANCH  12  13
ENDBRANCH  11  12
ENDBRANCH  10  11
ENDBRANCH   9  10
ENDBRANCH   8   9
ENDBRANCH   7   8
ENDBRANCH   6   7
ENDBRANCH   5   6
ENDBRANCH   4   5
ENDBRANCH   3   4
ENDBRANCH   2   3
ENDBRANCH   1   2
BRANCH   1  17
ATOM     17  C   UNL     1      -6.177  29.188 -22.195  1.00  0.00     0.000 C 
BRANCH  17  18
ATOM     18  C   UNL     1      -6.352  28.777 -23.665  1.00  0.00     0.000 C 
BRANCH  18  19
ATOM     19  C   UNL     1      -7.751  28.210 -23.966  1.00  0.00     0.000 C 
BRANCH  19  20
ATOM     20  C   UNL     1      -7.886  27.673 -25.405  1.00  0.00     0.000 C 
BRANCH  20  21
ATOM     21  C   UNL     1      -6.612  27.782 -26.264  1.00  0.00     0.000 C 
BRANCH  21  22
ATOM     22  C   UNL     1      -6.855  27.448 -27.746  1.00  0.00    -0.000 C 
BRANCH  22  23
ATOM     23  C   UNL     1      -7.300  25.991 -27.958  1.00  0.00    -0.000 C 
BRANCH  23  24
ATOM     24  C   UNL     1      -8.699  25.882 -28.588  1.00  0.00    -0.000 C 
BRANCH  24  25
ATOM     25  C   UNL     1      -9.773  25.468 -27.568  1.00  0.00    -0.000 C 
BRANCH  25  26
ATOM     26  C   UNL     1      -9.317  24.312 -26.664  1.00  0.00    -0.000 C 
BRANCH  26  27
ATOM     27  C   UNL     1     -10.495  23.474 -26.134  1.00  0.00    -0.000 C 
BRANCH  27  28
ATOM     28  C   UNL     1     -10.095  22.199 -25.364  1.00  0.00    -0.000 C 
BRANCH  28  29
ATOM     29  C   UNL     1      -9.140  22.465 -24.180  1.00  0.00    -0.003 C 
ATOM     30  C   UNL     1      -9.850  23.127 -23.000  1.00  0.00     0.004 C 
ENDBRANCH  28  29
ENDBRANCH  27  28
ENDBRANCH  26  27
ENDBRANCH  25  26
ENDBRANCH  24  25
ENDBRANCH  23  24
ENDBRANCH  22  23
ENDBRANCH  21  22
ENDBRANCH  20  21
ENDBRANCH  19  20
ENDBRANCH  18  19
ENDBRANCH  17  18
ENDBRANCH   1  17
TORSDOF 26
ENDMDL
MODEL 8
REMARK VINA RESULT:    -5.305      3.571     10.216
REMARK INTER + INTRA:         -15.945
REMARK INTER:                 -13.151
REMARK INTRA:                  -2.794
REMARK UNBOUND:                -2.576
REMARK SMILES CCCCCCCCCCCCCCCCCCCCCCCCCCCC(=O)[O-]
REMARK SMILES IDX 15 1 16 2 17 3 18 4 19 5 20 6 21 7 22 8 23 9 24 10 25 11
REMARK SMILES IDX 26 12 27 13 28 14 29 15 30 16 14 17 13 18 12 19 11 20 10 21
REMARK SMILES IDX 9 22 8 23 7 24 6 25 5 26 4 27 3 28 2 29 1 30
REMARK H PARENT
REMARK Flexibility Score: inf
ROOT
ATOM      1  C   UNL     1      -5.461  29.583 -22.747  1.00  0.00     0.000 C 
ENDROOT
BRANCH   1   2
ATOM      2  C   UNL     1      -6.632  28.605 -22.954  1.00  0.00     0.000 C 
BRANCH   2   3
ATOM      3  C   UNL     1      -6.957  28.276 -24.423  1.00  0.00     0.000 C 
BRANCH   3   4
ATOM      4  C   UNL     1      -8.392  27.762 -24.622  1.00  0.00     0.000 C 
BRANCH   4   5
ATOM      5  C   UNL     1      -8.821  27.747 -26.097  1.00  0.00     0.000 C 
BRANCH   5   6
ATOM      6  C   UNL     1      -7.655  27.442 -27.054  1.00  0.00     0.000 C 
BRANCH   6   7
ATOM      7  C   UNL     1      -8.004  26.312 -28.038  1.00  0.00     0.000 C 
BRANCH   7   8
ATOM      8  C   UNL     1      -9.293  25.574 -27.635  1.00  0.00     0.000 C 
BRANCH   8   9
ATOM      9  C   UNL     1      -9.003  24.271 -26.874  1.00  0.00     0.000 C 
BRANCH   9  10
ATOM     10  C   UNL     1      -9.698  24.245 -25.501  1.00  0.00     0.000 C 
BRANCH  10  11
ATOM     11  C   UNL     1     -10.270  22.860 -25.156  1.00  0.00     0.000 C 
BRANCH  11  12
ATOM     12  C   UNL     1      -9.838  22.375 -23.760  1.00  0.00     0.006 C 
BRANCH  12  13
ATOM     13  C   UNL     1     -10.048  23.453 -22.686  1.00  0.00     0.053 C 
BRANCH  13  14
ATOM     14  C   UNL     1      -9.650  22.965 -21.327  1.00  0.00     0.041 C 
ATOM     15  O   UNL     1      -8.450  22.668 -21.088  1.00  0.00    -0.550 OA
ATOM     16  O   UNL     1     -10.596  22.875 -20.314  1.00  0.00    -0.550 OA
ENDBRANCH  13  14
ENDBRANCH  12  13
ENDBRANCH  11  12
ENDBRANCH  10  11
ENDBRANCH   9  10
ENDBRANCH   8   9
ENDBRANCH   7   8
ENDBRANCH   6   7
ENDBRANCH   5   6
ENDBRANCH   4   5
ENDBRANCH   3   4
ENDBRANCH   2   3
ENDBRANCH   1   2
BRANCH   1  17
ATOM     17  C   UNL     1      -5.553  30.354 -21.421  1.00  0.00     0.000 C 
BRANCH  17  18
ATOM     18  C   UNL     1      -6.615  29.775 -20.474  1.00  0.00     0.000 C 
BRANCH  18  19
ATOM     19  C   UNL     1      -6.010  29.168 -19.195  1.00  0.00     0.000 C 
BRANCH  19  20
ATOM     20  C   UNL     1      -6.159  27.635 -19.127  1.00  0.00     0.000 C 
BRANCH  20  21
ATOM     21  C   UNL     1      -5.264  26.849 -20.105  1.00  0.00     0.000 C 
BRANCH  21  22
ATOM     22  C   UNL     1      -3.778  26.867 -19.708  1.00  0.00    -0.000 C 
BRANCH  22  23
ATOM     23  C   UNL     1      -2.994  27.994 -20.402  1.00  0.00    -0.000 C 
BRANCH  23  24
ATOM     24  C   UNL     1      -2.408  29.010 -19.407  1.00  0.00    -0.000 C 
BRANCH  24  25
ATOM     25  C   UNL     1      -2.646  30.465 -19.844  1.00  0.00    -0.000 C 
BRANCH  25  26
ATOM     26  C   UNL     1      -1.352  31.293 -19.877  1.00  0.00    -0.000 C 
BRANCH  26  27
ATOM     27  C   UNL     1      -1.507  32.605 -20.668  1.00  0.00    -0.000 C 
BRANCH  27  28
ATOM     28  C   UNL     1      -2.535  32.558 -21.817  1.00  0.00    -0.000 C 
BRANCH  28  29
ATOM     29  C   UNL     1      -3.749  33.487 -21.600  1.00  0.00    -0.003 C 
ATOM     30  C   UNL     1      -3.559  34.853 -22.257  1.00  0.00     0.004 C 
ENDBRANCH  28  29
ENDBRANCH  27  28
ENDBRANCH  26  27
ENDBRANCH  25  26
ENDBRANCH  24  25
ENDBRANCH  23  24
ENDBRANCH  22  23
ENDBRANCH  21  22
ENDBRANCH  20  21
ENDBRANCH  19  20
ENDBRANCH  18  19
ENDBRANCH  17  18
ENDBRANCH   1  17
TORSDOF 26
ENDMDL
MODEL 9
REMARK VINA RESULT:    -5.264      4.236      9.407
REMARK INTER + INTRA:         -15.841
REMARK INTER:                 -11.783
REMARK INTRA:                  -4.057
REMARK UNBOUND:                -2.576
REMARK SMILES CCCCCCCCCCCCCCCCCCCCCCCCCCCC(=O)[O-]
REMARK SMILES IDX 15 1 16 2 17 3 18 4 19 5 20 6 21 7 22 8 23 9 24 10 25 11
REMARK SMILES IDX 26 12 27 13 28 14 29 15 30 16 14 17 13 18 12 19 11 20 10 21
REMARK SMILES IDX 9 22 8 23 7 24 6 25 5 26 4 27 3 28 2 29 1 30
REMARK H PARENT
REMARK Flexibility Score: inf
ROOT
ATOM      1  C   UNL     1      -6.648  27.971 -18.170  1.00  0.00     0.000 C 
ENDROOT
BRANCH   1   2
ATOM      2  C   UNL     1      -6.161  27.645 -19.594  1.00  0.00     0.000 C 
BRANCH   2   3
ATOM      3  C   UNL     1      -5.184  26.459 -19.695  1.00  0.00     0.000 C 
BRANCH   3   4
ATOM      4  C   UNL     1      -3.737  26.894 -19.979  1.00  0.00     0.000 C 
BRANCH   4   5
ATOM      5  C   UNL     1      -3.181  27.849 -18.912  1.00  0.00     0.000 C 
BRANCH   5   6
ATOM      6  C   UNL     1      -2.443  29.055 -19.517  1.00  0.00     0.000 C 
BRANCH   6   7
ATOM      7  C   UNL     1      -3.407  30.206 -19.852  1.00  0.00     0.000 C 
BRANCH   7   8
ATOM      8  C   UNL     1      -3.457  30.496 -21.363  1.00  0.00     0.000 C 
BRANCH   8   9
ATOM      9  C   UNL     1      -4.884  30.402 -21.925  1.00  0.00     0.000 C 
BRANCH   9  10
ATOM     10  C   UNL     1      -5.077  29.142 -22.786  1.00  0.00     0.000 C 
BRANCH  10  11
ATOM     11  C   UNL     1      -6.424  28.448 -22.525  1.00  0.00     0.000 C 
BRANCH  11  12
ATOM     12  C   UNL     1      -7.401  28.596 -23.704  1.00  0.00     0.006 C 
BRANCH  12  13
ATOM     13  C   UNL     1      -6.765  28.170 -25.036  1.00  0.00     0.053 C 
BRANCH  13  14
ATOM     14  C   UNL     1      -7.790  27.662 -26.003  1.00  0.00     0.041 C 
ATOM     15  O   UNL     1      -8.833  27.098 -25.580  1.00  0.00    -0.550 OA
ATOM     16  O   UNL     1      -7.613  27.846 -27.368  1.00  0.00    -0.550 OA
ENDBRANCH  13  14
ENDBRANCH  12  13
ENDBRANCH  11  12
ENDBRANCH  10  11
ENDBRANCH   9  10
ENDBRANCH   8   9
ENDBRANCH   7   8
ENDBRANCH   6   7
ENDBRANCH   5   6
ENDBRANCH   4   5
ENDBRANCH   3   4
ENDBRANCH   2   3
ENDBRANCH   1   2
BRANCH   1  17
ATOM     17  C   UNL     1      -6.607  29.475 -17.853  1.00  0.00     0.000 C 
BRANCH  17  18
ATOM     18  C   UNL     1      -6.806  30.346 -19.103  1.00  0.00     0.000 C 
BRANCH  18  19
ATOM     19  C   UNL     1      -6.973  31.840 -18.772  1.00  0.00     0.000 C 
BRANCH  19  20
ATOM     20  C   UNL     1      -5.942  32.735 -19.488  1.00  0.00     0.000 C 
BRANCH  20  21
ATOM     21  C   UNL     1      -6.276  34.239 -19.494  1.00  0.00     0.000 C 
BRANCH  21  22
ATOM     22  C   UNL     1      -5.564  35.010 -20.619  1.00  0.00    -0.000 C 
BRANCH  22  23
ATOM     23  C   UNL     1      -4.154  34.467 -20.905  1.00  0.00    -0.000 C 
BRANCH  23  24
ATOM     24  C   UNL     1      -3.971  34.032 -22.370  1.00  0.00    -0.000 C 
BRANCH  24  25
ATOM     25  C   UNL     1      -2.583  34.397 -22.922  1.00  0.00    -0.000 C 
BRANCH  25  26
ATOM     26  C   UNL     1      -1.548  33.281 -22.709  1.00  0.00    -0.000 C 
BRANCH  26  27
ATOM     27  C   UNL     1      -0.570  33.590 -21.561  1.00  0.00    -0.000 C 
BRANCH  27  28
ATOM     28  C   UNL     1      -0.932  32.952 -20.205  1.00  0.00    -0.000 C 
BRANCH  28  29
ATOM     29  C   UNL     1       0.099  31.911 -19.715  1.00  0.00    -0.003 C 
ATOM     30  C   UNL     1       1.436  32.032 -20.445  1.00  0.00     0.004 C 
ENDBRANCH  28  29
ENDBRANCH  27  28
ENDBRANCH  26  27
ENDBRANCH  25  26
ENDBRANCH  24  25
ENDBRANCH  23  24
ENDBRANCH  22  23
ENDBRANCH  21  22
ENDBRANCH  20  21
ENDBRANCH  19  20
ENDBRANCH  18  19
ENDBRANCH  17  18
ENDBRANCH   1  17
TORSDOF 26
ENDMDL
