MODEL 1
REMARK VINA RESULT:    -2.390      0.000      0.000
REMARK INTER + INTRA:          -2.418
REMARK INTER:                  -2.880
REMARK INTRA:                   0.461
REMARK UNBOUND:                 0.461
REMARK SMILES O=c1c(O)c(-c2ccc(O)c(O)c2)oc2cc(O)cc(O)c12
REMARK SMILES IDX 5 1 3 2 2 3 1 4 22 5 20 6 19 7 17 8 16 9 15 10 14 11 6 12
REMARK SMILES IDX 7 13 8 14 9 15 13 16 11 17 10 18 12 20 4 22 21 24 18 26
REMARK H PARENT 10 19 12 21 4 23 21 25 18 27
REMARK Flexibility Score: inf
ROOT
ATOM      1  C   UNL     1      21.114  -1.920  -9.234  1.00  0.00     0.180 A 
ATOM      2  C   UNL     1      22.484  -1.737  -8.978  1.00  0.00     0.208 A 
ATOM      3  C   UNL     1      23.375  -1.667 -10.061  1.00  0.00     0.238 A 
ATOM      4  O   UNL     1      24.589  -1.429  -9.829  1.00  0.00    -0.285 OA
ATOM      5  C   UNL     1      22.894  -1.836 -11.383  1.00  0.00     0.111 A 
ATOM      6  C   UNL     1      23.713  -1.828 -12.553  1.00  0.00     0.134 A 
ATOM      7  C   UNL     1      23.113  -1.898 -13.816  1.00  0.00     0.093 A 
ATOM      8  C   UNL     1      21.733  -2.040 -13.952  1.00  0.00     0.123 A 
ATOM      9  C   UNL     1      20.928  -2.103 -12.814  1.00  0.00     0.094 A 
ATOM     10  C   UNL     1      21.492  -1.998 -11.541  1.00  0.00     0.146 A 
ATOM     11  O   UNL     1      20.688  -2.042 -10.486  1.00  0.00    -0.452 OA
ENDROOT
BRANCH   1  12
ATOM     12  C   UNL     1      20.111  -1.990  -8.147  1.00  0.00     0.025 A 
ATOM     13  C   UNL     1      20.495  -1.969  -6.795  1.00  0.00     0.016 A 
ATOM     14  C   UNL     1      19.529  -2.012  -5.786  1.00  0.00     0.051 A 
ATOM     15  C   UNL     1      18.167  -2.062  -6.111  1.00  0.00     0.157 A 
ATOM     16  C   UNL     1      18.744  -2.018  -8.468  1.00  0.00     0.062 A 
ATOM     17  C   UNL     1      17.774  -2.061  -7.460  1.00  0.00     0.158 A 
BRANCH  15  18
ATOM     18  O   UNL     1      17.206  -2.106  -5.103  1.00  0.00    -0.504 OA
ATOM     19  H   UNL     1      17.030  -2.952  -4.574  1.00  0.00     0.293 HD
ENDBRANCH  15  18
BRANCH  17  20
ATOM     20  O   UNL     1      16.427  -2.102  -7.819  1.00  0.00    -0.504 OA
ATOM     21  H   UNL     1      16.047  -2.841  -8.399  1.00  0.00     0.293 HD
ENDBRANCH  17  20
ENDBRANCH   1  12
BRANCH   2  22
ATOM     22  O   UNL     1      22.949  -1.650  -7.664  1.00  0.00    -0.502 OA
ATOM     23  H   UNL     1      23.438  -0.836  -7.312  1.00  0.00     0.293 HD
ENDBRANCH   2  22
BRANCH   6  24
ATOM     24  O   UNL     1      25.110  -1.778 -12.530  1.00  0.00    -0.507 OA
ATOM     25  H   UNL     1      25.710  -2.525 -12.213  1.00  0.00     0.293 HD
ENDBRANCH   6  24
BRANCH   8  26
ATOM     26  O   UNL     1      21.172  -2.123 -15.224  1.00  0.00    -0.508 OA
ATOM     27  H   UNL     1      20.836  -3.003 -15.598  1.00  0.00     0.293 HD
ENDBRANCH   8  26
TORSDOF 6
ENDMDL
MODEL 2
REMARK VINA RESULT:    -1.301      3.186      5.608
REMARK INTER + INTRA:          -1.106
REMARK INTER:                  -1.649
REMARK INTRA:                   0.543
REMARK UNBOUND:                 0.461
REMARK SMILES O=c1c(O)c(-c2ccc(O)c(O)c2)oc2cc(O)cc(O)c12
REMARK SMILES IDX 5 1 3 2 2 3 1 4 22 5 20 6 19 7 17 8 16 9 15 10 14 11 6 12
REMARK SMILES IDX 7 13 8 14 9 15 13 16 11 17 10 18 12 20 4 22 21 24 18 26
REMARK H PARENT 10 19 12 21 4 23 21 25 18 27
REMARK Flexibility Score: inf
ROOT
ATOM      1  C   UNL     1      17.655  -2.005  -6.545  1.00  0.00     0.180 A 
ATOM      2  C   UNL     1      17.791  -2.008  -7.944  1.00  0.00     0.208 A 
ATOM      3  C   UNL     1      19.078  -1.970  -8.503  1.00  0.00     0.238 A 
ATOM      4  O   UNL     1      19.196  -2.048  -9.754  1.00  0.00    -0.285 OA
ATOM      5  C   UNL     1      20.211  -1.874  -7.658  1.00  0.00     0.111 A 
ATOM      6  C   UNL     1      21.561  -1.784  -8.116  1.00  0.00     0.134 A 
ATOM      7  C   UNL     1      22.608  -1.801  -7.186  1.00  0.00     0.093 A 
ATOM      8  C   UNL     1      22.355  -1.839  -5.817  1.00  0.00     0.123 A 
ATOM      9  C   UNL     1      21.038  -1.872  -5.356  1.00  0.00     0.094 A 
ATOM     10  C   UNL     1      19.973  -1.895  -6.259  1.00  0.00     0.146 A 
ATOM     11  O   UNL     1      18.737  -1.948  -5.778  1.00  0.00    -0.452 OA
ENDROOT
BRANCH   1  12
ATOM     12  C   UNL     1      16.332  -2.058  -5.881  1.00  0.00     0.025 A 
ATOM     13  C   UNL     1      16.214  -2.042  -4.481  1.00  0.00     0.016 A 
ATOM     14  C   UNL     1      14.955  -2.068  -3.877  1.00  0.00     0.051 A 
ATOM     15  C   UNL     1      13.794  -2.096  -4.663  1.00  0.00     0.157 A 
ATOM     16  C   UNL     1      15.166  -2.065  -6.664  1.00  0.00     0.062 A 
ATOM     17  C   UNL     1      13.902  -2.092  -6.064  1.00  0.00     0.158 A 
BRANCH  15  18
ATOM     18  O   UNL     1      12.538  -2.124  -4.058  1.00  0.00    -0.504 OA
ATOM     19  H   UNL     1      11.875  -2.867  -4.248  1.00  0.00     0.293 HD
ENDBRANCH  15  18
BRANCH  17  20
ATOM     20  O   UNL     1      12.768  -2.112  -6.874  1.00  0.00    -0.504 OA
ATOM     21  H   UNL     1      12.119  -1.335  -6.910  1.00  0.00     0.293 HD
ENDBRANCH  17  20
ENDBRANCH   1  12
BRANCH   2  22
ATOM     22  O   UNL     1      16.658  -2.025  -8.761  1.00  0.00    -0.502 OA
ATOM     23  H   UNL     1      16.411  -2.824  -9.333  1.00  0.00     0.293 HD
ENDBRANCH   2  22
BRANCH   6  24
ATOM     24  O   UNL     1      21.925  -1.653  -9.460  1.00  0.00    -0.507 OA
ATOM     25  H   UNL     1      21.532  -0.982 -10.102  1.00  0.00     0.293 HD
ENDBRANCH   6  24
BRANCH   8  26
ATOM     26  O   UNL     1      23.422  -1.837  -4.920  1.00  0.00    -0.508 OA
ATOM     27  H   UNL     1      24.371  -2.020  -5.225  1.00  0.00     0.293 HD
ENDBRANCH   8  26
TORSDOF 6
ENDMDL
MODEL 3
REMARK VINA RESULT:    -0.591      2.927      4.462
REMARK INTER + INTRA:          -0.250
REMARK INTER:                   0.035
REMARK INTRA:                  -0.285
REMARK UNBOUND:                 0.461
REMARK SMILES O=c1c(O)c(-c2ccc(O)c(O)c2)oc2cc(O)cc(O)c12
REMARK SMILES IDX 5 1 3 2 2 3 1 4 22 5 20 6 19 7 17 8 16 9 15 10 14 11 6 12
REMARK SMILES IDX 7 13 8 14 9 15 13 16 11 17 10 18 12 20 4 22 21 24 18 26
REMARK H PARENT 10 19 12 21 4 23 21 25 18 27
REMARK Flexibility Score: inf
ROOT
ATOM      1  C   UNL     1      19.996  -1.080  -6.309  1.00  0.00     0.180 A 
ATOM      2  C   UNL     1      20.757  -0.958  -5.134  1.00  0.00     0.208 A 
ATOM      3  C   UNL     1      22.157  -1.012  -5.221  1.00  0.00     0.238 A 
ATOM      4  O   UNL     1      22.835  -0.828  -4.177  1.00  0.00    -0.285 OA
ATOM      5  C   UNL     1      22.778  -1.244  -6.473  1.00  0.00     0.111 A 
ATOM      6  C   UNL     1      24.186  -1.363  -6.674  1.00  0.00     0.134 A 
ATOM      7  C   UNL     1      24.692  -1.485  -7.974  1.00  0.00     0.093 A 
ATOM      8  C   UNL     1      23.840  -1.558  -9.074  1.00  0.00     0.123 A 
ATOM      9  C   UNL     1      22.459  -1.497  -8.886  1.00  0.00     0.094 A 
ATOM     10  C   UNL     1      21.925  -1.337  -7.605  1.00  0.00     0.146 A 
ATOM     11  O   UNL     1      20.607  -1.263  -7.473  1.00  0.00    -0.452 OA
ENDROOT
BRANCH   1  12
ATOM     12  C   UNL     1      18.516  -1.018  -6.300  1.00  0.00     0.025 A 
ATOM     13  C   UNL     1      17.740  -2.119  -5.898  1.00  0.00     0.016 A 
ATOM     14  C   UNL     1      16.346  -2.029  -5.874  1.00  0.00     0.051 A 
ATOM     15  C   UNL     1      15.707  -0.836  -6.239  1.00  0.00     0.157 A 
ATOM     16  C   UNL     1      17.873   0.182  -6.643  1.00  0.00     0.062 A 
ATOM     17  C   UNL     1      16.476   0.276  -6.622  1.00  0.00     0.158 A 
BRANCH  15  18
ATOM     18  O   UNL     1      14.316  -0.749  -6.216  1.00  0.00    -0.504 OA
ATOM     19  H   UNL     1      13.732  -1.531  -6.490  1.00  0.00     0.293 HD
ENDBRANCH  15  18
BRANCH  17  20
ATOM     20  O   UNL     1      15.873   1.480  -6.983  1.00  0.00    -0.504 OA
ATOM     21  H   UNL     1      15.363   1.587  -7.851  1.00  0.00     0.293 HD
ENDBRANCH  17  20
ENDBRANCH   1  12
BRANCH   2  22
ATOM     22  O   UNL     1      20.124  -0.807  -3.898  1.00  0.00    -0.502 OA
ATOM     23  H   UNL     1      20.193  -1.500  -3.163  1.00  0.00     0.293 HD
ENDBRANCH   2  22
BRANCH   6  24
ATOM     24  O   UNL     1      25.125  -1.391  -5.637  1.00  0.00    -0.507 OA
ATOM     25  H   UNL     1      26.003  -1.885  -5.665  1.00  0.00     0.293 HD
ENDBRANCH   6  24
BRANCH   8  26
ATOM     26  O   UNL     1      24.378  -1.696 -10.352  1.00  0.00    -0.508 OA
ATOM     27  H   UNL     1      23.959  -1.241 -11.155  1.00  0.00     0.293 HD
ENDBRANCH   8  26
TORSDOF 6
ENDMDL
MODEL 4
REMARK VINA RESULT:    -0.002      2.066      3.546
REMARK INTER + INTRA:           0.459
REMARK INTER:                   0.016
REMARK INTRA:                   0.443
REMARK UNBOUND:                 0.461
REMARK SMILES O=c1c(O)c(-c2ccc(O)c(O)c2)oc2cc(O)cc(O)c12
REMARK SMILES IDX 5 1 3 2 2 3 1 4 22 5 20 6 19 7 17 8 16 9 15 10 14 11 6 12
REMARK SMILES IDX 7 13 8 14 9 15 13 16 11 17 10 18 12 20 4 22 21 24 18 26
REMARK H PARENT 10 19 12 21 4 23 21 25 18 27
REMARK Flexibility Score: inf
ROOT
ATOM      1  C   UNL     1      18.931  -1.857  -6.597  1.00  0.00     0.180 A 
ATOM      2  C   UNL     1      20.133  -1.651  -5.899  1.00  0.00     0.208 A 
ATOM      3  C   UNL     1      21.333  -1.560  -6.622  1.00  0.00     0.238 A 
ATOM      4  O   UNL     1      22.396  -1.301  -5.999  1.00  0.00    -0.285 OA
ATOM      5  C   UNL     1      21.325  -1.733  -8.028  1.00  0.00     0.111 A 
ATOM      6  C   UNL     1      22.486  -1.706  -8.858  1.00  0.00     0.134 A 
ATOM      7  C   UNL     1      22.343  -1.782 -10.249  1.00  0.00     0.093 A 
ATOM      8  C   UNL     1      21.091  -1.949 -10.837  1.00  0.00     0.123 A 
ATOM      9  C   UNL     1      19.954  -2.031 -10.033  1.00  0.00     0.094 A 
ATOM     10  C   UNL     1      20.059  -1.920  -8.645  1.00  0.00     0.146 A 
ATOM     11  O   UNL     1      18.950  -1.982  -7.918  1.00  0.00    -0.452 OA
ENDROOT
BRANCH   1  12
ATOM     12  C   UNL     1      17.624  -1.949  -5.906  1.00  0.00     0.025 A 
ATOM     13  C   UNL     1      17.542  -2.056  -4.507  1.00  0.00     0.016 A 
ATOM     14  C   UNL     1      16.297  -2.117  -3.876  1.00  0.00     0.051 A 
ATOM     15  C   UNL     1      15.117  -2.059  -4.630  1.00  0.00     0.157 A 
ATOM     16  C   UNL     1      16.440  -1.869  -6.656  1.00  0.00     0.062 A 
ATOM     17  C   UNL     1      15.190  -1.931  -6.027  1.00  0.00     0.158 A 
BRANCH  15  18
ATOM     18  O   UNL     1      13.876  -2.121  -3.998  1.00  0.00    -0.504 OA
ATOM     19  H   UNL     1      13.572  -1.400  -3.354  1.00  0.00     0.293 HD
ENDBRANCH  15  18
BRANCH  17  20
ATOM     20  O   UNL     1      14.037  -1.862  -6.806  1.00  0.00    -0.504 OA
ATOM     21  H   UNL     1      13.694  -0.987  -7.184  1.00  0.00     0.293 HD
ENDBRANCH  17  20
ENDBRANCH   1  12
BRANCH   2  22
ATOM     22  O   UNL     1      20.131  -1.559  -4.505  1.00  0.00    -0.502 OA
ATOM     23  H   UNL     1      20.695  -2.163  -3.919  1.00  0.00     0.293 HD
ENDBRANCH   2  22
BRANCH   6  24
ATOM     24  O   UNL     1      23.795  -1.631  -8.371  1.00  0.00    -0.507 OA
ATOM     25  H   UNL     1      24.568  -2.187  -8.703  1.00  0.00     0.293 HD
ENDBRANCH   6  24
BRANCH   8  26
ATOM     26  O   UNL     1      20.989  -2.038 -12.224  1.00  0.00    -0.508 OA
ATOM     27  H   UNL     1      20.284  -2.616 -12.667  1.00  0.00     0.293 HD
ENDBRANCH   8  26
TORSDOF 6
ENDMDL
