MODEL 1
REMARK VINA RESULT:    -4.374      0.000      0.000
REMARK INTER + INTRA:          -8.083
REMARK INTER:                  -6.931
REMARK INTRA:                  -1.152
REMARK UNBOUND:                -1.152
REMARK SMILES CCCCCCCCCCCC(=O)[O-]
REMARK SMILES IDX 7 1 8 2 9 3 10 4 11 5 12 6 13 7 14 8 6 9 5 10 4 11 3 12 2 13
REMARK SMILES IDX 1 14
REMARK H PARENT
REMARK Flexibility Score: inf
ROOT
ATOM      1  C   UNL     1      13.439  14.234 -21.039  1.00  0.00     0.000 C 
ENDROOT
BRANCH   1   2
ATOM      2  C   UNL     1      13.960  15.050 -19.843  1.00  0.00     0.000 C 
BRANCH   2   3
ATOM      3  C   UNL     1      14.999  14.267 -19.013  1.00  0.00     0.000 C 
BRANCH   3   4
ATOM      4  C   UNL     1      16.395  14.913 -19.007  1.00  0.00     0.006 C 
BRANCH   4   5
ATOM      5  C   UNL     1      16.980  15.055 -17.597  1.00  0.00     0.053 C 
BRANCH   5   6
ATOM      6  C   UNL     1      17.172  13.709 -16.973  1.00  0.00     0.041 C 
ATOM      7  O   UNL     1      17.964  12.878 -17.489  1.00  0.00    -0.550 OA
ATOM      8  O   UNL     1      16.514  13.391 -15.792  1.00  0.00    -0.550 OA
ENDBRANCH   5   6
ENDBRANCH   4   5
ENDBRANCH   3   4
ENDBRANCH   2   3
ENDBRANCH   1   2
BRANCH   1   9
ATOM      9  C   UNL     1      14.250  12.953 -21.287  1.00  0.00     0.000 C 
BRANCH   9  10
ATOM     10  C   UNL     1      13.355  11.728 -21.548  1.00  0.00    -0.000 C 
BRANCH  10  11
ATOM     11  C   UNL     1      12.647  11.233 -20.278  1.00  0.00    -0.000 C 
BRANCH  11  12
ATOM     12  C   UNL     1      11.127  11.453 -20.318  1.00  0.00    -0.000 C 
BRANCH  12  13
ATOM     13  C   UNL     1      10.677  12.373 -19.179  1.00  0.00    -0.003 C 
ATOM     14  C   UNL     1      11.737  12.456 -18.085  1.00  0.00     0.004 C 
ENDBRANCH  12  13
ENDBRANCH  11  12
ENDBRANCH  10  11
ENDBRANCH   9  10
ENDBRANCH   1   9
TORSDOF 10
ENDMDL
MODEL 2
REMARK VINA RESULT:    -4.282      1.230      1.996
REMARK INTER + INTRA:          -7.937
REMARK INTER:                  -6.605
REMARK INTRA:                  -1.332
REMARK UNBOUND:                -1.152
REMARK SMILES CCCCCCCCCCCC(=O)[O-]
REMARK SMILES IDX 7 1 8 2 9 3 10 4 11 5 12 6 13 7 14 8 6 9 5 10 4 11 3 12 2 13
REMARK SMILES IDX 1 14
REMARK H PARENT
REMARK Flexibility Score: inf
ROOT
ATOM      1  C   UNL     1      14.232  12.812 -21.766  1.00  0.00     0.000 C 
ENDROOT
BRANCH   1   2
ATOM      2  C   UNL     1      13.386  14.093 -21.866  1.00  0.00     0.000 C 
BRANCH   2   3
ATOM      3  C   UNL     1      13.448  14.935 -20.574  1.00  0.00     0.000 C 
BRANCH   3   4
ATOM      4  C   UNL     1      14.298  14.295 -19.463  1.00  0.00     0.006 C 
BRANCH   4   5
ATOM      5  C   UNL     1      15.388  15.233 -18.932  1.00  0.00     0.053 C 
BRANCH   5   6
ATOM      6  C   UNL     1      16.680  14.495 -18.772  1.00  0.00     0.041 C 
ATOM      7  O   UNL     1      17.026  13.632 -19.619  1.00  0.00    -0.550 OA
ATOM      8  O   UNL     1      17.525  14.798 -17.712  1.00  0.00    -0.550 OA
ENDBRANCH   5   6
ENDBRANCH   4   5
ENDBRANCH   3   4
ENDBRANCH   2   3
ENDBRANCH   1   2
BRANCH   1   9
ATOM      9  C   UNL     1      13.389  11.531 -21.858  1.00  0.00     0.000 C 
BRANCH   9  10
ATOM     10  C   UNL     1      12.860  11.071 -20.487  1.00  0.00    -0.000 C 
BRANCH  10  11
ATOM     11  C   UNL     1      11.394  11.468 -20.257  1.00  0.00    -0.000 C 
BRANCH  11  12
ATOM     12  C   UNL     1      11.175  12.191 -18.920  1.00  0.00    -0.000 C 
BRANCH  12  13
ATOM     13  C   UNL     1      10.210  13.370 -19.087  1.00  0.00    -0.003 C 
ATOM     14  C   UNL     1      10.553  14.504 -18.124  1.00  0.00     0.004 C 
ENDBRANCH  12  13
ENDBRANCH  11  12
ENDBRANCH  10  11
ENDBRANCH   9  10
ENDBRANCH   1   9
TORSDOF 10
ENDMDL
MODEL 3
REMARK VINA RESULT:    -4.261      0.927      2.364
REMARK INTER + INTRA:          -7.904
REMARK INTER:                  -6.937
REMARK INTRA:                  -0.967
REMARK UNBOUND:                -1.152
REMARK SMILES CCCCCCCCCCCC(=O)[O-]
REMARK SMILES IDX 7 1 8 2 9 3 10 4 11 5 12 6 13 7 14 8 6 9 5 10 4 11 3 12 2 13
REMARK SMILES IDX 1 14
REMARK H PARENT
REMARK Flexibility Score: inf
ROOT
ATOM      1  C   UNL     1      12.787  14.168 -19.582  1.00  0.00     0.000 C 
ENDROOT
BRANCH   1   2
ATOM      2  C   UNL     1      13.842  14.416 -18.490  1.00  0.00     0.000 C 
BRANCH   2   3
ATOM      3  C   UNL     1      14.913  15.434 -18.937  1.00  0.00     0.000 C 
BRANCH   3   4
ATOM      4  C   UNL     1      16.323  14.832 -19.056  1.00  0.00     0.006 C 
BRANCH   4   5
ATOM      5  C   UNL     1      17.160  15.017 -17.786  1.00  0.00     0.053 C 
BRANCH   5   6
ATOM      6  C   UNL     1      17.235  13.736 -17.018  1.00  0.00     0.041 C 
ATOM      7  O   UNL     1      18.020  12.822 -17.384  1.00  0.00    -0.550 OA
ATOM      8  O   UNL     1      16.475  13.570 -15.867  1.00  0.00    -0.550 OA
ENDBRANCH   5   6
ENDBRANCH   4   5
ENDBRANCH   3   4
ENDBRANCH   2   3
ENDBRANCH   1   2
BRANCH   1   9
ATOM      9  C   UNL     1      11.642  13.258 -19.109  1.00  0.00     0.000 C 
BRANCH   9  10
ATOM     10  C   UNL     1      11.585  11.929 -19.884  1.00  0.00    -0.000 C 
BRANCH  10  11
ATOM     11  C   UNL     1      12.969  11.469 -20.369  1.00  0.00    -0.000 C 
BRANCH  11  12
ATOM     12  C   UNL     1      13.050  11.339 -21.898  1.00  0.00    -0.000 C 
BRANCH  12  13
ATOM     13  C   UNL     1      14.101  12.295 -22.474  1.00  0.00    -0.003 C 
ATOM     14  C   UNL     1      15.348  12.336 -21.596  1.00  0.00     0.004 C 
ENDBRANCH  12  13
ENDBRANCH  11  12
ENDBRANCH  10  11
ENDBRANCH   9  10
ENDBRANCH   1   9
TORSDOF 10
ENDMDL
MODEL 4
REMARK VINA RESULT:    -4.213      3.025      5.825
REMARK INTER + INTRA:          -7.828
REMARK INTER:                  -6.480
REMARK INTRA:                  -1.348
REMARK UNBOUND:                -1.152
REMARK SMILES CCCCCCCCCCCC(=O)[O-]
REMARK SMILES IDX 7 1 8 2 9 3 10 4 11 5 12 6 13 7 14 8 6 9 5 10 4 11 3 12 2 13
REMARK SMILES IDX 1 14
REMARK H PARENT
REMARK Flexibility Score: inf
ROOT
ATOM      1  C   UNL     1      13.442  15.912 -16.197  1.00  0.00     0.000 C 
ENDROOT
BRANCH   1   2
ATOM      2  C   UNL     1      12.898  15.491 -17.574  1.00  0.00     0.000 C 
BRANCH   2   3
ATOM      3  C   UNL     1      13.300  14.047 -17.942  1.00  0.00     0.000 C 
BRANCH   3   4
ATOM      4  C   UNL     1      14.014  13.933 -19.298  1.00  0.00     0.006 C 
BRANCH   4   5
ATOM      5  C   UNL     1      13.077  13.503 -20.432  1.00  0.00     0.053 C 
BRANCH   5   6
ATOM      6  C   UNL     1      13.094  12.016 -20.589  1.00  0.00     0.041 C 
ATOM      7  O   UNL     1      12.159  11.318 -20.116  1.00  0.00    -0.550 OA
ATOM      8  O   UNL     1      14.117  11.403 -21.300  1.00  0.00    -0.550 OA
ENDBRANCH   5   6
ENDBRANCH   4   5
ENDBRANCH   3   4
ENDBRANCH   2   3
ENDBRANCH   1   2
BRANCH   1   9
ATOM      9  C   UNL     1      14.096  17.302 -16.213  1.00  0.00     0.000 C 
BRANCH   9  10
ATOM     10  C   UNL     1      15.419  17.324 -16.999  1.00  0.00    -0.000 C 
BRANCH  10  11
ATOM     11  C   UNL     1      16.413  16.257 -16.513  1.00  0.00    -0.000 C 
BRANCH  11  12
ATOM     12  C   UNL     1      16.990  15.414 -17.660  1.00  0.00    -0.000 C 
BRANCH  12  13
ATOM     13  C   UNL     1      17.299  13.988 -17.190  1.00  0.00    -0.003 C 
ATOM     14  C   UNL     1      16.455  13.614 -15.975  1.00  0.00     0.004 C 
ENDBRANCH  12  13
ENDBRANCH  11  12
ENDBRANCH  10  11
ENDBRANCH   9  10
ENDBRANCH   1   9
TORSDOF 10
ENDMDL
MODEL 5
REMARK VINA RESULT:    -4.160      2.634      4.371
REMARK INTER + INTRA:          -7.744
REMARK INTER:                  -6.155
REMARK INTRA:                  -1.589
REMARK UNBOUND:                -1.152
REMARK SMILES CCCCCCCCCCCC(=O)[O-]
REMARK SMILES IDX 7 1 8 2 9 3 10 4 11 5 12 6 13 7 14 8 6 9 5 10 4 11 3 12 2 13
REMARK SMILES IDX 1 14
REMARK H PARENT
REMARK Flexibility Score: inf
ROOT
ATOM      1  C   UNL     1      14.299  17.967 -17.138  1.00  0.00     0.000 C 
ENDROOT
BRANCH   1   2
ATOM      2  C   UNL     1      15.818  17.729 -17.211  1.00  0.00     0.000 C 
BRANCH   2   3
ATOM      3  C   UNL     1      16.302  16.725 -16.144  1.00  0.00     0.000 C 
BRANCH   3   4
ATOM      4  C   UNL     1      16.387  15.277 -16.654  1.00  0.00     0.006 C 
BRANCH   4   5
ATOM      5  C   UNL     1      17.008  15.173 -18.052  1.00  0.00     0.053 C 
BRANCH   5   6
ATOM      6  C   UNL     1      17.342  13.750 -18.371  1.00  0.00     0.041 C 
ATOM      7  O   UNL     1      17.148  13.298 -19.530  1.00  0.00    -0.550 OA
ATOM      8  O   UNL     1      17.914  12.937 -17.401  1.00  0.00    -0.550 OA
ENDBRANCH   5   6
ENDBRANCH   4   5
ENDBRANCH   3   4
ENDBRANCH   2   3
ENDBRANCH   1   2
BRANCH   1   9
ATOM      9  C   UNL     1      13.693  17.546 -15.791  1.00  0.00     0.000 C 
BRANCH   9  10
ATOM     10  C   UNL     1      12.449  16.654 -15.954  1.00  0.00    -0.000 C 
BRANCH  10  11
ATOM     11  C   UNL     1      12.373  15.996 -17.341  1.00  0.00    -0.000 C 
BRANCH  11  12
ATOM     12  C   UNL     1      12.857  14.538 -17.336  1.00  0.00    -0.000 C 
BRANCH  12  13
ATOM     13  C   UNL     1      13.490  14.167 -18.682  1.00  0.00    -0.003 C 
ATOM     14  C   UNL     1      13.582  15.381 -19.601  1.00  0.00     0.004 C 
ENDBRANCH  12  13
ENDBRANCH  11  12
ENDBRANCH  10  11
ENDBRANCH   9  10
ENDBRANCH   1   9
TORSDOF 10
ENDMDL
MODEL 6
REMARK VINA RESULT:    -4.097      2.492      5.350
REMARK INTER + INTRA:          -7.644
REMARK INTER:                  -6.908
REMARK INTRA:                  -0.736
REMARK UNBOUND:                -1.152
REMARK SMILES CCCCCCCCCCCC(=O)[O-]
REMARK SMILES IDX 7 1 8 2 9 3 10 4 11 5 12 6 13 7 14 8 6 9 5 10 4 11 3 12 2 13
REMARK SMILES IDX 1 14
REMARK H PARENT
REMARK Flexibility Score: inf
ROOT
ATOM      1  C   UNL     1      15.612  13.263 -20.232  1.00  0.00     0.000 C 
ENDROOT
BRANCH   1   2
ATOM      2  C   UNL     1      15.460  12.491 -21.555  1.00  0.00     0.000 C 
BRANCH   2   3
ATOM      3  C   UNL     1      13.988  12.139 -21.858  1.00  0.00     0.000 C 
BRANCH   3   4
ATOM      4  C   UNL     1      13.412  11.054 -20.933  1.00  0.00     0.006 C 
BRANCH   4   5
ATOM      5  C   UNL     1      11.999  11.383 -20.436  1.00  0.00     0.053 C 
BRANCH   5   6
ATOM      6  C   UNL     1      12.050  12.435 -19.374  1.00  0.00     0.041 C 
ATOM      7  O   UNL     1      11.895  13.648 -19.676  1.00  0.00    -0.550 OA
ATOM      8  O   UNL     1      12.219  12.073 -18.044  1.00  0.00    -0.550 OA
ENDBRANCH   5   6
ENDBRANCH   4   5
ENDBRANCH   3   4
ENDBRANCH   2   3
ENDBRANCH   1   2
BRANCH   1   9
ATOM      9  C   UNL     1      17.077  13.423 -19.799  1.00  0.00     0.000 C 
BRANCH   9  10
ATOM     10  C   UNL     1      17.348  14.777 -19.119  1.00  0.00    -0.000 C 
BRANCH  10  11
ATOM     11  C   UNL     1      17.153  14.722 -17.596  1.00  0.00    -0.000 C 
BRANCH  11  12
ATOM     12  C   UNL     1      16.473  15.981 -17.037  1.00  0.00    -0.000 C 
BRANCH  12  13
ATOM     13  C   UNL     1      15.094  15.646 -16.457  1.00  0.00    -0.003 C 
ATOM     14  C   UNL     1      14.861  14.138 -16.426  1.00  0.00     0.004 C 
ENDBRANCH  12  13
ENDBRANCH  11  12
ENDBRANCH  10  11
ENDBRANCH   9  10
ENDBRANCH   1   9
TORSDOF 10
ENDMDL
MODEL 7
REMARK VINA RESULT:    -4.091      2.980      5.652
REMARK INTER + INTRA:          -7.634
REMARK INTER:                  -6.542
REMARK INTRA:                  -1.092
REMARK UNBOUND:                -1.152
REMARK SMILES CCCCCCCCCCCC(=O)[O-]
REMARK SMILES IDX 7 1 8 2 9 3 10 4 11 5 12 6 13 7 14 8 6 9 5 10 4 11 3 12 2 13
REMARK SMILES IDX 1 14
REMARK H PARENT
REMARK Flexibility Score: inf
ROOT
ATOM      1  C   UNL     1      17.328  13.499 -17.260  1.00  0.00     0.000 C 
ENDROOT
BRANCH   1   2
ATOM      2  C   UNL     1      17.172  14.269 -18.583  1.00  0.00     0.000 C 
BRANCH   2   3
ATOM      3  C   UNL     1      16.793  13.341 -19.756  1.00  0.00     0.000 C 
BRANCH   3   4
ATOM      4  C   UNL     1      15.338  13.506 -20.225  1.00  0.00     0.006 C 
BRANCH   4   5
ATOM      5  C   UNL     1      14.954  12.521 -21.336  1.00  0.00     0.053 C 
BRANCH   5   6
ATOM      6  C   UNL     1      13.567  12.004 -21.120  1.00  0.00     0.041 C 
ATOM      7  O   UNL     1      13.058  11.195 -21.940  1.00  0.00    -0.550 OA
ATOM      8  O   UNL     1      12.856  12.375 -19.987  1.00  0.00    -0.550 OA
ENDBRANCH   5   6
ENDBRANCH   4   5
ENDBRANCH   3   4
ENDBRANCH   2   3
ENDBRANCH   1   2
BRANCH   1   9
ATOM      9  C   UNL     1      16.432  14.049 -16.140  1.00  0.00     0.000 C 
BRANCH   9  10
ATOM     10  C   UNL     1      14.962  14.192 -16.573  1.00  0.00    -0.000 C 
BRANCH  10  11
ATOM     11  C   UNL     1      14.463  15.643 -16.499  1.00  0.00    -0.000 C 
BRANCH  11  12
ATOM     12  C   UNL     1      15.587  16.645 -16.194  1.00  0.00    -0.000 C 
BRANCH  12  13
ATOM     13  C   UNL     1      15.601  17.783 -17.220  1.00  0.00    -0.003 C 
ATOM     14  C   UNL     1      15.118  17.300 -18.585  1.00  0.00     0.004 C 
ENDBRANCH  12  13
ENDBRANCH  11  12
ENDBRANCH  10  11
ENDBRANCH   9  10
ENDBRANCH   1   9
TORSDOF 10
ENDMDL
MODEL 8
REMARK VINA RESULT:    -4.059      3.954      6.250
REMARK INTER + INTRA:          -7.584
REMARK INTER:                  -6.467
REMARK INTRA:                  -1.117
REMARK UNBOUND:                -1.152
REMARK SMILES CCCCCCCCCCCC(=O)[O-]
REMARK SMILES IDX 7 1 8 2 9 3 10 4 11 5 12 6 13 7 14 8 6 9 5 10 4 11 3 12 2 13
REMARK SMILES IDX 1 14
REMARK H PARENT
REMARK Flexibility Score: inf
ROOT
ATOM      1  C   UNL     1      14.378  18.125 -17.057  1.00  0.00     0.000 C 
ENDROOT
BRANCH   1   2
ATOM      2  C   UNL     1      13.677  17.777 -15.732  1.00  0.00     0.000 C 
BRANCH   2   3
ATOM      3  C   UNL     1      12.444  16.873 -15.945  1.00  0.00     0.000 C 
BRANCH   3   4
ATOM      4  C   UNL     1      12.241  16.445 -17.408  1.00  0.00     0.006 C 
BRANCH   4   5
ATOM      5  C   UNL     1      12.156  14.923 -17.578  1.00  0.00     0.053 C 
BRANCH   5   6
ATOM      6  C   UNL     1      10.730  14.489 -17.696  1.00  0.00     0.041 C 
ATOM      7  O   UNL     1      10.425  13.274 -17.575  1.00  0.00    -0.550 OA
ATOM      8  O   UNL     1       9.730  15.434 -17.890  1.00  0.00    -0.550 OA
ENDBRANCH   5   6
ENDBRANCH   4   5
ENDBRANCH   3   4
ENDBRANCH   2   3
ENDBRANCH   1   2
BRANCH   1   9
ATOM      9  C   UNL     1      15.828  17.622 -17.115  1.00  0.00     0.000 C 
BRANCH   9  10
ATOM     10  C   UNL     1      16.128  16.558 -16.044  1.00  0.00    -0.000 C 
BRANCH  10  11
ATOM     11  C   UNL     1      15.847  15.130 -16.536  1.00  0.00    -0.000 C 
BRANCH  11  12
ATOM     12  C   UNL     1      16.097  14.959 -18.043  1.00  0.00    -0.000 C 
BRANCH  12  13
ATOM     13  C   UNL     1      17.160  13.885 -18.303  1.00  0.00    -0.003 C 
ATOM     14  C   UNL     1      17.768  13.384 -16.996  1.00  0.00     0.004 C 
ENDBRANCH  12  13
ENDBRANCH  11  12
ENDBRANCH  10  11
ENDBRANCH   9  10
ENDBRANCH   1   9
TORSDOF 10
ENDMDL
MODEL 9
REMARK VINA RESULT:    -4.023      1.611      3.241
REMARK INTER + INTRA:          -7.527
REMARK INTER:                  -6.109
REMARK INTRA:                  -1.417
REMARK UNBOUND:                -1.152
REMARK SMILES CCCCCCCCCCCC(=O)[O-]
REMARK SMILES IDX 7 1 8 2 9 3 10 4 11 5 12 6 13 7 14 8 6 9 5 10 4 11 3 12 2 13
REMARK SMILES IDX 1 14
REMARK H PARENT
REMARK Flexibility Score: inf
ROOT
ATOM      1  C   UNL     1      10.595  14.389 -19.562  1.00  0.00     0.000 C 
ENDROOT
BRANCH   1   2
ATOM      2  C   UNL     1      11.551  15.593 -19.497  1.00  0.00     0.000 C 
BRANCH   2   3
ATOM      3  C   UNL     1      12.991  15.216 -19.904  1.00  0.00     0.000 C 
BRANCH   3   4
ATOM      4  C   UNL     1      13.965  15.134 -18.717  1.00  0.00     0.006 C 
BRANCH   4   5
ATOM      5  C   UNL     1      14.977  13.991 -18.853  1.00  0.00     0.053 C 
BRANCH   5   6
ATOM      6  C   UNL     1      16.343  14.533 -19.131  1.00  0.00     0.041 C 
ATOM      7  O   UNL     1      16.692  15.647 -18.660  1.00  0.00    -0.550 OA
ATOM      8  O   UNL     1      17.250  13.785 -19.871  1.00  0.00    -0.550 OA
ENDBRANCH   5   6
ENDBRANCH   4   5
ENDBRANCH   3   4
ENDBRANCH   2   3
ENDBRANCH   1   2
BRANCH   1   9
ATOM      9  C   UNL     1      10.565  13.579 -18.258  1.00  0.00     0.000 C 
BRANCH   9  10
ATOM     10  C   UNL     1      11.273  12.218 -18.390  1.00  0.00    -0.000 C 
BRANCH  10  11
ATOM     11  C   UNL     1      11.375  11.745 -19.849  1.00  0.00    -0.000 C 
BRANCH  11  12
ATOM     12  C   UNL     1      12.796  11.306 -20.234  1.00  0.00    -0.000 C 
BRANCH  12  13
ATOM     13  C   UNL     1      13.005  11.399 -21.750  1.00  0.00    -0.003 C 
ATOM     14  C   UNL     1      14.261  12.198 -22.085  1.00  0.00     0.004 C 
ENDBRANCH  12  13
ENDBRANCH  11  12
ENDBRANCH  10  11
ENDBRANCH   9  10
ENDBRANCH   1   9
TORSDOF 10
ENDMDL
