MODEL 1
REMARK VINA RESULT:    -4.105      0.000      0.000
REMARK INTER + INTRA:         -15.654
REMARK INTER:                 -10.823
REMARK INTRA:                  -4.830
REMARK UNBOUND:                -4.830
REMARK SMILES CCCCCCCCCCCCCCCCCCCCCCCCCCCCCC(=O)[O-]
REMARK SMILES IDX 16 1 17 2 18 3 19 4 20 5 21 6 22 7 23 8 24 9 25 10 26 11
REMARK SMILES IDX 27 12 28 13 29 14 30 15 31 16 32 17 15 18 14 19 13 20 12 21
REMARK SMILES IDX 11 22 10 23 9 24 8 25 7 26 6 27 5 28 4 29 3 30 2 31 1 32
REMARK H PARENT
REMARK Flexibility Score: inf
ROOT
ATOM      1  C   UNL     1      19.144  41.267  24.339  1.00  0.00     0.000 C 
ENDROOT
BRANCH   1   2
ATOM      2  C   UNL     1      20.007  42.507  24.614  1.00  0.00     0.000 C 
BRANCH   2   3
ATOM      3  C   UNL     1      21.499  42.188  24.468  1.00  0.00     0.000 C 
BRANCH   3   4
ATOM      4  C   UNL     1      22.202  43.243  23.604  1.00  0.00     0.000 C 
BRANCH   4   5
ATOM      5  C   UNL     1      21.893  43.038  22.117  1.00  0.00     0.000 C 
BRANCH   5   6
ATOM      6  C   UNL     1      20.912  44.103  21.609  1.00  0.00     0.000 C 
BRANCH   6   7
ATOM      7  C   UNL     1      19.681  43.455  20.960  1.00  0.00     0.000 C 
BRANCH   7   8
ATOM      8  C   UNL     1      19.947  42.024  20.458  1.00  0.00     0.000 C 
BRANCH   8   9
ATOM      9  C   UNL     1      18.716  41.099  20.447  1.00  0.00     0.000 C 
BRANCH   9  10
ATOM     10  C   UNL     1      17.494  41.718  21.140  1.00  0.00     0.000 C 
BRANCH  10  11
ATOM     11  C   UNL     1      16.227  41.512  20.297  1.00  0.00     0.000 C 
BRANCH  11  12
ATOM     12  C   UNL     1      15.585  42.834  19.845  1.00  0.00     0.000 C 
BRANCH  12  13
ATOM     13  C   UNL     1      16.523  43.793  19.087  1.00  0.00     0.006 C 
BRANCH  13  14
ATOM     14  C   UNL     1      16.569  45.218  19.671  1.00  0.00     0.053 C 
BRANCH  14  15
ATOM     15  C   UNL     1      15.300  45.977  19.427  1.00  0.00     0.041 C 
ATOM     16  O   UNL     1      14.998  46.352  18.264  1.00  0.00    -0.550 OA
ATOM     17  O   UNL     1      14.431  46.238  20.478  1.00  0.00    -0.550 OA
ENDBRANCH  14  15
ENDBRANCH  13  14
ENDBRANCH  12  13
ENDBRANCH  11  12
ENDBRANCH  10  11
ENDBRANCH   9  10
ENDBRANCH   8   9
ENDBRANCH   7   8
ENDBRANCH   6   7
ENDBRANCH   5   6
ENDBRANCH   4   5
ENDBRANCH   3   4
ENDBRANCH   2   3
ENDBRANCH   1   2
BRANCH   1  18
ATOM     18  C   UNL     1      19.972  40.060  23.848  1.00  0.00     0.000 C 
BRANCH  18  19
ATOM     19  C   UNL     1      19.123  38.879  23.338  1.00  0.00     0.000 C 
BRANCH  19  20
ATOM     20  C   UNL     1      18.266  38.170  24.404  1.00  0.00     0.000 C 
BRANCH  20  21
ATOM     21  C   UNL     1      16.758  38.484  24.350  1.00  0.00     0.000 C 
BRANCH  21  22
ATOM     22  C   UNL     1      16.262  39.259  25.583  1.00  0.00     0.000 C 
BRANCH  22  23
ATOM     23  C   UNL     1      17.246  39.179  26.761  1.00  0.00     0.000 C 
BRANCH  23  24
ATOM     24  C   UNL     1      16.884  38.069  27.765  1.00  0.00    -0.000 C 
BRANCH  24  25
ATOM     25  C   UNL     1      16.701  38.603  29.194  1.00  0.00    -0.000 C 
BRANCH  25  26
ATOM     26  C   UNL     1      16.608  40.136  29.244  1.00  0.00    -0.000 C 
BRANCH  26  27
ATOM     27  C   UNL     1      15.241  40.587  29.771  1.00  0.00    -0.000 C 
BRANCH  27  28
ATOM     28  C   UNL     1      14.639  41.680  28.873  1.00  0.00    -0.000 C 
BRANCH  28  29
ATOM     29  C   UNL     1      13.746  41.108  27.761  1.00  0.00    -0.000 C 
BRANCH  29  30
ATOM     30  C   UNL     1      13.133  39.751  28.130  1.00  0.00    -0.000 C 
BRANCH  30  31
ATOM     31  C   UNL     1      13.212  38.774  26.951  1.00  0.00    -0.003 C 
ATOM     32  C   UNL     1      13.258  37.328  27.433  1.00  0.00     0.004 C 
ENDBRANCH  30  31
ENDBRANCH  29  30
ENDBRANCH  28  29
ENDBRANCH  27  28
ENDBRANCH  26  27
ENDBRANCH  25  26
ENDBRANCH  24  25
ENDBRANCH  23  24
ENDBRANCH  22  23
ENDBRANCH  21  22
ENDBRANCH  20  21
ENDBRANCH  19  20
ENDBRANCH  18  19
ENDBRANCH   1  18
TORSDOF 28
ENDMDL
MODEL 2
REMARK VINA RESULT:    -4.084      2.145      3.803
REMARK INTER + INTRA:         -15.600
REMARK INTER:                 -10.335
REMARK INTRA:                  -5.265
REMARK UNBOUND:                -4.830
REMARK SMILES CCCCCCCCCCCCCCCCCCCCCCCCCCCCCC(=O)[O-]
REMARK SMILES IDX 16 1 17 2 18 3 19 4 20 5 21 6 22 7 23 8 24 9 25 10 26 11
REMARK SMILES IDX 27 12 28 13 29 14 30 15 31 16 32 17 15 18 14 19 13 20 12 21
REMARK SMILES IDX 11 22 10 23 9 24 8 25 7 26 6 27 5 28 4 29 3 30 2 31 1 32
REMARK H PARENT
REMARK Flexibility Score: inf
ROOT
ATOM      1  C   UNL     1      19.619  42.119  25.268  1.00  0.00     0.000 C 
ENDROOT
BRANCH   1   2
ATOM      2  C   UNL     1      20.209  42.751  23.998  1.00  0.00     0.000 C 
BRANCH   2   3
ATOM      3  C   UNL     1      19.443  42.303  22.749  1.00  0.00     0.000 C 
BRANCH   3   4
ATOM      4  C   UNL     1      20.375  41.587  21.763  1.00  0.00     0.000 C 
BRANCH   4   5
ATOM      5  C   UNL     1      20.183  40.067  21.821  1.00  0.00     0.000 C 
BRANCH   5   6
ATOM      6  C   UNL     1      19.924  39.494  20.423  1.00  0.00     0.000 C 
BRANCH   6   7
ATOM      7  C   UNL     1      19.480  40.594  19.448  1.00  0.00     0.000 C 
BRANCH   7   8
ATOM      8  C   UNL     1      18.121  40.301  18.787  1.00  0.00     0.000 C 
BRANCH   8   9
ATOM      9  C   UNL     1      16.999  39.896  19.761  1.00  0.00     0.000 C 
BRANCH   9  10
ATOM     10  C   UNL     1      16.562  41.042  20.684  1.00  0.00     0.000 C 
BRANCH  10  11
ATOM     11  C   UNL     1      16.278  42.316  19.875  1.00  0.00     0.000 C 
BRANCH  11  12
ATOM     12  C   UNL     1      16.752  43.596  20.582  1.00  0.00     0.000 C 
BRANCH  12  13
ATOM     13  C   UNL     1      17.888  44.356  19.871  1.00  0.00     0.006 C 
BRANCH  13  14
ATOM     14  C   UNL     1      18.394  45.591  20.640  1.00  0.00     0.053 C 
BRANCH  14  15
ATOM     15  C   UNL     1      19.889  45.693  20.640  1.00  0.00     0.041 C 
ATOM     16  O   UNL     1      20.593  44.702  20.311  1.00  0.00    -0.550 OA
ATOM     17  O   UNL     1      20.507  46.894  20.965  1.00  0.00    -0.550 OA
ENDBRANCH  14  15
ENDBRANCH  13  14
ENDBRANCH  12  13
ENDBRANCH  11  12
ENDBRANCH  10  11
ENDBRANCH   9  10
ENDBRANCH   8   9
ENDBRANCH   7   8
ENDBRANCH   6   7
ENDBRANCH   5   6
ENDBRANCH   4   5
ENDBRANCH   3   4
ENDBRANCH   2   3
ENDBRANCH   1   2
BRANCH   1  18
ATOM     18  C   UNL     1      20.232  40.740  25.589  1.00  0.00     0.000 C 
BRANCH  18  19
ATOM     19  C   UNL     1      19.811  40.165  26.956  1.00  0.00     0.000 C 
BRANCH  19  20
ATOM     20  C   UNL     1      18.819  41.026  27.760  1.00  0.00     0.000 C 
BRANCH  20  21
ATOM     21  C   UNL     1      17.741  40.240  28.532  1.00  0.00     0.000 C 
BRANCH  21  22
ATOM     22  C   UNL     1      16.522  41.101  28.906  1.00  0.00     0.000 C 
BRANCH  22  23
ATOM     23  C   UNL     1      15.419  40.288  29.600  1.00  0.00     0.000 C 
BRANCH  23  24
ATOM     24  C   UNL     1      14.004  40.711  29.167  1.00  0.00    -0.000 C 
BRANCH  24  25
ATOM     25  C   UNL     1      13.733  40.432  27.680  1.00  0.00    -0.000 C 
BRANCH  25  26
ATOM     26  C   UNL     1      13.248  38.996  27.428  1.00  0.00    -0.000 C 
BRANCH  26  27
ATOM     27  C   UNL     1      14.084  38.316  26.339  1.00  0.00    -0.000 C 
BRANCH  27  28
ATOM     28  C   UNL     1      15.437  37.847  26.895  1.00  0.00    -0.000 C 
BRANCH  28  29
ATOM     29  C   UNL     1      16.581  37.995  25.879  1.00  0.00    -0.000 C 
BRANCH  29  30
ATOM     30  C   UNL     1      16.593  39.370  25.197  1.00  0.00    -0.000 C 
BRANCH  30  31
ATOM     31  C   UNL     1      17.290  39.299  23.833  1.00  0.00    -0.003 C 
ATOM     32  C   UNL     1      16.752  38.141  22.998  1.00  0.00     0.004 C 
ENDBRANCH  30  31
ENDBRANCH  29  30
ENDBRANCH  28  29
ENDBRANCH  27  28
ENDBRANCH  26  27
ENDBRANCH  25  26
ENDBRANCH  24  25
ENDBRANCH  23  24
ENDBRANCH  22  23
ENDBRANCH  21  22
ENDBRANCH  20  21
ENDBRANCH  19  20
ENDBRANCH  18  19
ENDBRANCH   1  18
TORSDOF 28
ENDMDL
MODEL 3
REMARK VINA RESULT:    -4.021      2.401      4.398
REMARK INTER + INTRA:         -15.433
REMARK INTER:                 -11.502
REMARK INTRA:                  -3.931
REMARK UNBOUND:                -4.830
REMARK SMILES CCCCCCCCCCCCCCCCCCCCCCCCCCCCCC(=O)[O-]
REMARK SMILES IDX 16 1 17 2 18 3 19 4 20 5 21 6 22 7 23 8 24 9 25 10 26 11
REMARK SMILES IDX 27 12 28 13 29 14 30 15 31 16 32 17 15 18 14 19 13 20 12 21
REMARK SMILES IDX 11 22 10 23 9 24 8 25 7 26 6 27 5 28 4 29 3 30 2 31 1 32
REMARK H PARENT
REMARK Flexibility Score: inf
ROOT
ATOM      1  C   UNL     1      20.425  42.251  21.145  1.00  0.00     0.000 C 
ENDROOT
BRANCH   1   2
ATOM      2  C   UNL     1      19.666  41.810  19.885  1.00  0.00     0.000 C 
BRANCH   2   3
ATOM      3  C   UNL     1      18.889  40.512  20.130  1.00  0.00     0.000 C 
BRANCH   3   4
ATOM      4  C   UNL     1      17.513  40.562  19.456  1.00  0.00     0.000 C 
BRANCH   4   5
ATOM      5  C   UNL     1      16.405  40.846  20.477  1.00  0.00     0.000 C 
BRANCH   5   6
ATOM      6  C   UNL     1      16.245  42.353  20.708  1.00  0.00     0.000 C 
BRANCH   6   7
ATOM      7  C   UNL     1      16.271  43.122  19.379  1.00  0.00     0.000 C 
BRANCH   7   8
ATOM      8  C   UNL     1      17.093  44.421  19.450  1.00  0.00     0.000 C 
BRANCH   8   9
ATOM      9  C   UNL     1      16.753  45.341  20.638  1.00  0.00     0.000 C 
BRANCH   9  10
ATOM     10  C   UNL     1      17.882  46.323  20.979  1.00  0.00     0.000 C 
BRANCH  10  11
ATOM     11  C   UNL     1      19.234  45.796  20.476  1.00  0.00     0.000 C 
BRANCH  11  12
ATOM     12  C   UNL     1      20.374  46.815  20.638  1.00  0.00     0.000 C 
BRANCH  12  13
ATOM     13  C   UNL     1      19.935  48.228  21.068  1.00  0.00     0.006 C 
BRANCH  13  14
ATOM     14  C   UNL     1      20.555  49.360  20.228  1.00  0.00     0.053 C 
BRANCH  14  15
ATOM     15  C   UNL     1      19.631  49.845  19.152  1.00  0.00     0.041 C 
ATOM     16  O   UNL     1      20.042  50.656  18.281  1.00  0.00    -0.550 OA
ATOM     17  O   UNL     1      18.327  49.371  19.085  1.00  0.00    -0.550 OA
ENDBRANCH  14  15
ENDBRANCH  13  14
ENDBRANCH  12  13
ENDBRANCH  11  12
ENDBRANCH  10  11
ENDBRANCH   9  10
ENDBRANCH   8   9
ENDBRANCH   7   8
ENDBRANCH   6   7
ENDBRANCH   5   6
ENDBRANCH   4   5
ENDBRANCH   3   4
ENDBRANCH   2   3
ENDBRANCH   1   2
BRANCH   1  18
ATOM     18  C   UNL     1      19.485  42.735  22.269  1.00  0.00     0.000 C 
BRANCH  18  19
ATOM     19  C   UNL     1      20.005  42.452  23.693  1.00  0.00     0.000 C 
BRANCH  19  20
ATOM     20  C   UNL     1      19.268  41.336  24.458  1.00  0.00     0.000 C 
BRANCH  20  21
ATOM     21  C   UNL     1      18.167  40.609  23.661  1.00  0.00     0.000 C 
BRANCH  21  22
ATOM     22  C   UNL     1      18.362  39.084  23.624  1.00  0.00     0.000 C 
BRANCH  22  23
ATOM     23  C   UNL     1      17.047  38.318  23.840  1.00  0.00     0.000 C 
BRANCH  23  24
ATOM     24  C   UNL     1      16.269  38.807  25.075  1.00  0.00    -0.000 C 
BRANCH  24  25
ATOM     25  C   UNL     1      17.020  38.540  26.389  1.00  0.00    -0.000 C 
BRANCH  25  26
ATOM     26  C   UNL     1      16.973  39.738  27.349  1.00  0.00    -0.000 C 
BRANCH  26  27
ATOM     27  C   UNL     1      17.682  39.414  28.669  1.00  0.00    -0.000 C 
BRANCH  27  28
ATOM     28  C   UNL     1      16.693  39.429  29.844  1.00  0.00    -0.000 C 
BRANCH  28  29
ATOM     29  C   UNL     1      15.259  39.769  29.408  1.00  0.00    -0.000 C 
BRANCH  29  30
ATOM     30  C   UNL     1      14.972  41.276  29.435  1.00  0.00    -0.000 C 
BRANCH  30  31
ATOM     31  C   UNL     1      13.866  41.641  28.437  1.00  0.00    -0.003 C 
ATOM     32  C   UNL     1      13.236  40.392  27.829  1.00  0.00     0.004 C 
ENDBRANCH  30  31
ENDBRANCH  29  30
ENDBRANCH  28  29
ENDBRANCH  27  28
ENDBRANCH  26  27
ENDBRANCH  25  26
ENDBRANCH  24  25
ENDBRANCH  23  24
ENDBRANCH  22  23
ENDBRANCH  21  22
ENDBRANCH  20  21
ENDBRANCH  19  20
ENDBRANCH  18  19
ENDBRANCH   1  18
TORSDOF 28
ENDMDL
MODEL 4
REMARK VINA RESULT:    -4.009      3.740      7.692
REMARK INTER + INTRA:         -15.401
REMARK INTER:                 -11.350
REMARK INTRA:                  -4.051
REMARK UNBOUND:                -4.830
REMARK SMILES CCCCCCCCCCCCCCCCCCCCCCCCCCCCCC(=O)[O-]
REMARK SMILES IDX 16 1 17 2 18 3 19 4 20 5 21 6 22 7 23 8 24 9 25 10 26 11
REMARK SMILES IDX 27 12 28 13 29 14 30 15 31 16 32 17 15 18 14 19 13 20 12 21
REMARK SMILES IDX 11 22 10 23 9 24 8 25 7 26 6 27 5 28 4 29 3 30 2 31 1 32
REMARK H PARENT
REMARK Flexibility Score: inf
ROOT
ATOM      1  C   UNL     1      18.719  41.646  23.332  1.00  0.00     0.000 C 
ENDROOT
BRANCH   1   2
ATOM      2  C   UNL     1      18.677  40.138  23.625  1.00  0.00     0.000 C 
BRANCH   2   3
ATOM      3  C   UNL     1      19.456  39.347  22.568  1.00  0.00     0.000 C 
BRANCH   3   4
ATOM      4  C   UNL     1      19.230  39.933  21.169  1.00  0.00     0.000 C 
BRANCH   4   5
ATOM      5  C   UNL     1      17.973  39.345  20.517  1.00  0.00     0.000 C 
BRANCH   5   6
ATOM      6  C   UNL     1      17.406  40.301  19.460  1.00  0.00     0.000 C 
BRANCH   6   7
ATOM      7  C   UNL     1      18.408  41.417  19.131  1.00  0.00     0.000 C 
BRANCH   7   8
ATOM      8  C   UNL     1      17.728  42.767  18.833  1.00  0.00     0.000 C 
BRANCH   8   9
ATOM      9  C   UNL     1      16.548  43.118  19.757  1.00  0.00     0.000 C 
BRANCH   9  10
ATOM     10  C   UNL     1      16.635  44.541  20.328  1.00  0.00     0.000 C 
BRANCH  10  11
ATOM     11  C   UNL     1      15.932  45.544  19.401  1.00  0.00     0.000 C 
BRANCH  11  12
ATOM     12  C   UNL     1      14.736  46.241  20.068  1.00  0.00     0.000 C 
BRANCH  12  13
ATOM     13  C   UNL     1      13.375  46.008  19.384  1.00  0.00     0.006 C 
BRANCH  13  14
ATOM     14  C   UNL     1      12.403  45.137  20.201  1.00  0.00     0.053 C 
BRANCH  14  15
ATOM     15  C   UNL     1      12.133  43.814  19.550  1.00  0.00     0.041 C 
ATOM     16  O   UNL     1      10.977  43.318  19.576  1.00  0.00    -0.550 OA
ATOM     17  O   UNL     1      13.150  43.147  18.879  1.00  0.00    -0.550 OA
ENDBRANCH  14  15
ENDBRANCH  13  14
ENDBRANCH  12  13
ENDBRANCH  11  12
ENDBRANCH  10  11
ENDBRANCH   9  10
ENDBRANCH   8   9
ENDBRANCH   7   8
ENDBRANCH   6   7
ENDBRANCH   5   6
ENDBRANCH   4   5
ENDBRANCH   3   4
ENDBRANCH   2   3
ENDBRANCH   1   2
BRANCH   1  18
ATOM     18  C   UNL     1      19.407  42.453  24.453  1.00  0.00     0.000 C 
BRANCH  18  19
ATOM     19  C   UNL     1      20.112  41.585  25.514  1.00  0.00     0.000 C 
BRANCH  19  20
ATOM     20  C   UNL     1      21.647  41.524  25.408  1.00  0.00     0.000 C 
BRANCH  20  21
ATOM     21  C   UNL     1      22.300  42.690  24.640  1.00  0.00     0.000 C 
BRANCH  21  22
ATOM     22  C   UNL     1      22.897  42.260  23.290  1.00  0.00     0.000 C 
BRANCH  22  23
ATOM     23  C   UNL     1      21.950  42.542  22.112  1.00  0.00     0.000 C 
BRANCH  23  24
ATOM     24  C   UNL     1      21.515  44.016  22.037  1.00  0.00    -0.000 C 
BRANCH  24  25
ATOM     25  C   UNL     1      20.178  44.201  21.302  1.00  0.00    -0.000 C 
BRANCH  25  26
ATOM     26  C   UNL     1      20.252  45.271  20.203  1.00  0.00    -0.000 C 
BRANCH  26  27
ATOM     27  C   UNL     1      20.300  46.679  20.808  1.00  0.00    -0.000 C 
BRANCH  27  28
ATOM     28  C   UNL     1      18.970  47.417  20.593  1.00  0.00    -0.000 C 
BRANCH  28  29
ATOM     29  C   UNL     1      19.095  48.592  19.611  1.00  0.00    -0.000 C 
BRANCH  29  30
ATOM     30  C   UNL     1      20.116  49.642  20.071  1.00  0.00    -0.000 C 
BRANCH  30  31
ATOM     31  C   UNL     1      19.862  50.052  21.526  1.00  0.00    -0.003 C 
ATOM     32  C   UNL     1      20.868  51.102  21.988  1.00  0.00     0.004 C 
ENDBRANCH  30  31
ENDBRANCH  29  30
ENDBRANCH  28  29
ENDBRANCH  27  28
ENDBRANCH  26  27
ENDBRANCH  25  26
ENDBRANCH  24  25
ENDBRANCH  23  24
ENDBRANCH  22  23
ENDBRANCH  21  22
ENDBRANCH  20  21
ENDBRANCH  19  20
ENDBRANCH  18  19
ENDBRANCH   1  18
TORSDOF 28
ENDMDL
MODEL 5
REMARK VINA RESULT:    -3.976      2.896      8.507
REMARK INTER + INTRA:         -15.314
REMARK INTER:                  -9.999
REMARK INTRA:                  -5.315
REMARK UNBOUND:                -4.830
REMARK SMILES CCCCCCCCCCCCCCCCCCCCCCCCCCCCCC(=O)[O-]
REMARK SMILES IDX 16 1 17 2 18 3 19 4 20 5 21 6 22 7 23 8 24 9 25 10 26 11
REMARK SMILES IDX 27 12 28 13 29 14 30 15 31 16 32 17 15 18 14 19 13 20 12 21
REMARK SMILES IDX 11 22 10 23 9 24 8 25 7 26 6 27 5 28 4 29 3 30 2 31 1 32
REMARK H PARENT
REMARK Flexibility Score: inf
ROOT
ATOM      1  C   UNL     1      18.289  38.341  22.059  1.00  0.00     0.000 C 
ENDROOT
BRANCH   1   2
ATOM      2  C   UNL     1      17.595  38.151  23.417  1.00  0.00     0.000 C 
BRANCH   2   3
ATOM      3  C   UNL     1      17.276  39.500  24.069  1.00  0.00     0.000 C 
BRANCH   3   4
ATOM      4  C   UNL     1      16.266  39.331  25.211  1.00  0.00     0.000 C 
BRANCH   4   5
ATOM      5  C   UNL     1      15.984  37.850  25.487  1.00  0.00     0.000 C 
BRANCH   5   6
ATOM      6  C   UNL     1      16.299  37.495  26.945  1.00  0.00     0.000 C 
BRANCH   6   7
ATOM      7  C   UNL     1      17.590  36.668  27.046  1.00  0.00     0.000 C 
BRANCH   7   8
ATOM      8  C   UNL     1      18.857  37.539  27.123  1.00  0.00     0.000 C 
BRANCH   8   9
ATOM      9  C   UNL     1      18.888  38.541  28.291  1.00  0.00     0.000 C 
BRANCH   9  10
ATOM     10  C   UNL     1      18.900  40.005  27.826  1.00  0.00     0.000 C 
BRANCH  10  11
ATOM     11  C   UNL     1      17.632  40.735  28.292  1.00  0.00     0.000 C 
BRANCH  11  12
ATOM     12  C   UNL     1      16.920  40.023  29.452  1.00  0.00     0.000 C 
BRANCH  12  13
ATOM     13  C   UNL     1      15.515  40.560  29.789  1.00  0.00     0.006 C 
BRANCH  13  14
ATOM     14  C   UNL     1      14.368  39.784  29.115  1.00  0.00     0.053 C 
BRANCH  14  15
ATOM     15  C   UNL     1      13.460  40.677  28.324  1.00  0.00     0.041 C 
ATOM     16  O   UNL     1      13.776  41.877  28.114  1.00  0.00    -0.550 OA
ATOM     17  O   UNL     1      12.283  40.174  27.786  1.00  0.00    -0.550 OA
ENDBRANCH  14  15
ENDBRANCH  13  14
ENDBRANCH  12  13
ENDBRANCH  11  12
ENDBRANCH  10  11
ENDBRANCH   9  10
ENDBRANCH   8   9
ENDBRANCH   7   8
ENDBRANCH   6   7
ENDBRANCH   5   6
ENDBRANCH   4   5
ENDBRANCH   3   4
ENDBRANCH   2   3
ENDBRANCH   1   2
BRANCH   1  18
ATOM     18  C   UNL     1      18.742  39.796  21.818  1.00  0.00     0.000 C 
BRANCH  18  19
ATOM     19  C   UNL     1      19.594  39.989  20.548  1.00  0.00     0.000 C 
BRANCH  19  20
ATOM     20  C   UNL     1      18.892  40.713  19.383  1.00  0.00     0.000 C 
BRANCH  20  21
ATOM     21  C   UNL     1      17.361  40.837  19.512  1.00  0.00     0.000 C 
BRANCH  21  22
ATOM     22  C   UNL     1      16.871  42.294  19.458  1.00  0.00     0.000 C 
BRANCH  22  23
ATOM     23  C   UNL     1      16.903  42.976  20.834  1.00  0.00     0.000 C 
BRANCH  23  24
ATOM     24  C   UNL     1      17.625  44.335  20.810  1.00  0.00    -0.000 C 
BRANCH  24  25
ATOM     25  C   UNL     1      18.866  44.328  19.903  1.00  0.00    -0.000 C 
BRANCH  25  26
ATOM     26  C   UNL     1      19.905  45.382  20.317  1.00  0.00    -0.000 C 
BRANCH  26  27
ATOM     27  C   UNL     1      20.749  44.888  21.497  1.00  0.00    -0.000 C 
BRANCH  27  28
ATOM     28  C   UNL     1      21.152  43.417  21.310  1.00  0.00    -0.000 C 
BRANCH  28  29
ATOM     29  C   UNL     1      20.978  42.586  22.591  1.00  0.00    -0.000 C 
BRANCH  29  30
ATOM     30  C   UNL     1      19.757  43.015  23.415  1.00  0.00    -0.000 C 
BRANCH  30  31
ATOM     31  C   UNL     1      19.727  42.292  24.767  1.00  0.00    -0.003 C 
ATOM     32  C   UNL     1      20.694  41.113  24.784  1.00  0.00     0.004 C 
ENDBRANCH  30  31
ENDBRANCH  29  30
ENDBRANCH  28  29
ENDBRANCH  27  28
ENDBRANCH  26  27
ENDBRANCH  25  26
ENDBRANCH  24  25
ENDBRANCH  23  24
ENDBRANCH  22  23
ENDBRANCH  21  22
ENDBRANCH  20  21
ENDBRANCH  19  20
ENDBRANCH  18  19
ENDBRANCH   1  18
TORSDOF 28
ENDMDL
MODEL 6
REMARK VINA RESULT:    -3.963      2.942      7.888
REMARK INTER + INTRA:         -15.281
REMARK INTER:                 -10.167
REMARK INTRA:                  -5.115
REMARK UNBOUND:                -4.830
REMARK SMILES CCCCCCCCCCCCCCCCCCCCCCCCCCCCCC(=O)[O-]
REMARK SMILES IDX 16 1 17 2 18 3 19 4 20 5 21 6 22 7 23 8 24 9 25 10 26 11
REMARK SMILES IDX 27 12 28 13 29 14 30 15 31 16 32 17 15 18 14 19 13 20 12 21
REMARK SMILES IDX 11 22 10 23 9 24 8 25 7 26 6 27 5 28 4 29 3 30 2 31 1 32
REMARK H PARENT
REMARK Flexibility Score: inf
ROOT
ATOM      1  C   UNL     1      19.607  41.546  23.201  1.00  0.00     0.000 C 
ENDROOT
BRANCH   1   2
ATOM      2  C   UNL     1      19.566  42.657  24.262  1.00  0.00     0.000 C 
BRANCH   2   3
ATOM      3  C   UNL     1      20.113  42.161  25.605  1.00  0.00     0.000 C 
BRANCH   3   4
ATOM      4  C   UNL     1      19.870  40.656  25.773  1.00  0.00     0.000 C 
BRANCH   4   5
ATOM      5  C   UNL     1      19.101  40.359  27.065  1.00  0.00     0.000 C 
BRANCH   5   6
ATOM      6  C   UNL     1      17.813  39.581  26.770  1.00  0.00     0.000 C 
BRANCH   6   7
ATOM      7  C   UNL     1      17.746  39.163  25.294  1.00  0.00     0.000 C 
BRANCH   7   8
ATOM      8  C   UNL     1      16.309  39.133  24.742  1.00  0.00     0.000 C 
BRANCH   8   9
ATOM      9  C   UNL     1      15.747  37.726  24.466  1.00  0.00     0.000 C 
BRANCH   9  10
ATOM     10  C   UNL     1      15.297  36.998  25.740  1.00  0.00     0.000 C 
BRANCH  10  11
ATOM     11  C   UNL     1      13.818  37.285  26.038  1.00  0.00     0.000 C 
BRANCH  11  12
ATOM     12  C   UNL     1      13.597  37.936  27.413  1.00  0.00     0.000 C 
BRANCH  12  13
ATOM     13  C   UNL     1      13.103  39.396  27.375  1.00  0.00     0.006 C 
BRANCH  13  14
ATOM     14  C   UNL     1      14.233  40.441  27.370  1.00  0.00     0.053 C 
BRANCH  14  15
ATOM     15  C   UNL     1      14.307  41.210  28.655  1.00  0.00     0.041 C 
ATOM     16  O   UNL     1      13.927  42.409  28.700  1.00  0.00    -0.550 OA
ATOM     17  O   UNL     1      14.760  40.591  29.813  1.00  0.00    -0.550 OA
ENDBRANCH  14  15
ENDBRANCH  13  14
ENDBRANCH  12  13
ENDBRANCH  11  12
ENDBRANCH  10  11
ENDBRANCH   9  10
ENDBRANCH   8   9
ENDBRANCH   7   8
ENDBRANCH   6   7
ENDBRANCH   5   6
ENDBRANCH   4   5
ENDBRANCH   3   4
ENDBRANCH   2   3
ENDBRANCH   1   2
BRANCH   1  18
ATOM     18  C   UNL     1      20.808  41.681  22.241  1.00  0.00     0.000 C 
BRANCH  18  19
ATOM     19  C   UNL     1      20.489  42.438  20.936  1.00  0.00     0.000 C 
BRANCH  19  20
ATOM     20  C   UNL     1      20.779  43.950  20.959  1.00  0.00     0.000 C 
BRANCH  20  21
ATOM     21  C   UNL     1      19.760  44.827  20.205  1.00  0.00     0.000 C 
BRANCH  21  22
ATOM     22  C   UNL     1      18.498  45.126  21.032  1.00  0.00     0.000 C 
BRANCH  22  23
ATOM     23  C   UNL     1      17.262  44.378  20.509  1.00  0.00     0.000 C 
BRANCH  23  24
ATOM     24  C   UNL     1      17.510  43.688  19.156  1.00  0.00    -0.000 C 
BRANCH  24  25
ATOM     25  C   UNL     1      17.344  42.163  19.231  1.00  0.00    -0.000 C 
BRANCH  25  26
ATOM     26  C   UNL     1      16.218  41.738  20.187  1.00  0.00    -0.000 C 
BRANCH  26  27
ATOM     27  C   UNL     1      16.733  40.749  21.238  1.00  0.00    -0.000 C 
BRANCH  27  28
ATOM     28  C   UNL     1      16.137  39.350  21.016  1.00  0.00    -0.000 C 
BRANCH  28  29
ATOM     29  C   UNL     1      17.210  38.252  20.943  1.00  0.00    -0.000 C 
BRANCH  29  30
ATOM     30  C   UNL     1      18.415  38.657  20.083  1.00  0.00    -0.000 C 
BRANCH  30  31
ATOM     31  C   UNL     1      19.729  38.435  20.841  1.00  0.00    -0.003 C 
ATOM     32  C   UNL     1      19.473  37.901  22.246  1.00  0.00     0.004 C 
ENDBRANCH  30  31
ENDBRANCH  29  30
ENDBRANCH  28  29
ENDBRANCH  27  28
ENDBRANCH  26  27
ENDBRANCH  25  26
ENDBRANCH  24  25
ENDBRANCH  23  24
ENDBRANCH  22  23
ENDBRANCH  21  22
ENDBRANCH  20  21
ENDBRANCH  19  20
ENDBRANCH  18  19
ENDBRANCH   1  18
TORSDOF 28
ENDMDL
MODEL 7
REMARK VINA RESULT:    -3.908      3.959      6.746
REMARK INTER + INTRA:         -15.135
REMARK INTER:                  -9.861
REMARK INTRA:                  -5.274
REMARK UNBOUND:                -4.830
REMARK SMILES CCCCCCCCCCCCCCCCCCCCCCCCCCCCCC(=O)[O-]
REMARK SMILES IDX 16 1 17 2 18 3 19 4 20 5 21 6 22 7 23 8 24 9 25 10 26 11
REMARK SMILES IDX 27 12 28 13 29 14 30 15 31 16 32 17 15 18 14 19 13 20 12 21
REMARK SMILES IDX 11 22 10 23 9 24 8 25 7 26 6 27 5 28 4 29 3 30 2 31 1 32
REMARK H PARENT
REMARK Flexibility Score: inf
ROOT
ATOM      1  C   UNL     1      16.600  41.523  21.087  1.00  0.00     0.000 C 
ENDROOT
BRANCH   1   2
ATOM      2  C   UNL     1      17.812  41.945  21.931  1.00  0.00     0.000 C 
BRANCH   2   3
ATOM      3  C   UNL     1      18.256  40.815  22.867  1.00  0.00     0.000 C 
BRANCH   3   4
ATOM      4  C   UNL     1      19.435  41.260  23.741  1.00  0.00     0.000 C 
BRANCH   4   5
ATOM      5  C   UNL     1      19.569  42.787  23.756  1.00  0.00     0.000 C 
BRANCH   5   6
ATOM      6  C   UNL     1      20.965  43.218  23.288  1.00  0.00     0.000 C 
BRANCH   6   7
ATOM      7  C   UNL     1      21.281  42.652  21.896  1.00  0.00     0.000 C 
BRANCH   7   8
ATOM      8  C   UNL     1      21.029  43.664  20.764  1.00  0.00     0.000 C 
BRANCH   8   9
ATOM      9  C   UNL     1      20.175  44.883  21.160  1.00  0.00     0.000 C 
BRANCH   9  10
ATOM     10  C   UNL     1      18.948  45.075  20.257  1.00  0.00     0.000 C 
BRANCH  10  11
ATOM     11  C   UNL     1      17.805  45.755  21.026  1.00  0.00     0.000 C 
BRANCH  11  12
ATOM     12  C   UNL     1      16.421  45.189  20.670  1.00  0.00     0.000 C 
BRANCH  12  13
ATOM     13  C   UNL     1      16.151  45.016  19.163  1.00  0.00     0.006 C 
BRANCH  13  14
ATOM     14  C   UNL     1      15.515  46.249  18.494  1.00  0.00     0.053 C 
BRANCH  14  15
ATOM     15  C   UNL     1      14.077  46.027  18.135  1.00  0.00     0.041 C 
ATOM     16  O   UNL     1      13.537  46.710  17.225  1.00  0.00    -0.550 OA
ATOM     17  O   UNL     1      13.341  45.038  18.776  1.00  0.00    -0.550 OA
ENDBRANCH  14  15
ENDBRANCH  13  14
ENDBRANCH  12  13
ENDBRANCH  11  12
ENDBRANCH  10  11
ENDBRANCH   9  10
ENDBRANCH   8   9
ENDBRANCH   7   8
ENDBRANCH   6   7
ENDBRANCH   5   6
ENDBRANCH   4   5
ENDBRANCH   3   4
ENDBRANCH   2   3
ENDBRANCH   1   2
BRANCH   1  18
ATOM     18  C   UNL     1      16.930  41.408  19.584  1.00  0.00     0.000 C 
BRANCH  18  19
ATOM     19  C   UNL     1      18.421  41.615  19.248  1.00  0.00     0.000 C 
BRANCH  19  20
ATOM     20  C   UNL     1      19.151  40.380  18.689  1.00  0.00     0.000 C 
BRANCH  20  21
ATOM     21  C   UNL     1      19.649  39.375  19.746  1.00  0.00     0.000 C 
BRANCH  21  22
ATOM     22  C   UNL     1      19.291  37.919  19.405  1.00  0.00     0.000 C 
BRANCH  22  23
ATOM     23  C   UNL     1      17.782  37.645  19.510  1.00  0.00     0.000 C 
BRANCH  23  24
ATOM     24  C   UNL     1      17.228  37.891  20.925  1.00  0.00    -0.000 C 
BRANCH  24  25
ATOM     25  C   UNL     1      15.699  38.037  20.944  1.00  0.00    -0.000 C 
BRANCH  25  26
ATOM     26  C   UNL     1      15.109  38.250  19.541  1.00  0.00    -0.000 C 
BRANCH  26  27
ATOM     27  C   UNL     1      14.082  37.162  19.206  1.00  0.00    -0.000 C 
BRANCH  27  28
ATOM     28  C   UNL     1      14.392  36.512  17.848  1.00  0.00    -0.000 C 
BRANCH  28  29
ATOM     29  C   UNL     1      15.340  35.309  17.969  1.00  0.00    -0.000 C 
BRANCH  29  30
ATOM     30  C   UNL     1      15.845  34.812  16.608  1.00  0.00    -0.000 C 
BRANCH  30  31
ATOM     31  C   UNL     1      16.445  35.964  15.793  1.00  0.00    -0.003 C 
ATOM     32  C   UNL     1      17.882  36.251  16.217  1.00  0.00     0.004 C 
ENDBRANCH  30  31
ENDBRANCH  29  30
ENDBRANCH  28  29
ENDBRANCH  27  28
ENDBRANCH  26  27
ENDBRANCH  25  26
ENDBRANCH  24  25
ENDBRANCH  23  24
ENDBRANCH  22  23
ENDBRANCH  21  22
ENDBRANCH  20  21
ENDBRANCH  19  20
ENDBRANCH  18  19
ENDBRANCH   1  18
TORSDOF 28
ENDMDL
MODEL 8
REMARK VINA RESULT:    -3.896      1.931      3.189
REMARK INTER + INTRA:         -15.105
REMARK INTER:                 -10.672
REMARK INTRA:                  -4.433
REMARK UNBOUND:                -4.830
REMARK SMILES CCCCCCCCCCCCCCCCCCCCCCCCCCCCCC(=O)[O-]
REMARK SMILES IDX 16 1 17 2 18 3 19 4 20 5 21 6 22 7 23 8 24 9 25 10 26 11
REMARK SMILES IDX 27 12 28 13 29 14 30 15 31 16 32 17 15 18 14 19 13 20 12 21
REMARK SMILES IDX 11 22 10 23 9 24 8 25 7 26 6 27 5 28 4 29 3 30 2 31 1 32
REMARK H PARENT
REMARK Flexibility Score: inf
ROOT
ATOM      1  C   UNL     1      17.186  39.037  22.345  1.00  0.00     0.000 C 
ENDROOT
BRANCH   1   2
ATOM      2  C   UNL     1      17.512  40.528  22.515  1.00  0.00     0.000 C 
BRANCH   2   3
ATOM      3  C   UNL     1      19.004  40.741  22.791  1.00  0.00     0.000 C 
BRANCH   3   4
ATOM      4  C   UNL     1      19.213  41.553  24.075  1.00  0.00     0.000 C 
BRANCH   4   5
ATOM      5  C   UNL     1      20.605  42.194  24.106  1.00  0.00     0.000 C 
BRANCH   5   6
ATOM      6  C   UNL     1      21.273  42.121  22.727  1.00  0.00     0.000 C 
BRANCH   6   7
ATOM      7  C   UNL     1      21.870  43.478  22.330  1.00  0.00     0.000 C 
BRANCH   7   8
ATOM      8  C   UNL     1      20.840  44.422  21.683  1.00  0.00     0.000 C 
BRANCH   8   9
ATOM      9  C   UNL     1      19.748  43.723  20.853  1.00  0.00     0.000 C 
BRANCH   9  10
ATOM     10  C   UNL     1      18.326  44.113  21.281  1.00  0.00     0.000 C 
BRANCH  10  11
ATOM     11  C   UNL     1      17.453  44.421  20.056  1.00  0.00     0.000 C 
BRANCH  11  12
ATOM     12  C   UNL     1      16.858  45.838  20.083  1.00  0.00     0.000 C 
BRANCH  12  13
ATOM     13  C   UNL     1      17.441  46.773  21.160  1.00  0.00     0.006 C 
BRANCH  13  14
ATOM     14  C   UNL     1      18.730  47.498  20.730  1.00  0.00     0.053 C 
BRANCH  14  15
ATOM     15  C   UNL     1      18.482  48.924  20.339  1.00  0.00     0.041 C 
ATOM     16  O   UNL     1      18.571  49.276  19.134  1.00  0.00    -0.550 OA
ATOM     17  O   UNL     1      18.114  49.857  21.300  1.00  0.00    -0.550 OA
ENDBRANCH  14  15
ENDBRANCH  13  14
ENDBRANCH  12  13
ENDBRANCH  11  12
ENDBRANCH  10  11
ENDBRANCH   9  10
ENDBRANCH   8   9
ENDBRANCH   7   8
ENDBRANCH   6   7
ENDBRANCH   5   6
ENDBRANCH   4   5
ENDBRANCH   3   4
ENDBRANCH   2   3
ENDBRANCH   1   2
BRANCH   1  18
ATOM     18  C   UNL     1      17.229  38.260  23.679  1.00  0.00     0.000 C 
BRANCH  18  19
ATOM     19  C   UNL     1      16.178  38.719  24.709  1.00  0.00     0.000 C 
BRANCH  19  20
ATOM     20  C   UNL     1      16.738  39.434  25.953  1.00  0.00     0.000 C 
BRANCH  20  21
ATOM     21  C   UNL     1      17.509  38.533  26.938  1.00  0.00     0.000 C 
BRANCH  21  22
ATOM     22  C   UNL     1      17.719  39.190  28.313  1.00  0.00     0.000 C 
BRANCH  22  23
ATOM     23  C   UNL     1      16.650  38.771  29.334  1.00  0.00     0.000 C 
BRANCH  23  24
ATOM     24  C   UNL     1      16.101  39.959  30.144  1.00  0.00    -0.000 C 
BRANCH  24  25
ATOM     25  C   UNL     1      15.768  41.172  29.261  1.00  0.00    -0.000 C 
BRANCH  25  26
ATOM     26  C   UNL     1      14.256  41.366  29.069  1.00  0.00    -0.000 C 
BRANCH  26  27
ATOM     27  C   UNL     1      13.821  40.939  27.663  1.00  0.00    -0.000 C 
BRANCH  27  28
ATOM     28  C   UNL     1      12.776  39.814  27.727  1.00  0.00    -0.000 C 
BRANCH  28  29
ATOM     29  C   UNL     1      13.193  38.571  26.925  1.00  0.00    -0.000 C 
BRANCH  29  30
ATOM     30  C   UNL     1      13.722  37.439  27.816  1.00  0.00    -0.000 C 
BRANCH  30  31
ATOM     31  C   UNL     1      14.459  36.385  26.982  1.00  0.00    -0.003 C 
ATOM     32  C   UNL     1      15.388  35.544  27.852  1.00  0.00     0.004 C 
ENDBRANCH  30  31
ENDBRANCH  29  30
ENDBRANCH  28  29
ENDBRANCH  27  28
ENDBRANCH  26  27
ENDBRANCH  25  26
ENDBRANCH  24  25
ENDBRANCH  23  24
ENDBRANCH  22  23
ENDBRANCH  21  22
ENDBRANCH  20  21
ENDBRANCH  19  20
ENDBRANCH  18  19
ENDBRANCH   1  18
TORSDOF 28
ENDMDL
MODEL 9
REMARK VINA RESULT:    -3.894      2.741      8.386
REMARK INTER + INTRA:         -15.098
REMARK INTER:                 -10.029
REMARK INTRA:                  -5.069
REMARK UNBOUND:                -4.830
REMARK SMILES CCCCCCCCCCCCCCCCCCCCCCCCCCCCCC(=O)[O-]
REMARK SMILES IDX 16 1 17 2 18 3 19 4 20 5 21 6 22 7 23 8 24 9 25 10 26 11
REMARK SMILES IDX 27 12 28 13 29 14 30 15 31 16 32 17 15 18 14 19 13 20 12 21
REMARK SMILES IDX 11 22 10 23 9 24 8 25 7 26 6 27 5 28 4 29 3 30 2 31 1 32
REMARK H PARENT
REMARK Flexibility Score: inf
ROOT
ATOM      1  C   UNL     1      19.200  40.992  24.609  1.00  0.00     0.000 C 
ENDROOT
BRANCH   1   2
ATOM      2  C   UNL     1      19.845  39.900  23.742  1.00  0.00     0.000 C 
BRANCH   2   3
ATOM      3  C   UNL     1      18.796  38.910  23.226  1.00  0.00     0.000 C 
BRANCH   3   4
ATOM      4  C   UNL     1      17.382  39.490  23.363  1.00  0.00     0.000 C 
BRANCH   4   5
ATOM      5  C   UNL     1      16.316  38.415  23.123  1.00  0.00     0.000 C 
BRANCH   5   6
ATOM      6  C   UNL     1      16.863  37.019  23.447  1.00  0.00     0.000 C 
BRANCH   6   7
ATOM      7  C   UNL     1      15.925  36.265  24.400  1.00  0.00     0.000 C 
BRANCH   7   8
ATOM      8  C   UNL     1      16.594  35.897  25.737  1.00  0.00     0.000 C 
BRANCH   8   9
ATOM      9  C   UNL     1      17.541  36.969  26.307  1.00  0.00     0.000 C 
BRANCH   9  10
ATOM     10  C   UNL     1      16.900  37.801  27.427  1.00  0.00     0.000 C 
BRANCH  10  11
ATOM     11  C   UNL     1      16.701  39.257  26.979  1.00  0.00     0.000 C 
BRANCH  11  12
ATOM     12  C   UNL     1      15.281  39.537  26.462  1.00  0.00     0.000 C 
BRANCH  12  13
ATOM     13  C   UNL     1      14.142  39.081  27.393  1.00  0.00     0.006 C 
BRANCH  13  14
ATOM     14  C   UNL     1      13.215  40.221  27.856  1.00  0.00     0.053 C 
BRANCH  14  15
ATOM     15  C   UNL     1      13.922  41.214  28.728  1.00  0.00     0.041 C 
ATOM     16  O   UNL     1      14.648  40.822  29.678  1.00  0.00    -0.550 OA
ATOM     17  O   UNL     1      13.810  42.575  28.469  1.00  0.00    -0.550 OA
ENDBRANCH  14  15
ENDBRANCH  13  14
ENDBRANCH  12  13
ENDBRANCH  11  12
ENDBRANCH  10  11
ENDBRANCH   9  10
ENDBRANCH   8   9
ENDBRANCH   7   8
ENDBRANCH   6   7
ENDBRANCH   5   6
ENDBRANCH   4   5
ENDBRANCH   3   4
ENDBRANCH   2   3
ENDBRANCH   1   2
BRANCH   1  18
ATOM     18  C   UNL     1      19.728  42.404  24.280  1.00  0.00     0.000 C 
BRANCH  18  19
ATOM     19  C   UNL     1      21.264  42.499  24.196  1.00  0.00     0.000 C 
BRANCH  19  20
ATOM     20  C   UNL     1      21.832  42.838  22.805  1.00  0.00     0.000 C 
BRANCH  20  21
ATOM     21  C   UNL     1      21.188  44.054  22.110  1.00  0.00     0.000 C 
BRANCH  21  22
ATOM     22  C   UNL     1      20.152  43.656  21.045  1.00  0.00     0.000 C 
BRANCH  22  23
ATOM     23  C   UNL     1      20.312  42.199  20.584  1.00  0.00     0.000 C 
BRANCH  23  24
ATOM     24  C   UNL     1      18.967  41.463  20.452  1.00  0.00    -0.000 C 
BRANCH  24  25
ATOM     25  C   UNL     1      17.817  42.206  21.151  1.00  0.00    -0.000 C 
BRANCH  25  26
ATOM     26  C   UNL     1      16.452  41.921  20.505  1.00  0.00    -0.000 C 
BRANCH  26  27
ATOM     27  C   UNL     1      15.713  43.225  20.183  1.00  0.00    -0.000 C 
BRANCH  27  28
ATOM     28  C   UNL     1      16.588  44.158  19.333  1.00  0.00    -0.000 C 
BRANCH  28  29
ATOM     29  C   UNL     1      16.029  45.588  19.255  1.00  0.00    -0.000 C 
BRANCH  29  30
ATOM     30  C   UNL     1      16.232  46.375  20.557  1.00  0.00    -0.000 C 
BRANCH  30  31
ATOM     31  C   UNL     1      17.638  46.143  21.124  1.00  0.00    -0.003 C 
ATOM     32  C   UNL     1      18.637  47.142  20.550  1.00  0.00     0.004 C 
ENDBRANCH  30  31
ENDBRANCH  29  30
ENDBRANCH  28  29
ENDBRANCH  27  28
ENDBRANCH  26  27
ENDBRANCH  25  26
ENDBRANCH  24  25
ENDBRANCH  23  24
ENDBRANCH  22  23
ENDBRANCH  21  22
ENDBRANCH  20  21
ENDBRANCH  19  20
ENDBRANCH  18  19
ENDBRANCH   1  18
TORSDOF 28
ENDMDL
