MODEL 1
REMARK VINA RESULT:    -4.453      0.000      0.000
REMARK INTER + INTRA:          -4.583
REMARK INTER:                  -4.583
REMARK INTRA:                   0.000
REMARK UNBOUND:                 0.000
REMARK SMILES O=c1ccc2ccc(O)cc2o1
REMARK SMILES IDX 6 1 7 2 8 3 10 4 11 5 5 6 4 7 3 8 2 9 1 10 12 11 9 12
REMARK H PARENT 9 13
REMARK Flexibility Score: inf
ROOT
ATOM      1  C   UNL     1     -33.614 -21.200 -36.126  1.00  0.00     0.016 A 
ATOM      2  C   UNL     1     -33.780 -22.364 -36.883  1.00  0.00     0.047 A 
ATOM      3  C   UNL     1     -33.055 -23.523 -36.568  1.00  0.00     0.119 A 
ATOM      4  C   UNL     1     -32.160 -23.514 -35.491  1.00  0.00     0.094 A 
ATOM      5  C   UNL     1     -31.987 -22.355 -34.728  1.00  0.00     0.142 A 
ATOM      6  C   UNL     1     -32.719 -21.189 -35.047  1.00  0.00     0.018 A 
ATOM      7  C   UNL     1     -32.525 -20.046 -34.266  1.00  0.00     0.019 A 
ATOM      8  C   UNL     1     -31.623 -20.088 -33.204  1.00  0.00     0.094 A 
ATOM      9  C   UNL     1     -30.932 -21.277 -32.946  1.00  0.00     0.336 A 
ATOM     10  O   UNL     1     -30.115 -21.335 -31.991  1.00  0.00    -0.246 OA
ATOM     11  O   UNL     1     -31.137 -22.352 -33.704  1.00  0.00    -0.423 OA
ENDROOT
BRANCH   3  12
ATOM     12  O   UNL     1     -33.215 -24.685 -37.318  1.00  0.00    -0.508 OA
ATOM     13  H   UNL     1     -34.128 -24.989 -37.635  1.00  0.00     0.293 HD
ENDBRANCH   3  12
TORSDOF 1
ENDMDL
MODEL 2
REMARK VINA RESULT:    -4.370      2.131      5.173
REMARK INTER + INTRA:          -4.498
REMARK INTER:                  -4.498
REMARK INTRA:                   0.000
REMARK UNBOUND:                 0.000
REMARK SMILES O=c1ccc2ccc(O)cc2o1
REMARK SMILES IDX 6 1 7 2 8 3 10 4 11 5 5 6 4 7 3 8 2 9 1 10 12 11 9 12
REMARK H PARENT 9 13
REMARK Flexibility Score: inf
ROOT
ATOM      1  C   UNL     1     -30.818 -19.875 -30.934  1.00  0.00     0.016 A 
ATOM      2  C   UNL     1     -30.300 -20.507 -29.799  1.00  0.00     0.047 A 
ATOM      3  C   UNL     1     -30.087 -21.893 -29.795  1.00  0.00     0.119 A 
ATOM      4  C   UNL     1     -30.396 -22.649 -30.932  1.00  0.00     0.094 A 
ATOM      5  C   UNL     1     -30.914 -22.027 -32.072  1.00  0.00     0.142 A 
ATOM      6  C   UNL     1     -31.127 -20.630 -32.074  1.00  0.00     0.018 A 
ATOM      7  C   UNL     1     -31.647 -20.036 -33.228  1.00  0.00     0.019 A 
ATOM      8  C   UNL     1     -31.937 -20.831 -34.335  1.00  0.00     0.094 A 
ATOM      9  C   UNL     1     -31.701 -22.209 -34.263  1.00  0.00     0.336 A 
ATOM     10  O   UNL     1     -31.956 -22.943 -35.252  1.00  0.00    -0.246 OA
ATOM     11  O   UNL     1     -31.205 -22.749 -33.152  1.00  0.00    -0.423 OA
ENDROOT
BRANCH   3  12
ATOM     12  O   UNL     1     -29.572 -22.528 -28.667  1.00  0.00    -0.508 OA
ATOM     13  H   UNL     1     -28.613 -22.852 -28.634  1.00  0.00     0.293 HD
ENDBRANCH   3  12
TORSDOF 1
ENDMDL
MODEL 3
REMARK VINA RESULT:    -4.095      0.748      4.221
REMARK INTER + INTRA:          -4.215
REMARK INTER:                  -4.215
REMARK INTRA:                   0.000
REMARK UNBOUND:                 0.000
REMARK SMILES O=c1ccc2ccc(O)cc2o1
REMARK SMILES IDX 6 1 7 2 8 3 10 4 11 5 5 6 4 7 3 8 2 9 1 10 12 11 9 12
REMARK H PARENT 9 13
REMARK Flexibility Score: inf
ROOT
ATOM      1  C   UNL     1     -32.627 -20.001 -34.293  1.00  0.00     0.016 A 
ATOM      2  C   UNL     1     -31.780 -19.875 -33.188  1.00  0.00     0.047 A 
ATOM      3  C   UNL     1     -30.987 -20.956 -32.777  1.00  0.00     0.119 A 
ATOM      4  C   UNL     1     -31.043 -22.168 -33.476  1.00  0.00     0.094 A 
ATOM      5  C   UNL     1     -31.887 -22.304 -34.583  1.00  0.00     0.142 A 
ATOM      6  C   UNL     1     -32.685 -21.214 -34.995  1.00  0.00     0.018 A 
ATOM      7  C   UNL     1     -33.519 -21.380 -36.105  1.00  0.00     0.019 A 
ATOM      8  C   UNL     1     -33.539 -22.606 -36.768  1.00  0.00     0.094 A 
ATOM      9  C   UNL     1     -32.721 -23.643 -36.304  1.00  0.00     0.336 A 
ATOM     10  O   UNL     1     -32.725 -24.756 -36.890  1.00  0.00    -0.246 OA
ATOM     11  O   UNL     1     -31.936 -23.457 -35.245  1.00  0.00    -0.423 OA
ENDROOT
BRANCH   3  12
ATOM     12  O   UNL     1     -30.141 -20.837 -31.676  1.00  0.00    -0.508 OA
ATOM     13  H   UNL     1     -30.104 -19.987 -31.127  1.00  0.00     0.293 HD
ENDBRANCH   3  12
TORSDOF 1
ENDMDL
MODEL 4
REMARK VINA RESULT:    -3.797      2.074      4.954
REMARK INTER + INTRA:          -3.908
REMARK INTER:                  -3.908
REMARK INTRA:                   0.000
REMARK UNBOUND:                 0.000
REMARK SMILES O=c1ccc2ccc(O)cc2o1
REMARK SMILES IDX 6 1 7 2 8 3 10 4 11 5 5 6 4 7 3 8 2 9 1 10 12 11 9 12
REMARK H PARENT 9 13
REMARK Flexibility Score: inf
ROOT
ATOM      1  C   UNL     1     -30.746 -22.645 -32.554  1.00  0.00     0.016 A 
ATOM      2  C   UNL     1     -30.208 -21.949 -31.467  1.00  0.00     0.047 A 
ATOM      3  C   UNL     1     -30.449 -20.575 -31.316  1.00  0.00     0.119 A 
ATOM      4  C   UNL     1     -31.232 -19.897 -32.259  1.00  0.00     0.094 A 
ATOM      5  C   UNL     1     -31.775 -20.585 -33.349  1.00  0.00     0.142 A 
ATOM      6  C   UNL     1     -31.531 -21.968 -33.498  1.00  0.00     0.018 A 
ATOM      7  C   UNL     1     -32.087 -22.628 -34.598  1.00  0.00     0.019 A 
ATOM      8  C   UNL     1     -32.860 -21.910 -35.509  1.00  0.00     0.094 A 
ATOM      9  C   UNL     1     -33.059 -20.540 -35.297  1.00  0.00     0.336 A 
ATOM     10  O   UNL     1     -33.754 -19.875 -36.108  1.00  0.00    -0.246 OA
ATOM     11  O   UNL     1     -32.519 -19.937 -34.241  1.00  0.00    -0.423 OA
ENDROOT
BRANCH   3  12
ATOM     12  O   UNL     1     -29.915 -19.876 -30.236  1.00  0.00    -0.508 OA
ATOM     13  H   UNL     1     -30.171 -18.913 -30.050  1.00  0.00     0.293 HD
ENDBRANCH   3  12
TORSDOF 1
ENDMDL
MODEL 5
REMARK VINA RESULT:    -3.721      2.516      3.347
REMARK INTER + INTRA:          -3.830
REMARK INTER:                  -3.830
REMARK INTRA:                   0.000
REMARK UNBOUND:                 0.000
REMARK SMILES O=c1ccc2ccc(O)cc2o1
REMARK SMILES IDX 6 1 7 2 8 3 10 4 11 5 5 6 4 7 3 8 2 9 1 10 12 11 9 12
REMARK H PARENT 9 13
REMARK Flexibility Score: inf
ROOT
ATOM      1  C   UNL     1     -32.593 -22.932 -39.125  1.00  0.00     0.016 A 
ATOM      2  C   UNL     1     -31.787 -24.068 -39.009  1.00  0.00     0.047 A 
ATOM      3  C   UNL     1     -31.354 -24.504 -37.747  1.00  0.00     0.119 A 
ATOM      4  C   UNL     1     -31.731 -23.797 -36.599  1.00  0.00     0.094 A 
ATOM      5  C   UNL     1     -32.537 -22.659 -36.704  1.00  0.00     0.142 A 
ATOM      6  C   UNL     1     -32.971 -22.222 -37.976  1.00  0.00     0.018 A 
ATOM      7  C   UNL     1     -33.776 -21.082 -38.050  1.00  0.00     0.019 A 
ATOM      8  C   UNL     1     -34.125 -20.413 -36.878  1.00  0.00     0.094 A 
ATOM      9  C   UNL     1     -33.658 -20.902 -35.652  1.00  0.00     0.336 A 
ATOM     10  O   UNL     1     -33.963 -20.313 -34.584  1.00  0.00    -0.246 OA
ATOM     11  O   UNL     1     -32.894 -21.992 -35.610  1.00  0.00    -0.423 OA
ENDROOT
BRANCH   3  12
ATOM     12  O   UNL     1     -30.550 -25.635 -37.625  1.00  0.00    -0.508 OA
ATOM     13  H   UNL     1     -29.607 -25.656 -37.994  1.00  0.00     0.293 HD
ENDBRANCH   3  12
TORSDOF 1
ENDMDL
MODEL 6
REMARK VINA RESULT:    -3.559      1.989      2.978
REMARK INTER + INTRA:          -3.663
REMARK INTER:                  -3.663
REMARK INTRA:                   0.000
REMARK UNBOUND:                 0.000
REMARK SMILES O=c1ccc2ccc(O)cc2o1
REMARK SMILES IDX 6 1 7 2 8 3 10 4 11 5 5 6 4 7 3 8 2 9 1 10 12 11 9 12
REMARK H PARENT 9 13
REMARK Flexibility Score: inf
ROOT
ATOM      1  C   UNL     1     -31.949 -22.618 -34.628  1.00  0.00     0.016 A 
ATOM      2  C   UNL     1     -32.715 -21.940 -35.581  1.00  0.00     0.047 A 
ATOM      3  C   UNL     1     -33.048 -20.590 -35.391  1.00  0.00     0.119 A 
ATOM      4  C   UNL     1     -32.612 -19.919 -34.243  1.00  0.00     0.094 A 
ATOM      5  C   UNL     1     -31.845 -20.588 -33.284  1.00  0.00     0.142 A 
ATOM      6  C   UNL     1     -31.511 -21.948 -33.477  1.00  0.00     0.018 A 
ATOM      7  C   UNL     1     -30.744 -22.590 -32.501  1.00  0.00     0.019 A 
ATOM      8  C   UNL     1     -30.333 -21.879 -31.375  1.00  0.00     0.094 A 
ATOM      9  C   UNL     1     -30.701 -20.534 -31.250  1.00  0.00     0.336 A 
ATOM     10  O   UNL     1     -30.339 -19.875 -30.242  1.00  0.00    -0.246 OA
ATOM     11  O   UNL     1     -31.431 -19.946 -32.195  1.00  0.00    -0.423 OA
ENDROOT
BRANCH   3  12
ATOM     12  O   UNL     1     -33.811 -19.909 -36.337  1.00  0.00    -0.508 OA
ATOM     13  H   UNL     1     -33.586 -18.961 -36.616  1.00  0.00     0.293 HD
ENDBRANCH   3  12
TORSDOF 1
ENDMDL
MODEL 7
REMARK VINA RESULT:    -3.047      1.496      2.297
REMARK INTER + INTRA:          -3.136
REMARK INTER:                  -3.136
REMARK INTRA:                   0.000
REMARK UNBOUND:                 0.000
REMARK SMILES O=c1ccc2ccc(O)cc2o1
REMARK SMILES IDX 6 1 7 2 8 3 10 4 11 5 5 6 4 7 3 8 2 9 1 10 12 11 9 12
REMARK H PARENT 9 13
REMARK Flexibility Score: inf
ROOT
ATOM      1  C   UNL     1     -32.068 -23.856 -36.241  1.00  0.00     0.016 A 
ATOM      2  C   UNL     1     -32.781 -23.620 -37.420  1.00  0.00     0.047 A 
ATOM      3  C   UNL     1     -33.411 -22.384 -37.631  1.00  0.00     0.119 A 
ATOM      4  C   UNL     1     -33.325 -21.382 -36.656  1.00  0.00     0.094 A 
ATOM      5  C   UNL     1     -32.614 -21.609 -35.474  1.00  0.00     0.142 A 
ATOM      6  C   UNL     1     -31.980 -22.854 -35.264  1.00  0.00     0.018 A 
ATOM      7  C   UNL     1     -31.276 -23.051 -34.072  1.00  0.00     0.019 A 
ATOM      8  C   UNL     1     -31.219 -22.023 -33.133  1.00  0.00     0.094 A 
ATOM      9  C   UNL     1     -31.871 -20.815 -33.408  1.00  0.00     0.336 A 
ATOM     10  O   UNL     1     -31.830 -19.875 -32.573  1.00  0.00    -0.246 OA
ATOM     11  O   UNL     1     -32.534 -20.653 -34.552  1.00  0.00    -0.423 OA
ENDROOT
BRANCH   3  12
ATOM     12  O   UNL     1     -34.124 -22.143 -38.803  1.00  0.00    -0.508 OA
ATOM     13  H   UNL     1     -35.008 -22.603 -38.989  1.00  0.00     0.293 HD
ENDBRANCH   3  12
TORSDOF 1
ENDMDL
MODEL 8
REMARK VINA RESULT:    -2.873      3.389      6.552
REMARK INTER + INTRA:          -2.957
REMARK INTER:                  -2.957
REMARK INTRA:                   0.000
REMARK UNBOUND:                 0.000
REMARK SMILES O=c1ccc2ccc(O)cc2o1
REMARK SMILES IDX 6 1 7 2 8 3 10 4 11 5 5 6 4 7 3 8 2 9 1 10 12 11 9 12
REMARK H PARENT 9 13
REMARK Flexibility Score: inf
ROOT
ATOM      1  C   UNL     1     -30.749 -24.872 -37.747  1.00  0.00     0.016 A 
ATOM      2  C   UNL     1     -31.238 -23.773 -37.033  1.00  0.00     0.047 A 
ATOM      3  C   UNL     1     -32.565 -23.758 -36.578  1.00  0.00     0.119 A 
ATOM      4  C   UNL     1     -33.404 -24.848 -36.839  1.00  0.00     0.094 A 
ATOM      5  C   UNL     1     -32.925 -25.952 -37.551  1.00  0.00     0.142 A 
ATOM      6  C   UNL     1     -31.588 -25.965 -38.009  1.00  0.00     0.018 A 
ATOM      7  C   UNL     1     -31.137 -27.082 -38.718  1.00  0.00     0.019 A 
ATOM      8  C   UNL     1     -32.011 -28.142 -38.952  1.00  0.00     0.094 A 
ATOM      9  C   UNL     1     -33.322 -28.061 -38.469  1.00  0.00     0.336 A 
ATOM     10  O   UNL     1     -34.125 -29.008 -38.670  1.00  0.00    -0.246 OA
ATOM     11  O   UNL     1     -33.725 -26.986 -37.795  1.00  0.00    -0.423 OA
ENDROOT
BRANCH   3  12
ATOM     12  O   UNL     1     -33.058 -22.666 -35.867  1.00  0.00    -0.508 OA
ATOM     13  H   UNL     1     -33.822 -22.104 -36.224  1.00  0.00     0.293 HD
ENDBRANCH   3  12
TORSDOF 1
ENDMDL
MODEL 9
REMARK VINA RESULT:    -2.788      3.453      5.360
REMARK INTER + INTRA:          -2.869
REMARK INTER:                  -2.869
REMARK INTRA:                   0.000
REMARK UNBOUND:                 0.000
REMARK SMILES O=c1ccc2ccc(O)cc2o1
REMARK SMILES IDX 6 1 7 2 8 3 10 4 11 5 5 6 4 7 3 8 2 9 1 10 12 11 9 12
REMARK H PARENT 9 13
REMARK Flexibility Score: inf
ROOT
ATOM      1  C   UNL     1     -31.123 -27.021 -38.727  1.00  0.00     0.016 A 
ATOM      2  C   UNL     1     -31.969 -28.122 -38.893  1.00  0.00     0.047 A 
ATOM      3  C   UNL     1     -33.277 -28.094 -38.386  1.00  0.00     0.119 A 
ATOM      4  C   UNL     1     -33.738 -26.957 -37.710  1.00  0.00     0.094 A 
ATOM      5  C   UNL     1     -32.900 -25.851 -37.539  1.00  0.00     0.142 A 
ATOM      6  C   UNL     1     -31.583 -25.882 -38.051  1.00  0.00     0.018 A 
ATOM      7  C   UNL     1     -30.769 -24.761 -37.865  1.00  0.00     0.019 A 
ATOM      8  C   UNL     1     -31.274 -23.654 -37.186  1.00  0.00     0.094 A 
ATOM      9  C   UNL     1     -32.588 -23.693 -36.706  1.00  0.00     0.336 A 
ATOM     10  O   UNL     1     -33.062 -22.703 -36.091  1.00  0.00    -0.246 OA
ATOM     11  O   UNL     1     -33.343 -24.773 -36.898  1.00  0.00    -0.423 OA
ENDROOT
BRANCH   3  12
ATOM     12  O   UNL     1     -34.124 -29.188 -38.547  1.00  0.00    -0.508 OA
ATOM     13  H   UNL     1     -34.928 -29.149 -39.163  1.00  0.00     0.293 HD
ENDBRANCH   3  12
TORSDOF 1
ENDMDL
