MODEL 1
REMARK VINA RESULT:    -4.789      0.000      0.000
REMARK INTER + INTRA:          -9.958
REMARK INTER:                  -8.709
REMARK INTRA:                  -1.249
REMARK UNBOUND:                -1.249
REMARK SMILES CCCCCCCCCCCCCCCC(=O)[O-]
REMARK SMILES IDX 9 1 10 2 11 3 12 4 13 5 14 6 15 7 16 8 17 9 18 10 8 11 7 12
REMARK SMILES IDX 6 13 5 14 4 15 3 16 2 17 1 18
REMARK H PARENT
REMARK Flexibility Score: inf
ROOT
ATOM      1  C   UNL     1       9.100  29.661 -12.992  1.00  0.00     0.000 C 
ENDROOT
BRANCH   1   2
ATOM      2  C   UNL     1       8.899  28.181 -13.352  1.00  0.00     0.000 C 
BRANCH   2   3
ATOM      3  C   UNL     1       7.465  27.695 -13.075  1.00  0.00     0.000 C 
BRANCH   3   4
ATOM      4  C   UNL     1       7.390  26.177 -12.850  1.00  0.00     0.000 C 
BRANCH   4   5
ATOM      5  C   UNL     1       8.745  25.477 -13.063  1.00  0.00     0.000 C 
BRANCH   5   6
ATOM      6  C   UNL     1       8.815  24.105 -12.373  1.00  0.00     0.006 C 
BRANCH   6   7
ATOM      7  C   UNL     1       8.812  24.214 -10.843  1.00  0.00     0.053 C 
BRANCH   7   8
ATOM      8  C   UNL     1       7.661  23.450 -10.268  1.00  0.00     0.041 C 
ATOM      9  O   UNL     1       6.549  23.440 -10.860  1.00  0.00    -0.550 OA
ATOM     10  O   UNL     1       7.801  22.789  -9.054  1.00  0.00    -0.550 OA
ENDBRANCH   7   8
ENDBRANCH   6   7
ENDBRANCH   5   6
ENDBRANCH   4   5
ENDBRANCH   3   4
ENDBRANCH   2   3
ENDBRANCH   1   2
BRANCH   1  11
ATOM     11  C   UNL     1       7.769  30.394 -12.746  1.00  0.00     0.000 C 
BRANCH  11  12
ATOM     12  C   UNL     1       7.973  31.864 -12.343  1.00  0.00    -0.000 C 
BRANCH  12  13
ATOM     13  C   UNL     1       7.490  32.847 -13.424  1.00  0.00    -0.000 C 
BRANCH  13  14
ATOM     14  C   UNL     1       7.778  32.352 -14.853  1.00  0.00    -0.000 C 
BRANCH  14  15
ATOM     15  C   UNL     1       6.764  32.813 -15.915  1.00  0.00    -0.000 C 
BRANCH  15  16
ATOM     16  C   UNL     1       5.923  31.660 -16.483  1.00  0.00    -0.000 C 
BRANCH  16  17
ATOM     17  C   UNL     1       5.910  30.466 -15.522  1.00  0.00    -0.003 C 
ATOM     18  C   UNL     1       6.446  29.208 -16.199  1.00  0.00     0.004 C 
ENDBRANCH  16  17
ENDBRANCH  15  16
ENDBRANCH  14  15
ENDBRANCH  13  14
ENDBRANCH  12  13
ENDBRANCH  11  12
ENDBRANCH   1  11
TORSDOF 14
ENDMDL
MODEL 2
REMARK VINA RESULT:    -4.763      4.244      7.504
REMARK INTER + INTRA:          -9.910
REMARK INTER:                  -8.274
REMARK INTRA:                  -1.636
REMARK UNBOUND:                -1.249
REMARK SMILES CCCCCCCCCCCCCCCC(=O)[O-]
REMARK SMILES IDX 9 1 10 2 11 3 12 4 13 5 14 6 15 7 16 8 17 9 18 10 8 11 7 12
REMARK SMILES IDX 6 13 5 14 4 15 3 16 2 17 1 18
REMARK H PARENT
REMARK Flexibility Score: inf
ROOT
ATOM      1  C   UNL     1       9.281  28.464 -13.094  1.00  0.00     0.000 C 
ENDROOT
BRANCH   1   2
ATOM      2  C   UNL     1       7.776  28.764 -13.007  1.00  0.00     0.000 C 
BRANCH   2   3
ATOM      3  C   UNL     1       6.954  27.969 -14.037  1.00  0.00     0.000 C 
BRANCH   3   4
ATOM      4  C   UNL     1       6.234  28.878 -15.045  1.00  0.00     0.000 C 
BRANCH   4   5
ATOM      5  C   UNL     1       6.553  30.369 -14.833  1.00  0.00     0.000 C 
BRANCH   5   6
ATOM      6  C   UNL     1       5.319  31.268 -15.016  1.00  0.00     0.006 C 
BRANCH   6   7
ATOM      7  C   UNL     1       4.918  31.988 -13.722  1.00  0.00     0.053 C 
BRANCH   7   8
ATOM      8  C   UNL     1       3.961  33.100 -14.019  1.00  0.00     0.041 C 
ATOM      9  O   UNL     1       3.404  33.724 -13.078  1.00  0.00    -0.550 OA
ATOM     10  O   UNL     1       3.645  33.413 -15.335  1.00  0.00    -0.550 OA
ENDBRANCH   7   8
ENDBRANCH   6   7
ENDBRANCH   5   6
ENDBRANCH   4   5
ENDBRANCH   3   4
ENDBRANCH   2   3
ENDBRANCH   1   2
BRANCH   1  11
ATOM     11  C   UNL     1       9.867  28.786 -14.481  1.00  0.00     0.000 C 
BRANCH  11  12
ATOM     12  C   UNL     1      10.633  27.599 -15.087  1.00  0.00    -0.000 C 
BRANCH  12  13
ATOM     13  C   UNL     1      10.798  26.432 -14.097  1.00  0.00    -0.000 C 
BRANCH  13  14
ATOM     14  C   UNL     1      10.373  25.079 -14.695  1.00  0.00    -0.000 C 
BRANCH  14  15
ATOM     15  C   UNL     1       9.241  24.362 -13.936  1.00  0.00    -0.000 C 
BRANCH  15  16
ATOM     16  C   UNL     1       9.054  24.885 -12.504  1.00  0.00    -0.000 C 
BRANCH  16  17
ATOM     17  C   UNL     1       7.838  24.233 -11.836  1.00  0.00    -0.003 C 
ATOM     18  C   UNL     1       6.537  24.708 -12.476  1.00  0.00     0.004 C 
ENDBRANCH  16  17
ENDBRANCH  15  16
ENDBRANCH  14  15
ENDBRANCH  13  14
ENDBRANCH  12  13
ENDBRANCH  11  12
ENDBRANCH   1  11
TORSDOF 14
ENDMDL
MODEL 3
REMARK VINA RESULT:    -4.712      9.360     12.091
REMARK INTER + INTRA:          -9.817
REMARK INTER:                  -8.949
REMARK INTRA:                  -0.868
REMARK UNBOUND:                -1.249
REMARK SMILES CCCCCCCCCCCCCCCC(=O)[O-]
REMARK SMILES IDX 9 1 10 2 11 3 12 4 13 5 14 6 15 7 16 8 17 9 18 10 8 11 7 12
REMARK SMILES IDX 6 13 5 14 4 15 3 16 2 17 1 18
REMARK H PARENT
REMARK Flexibility Score: inf
ROOT
ATOM      1  C   UNL     1       2.387  21.133 -13.769  1.00  0.00     0.000 C 
ENDROOT
BRANCH   1   2
ATOM      2  C   UNL     1       2.562  20.993 -15.290  1.00  0.00     0.000 C 
BRANCH   2   3
ATOM      3  C   UNL     1       3.441  22.105 -15.889  1.00  0.00     0.000 C 
BRANCH   3   4
ATOM      4  C   UNL     1       3.002  22.506 -17.306  1.00  0.00     0.000 C 
BRANCH   4   5
ATOM      5  C   UNL     1       1.579  22.024 -17.645  1.00  0.00     0.000 C 
BRANCH   5   6
ATOM      6  C   UNL     1       1.392  21.746 -19.144  1.00  0.00     0.006 C 
BRANCH   6   7
ATOM      7  C   UNL     1       1.785  20.314 -19.532  1.00  0.00     0.053 C 
BRANCH   7   8
ATOM      8  C   UNL     1       2.838  20.332 -20.595  1.00  0.00     0.041 C 
ATOM      9  O   UNL     1       3.328  21.425 -20.983  1.00  0.00    -0.550 OA
ATOM     10  O   UNL     1       3.242  19.145 -21.193  1.00  0.00    -0.550 OA
ENDBRANCH   7   8
ENDBRANCH   6   7
ENDBRANCH   5   6
ENDBRANCH   4   5
ENDBRANCH   3   4
ENDBRANCH   2   3
ENDBRANCH   1   2
BRANCH   1  11
ATOM     11  C   UNL     1       2.123  19.783 -13.080  1.00  0.00     0.000 C 
BRANCH  11  12
ATOM     12  C   UNL     1       1.910  19.927 -11.564  1.00  0.00    -0.000 C 
BRANCH  12  13
ATOM     13  C   UNL     1       1.482  21.348 -11.158  1.00  0.00    -0.000 C 
BRANCH  13  14
ATOM     14  C   UNL     1       1.618  21.603  -9.646  1.00  0.00    -0.000 C 
BRANCH  14  15
ATOM     15  C   UNL     1       2.261  20.453  -8.850  1.00  0.00    -0.000 C 
BRANCH  15  16
ATOM     16  C   UNL     1       1.325  19.864  -7.785  1.00  0.00    -0.000 C 
BRANCH  16  17
ATOM     17  C   UNL     1       0.421  20.948  -7.188  1.00  0.00    -0.003 C 
ATOM     18  C   UNL     1       0.554  21.001  -5.669  1.00  0.00     0.004 C 
ENDBRANCH  16  17
ENDBRANCH  15  16
ENDBRANCH  14  15
ENDBRANCH  13  14
ENDBRANCH  12  13
ENDBRANCH  11  12
ENDBRANCH   1  11
TORSDOF 14
ENDMDL
MODEL 4
REMARK VINA RESULT:    -4.697      3.579      7.861
REMARK INTER + INTRA:          -9.790
REMARK INTER:                  -8.614
REMARK INTRA:                  -1.176
REMARK UNBOUND:                -1.249
REMARK SMILES CCCCCCCCCCCCCCCC(=O)[O-]
REMARK SMILES IDX 9 1 10 2 11 3 12 4 13 5 14 6 15 7 16 8 17 9 18 10 8 11 7 12
REMARK SMILES IDX 6 13 5 14 4 15 3 16 2 17 1 18
REMARK H PARENT
REMARK Flexibility Score: inf
ROOT
ATOM      1  C   UNL     1       8.636  29.983 -13.094  1.00  0.00     0.000 C 
ENDROOT
BRANCH   1   2
ATOM      2  C   UNL     1       8.201  31.442 -12.886  1.00  0.00     0.000 C 
BRANCH   2   3
ATOM      3  C   UNL     1       6.775  31.558 -12.319  1.00  0.00     0.000 C 
BRANCH   3   4
ATOM      4  C   UNL     1       6.142  32.932 -12.592  1.00  0.00     0.000 C 
BRANCH   4   5
ATOM      5  C   UNL     1       4.645  32.838 -12.941  1.00  0.00     0.000 C 
BRANCH   5   6
ATOM      6  C   UNL     1       4.389  32.025 -14.220  1.00  0.00     0.006 C 
BRANCH   6   7
ATOM      7  C   UNL     1       4.869  32.749 -15.485  1.00  0.00     0.053 C 
BRANCH   7   8
ATOM      8  C   UNL     1       5.734  31.846 -16.307  1.00  0.00     0.041 C 
ATOM      9  O   UNL     1       6.144  30.755 -15.829  1.00  0.00    -0.550 OA
ATOM     10  O   UNL     1       6.128  32.231 -17.582  1.00  0.00    -0.550 OA
ENDBRANCH   7   8
ENDBRANCH   6   7
ENDBRANCH   5   6
ENDBRANCH   4   5
ENDBRANCH   3   4
ENDBRANCH   2   3
ENDBRANCH   1   2
BRANCH   1  11
ATOM     11  C   UNL     1       7.451  29.002 -13.045  1.00  0.00     0.000 C 
BRANCH  11  12
ATOM     12  C   UNL     1       7.904  27.534 -12.978  1.00  0.00    -0.000 C 
BRANCH  12  13
ATOM     13  C   UNL     1       9.433  27.382 -13.046  1.00  0.00    -0.000 C 
BRANCH  13  14
ATOM     14  C   UNL     1       9.900  25.934 -12.806  1.00  0.00    -0.000 C 
BRANCH  14  15
ATOM     15  C   UNL     1       8.839  24.856 -13.092  1.00  0.00    -0.000 C 
BRANCH  15  16
ATOM     16  C   UNL     1       8.816  23.742 -12.036  1.00  0.00    -0.000 C 
BRANCH  16  17
ATOM     17  C   UNL     1       7.553  23.832 -11.171  1.00  0.00    -0.003 C 
ATOM     18  C   UNL     1       7.674  22.956  -9.927  1.00  0.00     0.004 C 
ENDBRANCH  16  17
ENDBRANCH  15  16
ENDBRANCH  14  15
ENDBRANCH  13  14
ENDBRANCH  12  13
ENDBRANCH  11  12
ENDBRANCH   1  11
TORSDOF 14
ENDMDL
MODEL 5
REMARK VINA RESULT:    -4.636      8.711     10.064
REMARK INTER + INTRA:          -9.680
REMARK INTER:                  -8.863
REMARK INTRA:                  -0.816
REMARK UNBOUND:                -1.249
REMARK SMILES CCCCCCCCCCCCCCCC(=O)[O-]
REMARK SMILES IDX 9 1 10 2 11 3 12 4 13 5 14 6 15 7 16 8 17 9 18 10 8 11 7 12
REMARK SMILES IDX 6 13 5 14 4 15 3 16 2 17 1 18
REMARK H PARENT
REMARK Flexibility Score: inf
ROOT
ATOM      1  C   UNL     1       2.477  21.119 -13.943  1.00  0.00     0.000 C 
ENDROOT
BRANCH   1   2
ATOM      2  C   UNL     1       2.107  19.798 -13.250  1.00  0.00     0.000 C 
BRANCH   2   3
ATOM      3  C   UNL     1       1.999  19.943 -11.721  1.00  0.00     0.000 C 
BRANCH   3   4
ATOM      4  C   UNL     1       1.868  21.407 -11.275  1.00  0.00     0.000 C 
BRANCH   4   5
ATOM      5  C   UNL     1       2.806  21.757 -10.105  1.00  0.00     0.000 C 
BRANCH   5   6
ATOM      6  C   UNL     1       2.976  20.593  -9.116  1.00  0.00     0.006 C 
BRANCH   6   7
ATOM      7  C   UNL     1       2.701  21.008  -7.665  1.00  0.00     0.053 C 
BRANCH   7   8
ATOM      8  C   UNL     1       2.650  19.803  -6.779  1.00  0.00     0.041 C 
ATOM      9  O   UNL     1       2.776  18.650  -7.269  1.00  0.00    -0.550 OA
ATOM     10  O   UNL     1       2.414  19.950  -5.417  1.00  0.00    -0.550 OA
ENDBRANCH   7   8
ENDBRANCH   6   7
ENDBRANCH   5   6
ENDBRANCH   4   5
ENDBRANCH   3   4
ENDBRANCH   2   3
ENDBRANCH   1   2
BRANCH   1  11
ATOM     11  C   UNL     1       2.592  20.972 -15.470  1.00  0.00     0.000 C 
BRANCH  11  12
ATOM     12  C   UNL     1       3.472  22.062 -16.103  1.00  0.00    -0.000 C 
BRANCH  12  13
ATOM     13  C   UNL     1       2.817  22.713 -17.334  1.00  0.00    -0.000 C 
BRANCH  13  14
ATOM     14  C   UNL     1       1.410  22.159 -17.624  1.00  0.00    -0.000 C 
BRANCH  14  15
ATOM     15  C   UNL     1       1.170  21.732 -19.083  1.00  0.00    -0.000 C 
BRANCH  15  16
ATOM     16  C   UNL     1       2.452  21.269 -19.791  1.00  0.00    -0.000 C 
BRANCH  16  17
ATOM     17  C   UNL     1       2.332  19.810 -20.247  1.00  0.00    -0.003 C 
ATOM     18  C   UNL     1       3.546  19.388 -21.068  1.00  0.00     0.004 C 
ENDBRANCH  16  17
ENDBRANCH  15  16
ENDBRANCH  14  15
ENDBRANCH  13  14
ENDBRANCH  12  13
ENDBRANCH  11  12
ENDBRANCH   1  11
TORSDOF 14
ENDMDL
MODEL 6
REMARK VINA RESULT:    -4.619      1.211      2.915
REMARK INTER + INTRA:          -9.649
REMARK INTER:                  -7.906
REMARK INTRA:                  -1.743
REMARK UNBOUND:                -1.249
REMARK SMILES CCCCCCCCCCCCCCCC(=O)[O-]
REMARK SMILES IDX 9 1 10 2 11 3 12 4 13 5 14 6 15 7 16 8 17 9 18 10 8 11 7 12
REMARK SMILES IDX 6 13 5 14 4 15 3 16 2 17 1 18
REMARK H PARENT
REMARK Flexibility Score: inf
ROOT
ATOM      1  C   UNL     1       6.871  28.180 -14.073  1.00  0.00     0.000 C 
ENDROOT
BRANCH   1   2
ATOM      2  C   UNL     1       7.676  28.943 -13.009  1.00  0.00     0.000 C 
BRANCH   2   3
ATOM      3  C   UNL     1       9.167  28.559 -13.007  1.00  0.00     0.000 C 
BRANCH   3   4
ATOM      4  C   UNL     1       9.396  27.085 -13.377  1.00  0.00     0.000 C 
BRANCH   4   5
ATOM      5  C   UNL     1      10.162  26.311 -12.288  1.00  0.00     0.000 C 
BRANCH   5   6
ATOM      6  C   UNL     1       9.452  25.012 -11.877  1.00  0.00     0.006 C 
BRANCH   6   7
ATOM      7  C   UNL     1       8.329  24.622 -12.848  1.00  0.00     0.053 C 
BRANCH   7   8
ATOM      8  C   UNL     1       7.057  24.370 -12.100  1.00  0.00     0.041 C 
ATOM      9  O   UNL     1       5.969  24.841 -12.524  1.00  0.00    -0.550 OA
ATOM     10  O   UNL     1       7.081  23.656 -10.909  1.00  0.00    -0.550 OA
ENDBRANCH   7   8
ENDBRANCH   6   7
ENDBRANCH   5   6
ENDBRANCH   4   5
ENDBRANCH   3   4
ENDBRANCH   2   3
ENDBRANCH   1   2
BRANCH   1  11
ATOM     11  C   UNL     1       6.603  29.028 -15.329  1.00  0.00     0.000 C 
BRANCH  11  12
ATOM     12  C   UNL     1       5.832  30.320 -15.014  1.00  0.00    -0.000 C 
BRANCH  12  13
ATOM     13  C   UNL     1       5.929  31.359 -16.143  1.00  0.00    -0.000 C 
BRANCH  13  14
ATOM     14  C   UNL     1       6.768  32.589 -15.751  1.00  0.00    -0.000 C 
BRANCH  14  15
ATOM     15  C   UNL     1       7.433  32.505 -14.365  1.00  0.00    -0.000 C 
BRANCH  15  16
ATOM     16  C   UNL     1       8.948  32.268 -14.439  1.00  0.00    -0.000 C 
BRANCH  16  17
ATOM     17  C   UNL     1       9.565  32.214 -13.037  1.00  0.00    -0.003 C 
ATOM     18  C   UNL     1       8.514  32.478 -11.962  1.00  0.00     0.004 C 
ENDBRANCH  16  17
ENDBRANCH  15  16
ENDBRANCH  14  15
ENDBRANCH  13  14
ENDBRANCH  12  13
ENDBRANCH  11  12
ENDBRANCH   1  11
TORSDOF 14
ENDMDL
MODEL 7
REMARK VINA RESULT:    -4.619      1.662      2.792
REMARK INTER + INTRA:          -9.648
REMARK INTER:                  -8.347
REMARK INTRA:                  -1.301
REMARK UNBOUND:                -1.249
REMARK SMILES CCCCCCCCCCCCCCCC(=O)[O-]
REMARK SMILES IDX 9 1 10 2 11 3 12 4 13 5 14 6 15 7 16 8 17 9 18 10 8 11 7 12
REMARK SMILES IDX 6 13 5 14 4 15 3 16 2 17 1 18
REMARK H PARENT
REMARK Flexibility Score: inf
ROOT
ATOM      1  C   UNL     1       7.775  28.932 -12.769  1.00  0.00     0.000 C 
ENDROOT
BRANCH   1   2
ATOM      2  C   UNL     1       9.252  29.202 -13.094  1.00  0.00     0.000 C 
BRANCH   2   3
ATOM      3  C   UNL     1      10.020  27.920 -13.461  1.00  0.00     0.000 C 
BRANCH   3   4
ATOM      4  C   UNL     1      10.930  27.432 -12.323  1.00  0.00     0.000 C 
BRANCH   4   5
ATOM      5  C   UNL     1      10.578  26.009 -11.849  1.00  0.00     0.000 C 
BRANCH   5   6
ATOM      6  C   UNL     1       9.225  25.525 -12.393  1.00  0.00     0.006 C 
BRANCH   6   7
ATOM      7  C   UNL     1       8.884  24.099 -11.942  1.00  0.00     0.053 C 
BRANCH   7   8
ATOM      8  C   UNL     1       7.428  23.989 -11.614  1.00  0.00     0.041 C 
ATOM      9  O   UNL     1       6.571  24.565 -12.335  1.00  0.00    -0.550 OA
ATOM     10  O   UNL     1       7.021  23.291 -10.484  1.00  0.00    -0.550 OA
ENDBRANCH   7   8
ENDBRANCH   6   7
ENDBRANCH   5   6
ENDBRANCH   4   5
ENDBRANCH   3   4
ENDBRANCH   2   3
ENDBRANCH   1   2
BRANCH   1  11
ATOM     11  C   UNL     1       7.037  28.226 -13.920  1.00  0.00     0.000 C 
BRANCH  11  12
ATOM     12  C   UNL     1       6.906  29.114 -15.168  1.00  0.00    -0.000 C 
BRANCH  12  13
ATOM     13  C   UNL     1       5.665  30.022 -15.122  1.00  0.00    -0.000 C 
BRANCH  13  14
ATOM     14  C   UNL     1       5.877  31.359 -15.855  1.00  0.00    -0.000 C 
BRANCH  14  15
ATOM     15  C   UNL     1       5.230  32.580 -15.176  1.00  0.00    -0.000 C 
BRANCH  15  16
ATOM     16  C   UNL     1       4.269  32.197 -14.042  1.00  0.00    -0.000 C 
BRANCH  16  17
ATOM     17  C   UNL     1       4.598  32.968 -12.759  1.00  0.00    -0.003 C 
ATOM     18  C   UNL     1       5.655  32.239 -11.934  1.00  0.00     0.004 C 
ENDBRANCH  16  17
ENDBRANCH  15  16
ENDBRANCH  14  15
ENDBRANCH  13  14
ENDBRANCH  12  13
ENDBRANCH  11  12
ENDBRANCH   1  11
TORSDOF 14
ENDMDL
MODEL 8
REMARK VINA RESULT:    -4.574      1.561      2.251
REMARK INTER + INTRA:          -9.567
REMARK INTER:                  -8.015
REMARK INTRA:                  -1.551
REMARK UNBOUND:                -1.249
REMARK SMILES CCCCCCCCCCCCCCCC(=O)[O-]
REMARK SMILES IDX 9 1 10 2 11 3 12 4 13 5 14 6 15 7 16 8 17 9 18 10 8 11 7 12
REMARK SMILES IDX 6 13 5 14 4 15 3 16 2 17 1 18
REMARK H PARENT
REMARK Flexibility Score: inf
ROOT
ATOM      1  C   UNL     1      10.567  28.912 -14.476  1.00  0.00     0.000 C 
ENDROOT
BRANCH   1   2
ATOM      2  C   UNL     1      10.335  27.665 -15.343  1.00  0.00     0.000 C 
BRANCH   2   3
ATOM      3  C   UNL     1      11.011  26.409 -14.765  1.00  0.00     0.000 C 
BRANCH   3   4
ATOM      4  C   UNL     1      10.010  25.281 -14.472  1.00  0.00     0.000 C 
BRANCH   4   5
ATOM      5  C   UNL     1       9.676  25.157 -12.974  1.00  0.00     0.000 C 
BRANCH   5   6
ATOM      6  C   UNL     1       8.226  25.555 -12.658  1.00  0.00     0.006 C 
BRANCH   6   7
ATOM      7  C   UNL     1       7.386  24.373 -12.154  1.00  0.00     0.053 C 
BRANCH   7   8
ATOM      8  C   UNL     1       8.137  23.608 -11.110  1.00  0.00     0.041 C 
ATOM      9  O   UNL     1       8.388  22.386 -11.279  1.00  0.00    -0.550 OA
ATOM     10  O   UNL     1       8.515  24.232  -9.927  1.00  0.00    -0.550 OA
ENDBRANCH   7   8
ENDBRANCH   6   7
ENDBRANCH   5   6
ENDBRANCH   4   5
ENDBRANCH   3   4
ENDBRANCH   2   3
ENDBRANCH   1   2
BRANCH   1  11
ATOM     11  C   UNL     1      10.117  28.709 -13.018  1.00  0.00     0.000 C 
BRANCH  11  12
ATOM     12  C   UNL     1       8.710  29.268 -12.752  1.00  0.00    -0.000 C 
BRANCH  12  13
ATOM     13  C   UNL     1       8.584  30.756 -13.122  1.00  0.00    -0.000 C 
BRANCH  13  14
ATOM     14  C   UNL     1       7.209  31.346 -12.758  1.00  0.00    -0.000 C 
BRANCH  14  15
ATOM     15  C   UNL     1       6.447  31.987 -13.933  1.00  0.00    -0.000 C 
BRANCH  15  16
ATOM     16  C   UNL     1       5.539  30.993 -14.673  1.00  0.00    -0.000 C 
BRANCH  16  17
ATOM     17  C   UNL     1       6.230  30.448 -15.929  1.00  0.00    -0.003 C 
ATOM     18  C   UNL     1       6.602  28.978 -15.759  1.00  0.00     0.004 C 
ENDBRANCH  16  17
ENDBRANCH  15  16
ENDBRANCH  14  15
ENDBRANCH  13  14
ENDBRANCH  12  13
ENDBRANCH  11  12
ENDBRANCH   1  11
TORSDOF 14
ENDMDL
MODEL 9
REMARK VINA RESULT:    -4.478      3.398      7.362
REMARK INTER + INTRA:          -9.391
REMARK INTER:                  -7.712
REMARK INTRA:                  -1.679
REMARK UNBOUND:                -1.249
REMARK SMILES CCCCCCCCCCCCCCCC(=O)[O-]
REMARK SMILES IDX 9 1 10 2 11 3 12 4 13 5 14 6 15 7 16 8 17 9 18 10 8 11 7 12
REMARK SMILES IDX 6 13 5 14 4 15 3 16 2 17 1 18
REMARK H PARENT
REMARK Flexibility Score: inf
ROOT
ATOM      1  C   UNL     1       8.079  28.715 -12.759  1.00  0.00     0.000 C 
ENDROOT
BRANCH   1   2
ATOM      2  C   UNL     1       7.185  28.101 -13.848  1.00  0.00     0.000 C 
BRANCH   2   3
ATOM      3  C   UNL     1       7.221  28.900 -15.163  1.00  0.00     0.000 C 
BRANCH   3   4
ATOM      4  C   UNL     1       5.880  29.584 -15.474  1.00  0.00     0.000 C 
BRANCH   4   5
ATOM      5  C   UNL     1       5.982  31.121 -15.466  1.00  0.00     0.000 C 
BRANCH   5   6
ATOM      6  C   UNL     1       6.128  31.695 -14.047  1.00  0.00     0.006 C 
BRANCH   6   7
ATOM      7  C   UNL     1       7.109  32.873 -13.986  1.00  0.00     0.053 C 
BRANCH   7   8
ATOM      8  C   UNL     1       8.479  32.393 -13.625  1.00  0.00     0.041 C 
ATOM      9  O   UNL     1       9.316  32.129 -14.529  1.00  0.00    -0.550 OA
ATOM     10  O   UNL     1       8.816  32.189 -12.293  1.00  0.00    -0.550 OA
ENDBRANCH   7   8
ENDBRANCH   6   7
ENDBRANCH   5   6
ENDBRANCH   4   5
ENDBRANCH   3   4
ENDBRANCH   2   3
ENDBRANCH   1   2
BRANCH   1  11
ATOM     11  C   UNL     1       9.545  28.850 -13.208  1.00  0.00     0.000 C 
BRANCH  11  12
ATOM     12  C   UNL     1      10.221  27.487 -13.430  1.00  0.00    -0.000 C 
BRANCH  12  13
ATOM     13  C   UNL     1      10.912  26.954 -12.163  1.00  0.00    -0.000 C 
BRANCH  13  14
ATOM     14  C   UNL     1      10.365  25.587 -11.715  1.00  0.00    -0.000 C 
BRANCH  14  15
ATOM     15  C   UNL     1       9.223  25.030 -12.583  1.00  0.00    -0.000 C 
BRANCH  15  16
ATOM     16  C   UNL     1       8.064  24.456 -11.755  1.00  0.00    -0.000 C 
BRANCH  16  17
ATOM     17  C   UNL     1       8.532  24.078 -10.345  1.00  0.00    -0.003 C 
ATOM     18  C   UNL     1       7.708  22.923  -9.783  1.00  0.00     0.004 C 
ENDBRANCH  16  17
ENDBRANCH  15  16
ENDBRANCH  14  15
ENDBRANCH  13  14
ENDBRANCH  12  13
ENDBRANCH  11  12
ENDBRANCH   1  11
TORSDOF 14
ENDMDL
