MODEL 1
REMARK VINA RESULT:    -2.508      0.000      0.000
REMARK INTER + INTRA:         -10.274
REMARK INTER:                  -5.734
REMARK INTRA:                  -4.541
REMARK UNBOUND:                -4.541
REMARK SMILES CCCCCCCCCCCCCCCCCCCCCCCC(=O)[O-]
REMARK SMILES IDX 13 1 14 2 15 3 16 4 17 5 18 6 19 7 20 8 21 9 22 10 23 11
REMARK SMILES IDX 24 12 25 13 26 14 12 15 11 16 10 17 9 18 8 19 7 20 6 21 5 22
REMARK SMILES IDX 4 23 3 24 2 25 1 26
REMARK H PARENT
REMARK Flexibility Score: inf
ROOT
ATOM      1  C   UNL     1     148.076 146.085 142.593  1.00  0.00     0.000 C 
ENDROOT
BRANCH   1   2
ATOM      2  C   UNL     1     147.734 144.776 141.865  1.00  0.00     0.000 C 
BRANCH   2   3
ATOM      3  C   UNL     1     146.242 144.410 141.977  1.00  0.00     0.000 C 
BRANCH   3   4
ATOM      4  C   UNL     1     145.818 144.103 143.425  1.00  0.00     0.000 C 
BRANCH   4   5
ATOM      5  C   UNL     1     144.677 145.005 143.948  1.00  0.00     0.000 C 
BRANCH   5   6
ATOM      6  C   UNL     1     143.796 145.609 142.837  1.00  0.00     0.000 C 
BRANCH   6   7
ATOM      7  C   UNL     1     143.588 147.135 142.917  1.00  0.00     0.000 C 
BRANCH   7   8
ATOM      8  C   UNL     1     144.018 147.781 144.250  1.00  0.00     0.000 C 
BRANCH   8   9
ATOM      9  C   UNL     1     143.504 149.220 144.411  1.00  0.00     0.000 C 
BRANCH   9  10
ATOM     10  C   UNL     1     144.513 150.141 145.122  1.00  0.00     0.006 C 
BRANCH  10  11
ATOM     11  C   UNL     1     144.437 150.086 146.658  1.00  0.00     0.053 C 
BRANCH  11  12
ATOM     12  C   UNL     1     144.774 151.400 147.298  1.00  0.00     0.041 C 
ATOM     13  O   UNL     1     143.934 152.336 147.301  1.00  0.00    -0.550 OA
ATOM     14  O   UNL     1     146.002 151.578 147.926  1.00  0.00    -0.550 OA
ENDBRANCH  11  12
ENDBRANCH  10  11
ENDBRANCH   9  10
ENDBRANCH   8   9
ENDBRANCH   7   8
ENDBRANCH   6   7
ENDBRANCH   5   6
ENDBRANCH   4   5
ENDBRANCH   3   4
ENDBRANCH   2   3
ENDBRANCH   1   2
BRANCH   1  15
ATOM     15  C   UNL     1     147.147 147.245 142.193  1.00  0.00     0.000 C 
BRANCH  15  16
ATOM     16  C   UNL     1     147.402 148.519 143.012  1.00  0.00     0.000 C 
BRANCH  16  17
ATOM     17  C   UNL     1     146.811 149.780 142.355  1.00  0.00     0.000 C 
BRANCH  17  18
ATOM     18  C   UNL     1     145.862 149.441 141.192  1.00  0.00    -0.000 C 
BRANCH  18  19
ATOM     19  C   UNL     1     144.678 150.418 141.102  1.00  0.00    -0.000 C 
BRANCH  19  20
ATOM     20  C   UNL     1     143.488 149.850 140.307  1.00  0.00    -0.000 C 
BRANCH  20  21
ATOM     21  C   UNL     1     143.618 149.948 138.776  1.00  0.00    -0.000 C 
BRANCH  21  22
ATOM     22  C   UNL     1     143.877 148.589 138.108  1.00  0.00    -0.000 C 
BRANCH  22  23
ATOM     23  C   UNL     1     143.629 147.437 139.093  1.00  0.00    -0.000 C 
BRANCH  23  24
ATOM     24  C   UNL     1     144.829 146.481 139.213  1.00  0.00    -0.000 C 
BRANCH  24  25
ATOM     25  C   UNL     1     145.910 146.657 138.131  1.00  0.00    -0.003 C 
ATOM     26  C   UNL     1     147.253 147.122 138.694  1.00  0.00     0.004 C 
ENDBRANCH  24  25
ENDBRANCH  23  24
ENDBRANCH  22  23
ENDBRANCH  21  22
ENDBRANCH  20  21
ENDBRANCH  19  20
ENDBRANCH  18  19
ENDBRANCH  17  18
ENDBRANCH  16  17
ENDBRANCH  15  16
ENDBRANCH   1  15
TORSDOF 22
ENDMDL
MODEL 2
REMARK VINA RESULT:    -2.420      1.148      2.343
REMARK INTER + INTRA:         -10.072
REMARK INTER:                  -5.299
REMARK INTRA:                  -4.774
REMARK UNBOUND:                -4.541
REMARK SMILES CCCCCCCCCCCCCCCCCCCCCCCC(=O)[O-]
REMARK SMILES IDX 13 1 14 2 15 3 16 4 17 5 18 6 19 7 20 8 21 9 22 10 23 11
REMARK SMILES IDX 24 12 25 13 26 14 12 15 11 16 10 17 9 18 8 19 7 20 6 21 5 22
REMARK SMILES IDX 4 23 3 24 2 25 1 26
REMARK H PARENT
REMARK Flexibility Score: inf
ROOT
ATOM      1  C   UNL     1     147.228 148.636 142.974  1.00  0.00     0.000 C 
ENDROOT
BRANCH   1   2
ATOM      2  C   UNL     1     147.030 147.320 142.205  1.00  0.00     0.000 C 
BRANCH   2   3
ATOM      3  C   UNL     1     148.035 146.232 142.630  1.00  0.00     0.000 C 
BRANCH   3   4
ATOM      4  C   UNL     1     147.462 144.811 142.480  1.00  0.00     0.000 C 
BRANCH   4   5
ATOM      5  C   UNL     1     146.244 144.528 143.389  1.00  0.00     0.000 C 
BRANCH   5   6
ATOM      6  C   UNL     1     145.017 143.973 142.638  1.00  0.00     0.000 C 
BRANCH   6   7
ATOM      7  C   UNL     1     143.707 144.759 142.846  1.00  0.00     0.000 C 
BRANCH   7   8
ATOM      8  C   UNL     1     143.857 146.078 143.630  1.00  0.00     0.000 C 
BRANCH   8   9
ATOM      9  C   UNL     1     143.296 147.292 142.873  1.00  0.00     0.000 C 
BRANCH   9  10
ATOM     10  C   UNL     1     143.045 148.505 143.786  1.00  0.00     0.006 C 
BRANCH  10  11
ATOM     11  C   UNL     1     144.111 148.695 144.881  1.00  0.00     0.053 C 
BRANCH  11  12
ATOM     12  C   UNL     1     144.319 150.138 145.236  1.00  0.00     0.041 C 
ATOM     13  O   UNL     1     144.045 151.040 144.403  1.00  0.00    -0.550 OA
ATOM     14  O   UNL     1     144.779 150.489 146.501  1.00  0.00    -0.550 OA
ENDBRANCH  11  12
ENDBRANCH  10  11
ENDBRANCH   9  10
ENDBRANCH   8   9
ENDBRANCH   7   8
ENDBRANCH   6   7
ENDBRANCH   5   6
ENDBRANCH   4   5
ENDBRANCH   3   4
ENDBRANCH   2   3
ENDBRANCH   1   2
BRANCH   1  15
ATOM     15  C   UNL     1     146.591 149.841 142.259  1.00  0.00     0.000 C 
BRANCH  15  16
ATOM     16  C   UNL     1     145.652 149.425 141.118  1.00  0.00     0.000 C 
BRANCH  16  17
ATOM     17  C   UNL     1     144.523 150.442 140.873  1.00  0.00     0.000 C 
BRANCH  17  18
ATOM     18  C   UNL     1     143.502 149.943 139.836  1.00  0.00    -0.000 C 
BRANCH  18  19
ATOM     19  C   UNL     1     143.655 150.649 138.479  1.00  0.00    -0.000 C 
BRANCH  19  20
ATOM     20  C   UNL     1     143.784 149.667 137.300  1.00  0.00    -0.000 C 
BRANCH  20  21
ATOM     21  C   UNL     1     144.585 148.387 137.600  1.00  0.00    -0.000 C 
BRANCH  21  22
ATOM     22  C   UNL     1     143.757 147.105 137.424  1.00  0.00    -0.000 C 
BRANCH  22  23
ATOM     23  C   UNL     1     143.409 146.486 138.786  1.00  0.00    -0.000 C 
BRANCH  23  24
ATOM     24  C   UNL     1     144.652 146.164 139.634  1.00  0.00    -0.000 C 
BRANCH  24  25
ATOM     25  C   UNL     1     145.559 145.058 139.064  1.00  0.00    -0.003 C 
ATOM     26  C   UNL     1     147.007 145.507 138.874  1.00  0.00     0.004 C 
ENDBRANCH  24  25
ENDBRANCH  23  24
ENDBRANCH  22  23
ENDBRANCH  21  22
ENDBRANCH  20  21
ENDBRANCH  19  20
ENDBRANCH  18  19
ENDBRANCH  17  18
ENDBRANCH  16  17
ENDBRANCH  15  16
ENDBRANCH   1  15
TORSDOF 22
ENDMDL
MODEL 3
REMARK VINA RESULT:    -2.323      1.571      3.994
REMARK INTER + INTRA:          -9.850
REMARK INTER:                  -5.694
REMARK INTRA:                  -4.156
REMARK UNBOUND:                -4.541
REMARK SMILES CCCCCCCCCCCCCCCCCCCCCCCC(=O)[O-]
REMARK SMILES IDX 13 1 14 2 15 3 16 4 17 5 18 6 19 7 20 8 21 9 22 10 23 11
REMARK SMILES IDX 24 12 25 13 26 14 12 15 11 16 10 17 9 18 8 19 7 20 6 21 5 22
REMARK SMILES IDX 4 23 3 24 2 25 1 26
REMARK H PARENT
REMARK Flexibility Score: inf
ROOT
ATOM      1  C   UNL     1     146.563 148.545 142.994  1.00  0.00     0.000 C 
ENDROOT
BRANCH   1   2
ATOM      2  C   UNL     1     146.552 149.777 142.076  1.00  0.00     0.000 C 
BRANCH   2   3
ATOM      3  C   UNL     1     145.204 149.966 141.356  1.00  0.00     0.000 C 
BRANCH   3   4
ATOM      4  C   UNL     1     144.143 148.951 141.817  1.00  0.00     0.000 C 
BRANCH   4   5
ATOM      5  C   UNL     1     142.914 149.595 142.499  1.00  0.00     0.000 C 
BRANCH   5   6
ATOM      6  C   UNL     1     143.168 151.018 143.035  1.00  0.00     0.000 C 
BRANCH   6   7
ATOM      7  C   UNL     1     143.246 151.140 144.571  1.00  0.00     0.000 C 
BRANCH   7   8
ATOM      8  C   UNL     1     144.444 150.419 145.220  1.00  0.00     0.000 C 
BRANCH   8   9
ATOM      9  C   UNL     1     144.034 149.160 146.001  1.00  0.00     0.000 C 
BRANCH   9  10
ATOM     10  C   UNL     1     144.180 149.324 147.524  1.00  0.00     0.006 C 
BRANCH  10  11
ATOM     11  C   UNL     1     144.980 150.571 147.946  1.00  0.00     0.053 C 
BRANCH  11  12
ATOM     12  C   UNL     1     145.665 150.394 149.268  1.00  0.00     0.041 C 
ATOM     13  O   UNL     1     145.655 151.324 150.116  1.00  0.00    -0.550 OA
ATOM     14  O   UNL     1     146.281 149.187 149.582  1.00  0.00    -0.550 OA
ENDBRANCH  11  12
ENDBRANCH  10  11
ENDBRANCH   9  10
ENDBRANCH   8   9
ENDBRANCH   7   8
ENDBRANCH   6   7
ENDBRANCH   5   6
ENDBRANCH   4   5
ENDBRANCH   3   4
ENDBRANCH   2   3
ENDBRANCH   1   2
BRANCH   1  15
ATOM     15  C   UNL     1     147.447 147.409 142.450  1.00  0.00     0.000 C 
BRANCH  15  16
ATOM     16  C   UNL     1     147.588 146.242 143.439  1.00  0.00     0.000 C 
BRANCH  16  17
ATOM     17  C   UNL     1     147.071 144.909 142.867  1.00  0.00     0.000 C 
BRANCH  17  18
ATOM     18  C   UNL     1     145.879 144.356 143.665  1.00  0.00    -0.000 C 
BRANCH  18  19
ATOM     19  C   UNL     1     145.150 145.451 144.460  1.00  0.00    -0.000 C 
BRANCH  19  20
ATOM     20  C   UNL     1     143.845 145.916 143.788  1.00  0.00    -0.000 C 
BRANCH  20  21
ATOM     21  C   UNL     1     143.238 144.922 142.781  1.00  0.00    -0.000 C 
BRANCH  21  22
ATOM     22  C   UNL     1     143.094 145.512 141.370  1.00  0.00    -0.000 C 
BRANCH  22  23
ATOM     23  C   UNL     1     144.251 145.062 140.466  1.00  0.00    -0.000 C 
BRANCH  23  24
ATOM     24  C   UNL     1     144.916 146.229 139.716  1.00  0.00    -0.000 C 
BRANCH  24  25
ATOM     25  C   UNL     1     146.357 145.961 139.244  1.00  0.00    -0.003 C 
ATOM     26  C   UNL     1     147.108 147.234 138.856  1.00  0.00     0.004 C 
ENDBRANCH  24  25
ENDBRANCH  23  24
ENDBRANCH  22  23
ENDBRANCH  21  22
ENDBRANCH  20  21
ENDBRANCH  19  20
ENDBRANCH  18  19
ENDBRANCH  17  18
ENDBRANCH  16  17
ENDBRANCH  15  16
ENDBRANCH   1  15
TORSDOF 22
ENDMDL
MODEL 4
REMARK VINA RESULT:    -2.247      4.858     10.715
REMARK INTER + INTRA:          -9.677
REMARK INTER:                  -7.014
REMARK INTRA:                  -2.663
REMARK UNBOUND:                -4.541
REMARK SMILES CCCCCCCCCCCCCCCCCCCCCCCC(=O)[O-]
REMARK SMILES IDX 13 1 14 2 15 3 16 4 17 5 18 6 19 7 20 8 21 9 22 10 23 11
REMARK SMILES IDX 24 12 25 13 26 14 12 15 11 16 10 17 9 18 8 19 7 20 6 21 5 22
REMARK SMILES IDX 4 23 3 24 2 25 1 26
REMARK H PARENT
REMARK Flexibility Score: inf
ROOT
ATOM      1  C   UNL     1     145.606 151.328 147.675  1.00  0.00     0.000 C 
ENDROOT
BRANCH   1   2
ATOM      2  C   UNL     1     144.172 151.832 147.447  1.00  0.00     0.000 C 
BRANCH   2   3
ATOM      3  C   UNL     1     143.388 150.952 146.456  1.00  0.00     0.000 C 
BRANCH   3   4
ATOM      4  C   UNL     1     143.444 149.458 146.822  1.00  0.00     0.000 C 
BRANCH   4   5
ATOM      5  C   UNL     1     143.723 148.528 145.620  1.00  0.00     0.000 C 
BRANCH   5   6
ATOM      6  C   UNL     1     143.272 149.104 144.263  1.00  0.00     0.000 C 
BRANCH   6   7
ATOM      7  C   UNL     1     144.381 149.232 143.200  1.00  0.00     0.000 C 
BRANCH   7   8
ATOM      8  C   UNL     1     145.681 149.898 143.694  1.00  0.00     0.000 C 
BRANCH   8   9
ATOM      9  C   UNL     1     146.885 149.611 142.783  1.00  0.00     0.000 C 
BRANCH   9  10
ATOM     10  C   UNL     1     146.876 148.182 142.210  1.00  0.00     0.006 C 
BRANCH  10  11
ATOM     11  C   UNL     1     147.744 147.185 142.998  1.00  0.00     0.053 C 
BRANCH  11  12
ATOM     12  C   UNL     1     147.043 145.883 143.246  1.00  0.00     0.041 C 
ATOM     13  O   UNL     1     147.453 144.828 142.694  1.00  0.00    -0.550 OA
ATOM     14  O   UNL     1     145.961 145.824 144.118  1.00  0.00    -0.550 OA
ENDBRANCH  11  12
ENDBRANCH  10  11
ENDBRANCH   9  10
ENDBRANCH   8   9
ENDBRANCH   7   8
ENDBRANCH   6   7
ENDBRANCH   5   6
ENDBRANCH   4   5
ENDBRANCH   3   4
ENDBRANCH   2   3
ENDBRANCH   1   2
BRANCH   1  15
ATOM     15  C   UNL     1     145.894 151.010 149.153  1.00  0.00     0.000 C 
BRANCH  15  16
ATOM     16  C   UNL     1     144.667 151.217 150.054  1.00  0.00     0.000 C 
BRANCH  16  17
ATOM     17  C   UNL     1     144.959 152.127 151.260  1.00  0.00     0.000 C 
BRANCH  17  18
ATOM     18  C   UNL     1     143.675 152.706 151.878  1.00  0.00    -0.000 C 
BRANCH  18  19
ATOM     19  C   UNL     1     143.672 152.612 153.413  1.00  0.00    -0.000 C 
BRANCH  19  20
ATOM     20  C   UNL     1     144.832 151.763 153.966  1.00  0.00    -0.000 C 
BRANCH  20  21
ATOM     21  C   UNL     1     145.848 152.529 154.832  1.00  0.00    -0.000 C 
BRANCH  21  22
ATOM     22  C   UNL     1     145.619 154.048 154.823  1.00  0.00    -0.000 C 
BRANCH  22  23
ATOM     23  C   UNL     1     146.750 154.769 154.075  1.00  0.00    -0.000 C 
BRANCH  23  24
ATOM     24  C   UNL     1     146.327 155.269 152.683  1.00  0.00    -0.000 C 
BRANCH  24  25
ATOM     25  C   UNL     1     145.513 156.576 152.682  1.00  0.00    -0.003 C 
ATOM     26  C   UNL     1     144.048 156.371 152.299  1.00  0.00     0.004 C 
ENDBRANCH  24  25
ENDBRANCH  23  24
ENDBRANCH  22  23
ENDBRANCH  21  22
ENDBRANCH  20  21
ENDBRANCH  19  20
ENDBRANCH  18  19
ENDBRANCH  17  18
ENDBRANCH  16  17
ENDBRANCH  15  16
ENDBRANCH   1  15
TORSDOF 22
ENDMDL
MODEL 5
REMARK VINA RESULT:    -2.239      5.521     11.539
REMARK INTER + INTRA:          -9.659
REMARK INTER:                  -6.984
REMARK INTRA:                  -2.675
REMARK UNBOUND:                -4.541
REMARK SMILES CCCCCCCCCCCCCCCCCCCCCCCC(=O)[O-]
REMARK SMILES IDX 13 1 14 2 15 3 16 4 17 5 18 6 19 7 20 8 21 9 22 10 23 11
REMARK SMILES IDX 24 12 25 13 26 14 12 15 11 16 10 17 9 18 8 19 7 20 6 21 5 22
REMARK SMILES IDX 4 23 3 24 2 25 1 26
REMARK H PARENT
REMARK Flexibility Score: inf
ROOT
ATOM      1  C   UNL     1     145.069 151.548 151.140  1.00  0.00     0.000 C 
ENDROOT
BRANCH   1   2
ATOM      2  C   UNL     1     144.940 150.071 150.738  1.00  0.00     0.000 C 
BRANCH   2   3
ATOM      3  C   UNL     1     145.350 149.819 149.275  1.00  0.00     0.000 C 
BRANCH   3   4
ATOM      4  C   UNL     1     145.918 151.079 148.597  1.00  0.00     0.000 C 
BRANCH   4   5
ATOM      5  C   UNL     1     144.945 151.748 147.601  1.00  0.00     0.000 C 
BRANCH   5   6
ATOM      6  C   UNL     1     143.915 150.781 146.984  1.00  0.00     0.000 C 
BRANCH   6   7
ATOM      7  C   UNL     1     143.305 151.235 145.642  1.00  0.00     0.000 C 
BRANCH   7   8
ATOM      8  C   UNL     1     143.556 150.281 144.458  1.00  0.00     0.000 C 
BRANCH   8   9
ATOM      9  C   UNL     1     144.651 149.242 144.747  1.00  0.00     0.000 C 
BRANCH   9  10
ATOM     10  C   UNL     1     144.907 148.294 143.562  1.00  0.00     0.006 C 
BRANCH  10  11
ATOM     11  C   UNL     1     146.318 148.413 142.958  1.00  0.00     0.053 C 
BRANCH  11  12
ATOM     12  C   UNL     1     146.447 149.580 142.024  1.00  0.00     0.041 C 
ATOM     13  O   UNL     1     145.573 149.785 141.142  1.00  0.00    -0.550 OA
ATOM     14  O   UNL     1     147.510 150.467 142.153  1.00  0.00    -0.550 OA
ENDBRANCH  11  12
ENDBRANCH  10  11
ENDBRANCH   9  10
ENDBRANCH   8   9
ENDBRANCH   7   8
ENDBRANCH   6   7
ENDBRANCH   5   6
ENDBRANCH   4   5
ENDBRANCH   3   4
ENDBRANCH   2   3
ENDBRANCH   1   2
BRANCH   1  15
ATOM     15  C   UNL     1     143.887 152.034 151.998  1.00  0.00     0.000 C 
BRANCH  15  16
ATOM     16  C   UNL     1     143.266 150.911 152.842  1.00  0.00     0.000 C 
BRANCH  16  17
ATOM     17  C   UNL     1     143.589 151.042 154.342  1.00  0.00     0.000 C 
BRANCH  17  18
ATOM     18  C   UNL     1     144.981 150.486 154.689  1.00  0.00    -0.000 C 
BRANCH  18  19
ATOM     19  C   UNL     1     145.885 151.544 155.342  1.00  0.00    -0.000 C 
BRANCH  19  20
ATOM     20  C   UNL     1     145.128 152.829 155.725  1.00  0.00    -0.000 C 
BRANCH  20  21
ATOM     21  C   UNL     1     145.592 154.103 154.997  1.00  0.00    -0.000 C 
BRANCH  21  22
ATOM     22  C   UNL     1     146.755 153.849 154.025  1.00  0.00    -0.000 C 
BRANCH  22  23
ATOM     23  C   UNL     1     146.552 154.621 152.713  1.00  0.00    -0.000 C 
BRANCH  23  24
ATOM     24  C   UNL     1     145.291 155.504 152.725  1.00  0.00    -0.000 C 
BRANCH  24  25
ATOM     25  C   UNL     1     145.560 157.020 152.689  1.00  0.00    -0.003 C 
ATOM     26  C   UNL     1     145.454 157.681 154.062  1.00  0.00     0.004 C 
ENDBRANCH  24  25
ENDBRANCH  23  24
ENDBRANCH  22  23
ENDBRANCH  21  22
ENDBRANCH  20  21
ENDBRANCH  19  20
ENDBRANCH  18  19
ENDBRANCH  17  18
ENDBRANCH  16  17
ENDBRANCH  15  16
ENDBRANCH   1  15
TORSDOF 22
ENDMDL
MODEL 6
REMARK VINA RESULT:    -2.203      3.460      6.693
REMARK INTER + INTRA:          -9.577
REMARK INTER:                  -6.196
REMARK INTRA:                  -3.382
REMARK UNBOUND:                -4.541
REMARK SMILES CCCCCCCCCCCCCCCCCCCCCCCC(=O)[O-]
REMARK SMILES IDX 13 1 14 2 15 3 16 4 17 5 18 6 19 7 20 8 21 9 22 10 23 11
REMARK SMILES IDX 24 12 25 13 26 14 12 15 11 16 10 17 9 18 8 19 7 20 6 21 5 22
REMARK SMILES IDX 4 23 3 24 2 25 1 26
REMARK H PARENT
REMARK Flexibility Score: inf
ROOT
ATOM      1  C   UNL     1     143.571 151.404 144.685  1.00  0.00     0.000 C 
ENDROOT
BRANCH   1   2
ATOM      2  C   UNL     1     143.701 152.418 145.833  1.00  0.00     0.000 C 
BRANCH   2   3
ATOM      3  C   UNL     1     144.425 151.831 147.059  1.00  0.00     0.000 C 
BRANCH   3   4
ATOM      4  C   UNL     1     143.463 151.529 148.222  1.00  0.00     0.000 C 
BRANCH   4   5
ATOM      5  C   UNL     1     143.449 150.046 148.655  1.00  0.00     0.000 C 
BRANCH   5   6
ATOM      6  C   UNL     1     144.837 149.376 148.647  1.00  0.00     0.000 C 
BRANCH   6   7
ATOM      7  C   UNL     1     145.699 149.630 149.900  1.00  0.00     0.000 C 
BRANCH   7   8
ATOM      8  C   UNL     1     144.949 149.510 151.241  1.00  0.00     0.000 C 
BRANCH   8   9
ATOM      9  C   UNL     1     144.727 150.867 151.927  1.00  0.00     0.000 C 
BRANCH   9  10
ATOM     10  C   UNL     1     144.680 150.763 153.462  1.00  0.00     0.006 C 
BRANCH  10  11
ATOM     11  C   UNL     1     144.088 152.003 154.156  1.00  0.00     0.053 C 
BRANCH  11  12
ATOM     12  C   UNL     1     145.093 153.105 154.317  1.00  0.00     0.041 C 
ATOM     13  O   UNL     1     146.277 152.839 154.650  1.00  0.00    -0.550 OA
ATOM     14  O   UNL     1     144.733 154.424 154.061  1.00  0.00    -0.550 OA
ENDBRANCH  11  12
ENDBRANCH  10  11
ENDBRANCH   9  10
ENDBRANCH   8   9
ENDBRANCH   7   8
ENDBRANCH   6   7
ENDBRANCH   5   6
ENDBRANCH   4   5
ENDBRANCH   3   4
ENDBRANCH   2   3
ENDBRANCH   1   2
BRANCH   1  15
ATOM     15  C   UNL     1     144.317 150.089 144.969  1.00  0.00     0.000 C 
BRANCH  15  16
ATOM     16  C   UNL     1     143.372 148.884 145.086  1.00  0.00     0.000 C 
BRANCH  16  17
ATOM     17  C   UNL     1     144.094 147.538 144.886  1.00  0.00     0.000 C 
BRANCH  17  18
ATOM     18  C   UNL     1     143.839 146.941 143.492  1.00  0.00    -0.000 C 
BRANCH  18  19
ATOM     19  C   UNL     1     144.906 145.907 143.097  1.00  0.00    -0.000 C 
BRANCH  19  20
ATOM     20  C   UNL     1     146.343 146.395 143.357  1.00  0.00    -0.000 C 
BRANCH  20  21
ATOM     21  C   UNL     1     146.897 147.382 142.313  1.00  0.00    -0.000 C 
BRANCH  21  22
ATOM     22  C   UNL     1     147.343 148.718 142.928  1.00  0.00    -0.000 C 
BRANCH  22  23
ATOM     23  C   UNL     1     146.612 149.896 142.268  1.00  0.00    -0.000 C 
BRANCH  23  24
ATOM     24  C   UNL     1     145.542 149.448 141.256  1.00  0.00    -0.000 C 
BRANCH  24  25
ATOM     25  C   UNL     1     144.315 150.373 141.157  1.00  0.00    -0.003 C 
ATOM     26  C   UNL     1     142.988 149.625 141.285  1.00  0.00     0.004 C 
ENDBRANCH  24  25
ENDBRANCH  23  24
ENDBRANCH  22  23
ENDBRANCH  21  22
ENDBRANCH  20  21
ENDBRANCH  19  20
ENDBRANCH  18  19
ENDBRANCH  17  18
ENDBRANCH  16  17
ENDBRANCH  15  16
ENDBRANCH   1  15
TORSDOF 22
ENDMDL
MODEL 7
REMARK VINA RESULT:    -2.189      1.339      3.630
REMARK INTER + INTRA:          -9.544
REMARK INTER:                  -5.623
REMARK INTRA:                  -3.921
REMARK UNBOUND:                -4.541
REMARK SMILES CCCCCCCCCCCCCCCCCCCCCCCC(=O)[O-]
REMARK SMILES IDX 13 1 14 2 15 3 16 4 17 5 18 6 19 7 20 8 21 9 22 10 23 11
REMARK SMILES IDX 24 12 25 13 26 14 12 15 11 16 10 17 9 18 8 19 7 20 6 21 5 22
REMARK SMILES IDX 4 23 3 24 2 25 1 26
REMARK H PARENT
REMARK Flexibility Score: inf
ROOT
ATOM      1  C   UNL     1     146.882 148.505 141.644  1.00  0.00     0.000 C 
ENDROOT
BRANCH   1   2
ATOM      2  C   UNL     1     146.316 149.928 141.766  1.00  0.00     0.000 C 
BRANCH   2   3
ATOM      3  C   UNL     1     144.931 150.072 141.107  1.00  0.00     0.000 C 
BRANCH   3   4
ATOM      4  C   UNL     1     144.320 148.714 140.718  1.00  0.00     0.000 C 
BRANCH   4   5
ATOM      5  C   UNL     1     142.902 148.480 141.285  1.00  0.00     0.000 C 
BRANCH   5   6
ATOM      6  C   UNL     1     142.880 147.737 142.636  1.00  0.00     0.000 C 
BRANCH   6   7
ATOM      7  C   UNL     1     142.903 148.639 143.886  1.00  0.00     0.000 C 
BRANCH   7   8
ATOM      8  C   UNL     1     144.229 148.626 144.672  1.00  0.00     0.000 C 
BRANCH   8   9
ATOM      9  C   UNL     1     144.705 150.033 145.066  1.00  0.00     0.000 C 
BRANCH   9  10
ATOM     10  C   UNL     1     143.918 150.624 146.250  1.00  0.00     0.006 C 
BRANCH  10  11
ATOM     11  C   UNL     1     144.760 151.521 147.176  1.00  0.00     0.053 C 
BRANCH  11  12
ATOM     12  C   UNL     1     145.284 150.781 148.371  1.00  0.00     0.041 C 
ATOM     13  O   UNL     1     144.897 149.607 148.609  1.00  0.00    -0.550 OA
ATOM     14  O   UNL     1     146.230 151.372 149.202  1.00  0.00    -0.550 OA
ENDBRANCH  11  12
ENDBRANCH  10  11
ENDBRANCH   9  10
ENDBRANCH   8   9
ENDBRANCH   7   8
ENDBRANCH   6   7
ENDBRANCH   5   6
ENDBRANCH   4   5
ENDBRANCH   3   4
ENDBRANCH   2   3
ENDBRANCH   1   2
BRANCH   1  15
ATOM     15  C   UNL     1     147.378 147.948 142.990  1.00  0.00     0.000 C 
BRANCH  15  16
ATOM     16  C   UNL     1     147.352 146.413 143.043  1.00  0.00     0.000 C 
BRANCH  16  17
ATOM     17  C   UNL     1     145.929 145.836 142.941  1.00  0.00     0.000 C 
BRANCH  17  18
ATOM     18  C   UNL     1     145.845 144.659 141.954  1.00  0.00    -0.000 C 
BRANCH  18  19
ATOM     19  C   UNL     1     146.612 144.936 140.650  1.00  0.00    -0.000 C 
BRANCH  19  20
ATOM     20  C   UNL     1     145.719 145.521 139.540  1.00  0.00    -0.000 C 
BRANCH  20  21
ATOM     21  C   UNL     1     146.468 146.005 138.286  1.00  0.00    -0.000 C 
BRANCH  21  22
ATOM     22  C   UNL     1     145.848 147.267 137.666  1.00  0.00    -0.000 C 
BRANCH  22  23
ATOM     23  C   UNL     1     144.326 147.116 137.523  1.00  0.00    -0.000 C 
BRANCH  23  24
ATOM     24  C   UNL     1     143.706 148.159 136.576  1.00  0.00    -0.000 C 
BRANCH  24  25
ATOM     25  C   UNL     1     144.351 149.556 136.636  1.00  0.00    -0.003 C 
ATOM     26  C   UNL     1     143.566 150.543 137.500  1.00  0.00     0.004 C 
ENDBRANCH  24  25
ENDBRANCH  23  24
ENDBRANCH  22  23
ENDBRANCH  21  22
ENDBRANCH  20  21
ENDBRANCH  19  20
ENDBRANCH  18  19
ENDBRANCH  17  18
ENDBRANCH  16  17
ENDBRANCH  15  16
ENDBRANCH   1  15
TORSDOF 22
ENDMDL
MODEL 8
REMARK VINA RESULT:    -2.158      1.551      2.530
REMARK INTER + INTRA:          -9.473
REMARK INTER:                  -5.656
REMARK INTRA:                  -3.817
REMARK UNBOUND:                -4.541
REMARK SMILES CCCCCCCCCCCCCCCCCCCCCCCC(=O)[O-]
REMARK SMILES IDX 13 1 14 2 15 3 16 4 17 5 18 6 19 7 20 8 21 9 22 10 23 11
REMARK SMILES IDX 24 12 25 13 26 14 12 15 11 16 10 17 9 18 8 19 7 20 6 21 5 22
REMARK SMILES IDX 4 23 3 24 2 25 1 26
REMARK H PARENT
REMARK Flexibility Score: inf
ROOT
ATOM      1  C   UNL     1     147.379 147.632 142.689  1.00  0.00     0.000 C 
ENDROOT
BRANCH   1   2
ATOM      2  C   UNL     1     146.738 146.406 143.359  1.00  0.00     0.000 C 
BRANCH   2   3
ATOM      3  C   UNL     1     145.243 146.261 143.019  1.00  0.00     0.000 C 
BRANCH   3   4
ATOM      4  C   UNL     1     144.378 146.004 144.266  1.00  0.00     0.000 C 
BRANCH   4   5
ATOM      5  C   UNL     1     143.386 147.144 144.587  1.00  0.00     0.000 C 
BRANCH   5   6
ATOM      6  C   UNL     1     143.961 148.235 145.512  1.00  0.00     0.000 C 
BRANCH   6   7
ATOM      7  C   UNL     1     143.260 149.606 145.431  1.00  0.00     0.000 C 
BRANCH   7   8
ATOM      8  C   UNL     1     144.198 150.803 145.182  1.00  0.00     0.000 C 
BRANCH   8   9
ATOM      9  C   UNL     1     143.857 152.023 146.051  1.00  0.00     0.000 C 
BRANCH   9  10
ATOM     10  C   UNL     1     144.119 151.785 147.549  1.00  0.00     0.006 C 
BRANCH  10  11
ATOM     11  C   UNL     1     145.574 151.405 147.878  1.00  0.00     0.053 C 
BRANCH  11  12
ATOM     12  C   UNL     1     145.707 150.747 149.220  1.00  0.00     0.041 C 
ATOM     13  O   UNL     1     145.722 151.444 150.268  1.00  0.00    -0.550 OA
ATOM     14  O   UNL     1     145.773 149.362 149.317  1.00  0.00    -0.550 OA
ENDBRANCH  11  12
ENDBRANCH  10  11
ENDBRANCH   9  10
ENDBRANCH   8   9
ENDBRANCH   7   8
ENDBRANCH   6   7
ENDBRANCH   5   6
ENDBRANCH   4   5
ENDBRANCH   3   4
ENDBRANCH   2   3
ENDBRANCH   1   2
BRANCH   1  15
ATOM     15  C   UNL     1     146.675 148.947 143.067  1.00  0.00     0.000 C 
BRANCH  15  16
ATOM     16  C   UNL     1     146.603 149.939 141.897  1.00  0.00     0.000 C 
BRANCH  16  17
ATOM     17  C   UNL     1     145.343 149.751 141.032  1.00  0.00     0.000 C 
BRANCH  17  18
ATOM     18  C   UNL     1     144.063 149.647 141.880  1.00  0.00    -0.000 C 
BRANCH  18  19
ATOM     19  C   UNL     1     142.904 148.993 141.110  1.00  0.00    -0.000 C 
BRANCH  19  20
ATOM     20  C   UNL     1     143.295 147.654 140.458  1.00  0.00    -0.000 C 
BRANCH  20  21
ATOM     21  C   UNL     1     143.168 147.611 138.925  1.00  0.00    -0.000 C 
BRANCH  21  22
ATOM     22  C   UNL     1     144.295 146.812 138.252  1.00  0.00    -0.000 C 
BRANCH  22  23
ATOM     23  C   UNL     1     145.574 147.655 138.140  1.00  0.00    -0.000 C 
BRANCH  23  24
ATOM     24  C   UNL     1     146.749 147.073 138.947  1.00  0.00    -0.000 C 
BRANCH  24  25
ATOM     25  C   UNL     1     146.974 145.561 138.767  1.00  0.00    -0.003 C 
ATOM     26  C   UNL     1     146.676 144.755 140.031  1.00  0.00     0.004 C 
ENDBRANCH  24  25
ENDBRANCH  23  24
ENDBRANCH  22  23
ENDBRANCH  21  22
ENDBRANCH  20  21
ENDBRANCH  19  20
ENDBRANCH  18  19
ENDBRANCH  17  18
ENDBRANCH  16  17
ENDBRANCH  15  16
ENDBRANCH   1  15
TORSDOF 22
ENDMDL
MODEL 9
REMARK VINA RESULT:    -2.144      4.351      7.775
REMARK INTER + INTRA:          -9.442
REMARK INTER:                  -6.677
REMARK INTRA:                  -2.765
REMARK UNBOUND:                -4.541
REMARK SMILES CCCCCCCCCCCCCCCCCCCCCCCC(=O)[O-]
REMARK SMILES IDX 13 1 14 2 15 3 16 4 17 5 18 6 19 7 20 8 21 9 22 10 23 11
REMARK SMILES IDX 24 12 25 13 26 14 12 15 11 16 10 17 9 18 8 19 7 20 6 21 5 22
REMARK SMILES IDX 4 23 3 24 2 25 1 26
REMARK H PARENT
REMARK Flexibility Score: inf
ROOT
ATOM      1  C   UNL     1     145.512 150.944 148.289  1.00  0.00     0.000 C 
ENDROOT
BRANCH   1   2
ATOM      2  C   UNL     1     145.386 151.237 149.793  1.00  0.00     0.000 C 
BRANCH   2   3
ATOM      3  C   UNL     1     143.977 151.723 150.183  1.00  0.00     0.000 C 
BRANCH   3   4
ATOM      4  C   UNL     1     143.219 150.700 151.047  1.00  0.00     0.000 C 
BRANCH   4   5
ATOM      5  C   UNL     1     144.085 149.508 151.512  1.00  0.00     0.000 C 
BRANCH   5   6
ATOM      6  C   UNL     1     144.315 149.455 153.035  1.00  0.00     0.000 C 
BRANCH   6   7
ATOM      7  C   UNL     1     143.943 150.739 153.803  1.00  0.00     0.000 C 
BRANCH   7   8
ATOM      8  C   UNL     1     145.141 151.607 154.236  1.00  0.00     0.000 C 
BRANCH   8   9
ATOM      9  C   UNL     1     144.950 153.097 153.912  1.00  0.00     0.000 C 
BRANCH   9  10
ATOM     10  C   UNL     1     145.816 153.570 152.731  1.00  0.00     0.006 C 
BRANCH  10  11
ATOM     11  C   UNL     1     146.543 154.903 152.981  1.00  0.00     0.053 C 
BRANCH  11  12
ATOM     12  C   UNL     1     145.599 156.067 153.052  1.00  0.00     0.041 C 
ATOM     13  O   UNL     1     144.711 156.217 152.174  1.00  0.00    -0.550 OA
ATOM     14  O   UNL     1     145.674 156.966 154.111  1.00  0.00    -0.550 OA
ENDBRANCH  11  12
ENDBRANCH  10  11
ENDBRANCH   9  10
ENDBRANCH   8   9
ENDBRANCH   7   8
ENDBRANCH   6   7
ENDBRANCH   5   6
ENDBRANCH   4   5
ENDBRANCH   3   4
ENDBRANCH   2   3
ENDBRANCH   1   2
BRANCH   1  15
ATOM     15  C   UNL     1     144.518 151.757 147.442  1.00  0.00     0.000 C 
BRANCH  15  16
ATOM     16  C   UNL     1     143.715 150.882 146.468  1.00  0.00     0.000 C 
BRANCH  16  17
ATOM     17  C   UNL     1     143.920 149.376 146.709  1.00  0.00     0.000 C 
BRANCH  17  18
ATOM     18  C   UNL     1     143.960 148.575 145.397  1.00  0.00    -0.000 C 
BRANCH  18  19
ATOM     19  C   UNL     1     143.332 149.346 144.224  1.00  0.00    -0.000 C 
BRANCH  19  20
ATOM     20  C   UNL     1     144.342 149.667 143.106  1.00  0.00    -0.000 C 
BRANCH  20  21
ATOM     21  C   UNL     1     145.801 149.825 143.570  1.00  0.00    -0.000 C 
BRANCH  21  22
ATOM     22  C   UNL     1     146.809 149.762 142.411  1.00  0.00    -0.000 C 
BRANCH  22  23
ATOM     23  C   UNL     1     146.942 148.328 141.878  1.00  0.00    -0.000 C 
BRANCH  23  24
ATOM     24  C   UNL     1     147.273 147.306 142.980  1.00  0.00    -0.000 C 
BRANCH  24  25
ATOM     25  C   UNL     1     146.483 145.986 142.900  1.00  0.00    -0.003 C 
ATOM     26  C   UNL     1     145.856 145.581 144.234  1.00  0.00     0.004 C 
ENDBRANCH  24  25
ENDBRANCH  23  24
ENDBRANCH  22  23
ENDBRANCH  21  22
ENDBRANCH  20  21
ENDBRANCH  19  20
ENDBRANCH  18  19
ENDBRANCH  17  18
ENDBRANCH  16  17
ENDBRANCH  15  16
ENDBRANCH   1  15
TORSDOF 22
ENDMDL
