MODEL 1
REMARK VINA RESULT:    -6.450      0.000      0.000
REMARK INTER + INTRA:          -7.565
REMARK INTER:                  -7.770
REMARK INTRA:                   0.204
REMARK UNBOUND:                 0.204
REMARK SMILES O=c1c(O)c(-c2ccc(O)c(O)c2)oc2cc(O)cc(O)c12
REMARK SMILES IDX 5 1 3 2 2 3 1 4 22 5 20 6 19 7 17 8 16 9 15 10 14 11 6 12
REMARK SMILES IDX 7 13 8 14 9 15 13 16 11 17 10 18 12 20 4 22 21 24 18 26
REMARK H PARENT 10 19 12 21 4 23 21 25 18 27
REMARK Flexibility Score: inf
ROOT
ATOM      1  C   UNL     1     -38.299  75.444 -26.019  1.00  0.00     0.180 A 
ATOM      2  C   UNL     1     -38.170  74.474 -27.027  1.00  0.00     0.208 A 
ATOM      3  C   UNL     1     -36.887  74.119 -27.471  1.00  0.00     0.238 A 
ATOM      4  O   UNL     1     -36.780  73.289 -28.411  1.00  0.00    -0.285 OA
ATOM      5  C   UNL     1     -35.747  74.726 -26.889  1.00  0.00     0.111 A 
ATOM      6  C   UNL     1     -34.398  74.413 -27.233  1.00  0.00     0.134 A 
ATOM      7  C   UNL     1     -33.354  75.169 -26.688  1.00  0.00     0.093 A 
ATOM      8  C   UNL     1     -33.606  76.184 -25.761  1.00  0.00     0.123 A 
ATOM      9  C   UNL     1     -34.916  76.456 -25.374  1.00  0.00     0.094 A 
ATOM     10  C   UNL     1     -35.981  75.744 -25.928  1.00  0.00     0.146 A 
ATOM     11  O   UNL     1     -37.215  76.043 -25.540  1.00  0.00    -0.452 OA
ENDROOT
BRANCH   1  12
ATOM     12  C   UNL     1     -39.618  75.852 -25.481  1.00  0.00     0.025 A 
ATOM     13  C   UNL     1     -39.796  76.141 -24.117  1.00  0.00     0.016 A 
ATOM     14  C   UNL     1     -41.044  76.547 -23.638  1.00  0.00     0.051 A 
ATOM     15  C   UNL     1     -42.129  76.683 -24.515  1.00  0.00     0.157 A 
ATOM     16  C   UNL     1     -40.703  76.010 -26.360  1.00  0.00     0.062 A 
ATOM     17  C   UNL     1     -41.954  76.415 -25.883  1.00  0.00     0.158 A 
BRANCH  15  18
ATOM     18  O   UNL     1     -43.373  77.086 -24.033  1.00  0.00    -0.504 OA
ATOM     19  H   UNL     1     -43.890  76.526 -23.365  1.00  0.00     0.293 HD
ENDBRANCH  15  18
BRANCH  17  20
ATOM     20  O   UNL     1     -43.013  76.548 -26.783  1.00  0.00    -0.504 OA
ATOM     21  H   UNL     1     -43.971  76.652 -26.474  1.00  0.00     0.293 HD
ENDBRANCH  17  20
ENDBRANCH   1  12
BRANCH   2  22
ATOM     22  O   UNL     1     -39.309  73.903 -27.602  1.00  0.00    -0.502 OA
ATOM     23  H   UNL     1     -40.160  74.427 -27.760  1.00  0.00     0.293 HD
ENDBRANCH   2  22
BRANCH   6  24
ATOM     24  O   UNL     1     -34.032  73.360 -28.077  1.00  0.00    -0.507 OA
ATOM     25  H   UNL     1     -34.682  72.762 -28.564  1.00  0.00     0.293 HD
ENDBRANCH   6  24
BRANCH   8  26
ATOM     26  O   UNL     1     -32.560  76.921 -25.211  1.00  0.00    -0.508 OA
ATOM     27  H   UNL     1     -31.627  76.895 -25.607  1.00  0.00     0.293 HD
ENDBRANCH   8  26
TORSDOF 6
ENDMDL
MODEL 2
REMARK VINA RESULT:    -6.332      0.636      1.468
REMARK INTER + INTRA:          -7.423
REMARK INTER:                  -7.464
REMARK INTRA:                   0.042
REMARK UNBOUND:                 0.204
REMARK SMILES O=c1c(O)c(-c2ccc(O)c(O)c2)oc2cc(O)cc(O)c12
REMARK SMILES IDX 5 1 3 2 2 3 1 4 22 5 20 6 19 7 17 8 16 9 15 10 14 11 6 12
REMARK SMILES IDX 7 13 8 14 9 15 13 16 11 17 10 18 12 20 4 22 21 24 18 26
REMARK H PARENT 10 19 12 21 4 23 21 25 18 27
REMARK Flexibility Score: inf
ROOT
ATOM      1  C   UNL     1     -38.213  75.511 -26.118  1.00  0.00     0.180 A 
ATOM      2  C   UNL     1     -38.087  74.482 -27.067  1.00  0.00     0.208 A 
ATOM      3  C   UNL     1     -36.805  74.104 -27.496  1.00  0.00     0.238 A 
ATOM      4  O   UNL     1     -36.702  73.219 -28.385  1.00  0.00    -0.285 OA
ATOM      5  C   UNL     1     -35.664  74.748 -26.958  1.00  0.00     0.111 A 
ATOM      6  C   UNL     1     -34.316  74.418 -27.290  1.00  0.00     0.134 A 
ATOM      7  C   UNL     1     -33.271  75.208 -26.797  1.00  0.00     0.093 A 
ATOM      8  C   UNL     1     -33.521  76.276 -25.931  1.00  0.00     0.123 A 
ATOM      9  C   UNL     1     -34.829  76.568 -25.554  1.00  0.00     0.094 A 
ATOM     10  C   UNL     1     -35.896  75.821 -26.059  1.00  0.00     0.146 A 
ATOM     11  O   UNL     1     -37.128  76.140 -25.682  1.00  0.00    -0.452 OA
ENDROOT
BRANCH   1  12
ATOM     12  C   UNL     1     -39.530  75.947 -25.599  1.00  0.00     0.025 A 
ATOM     13  C   UNL     1     -40.603  76.227 -26.464  1.00  0.00     0.016 A 
ATOM     14  C   UNL     1     -41.843  76.614 -25.949  1.00  0.00     0.051 A 
ATOM     15  C   UNL     1     -42.034  76.715 -24.565  1.00  0.00     0.157 A 
ATOM     16  C   UNL     1     -39.733  76.029 -24.211  1.00  0.00     0.062 A 
ATOM     17  C   UNL     1     -40.973  76.418 -23.693  1.00  0.00     0.158 A 
BRANCH  15  18
ATOM     18  O   UNL     1     -43.272  77.102 -24.055  1.00  0.00    -0.504 OA
ATOM     19  H   UNL     1     -43.346  77.682 -23.226  1.00  0.00     0.293 HD
ENDBRANCH  15  18
BRANCH  17  20
ATOM     20  O   UNL     1     -41.133  76.501 -22.309  1.00  0.00    -0.504 OA
ATOM     21  H   UNL     1     -41.854  75.987 -21.819  1.00  0.00     0.293 HD
ENDBRANCH  17  20
ENDBRANCH   1  12
BRANCH   2  22
ATOM     22  O   UNL     1     -39.228  73.875 -27.601  1.00  0.00    -0.502 OA
ATOM     23  H   UNL     1     -39.803  74.321 -28.304  1.00  0.00     0.293 HD
ENDBRANCH   2  22
BRANCH   6  24
ATOM     24  O   UNL     1     -33.952  73.317 -28.071  1.00  0.00    -0.507 OA
ATOM     25  H   UNL     1     -33.400  72.538 -27.746  1.00  0.00     0.293 HD
ENDBRANCH   6  24
BRANCH   8  26
ATOM     26  O   UNL     1     -32.473  77.047 -25.432  1.00  0.00    -0.508 OA
ATOM     27  H   UNL     1     -32.641  77.829 -24.810  1.00  0.00     0.293 HD
ENDBRANCH   8  26
TORSDOF 6
ENDMDL
MODEL 3
REMARK VINA RESULT:    -6.044      1.395      6.786
REMARK INTER + INTRA:          -7.077
REMARK INTER:                  -7.483
REMARK INTRA:                   0.407
REMARK UNBOUND:                 0.204
REMARK SMILES O=c1c(O)c(-c2ccc(O)c(O)c2)oc2cc(O)cc(O)c12
REMARK SMILES IDX 5 1 3 2 2 3 1 4 22 5 20 6 19 7 17 8 16 9 15 10 14 11 6 12
REMARK SMILES IDX 7 13 8 14 9 15 13 16 11 17 10 18 12 20 4 22 21 24 18 26
REMARK H PARENT 10 19 12 21 4 23 21 25 18 27
REMARK Flexibility Score: inf
ROOT
ATOM      1  C   UNL     1     -37.328  75.796 -26.211  1.00  0.00     0.180 A 
ATOM      2  C   UNL     1     -38.268  75.324 -27.143  1.00  0.00     0.208 A 
ATOM      3  C   UNL     1     -39.631  75.346 -26.806  1.00  0.00     0.238 A 
ATOM      4  O   UNL     1     -40.463  74.873 -27.623  1.00  0.00    -0.285 OA
ATOM      5  C   UNL     1     -40.038  75.856 -25.549  1.00  0.00     0.111 A 
ATOM      6  C   UNL     1     -41.395  75.964 -25.119  1.00  0.00     0.134 A 
ATOM      7  C   UNL     1     -41.673  76.360 -23.806  1.00  0.00     0.093 A 
ATOM      8  C   UNL     1     -40.647  76.716 -22.928  1.00  0.00     0.123 A 
ATOM      9  C   UNL     1     -39.323  76.671 -23.358  1.00  0.00     0.094 A 
ATOM     10  C   UNL     1     -39.011  76.244 -24.651  1.00  0.00     0.146 A 
ATOM     11  O   UNL     1     -37.736  76.206 -25.016  1.00  0.00    -0.452 OA
ENDROOT
BRANCH   1  12
ATOM     12  C   UNL     1     -35.877  75.827 -26.504  1.00  0.00     0.025 A 
ATOM     13  C   UNL     1     -35.389  75.660 -27.812  1.00  0.00     0.016 A 
ATOM     14  C   UNL     1     -34.016  75.717 -28.066  1.00  0.00     0.051 A 
ATOM     15  C   UNL     1     -33.112  75.956 -27.023  1.00  0.00     0.157 A 
ATOM     16  C   UNL     1     -34.968  76.087 -25.464  1.00  0.00     0.062 A 
ATOM     17  C   UNL     1     -33.592  76.144 -25.716  1.00  0.00     0.158 A 
BRANCH  15  18
ATOM     18  O   UNL     1     -31.744  76.011 -27.280  1.00  0.00    -0.504 OA
ATOM     19  H   UNL     1     -31.357  75.704 -28.165  1.00  0.00     0.293 HD
ENDBRANCH  15  18
BRANCH  17  20
ATOM     20  O   UNL     1     -32.719  76.390 -24.656  1.00  0.00    -0.504 OA
ATOM     21  H   UNL     1     -31.734  76.574 -24.802  1.00  0.00     0.293 HD
ENDBRANCH  17  20
ENDBRANCH   1  12
BRANCH   2  22
ATOM     22  O   UNL     1     -37.843  74.805 -28.369  1.00  0.00    -0.502 OA
ATOM     23  H   UNL     1     -36.865  74.698 -28.605  1.00  0.00     0.293 HD
ENDBRANCH   2  22
BRANCH   6  24
ATOM     24  O   UNL     1     -42.497  75.721 -25.946  1.00  0.00    -0.507 OA
ATOM     25  H   UNL     1     -42.445  75.318 -26.869  1.00  0.00     0.293 HD
ENDBRANCH   6  24
BRANCH   8  26
ATOM     26  O   UNL     1     -40.933  77.125 -21.627  1.00  0.00    -0.508 OA
ATOM     27  H   UNL     1     -41.231  76.466 -20.918  1.00  0.00     0.293 HD
ENDBRANCH   8  26
TORSDOF 6
ENDMDL
MODEL 4
REMARK VINA RESULT:    -5.603      1.541      6.929
REMARK INTER + INTRA:          -6.545
REMARK INTER:                  -6.293
REMARK INTRA:                  -0.252
REMARK UNBOUND:                 0.204
REMARK SMILES O=c1c(O)c(-c2ccc(O)c(O)c2)oc2cc(O)cc(O)c12
REMARK SMILES IDX 5 1 3 2 2 3 1 4 22 5 20 6 19 7 17 8 16 9 15 10 14 11 6 12
REMARK SMILES IDX 7 13 8 14 9 15 13 16 11 17 10 18 12 20 4 22 21 24 18 26
REMARK H PARENT 10 19 12 21 4 23 21 25 18 27
REMARK Flexibility Score: inf
ROOT
ATOM      1  C   UNL     1     -39.222  75.766 -25.614  1.00  0.00     0.180 A 
ATOM      2  C   UNL     1     -40.389  75.722 -26.396  1.00  0.00     0.208 A 
ATOM      3  C   UNL     1     -41.627  75.985 -25.788  1.00  0.00     0.238 A 
ATOM      4  O   UNL     1     -42.673  75.891 -26.481  1.00  0.00    -0.285 OA
ATOM      5  C   UNL     1     -41.680  76.305 -24.409  1.00  0.00     0.111 A 
ATOM      6  C   UNL     1     -42.875  76.628 -23.698  1.00  0.00     0.134 A 
ATOM      7  C   UNL     1     -42.827  76.800 -22.310  1.00  0.00     0.093 A 
ATOM      8  C   UNL     1     -41.617  76.724 -21.616  1.00  0.00     0.123 A 
ATOM      9  C   UNL     1     -40.436  76.468 -22.310  1.00  0.00     0.094 A 
ATOM     10  C   UNL     1     -40.458  76.256 -23.690  1.00  0.00     0.146 A 
ATOM     11  O   UNL     1     -39.312  76.004 -24.311  1.00  0.00    -0.452 OA
ENDROOT
BRANCH   1  12
ATOM     12  C   UNL     1     -37.879  75.525 -26.189  1.00  0.00     0.025 A 
ATOM     13  C   UNL     1     -36.963  76.575 -26.379  1.00  0.00     0.016 A 
ATOM     14  C   UNL     1     -35.693  76.320 -26.902  1.00  0.00     0.051 A 
ATOM     15  C   UNL     1     -35.313  75.012 -27.230  1.00  0.00     0.157 A 
ATOM     16  C   UNL     1     -37.485  74.212 -26.501  1.00  0.00     0.062 A 
ATOM     17  C   UNL     1     -36.214  73.954 -27.025  1.00  0.00     0.158 A 
BRANCH  15  18
ATOM     18  O   UNL     1     -34.046  74.761 -27.753  1.00  0.00    -0.504 OA
ATOM     19  H   UNL     1     -33.238  74.639 -27.152  1.00  0.00     0.293 HD
ENDBRANCH  15  18
BRANCH  17  20
ATOM     20  O   UNL     1     -35.863  72.639 -27.336  1.00  0.00    -0.504 OA
ATOM     21  H   UNL     1     -35.392  72.398 -28.198  1.00  0.00     0.293 HD
ENDBRANCH  17  20
ENDBRANCH   1  12
BRANCH   2  22
ATOM     22  O   UNL     1     -40.316  75.383 -27.750  1.00  0.00    -0.502 OA
ATOM     23  H   UNL     1     -40.539  74.456 -28.091  1.00  0.00     0.293 HD
ENDBRANCH   2  22
BRANCH   6  24
ATOM     24  O   UNL     1     -44.118  76.818 -24.308  1.00  0.00    -0.507 OA
ATOM     25  H   UNL     1     -44.950  77.134 -23.833  1.00  0.00     0.293 HD
ENDBRANCH   6  24
BRANCH   8  26
ATOM     26  O   UNL     1     -41.575  76.912 -20.236  1.00  0.00    -0.508 OA
ATOM     27  H   UNL     1     -41.737  77.822 -19.820  1.00  0.00     0.293 HD
ENDBRANCH   8  26
TORSDOF 6
ENDMDL
MODEL 5
REMARK VINA RESULT:    -5.245      3.919      6.477
REMARK INTER + INTRA:          -6.114
REMARK INTER:                  -5.846
REMARK INTRA:                  -0.268
REMARK UNBOUND:                 0.204
REMARK SMILES O=c1c(O)c(-c2ccc(O)c(O)c2)oc2cc(O)cc(O)c12
REMARK SMILES IDX 5 1 3 2 2 3 1 4 22 5 20 6 19 7 17 8 16 9 15 10 14 11 6 12
REMARK SMILES IDX 7 13 8 14 9 15 13 16 11 17 10 18 12 20 4 22 21 24 18 26
REMARK H PARENT 10 19 12 21 4 23 21 25 18 27
REMARK Flexibility Score: inf
ROOT
ATOM      1  C   UNL     1     -39.623  76.115 -21.978  1.00  0.00     0.180 A 
ATOM      2  C   UNL     1     -40.984  75.952 -22.286  1.00  0.00     0.208 A 
ATOM      3  C   UNL     1     -41.390  75.996 -23.629  1.00  0.00     0.238 A 
ATOM      4  O   UNL     1     -42.616  75.904 -23.894  1.00  0.00    -0.285 OA
ATOM      5  C   UNL     1     -40.426  76.184 -24.650  1.00  0.00     0.111 A 
ATOM      6  C   UNL     1     -40.718  76.205 -26.047  1.00  0.00     0.134 A 
ATOM      7  C   UNL     1     -39.707  76.529 -26.959  1.00  0.00     0.093 A 
ATOM      8  C   UNL     1     -38.400  76.770 -26.530  1.00  0.00     0.123 A 
ATOM      9  C   UNL     1     -38.092  76.693 -25.174  1.00  0.00     0.094 A 
ATOM     10  C   UNL     1     -39.087  76.407 -24.236  1.00  0.00     0.146 A 
ATOM     11  O   UNL     1     -38.753  76.355 -22.952  1.00  0.00    -0.452 OA
ENDROOT
BRANCH   1  12
ATOM     12  C   UNL     1     -39.117  76.055 -20.588  1.00  0.00     0.025 A 
ATOM     13  C   UNL     1     -39.300  77.125 -19.695  1.00  0.00     0.016 A 
ATOM     14  C   UNL     1     -38.834  77.036 -18.380  1.00  0.00     0.051 A 
ATOM     15  C   UNL     1     -38.191  75.874 -17.935  1.00  0.00     0.157 A 
ATOM     16  C   UNL     1     -38.489  74.884 -20.131  1.00  0.00     0.062 A 
ATOM     17  C   UNL     1     -38.021  74.792 -18.815  1.00  0.00     0.158 A 
BRANCH  15  18
ATOM     18  O   UNL     1     -37.726  75.789 -16.624  1.00  0.00    -0.504 OA
ATOM     19  H   UNL     1     -38.335  75.514 -15.862  1.00  0.00     0.293 HD
ENDBRANCH  15  18
BRANCH  17  20
ATOM     20  O   UNL     1     -37.391  73.618 -18.400  1.00  0.00    -0.504 OA
ATOM     21  H   UNL     1     -37.245  73.403 -17.422  1.00  0.00     0.293 HD
ENDBRANCH  17  20
ENDBRANCH   1  12
BRANCH   2  22
ATOM     22  O   UNL     1     -41.922  75.789 -21.262  1.00  0.00    -0.502 OA
ATOM     23  H   UNL     1     -42.798  75.301 -21.399  1.00  0.00     0.293 HD
ENDBRANCH   2  22
BRANCH   6  24
ATOM     24  O   UNL     1     -41.969  75.889 -26.587  1.00  0.00    -0.507 OA
ATOM     25  H   UNL     1     -42.443  75.007 -26.461  1.00  0.00     0.293 HD
ENDBRANCH   6  24
BRANCH   8  26
ATOM     26  O   UNL     1     -37.396  77.076 -27.446  1.00  0.00    -0.508 OA
ATOM     27  H   UNL     1     -37.407  77.940 -27.975  1.00  0.00     0.293 HD
ENDBRANCH   8  26
TORSDOF 6
ENDMDL
MODEL 6
REMARK VINA RESULT:    -4.995      2.606      6.855
REMARK INTER + INTRA:          -5.813
REMARK INTER:                  -5.748
REMARK INTRA:                  -0.065
REMARK UNBOUND:                 0.204
REMARK SMILES O=c1c(O)c(-c2ccc(O)c(O)c2)oc2cc(O)cc(O)c12
REMARK SMILES IDX 5 1 3 2 2 3 1 4 22 5 20 6 19 7 17 8 16 9 15 10 14 11 6 12
REMARK SMILES IDX 7 13 8 14 9 15 13 16 11 17 10 18 12 20 4 22 21 24 18 26
REMARK H PARENT 10 19 12 21 4 23 21 25 18 27
REMARK Flexibility Score: inf
ROOT
ATOM      1  C   UNL     1     -39.118  76.248 -24.326  1.00  0.00     0.180 A 
ATOM      2  C   UNL     1     -40.501  76.265 -24.576  1.00  0.00     0.208 A 
ATOM      3  C   UNL     1     -41.385  76.445 -23.501  1.00  0.00     0.238 A 
ATOM      4  O   UNL     1     -42.623  76.406 -23.724  1.00  0.00    -0.285 OA
ATOM      5  C   UNL     1     -40.876  76.624 -22.192  1.00  0.00     0.111 A 
ATOM      6  C   UNL     1     -41.678  76.855 -21.034  1.00  0.00     0.134 A 
ATOM      7  C   UNL     1     -41.075  76.886 -19.772  1.00  0.00     0.093 A 
ATOM      8  C   UNL     1     -39.691  76.760 -19.631  1.00  0.00     0.123 A 
ATOM      9  C   UNL     1     -38.893  76.594 -20.760  1.00  0.00     0.094 A 
ATOM     10  C   UNL     1     -39.469  76.522 -22.030  1.00  0.00     0.146 A 
ATOM     11  O   UNL     1     -38.674  76.352 -23.079  1.00  0.00    -0.452 OA
ENDROOT
BRANCH   1  12
ATOM     12  C   UNL     1     -38.123  76.087 -25.412  1.00  0.00     0.025 A 
ATOM     13  C   UNL     1     -37.110  77.039 -25.624  1.00  0.00     0.016 A 
ATOM     14  C   UNL     1     -36.169  76.854 -26.640  1.00  0.00     0.051 A 
ATOM     15  C   UNL     1     -36.216  75.711 -27.449  1.00  0.00     0.157 A 
ATOM     16  C   UNL     1     -38.154  74.933 -26.212  1.00  0.00     0.062 A 
ATOM     17  C   UNL     1     -37.212  74.746 -27.231  1.00  0.00     0.158 A 
BRANCH  15  18
ATOM     18  O   UNL     1     -35.276  75.531 -28.462  1.00  0.00    -0.504 OA
ATOM     19  H   UNL     1     -34.289  75.427 -28.257  1.00  0.00     0.293 HD
ENDBRANCH  15  18
BRANCH  17  20
ATOM     20  O   UNL     1     -37.283  73.593 -28.015  1.00  0.00    -0.504 OA
ATOM     21  H   UNL     1     -36.748  72.761 -27.797  1.00  0.00     0.293 HD
ENDBRANCH  17  20
ENDBRANCH   1  12
BRANCH   2  22
ATOM     22  O   UNL     1     -40.983  76.065 -25.873  1.00  0.00    -0.502 OA
ATOM     23  H   UNL     1     -41.868  76.444 -26.189  1.00  0.00     0.293 HD
ENDBRANCH   2  22
BRANCH   6  24
ATOM     24  O   UNL     1     -43.056  77.086 -21.074  1.00  0.00    -0.507 OA
ATOM     25  H   UNL     1     -43.572  77.349 -21.901  1.00  0.00     0.293 HD
ENDBRANCH   6  24
BRANCH   8  26
ATOM     26  O   UNL     1     -39.097  76.808 -18.372  1.00  0.00    -0.508 OA
ATOM     27  H   UNL     1     -38.203  77.262 -18.225  1.00  0.00     0.293 HD
ENDBRANCH   8  26
TORSDOF 6
ENDMDL
MODEL 7
REMARK VINA RESULT:    -4.170      7.403     10.047
REMARK INTER + INTRA:          -4.819
REMARK INTER:                  -4.748
REMARK INTRA:                  -0.071
REMARK UNBOUND:                 0.204
REMARK SMILES O=c1c(O)c(-c2ccc(O)c(O)c2)oc2cc(O)cc(O)c12
REMARK SMILES IDX 5 1 3 2 2 3 1 4 22 5 20 6 19 7 17 8 16 9 15 10 14 11 6 12
REMARK SMILES IDX 7 13 8 14 9 15 13 16 11 17 10 18 12 20 4 22 21 24 18 26
REMARK H PARENT 10 19 12 21 4 23 21 25 18 27
REMARK Flexibility Score: inf
ROOT
ATOM      1  C   UNL     1     -36.877  72.719 -18.946  1.00  0.00     0.180 A 
ATOM      2  C   UNL     1     -36.631  73.745 -18.019  1.00  0.00     0.208 A 
ATOM      3  C   UNL     1     -37.442  74.890 -18.038  1.00  0.00     0.238 A 
ATOM      4  O   UNL     1     -37.183  75.829 -17.240  1.00  0.00    -0.285 OA
ATOM      5  C   UNL     1     -38.502  74.987 -18.972  1.00  0.00     0.111 A 
ATOM      6  C   UNL     1     -39.413  76.083 -19.054  1.00  0.00     0.134 A 
ATOM      7  C   UNL     1     -40.340  76.134 -20.102  1.00  0.00     0.093 A 
ATOM      8  C   UNL     1     -40.432  75.096 -21.032  1.00  0.00     0.123 A 
ATOM      9  C   UNL     1     -39.588  73.993 -20.925  1.00  0.00     0.094 A 
ATOM     10  C   UNL     1     -38.628  73.932 -19.912  1.00  0.00     0.146 A 
ATOM     11  O   UNL     1     -37.836  72.868 -19.853  1.00  0.00    -0.452 OA
ENDROOT
BRANCH   1  12
ATOM     12  C   UNL     1     -36.080  71.471 -18.971  1.00  0.00     0.025 A 
ATOM     13  C   UNL     1     -34.683  71.497 -19.126  1.00  0.00     0.016 A 
ATOM     14  C   UNL     1     -33.950  70.307 -19.123  1.00  0.00     0.051 A 
ATOM     15  C   UNL     1     -34.598  69.077 -18.951  1.00  0.00     0.157 A 
ATOM     16  C   UNL     1     -36.723  70.236 -18.778  1.00  0.00     0.062 A 
ATOM     17  C   UNL     1     -35.991  69.044 -18.775  1.00  0.00     0.158 A 
BRANCH  15  18
ATOM     18  O   UNL     1     -33.864  67.892 -18.949  1.00  0.00    -0.504 OA
ATOM     19  H   UNL     1     -34.256  67.024 -19.295  1.00  0.00     0.293 HD
ENDBRANCH  15  18
BRANCH  17  20
ATOM     20  O   UNL     1     -36.666  67.835 -18.595  1.00  0.00    -0.504 OA
ATOM     21  H   UNL     1     -36.952  67.257 -19.375  1.00  0.00     0.293 HD
ENDBRANCH  17  20
ENDBRANCH   1  12
BRANCH   2  22
ATOM     22  O   UNL     1     -35.566  73.639 -17.119  1.00  0.00    -0.502 OA
ATOM     23  H   UNL     1     -35.313  72.764 -16.676  1.00  0.00     0.293 HD
ENDBRANCH   2  22
BRANCH   6  24
ATOM     24  O   UNL     1     -39.465  77.125 -18.123  1.00  0.00    -0.507 OA
ATOM     25  H   UNL     1     -38.868  77.203 -17.314  1.00  0.00     0.293 HD
ENDBRANCH   6  24
BRANCH   8  26
ATOM     26  O   UNL     1     -41.369  75.146 -22.063  1.00  0.00    -0.508 OA
ATOM     27  H   UNL     1     -41.093  75.056 -23.034  1.00  0.00     0.293 HD
ENDBRANCH   8  26
TORSDOF 6
ENDMDL
