MODEL 1
REMARK VINA RESULT:     1.326      0.000      0.000
REMARK INTER + INTRA:           2.408
REMARK INTER:                   2.256
REMARK INTRA:                   0.151
REMARK UNBOUND:                 0.151
REMARK SMILES CCCCCCCCCCCCCC(=O)[O-]
REMARK SMILES IDX 8 1 9 2 10 3 11 4 12 5 13 6 14 7 15 8 16 9 7 10 6 11 5 12
REMARK SMILES IDX 4 13 3 14 2 15 1 16
REMARK H PARENT
REMARK Flexibility Score: inf
ROOT
ATOM      1  C   UNL     1     -28.899   8.115  -2.782  1.00  0.00     0.000 C 
ENDROOT
BRANCH   1   2
ATOM      2  C   UNL     1     -29.761   6.848  -2.614  1.00  0.00     0.000 C 
BRANCH   2   3
ATOM      3  C   UNL     1     -30.126   6.488  -1.159  1.00  0.00     0.000 C 
BRANCH   3   4
ATOM      4  C   UNL     1     -29.340   7.260  -0.084  1.00  0.00     0.000 C 
BRANCH   4   5
ATOM      5  C   UNL     1     -30.150   7.481   1.202  1.00  0.00     0.006 C 
BRANCH   5   6
ATOM      6  C   UNL     1     -31.585   6.975   1.039  1.00  0.00     0.053 C 
BRANCH   6   7
ATOM      7  C   UNL     1     -32.492   8.092   0.629  1.00  0.00     0.041 C 
ATOM      8  O   UNL     1     -32.779   8.263  -0.584  1.00  0.00    -0.550 OA
ATOM      9  O   UNL     1     -32.981   8.975   1.583  1.00  0.00    -0.550 OA
ENDBRANCH   6   7
ENDBRANCH   5   6
ENDBRANCH   4   5
ENDBRANCH   3   4
ENDBRANCH   2   3
ENDBRANCH   1   2
BRANCH   1  10
ATOM     10  C   UNL     1     -27.394   7.858  -2.982  1.00  0.00     0.000 C 
BRANCH  10  11
ATOM     11  C   UNL     1     -26.974   7.903  -4.461  1.00  0.00    -0.000 C 
BRANCH  11  12
ATOM     12  C   UNL     1     -27.930   8.754  -5.313  1.00  0.00    -0.000 C 
BRANCH  12  13
ATOM     13  C   UNL     1     -27.538   8.770  -6.801  1.00  0.00    -0.000 C 
BRANCH  13  14
ATOM     14  C   UNL     1     -26.365   7.814  -7.104  1.00  0.00    -0.000 C 
BRANCH  14  15
ATOM     15  C   UNL     1     -24.993   8.511  -7.123  1.00  0.00    -0.003 C 
ATOM     16  C   UNL     1     -24.875   9.630  -6.091  1.00  0.00     0.004 C 
ENDBRANCH  14  15
ENDBRANCH  13  14
ENDBRANCH  12  13
ENDBRANCH  11  12
ENDBRANCH  10  11
ENDBRANCH   1  10
TORSDOF 12
ENDMDL
MODEL 2
REMARK VINA RESULT:     1.667      3.637      8.011
REMARK INTER + INTRA:           2.988
REMARK INTER:                   2.979
REMARK INTRA:                   0.009
REMARK UNBOUND:                 0.151
REMARK SMILES CCCCCCCCCCCCCC(=O)[O-]
REMARK SMILES IDX 8 1 9 2 10 3 11 4 12 5 13 6 14 7 15 8 16 9 7 10 6 11 5 12
REMARK SMILES IDX 4 13 3 14 2 15 1 16
REMARK H PARENT
REMARK Flexibility Score: inf
ROOT
ATOM      1  C   UNL     1     -28.594   7.763  -0.520  1.00  0.00     0.000 C 
ENDROOT
BRANCH   1   2
ATOM      2  C   UNL     1     -27.267   8.171  -1.190  1.00  0.00     0.000 C 
BRANCH   2   3
ATOM      3  C   UNL     1     -27.199   7.935  -2.713  1.00  0.00     0.000 C 
BRANCH   3   4
ATOM      4  C   UNL     1     -28.337   8.586  -3.521  1.00  0.00     0.000 C 
BRANCH   4   5
ATOM      5  C   UNL     1     -28.078   8.571  -5.034  1.00  0.00     0.006 C 
BRANCH   5   6
ATOM      6  C   UNL     1     -26.715   7.948  -5.350  1.00  0.00     0.053 C 
BRANCH   6   7
ATOM      7  C   UNL     1     -26.096   8.615  -6.537  1.00  0.00     0.041 C 
ATOM      8  O   UNL     1     -26.698   9.552  -7.123  1.00  0.00    -0.550 OA
ATOM      9  O   UNL     1     -24.875   8.168  -7.027  1.00  0.00    -0.550 OA
ENDBRANCH   6   7
ENDBRANCH   5   6
ENDBRANCH   4   5
ENDBRANCH   3   4
ENDBRANCH   2   3
ENDBRANCH   1   2
BRANCH   1  10
ATOM     10  C   UNL     1     -29.652   7.179  -1.474  1.00  0.00     0.000 C 
BRANCH  10  11
ATOM     11  C   UNL     1     -30.827   6.521  -0.730  1.00  0.00    -0.000 C 
BRANCH  11  12
ATOM     12  C   UNL     1     -30.674   6.613   0.797  1.00  0.00    -0.000 C 
BRANCH  12  13
ATOM     13  C   UNL     1     -31.689   7.579   1.434  1.00  0.00    -0.000 C 
BRANCH  13  14
ATOM     14  C   UNL     1     -32.526   8.325   0.374  1.00  0.00    -0.000 C 
BRANCH  14  15
ATOM     15  C   UNL     1     -33.634   9.207   0.974  1.00  0.00    -0.003 C 
ATOM     16  C   UNL     1     -33.608   9.246   2.501  1.00  0.00     0.004 C 
ENDBRANCH  14  15
ENDBRANCH  13  14
ENDBRANCH  12  13
ENDBRANCH  11  12
ENDBRANCH  10  11
ENDBRANCH   1  10
TORSDOF 12
ENDMDL
MODEL 3
REMARK VINA RESULT:     2.579      3.666      7.569
REMARK INTER + INTRA:           4.540
REMARK INTER:                   4.552
REMARK INTRA:                  -0.012
REMARK UNBOUND:                 0.151
REMARK SMILES CCCCCCCCCCCCCC(=O)[O-]
REMARK SMILES IDX 8 1 9 2 10 3 11 4 12 5 13 6 14 7 15 8 16 9 7 10 6 11 5 12
REMARK SMILES IDX 4 13 3 14 2 15 1 16
REMARK H PARENT
REMARK Flexibility Score: inf
ROOT
ATOM      1  C   UNL     1     -27.614   8.196  -0.361  1.00  0.00     0.000 C 
ENDROOT
BRANCH   1   2
ATOM      2  C   UNL     1     -27.193   7.917  -1.817  1.00  0.00     0.000 C 
BRANCH   2   3
ATOM      3  C   UNL     1     -28.336   7.961  -2.852  1.00  0.00     0.000 C 
BRANCH   3   4
ATOM      4  C   UNL     1     -27.935   8.494  -4.239  1.00  0.00     0.000 C 
BRANCH   4   5
ATOM      5  C   UNL     1     -26.980   7.552  -4.986  1.00  0.00     0.006 C 
BRANCH   5   6
ATOM      6  C   UNL     1     -27.044   7.794  -6.497  1.00  0.00     0.053 C 
BRANCH   6   7
ATOM      7  C   UNL     1     -26.093   8.879  -6.895  1.00  0.00     0.041 C 
ATOM      8  O   UNL     1     -24.877   8.618  -7.083  1.00  0.00    -0.550 OA
ATOM      9  O   UNL     1     -26.542  10.188  -7.009  1.00  0.00    -0.550 OA
ENDBRANCH   6   7
ENDBRANCH   5   6
ENDBRANCH   4   5
ENDBRANCH   3   4
ENDBRANCH   2   3
ENDBRANCH   1   2
BRANCH   1  10
ATOM     10  C   UNL     1     -28.739   7.292   0.176  1.00  0.00     0.000 C 
BRANCH  10  11
ATOM     11  C   UNL     1     -29.016   7.512   1.673  1.00  0.00    -0.000 C 
BRANCH  11  12
ATOM     12  C   UNL     1     -30.464   7.165   2.055  1.00  0.00    -0.000 C 
BRANCH  12  13
ATOM     13  C   UNL     1     -31.271   6.609   0.868  1.00  0.00    -0.000 C 
BRANCH  13  14
ATOM     14  C   UNL     1     -32.067   7.713   0.140  1.00  0.00    -0.000 C 
BRANCH  14  15
ATOM     15  C   UNL     1     -31.985   7.620  -1.393  1.00  0.00    -0.003 C 
ATOM     16  C   UNL     1     -30.920   6.639  -1.878  1.00  0.00     0.004 C 
ENDBRANCH  14  15
ENDBRANCH  13  14
ENDBRANCH  12  13
ENDBRANCH  11  12
ENDBRANCH  10  11
ENDBRANCH   1  10
TORSDOF 12
ENDMDL
MODEL 4
REMARK VINA RESULT:     3.009      3.877      7.841
REMARK INTER + INTRA:           5.271
REMARK INTER:                   5.257
REMARK INTRA:                   0.014
REMARK UNBOUND:                 0.151
REMARK SMILES CCCCCCCCCCCCCC(=O)[O-]
REMARK SMILES IDX 8 1 9 2 10 3 11 4 12 5 13 6 14 7 15 8 16 9 7 10 6 11 5 12
REMARK SMILES IDX 4 13 3 14 2 15 1 16
REMARK H PARENT
REMARK Flexibility Score: inf
ROOT
ATOM      1  C   UNL     1     -28.644   7.733  -1.416  1.00  0.00     0.000 C 
ENDROOT
BRANCH   1   2
ATOM      2  C   UNL     1     -27.271   7.595  -2.106  1.00  0.00     0.000 C 
BRANCH   2   3
ATOM      3  C   UNL     1     -27.034   8.549  -3.295  1.00  0.00     0.000 C 
BRANCH   3   4
ATOM      4  C   UNL     1     -27.166   7.898  -4.684  1.00  0.00     0.000 C 
BRANCH   4   5
ATOM      5  C   UNL     1     -27.751   8.852  -5.735  1.00  0.00     0.006 C 
BRANCH   5   6
ATOM      6  C   UNL     1     -27.008   8.719  -7.068  1.00  0.00     0.053 C 
BRANCH   6   7
ATOM      7  C   UNL     1     -25.535   8.603  -6.837  1.00  0.00     0.041 C 
ATOM      8  O   UNL     1     -24.875   9.597  -6.436  1.00  0.00    -0.550 OA
ATOM      9  O   UNL     1     -24.880   7.409  -7.113  1.00  0.00    -0.550 OA
ENDBRANCH   6   7
ENDBRANCH   5   6
ENDBRANCH   4   5
ENDBRANCH   3   4
ENDBRANCH   2   3
ENDBRANCH   1   2
BRANCH   1  10
ATOM     10  C   UNL     1     -29.825   7.115  -2.187  1.00  0.00     0.000 C 
BRANCH  10  11
ATOM     11  C   UNL     1     -30.917   6.559  -1.257  1.00  0.00    -0.000 C 
BRANCH  11  12
ATOM     12  C   UNL     1     -32.005   7.600  -0.949  1.00  0.00    -0.000 C 
BRANCH  12  13
ATOM     13  C   UNL     1     -32.131   7.895   0.556  1.00  0.00    -0.000 C 
BRANCH  13  14
ATOM     14  C   UNL     1     -31.400   6.844   1.417  1.00  0.00    -0.000 C 
BRANCH  14  15
ATOM     15  C   UNL     1     -30.195   7.411   2.187  1.00  0.00    -0.003 C 
ATOM     16  C   UNL     1     -28.922   7.475   1.347  1.00  0.00     0.004 C 
ENDBRANCH  14  15
ENDBRANCH  13  14
ENDBRANCH  12  13
ENDBRANCH  11  12
ENDBRANCH  10  11
ENDBRANCH   1  10
TORSDOF 12
ENDMDL
MODEL 5
REMARK VINA RESULT:     3.116      3.749      7.742
REMARK INTER + INTRA:           5.453
REMARK INTER:                   5.944
REMARK INTRA:                  -0.491
REMARK UNBOUND:                 0.151
REMARK SMILES CCCCCCCCCCCCCC(=O)[O-]
REMARK SMILES IDX 8 1 9 2 10 3 11 4 12 5 13 6 14 7 15 8 16 9 7 10 6 11 5 12
REMARK SMILES IDX 4 13 3 14 2 15 1 16
REMARK H PARENT
REMARK Flexibility Score: inf
ROOT
ATOM      1  C   UNL     1     -29.382   7.064  -1.488  1.00  0.00     0.000 C 
ENDROOT
BRANCH   1   2
ATOM      2  C   UNL     1     -28.882   7.750  -2.776  1.00  0.00     0.000 C 
BRANCH   2   3
ATOM      3  C   UNL     1     -27.350   7.883  -2.898  1.00  0.00     0.000 C 
BRANCH   3   4
ATOM      4  C   UNL     1     -26.815   7.909  -4.341  1.00  0.00     0.000 C 
BRANCH   4   5
ATOM      5  C   UNL     1     -27.742   8.662  -5.307  1.00  0.00     0.006 C 
BRANCH   5   6
ATOM      6  C   UNL     1     -27.133   8.728  -6.710  1.00  0.00     0.053 C 
BRANCH   6   7
ATOM      7  C   UNL     1     -25.642   8.631  -6.640  1.00  0.00     0.041 C 
ATOM      8  O   UNL     1     -25.048   7.633  -7.125  1.00  0.00    -0.550 OA
ATOM      9  O   UNL     1     -24.911   9.619  -5.993  1.00  0.00    -0.550 OA
ENDBRANCH   6   7
ENDBRANCH   5   6
ENDBRANCH   4   5
ENDBRANCH   3   4
ENDBRANCH   2   3
ENDBRANCH   1   2
BRANCH   1  10
ATOM     10  C   UNL     1     -28.669   7.506  -0.197  1.00  0.00     0.000 C 
BRANCH  10  11
ATOM     11  C   UNL     1     -29.580   7.433   1.041  1.00  0.00    -0.000 C 
BRANCH  11  12
ATOM     12  C   UNL     1     -30.901   6.703   0.750  1.00  0.00    -0.000 C 
BRANCH  12  13
ATOM     13  C   UNL     1     -32.135   7.561   1.081  1.00  0.00    -0.000 C 
BRANCH  13  14
ATOM     14  C   UNL     1     -32.486   8.538  -0.060  1.00  0.00    -0.000 C 
BRANCH  14  15
ATOM     15  C   UNL     1     -32.694   7.848  -1.419  1.00  0.00    -0.003 C 
ATOM     16  C   UNL     1     -33.857   8.433  -2.216  1.00  0.00     0.004 C 
ENDBRANCH  14  15
ENDBRANCH  13  14
ENDBRANCH  12  13
ENDBRANCH  11  12
ENDBRANCH  10  11
ENDBRANCH   1  10
TORSDOF 12
ENDMDL
MODEL 6
REMARK VINA RESULT:     3.210      1.545      2.057
REMARK INTER + INTRA:           5.613
REMARK INTER:                   4.471
REMARK INTRA:                   1.142
REMARK UNBOUND:                 0.151
REMARK SMILES CCCCCCCCCCCCCC(=O)[O-]
REMARK SMILES IDX 8 1 9 2 10 3 11 4 12 5 13 6 14 7 15 8 16 9 7 10 6 11 5 12
REMARK SMILES IDX 4 13 3 14 2 15 1 16
REMARK H PARENT
REMARK Flexibility Score: inf
ROOT
ATOM      1  C   UNL     1     -28.833   7.802  -2.796  1.00  0.00     0.000 C 
ENDROOT
BRANCH   1   2
ATOM      2  C   UNL     1     -29.156   6.998  -1.521  1.00  0.00     0.000 C 
BRANCH   2   3
ATOM      3  C   UNL     1     -30.565   6.372  -1.477  1.00  0.00     0.000 C 
BRANCH   3   4
ATOM      4  C   UNL     1     -31.722   7.385  -1.408  1.00  0.00     0.000 C 
BRANCH   4   5
ATOM      5  C   UNL     1     -31.975   7.905   0.015  1.00  0.00     0.006 C 
BRANCH   5   6
ATOM      6  C   UNL     1     -31.611   6.844   1.057  1.00  0.00     0.053 C 
BRANCH   6   7
ATOM      7  C   UNL     1     -30.350   7.219   1.769  1.00  0.00     0.041 C 
ATOM      8  O   UNL     1     -30.349   7.373   3.018  1.00  0.00    -0.550 OA
ATOM      9  O   UNL     1     -29.187   7.449   1.046  1.00  0.00    -0.550 OA
ENDBRANCH   6   7
ENDBRANCH   5   6
ENDBRANCH   4   5
ENDBRANCH   3   4
ENDBRANCH   2   3
ENDBRANCH   1   2
BRANCH   1  10
ATOM     10  C   UNL     1     -27.361   8.230  -2.941  1.00  0.00     0.000 C 
BRANCH  10  11
ATOM     11  C   UNL     1     -26.887   8.249  -4.404  1.00  0.00    -0.000 C 
BRANCH  11  12
ATOM     12  C   UNL     1     -28.031   8.555  -5.384  1.00  0.00    -0.000 C 
BRANCH  12  13
ATOM     13  C   UNL     1     -27.531   8.799  -6.819  1.00  0.00    -0.000 C 
BRANCH  13  14
ATOM     14  C   UNL     1     -26.315   9.747  -6.856  1.00  0.00    -0.000 C 
BRANCH  14  15
ATOM     15  C   UNL     1     -24.963   9.019  -6.756  1.00  0.00    -0.003 C 
ATOM     16  C   UNL     1     -25.050   7.540  -7.125  1.00  0.00     0.004 C 
ENDBRANCH  14  15
ENDBRANCH  13  14
ENDBRANCH  12  13
ENDBRANCH  11  12
ENDBRANCH  10  11
ENDBRANCH   1  10
TORSDOF 12
ENDMDL
