MODEL 1
REMARK VINA RESULT:    -5.190      0.000      0.000
REMARK INTER + INTRA:          -6.232
REMARK INTER:                  -6.252
REMARK INTRA:                   0.020
REMARK UNBOUND:                 0.020
REMARK SMILES O=c1c(O)c(-c2ccc(O)c(O)c2)oc2cc(O)cc(O)c12
REMARK SMILES IDX 5 1 3 2 2 3 1 4 22 5 20 6 19 7 17 8 16 9 15 10 14 11 6 12
REMARK SMILES IDX 7 13 8 14 9 15 13 16 11 17 10 18 12 20 4 22 21 24 18 26
REMARK H PARENT 10 19 12 21 4 23 21 25 18 27
REMARK Flexibility Score: inf
ROOT
ATOM      1  C   UNL     1     -44.922  27.880  -3.189  1.00  0.00     0.180 A 
ATOM      2  C   UNL     1     -45.994  27.426  -2.398  1.00  0.00     0.208 A 
ATOM      3  C   UNL     1     -45.923  27.585  -1.005  1.00  0.00     0.238 A 
ATOM      4  O   UNL     1     -46.872  27.172  -0.284  1.00  0.00    -0.285 OA
ATOM      5  C   UNL     1     -44.797  28.210  -0.431  1.00  0.00     0.111 A 
ATOM      6  C   UNL     1     -44.649  28.412   0.963  1.00  0.00     0.134 A 
ATOM      7  C   UNL     1     -43.501  29.051   1.456  1.00  0.00     0.093 A 
ATOM      8  C   UNL     1     -42.503  29.491   0.585  1.00  0.00     0.123 A 
ATOM      9  C   UNL     1     -42.642  29.294  -0.793  1.00  0.00     0.094 A 
ATOM     10  C   UNL     1     -43.778  28.658  -1.303  1.00  0.00     0.146 A 
ATOM     11  O   UNL     1     -43.883  28.479  -2.615  1.00  0.00    -0.452 OA
ENDROOT
BRANCH   1  12
ATOM     12  C   UNL     1     -44.915  27.732  -4.663  1.00  0.00     0.025 A 
ATOM     13  C   UNL     1     -43.807  27.190  -5.338  1.00  0.00     0.016 A 
ATOM     14  C   UNL     1     -43.813  27.082  -6.732  1.00  0.00     0.051 A 
ATOM     15  C   UNL     1     -44.916  27.528  -7.470  1.00  0.00     0.157 A 
ATOM     16  C   UNL     1     -46.010  28.196  -5.410  1.00  0.00     0.062 A 
ATOM     17  C   UNL     1     -46.016  28.089  -6.807  1.00  0.00     0.158 A 
BRANCH  15  18
ATOM     18  O   UNL     1     -44.927  27.421  -8.859  1.00  0.00    -0.504 OA
ATOM     19  H   UNL     1     -44.394  28.055  -9.443  1.00  0.00     0.293 HD
ENDBRANCH  15  18
BRANCH  17  20
ATOM     20  O   UNL     1     -47.111  28.538  -7.545  1.00  0.00    -0.504 OA
ATOM     21  H   UNL     1     -47.589  29.400  -7.313  1.00  0.00     0.293 HD
ENDBRANCH  17  20
ENDBRANCH   1  12
BRANCH   2  22
ATOM     22  O   UNL     1     -47.121  26.855  -2.994  1.00  0.00    -0.502 OA
ATOM     23  H   UNL     1     -47.692  27.355  -3.664  1.00  0.00     0.293 HD
ENDBRANCH   2  22
BRANCH   6  24
ATOM     24  O   UNL     1     -45.630  27.986   1.859  1.00  0.00    -0.507 OA
ATOM     25  H   UNL     1     -45.472  27.212   2.494  1.00  0.00     0.293 HD
ENDBRANCH   6  24
BRANCH   8  26
ATOM     26  O   UNL     1     -41.372  30.124   1.100  1.00  0.00    -0.508 OA
ATOM     27  H   UNL     1     -41.441  30.815   1.838  1.00  0.00     0.293 HD
ENDBRANCH   8  26
TORSDOF 6
ENDMDL
MODEL 2
REMARK VINA RESULT:    -4.630      1.864      7.154
REMARK INTER + INTRA:          -5.557
REMARK INTER:                  -5.345
REMARK INTRA:                  -0.212
REMARK UNBOUND:                 0.020
REMARK SMILES O=c1c(O)c(-c2ccc(O)c(O)c2)oc2cc(O)cc(O)c12
REMARK SMILES IDX 5 1 3 2 2 3 1 4 22 5 20 6 19 7 17 8 16 9 15 10 14 11 6 12
REMARK SMILES IDX 7 13 8 14 9 15 13 16 11 17 10 18 12 20 4 22 21 24 18 26
REMARK H PARENT 10 19 12 21 4 23 21 25 18 27
REMARK Flexibility Score: inf
ROOT
ATOM      1  C   UNL     1     -44.696  28.499  -3.041  1.00  0.00     0.180 A 
ATOM      2  C   UNL     1     -43.562  29.310  -3.237  1.00  0.00     0.208 A 
ATOM      3  C   UNL     1     -43.015  29.410  -4.526  1.00  0.00     0.238 A 
ATOM      4  O   UNL     1     -41.993  30.125  -4.713  1.00  0.00    -0.285 OA
ATOM      5  C   UNL     1     -43.619  28.717  -5.595  1.00  0.00     0.111 A 
ATOM      6  C   UNL     1     -43.132  28.767  -6.924  1.00  0.00     0.134 A 
ATOM      7  C   UNL     1     -43.795  28.055  -7.935  1.00  0.00     0.093 A 
ATOM      8  C   UNL     1     -44.931  27.298  -7.645  1.00  0.00     0.123 A 
ATOM      9  C   UNL     1     -45.417  27.243  -6.334  1.00  0.00     0.094 A 
ATOM     10  C   UNL     1     -44.769  27.944  -5.312  1.00  0.00     0.146 A 
ATOM     11  O   UNL     1     -45.248  27.872  -4.075  1.00  0.00    -0.452 OA
ENDROOT
BRANCH   1  12
ATOM     12  C   UNL     1     -45.320  28.329  -1.708  1.00  0.00     0.025 A 
ATOM     13  C   UNL     1     -46.566  28.906  -1.405  1.00  0.00     0.016 A 
ATOM     14  C   UNL     1     -47.125  28.752  -0.133  1.00  0.00     0.051 A 
ATOM     15  C   UNL     1     -46.441  28.034   0.856  1.00  0.00     0.157 A 
ATOM     16  C   UNL     1     -44.630  27.627  -0.707  1.00  0.00     0.062 A 
ATOM     17  C   UNL     1     -45.190  27.473   0.570  1.00  0.00     0.158 A 
BRANCH  15  18
ATOM     18  O   UNL     1     -46.995  27.877   2.125  1.00  0.00    -0.504 OA
ATOM     19  H   UNL     1     -46.913  27.005   2.634  1.00  0.00     0.293 HD
ENDBRANCH  15  18
BRANCH  17  20
ATOM     20  O   UNL     1     -44.508  26.764   1.558  1.00  0.00    -0.504 OA
ATOM     21  H   UNL     1     -44.894  26.646   2.487  1.00  0.00     0.293 HD
ENDBRANCH  17  20
ENDBRANCH   1  12
BRANCH   2  22
ATOM     22  O   UNL     1     -43.012  30.027  -2.171  1.00  0.00    -0.502 OA
ATOM     23  H   UNL     1     -43.107  31.031  -2.086  1.00  0.00     0.293 HD
ENDBRANCH   2  22
BRANCH   6  24
ATOM     24  O   UNL     1     -42.000  29.516  -7.247  1.00  0.00    -0.507 OA
ATOM     25  H   UNL     1     -42.010  30.529  -7.233  1.00  0.00     0.293 HD
ENDBRANCH   6  24
BRANCH   8  26
ATOM     26  O   UNL     1     -45.572  26.601  -8.668  1.00  0.00    -0.508 OA
ATOM     27  H   UNL     1     -45.259  26.663  -9.629  1.00  0.00     0.293 HD
ENDBRANCH   8  26
TORSDOF 6
ENDMDL
MODEL 3
REMARK VINA RESULT:    -4.538      1.106      1.643
REMARK INTER + INTRA:          -5.447
REMARK INTER:                  -5.164
REMARK INTRA:                  -0.283
REMARK UNBOUND:                 0.020
REMARK SMILES O=c1c(O)c(-c2ccc(O)c(O)c2)oc2cc(O)cc(O)c12
REMARK SMILES IDX 5 1 3 2 2 3 1 4 22 5 20 6 19 7 17 8 16 9 15 10 14 11 6 12
REMARK SMILES IDX 7 13 8 14 9 15 13 16 11 17 10 18 12 20 4 22 21 24 18 26
REMARK H PARENT 10 19 12 21 4 23 21 25 18 27
REMARK Flexibility Score: inf
ROOT
ATOM      1  C   UNL     1     -44.877  28.661  -3.063  1.00  0.00     0.180 A 
ATOM      2  C   UNL     1     -45.926  27.967  -2.432  1.00  0.00     0.208 A 
ATOM      3  C   UNL     1     -45.861  27.753  -1.046  1.00  0.00     0.238 A 
ATOM      4  O   UNL     1     -46.789  27.123  -0.470  1.00  0.00    -0.285 OA
ATOM      5  C   UNL     1     -44.762  28.252  -0.315  1.00  0.00     0.111 A 
ATOM      6  C   UNL     1     -44.622  28.083   1.084  1.00  0.00     0.134 A 
ATOM      7  C   UNL     1     -43.503  28.618   1.740  1.00  0.00     0.093 A 
ATOM      8  C   UNL     1     -42.527  29.317   1.028  1.00  0.00     0.123 A 
ATOM      9  C   UNL     1     -42.659  29.486  -0.354  1.00  0.00     0.094 A 
ATOM     10  C   UNL     1     -43.766  28.960  -1.027  1.00  0.00     0.146 A 
ATOM     11  O   UNL     1     -43.865  29.131  -2.340  1.00  0.00    -0.452 OA
ENDROOT
BRANCH   1  12
ATOM     12  C   UNL     1     -44.865  28.910  -4.524  1.00  0.00     0.025 A 
ATOM     13  C   UNL     1     -45.654  29.922  -5.099  1.00  0.00     0.016 A 
ATOM     14  C   UNL     1     -45.645  30.123  -6.483  1.00  0.00     0.051 A 
ATOM     15  C   UNL     1     -44.862  29.308  -7.310  1.00  0.00     0.157 A 
ATOM     16  C   UNL     1     -44.098  28.083  -5.360  1.00  0.00     0.062 A 
ATOM     17  C   UNL     1     -44.089  28.284  -6.747  1.00  0.00     0.158 A 
BRANCH  15  18
ATOM     18  O   UNL     1     -44.849  29.506  -8.689  1.00  0.00    -0.504 OA
ATOM     19  H   UNL     1     -44.722  28.734  -9.333  1.00  0.00     0.293 HD
ENDBRANCH  15  18
BRANCH  17  20
ATOM     20  O   UNL     1     -43.315  27.470  -7.573  1.00  0.00    -0.504 OA
ATOM     21  H   UNL     1     -42.981  27.793  -8.473  1.00  0.00     0.293 HD
ENDBRANCH  17  20
ENDBRANCH   1  12
BRANCH   2  22
ATOM     22  O   UNL     1     -47.028  27.526  -3.170  1.00  0.00    -0.502 OA
ATOM     23  H   UNL     1     -47.015  27.466  -4.181  1.00  0.00     0.293 HD
ENDBRANCH   2  22
BRANCH   6  24
ATOM     24  O   UNL     1     -45.582  27.392   1.824  1.00  0.00    -0.507 OA
ATOM     25  H   UNL     1     -45.811  26.425   1.628  1.00  0.00     0.293 HD
ENDBRANCH   6  24
BRANCH   8  26
ATOM     26  O   UNL     1     -41.425  29.839   1.704  1.00  0.00    -0.508 OA
ATOM     27  H   UNL     1     -41.404  30.802   2.020  1.00  0.00     0.293 HD
ENDBRANCH   8  26
TORSDOF 6
ENDMDL
MODEL 4
REMARK VINA RESULT:    -4.384      1.194      2.850
REMARK INTER + INTRA:          -5.261
REMARK INTER:                  -5.087
REMARK INTRA:                  -0.174
REMARK UNBOUND:                 0.020
REMARK SMILES O=c1c(O)c(-c2ccc(O)c(O)c2)oc2cc(O)cc(O)c12
REMARK SMILES IDX 5 1 3 2 2 3 1 4 22 5 20 6 19 7 17 8 16 9 15 10 14 11 6 12
REMARK SMILES IDX 7 13 8 14 9 15 13 16 11 17 10 18 12 20 4 22 21 24 18 26
REMARK H PARENT 10 19 12 21 4 23 21 25 18 27
REMARK Flexibility Score: inf
ROOT
ATOM      1  C   UNL     1     -44.429  28.437  -3.156  1.00  0.00     0.180 A 
ATOM      2  C   UNL     1     -43.323  29.183  -2.706  1.00  0.00     0.208 A 
ATOM      3  C   UNL     1     -43.197  29.448  -1.333  1.00  0.00     0.238 A 
ATOM      4  O   UNL     1     -42.216  30.125  -0.919  1.00  0.00    -0.285 OA
ATOM      5  C   UNL     1     -44.163  28.948  -0.435  1.00  0.00     0.111 A 
ATOM      6  C   UNL     1     -44.107  29.167   0.962  1.00  0.00     0.134 A 
ATOM      7  C   UNL     1     -45.103  28.628   1.791  1.00  0.00     0.093 A 
ATOM      8  C   UNL     1     -46.148  27.876   1.251  1.00  0.00     0.123 A 
ATOM      9  C   UNL     1     -46.210  27.658  -0.129  1.00  0.00     0.094 A 
ATOM     10  C   UNL     1     -45.228  28.188  -0.971  1.00  0.00     0.146 A 
ATOM     11  O   UNL     1     -45.312  27.969  -2.279  1.00  0.00    -0.452 OA
ENDROOT
BRANCH   1  12
ATOM     12  C   UNL     1     -44.641  28.132  -4.590  1.00  0.00     0.025 A 
ATOM     13  C   UNL     1     -43.750  27.311  -5.302  1.00  0.00     0.016 A 
ATOM     14  C   UNL     1     -43.957  27.056  -6.661  1.00  0.00     0.051 A 
ATOM     15  C   UNL     1     -45.046  27.630  -7.329  1.00  0.00     0.157 A 
ATOM     16  C   UNL     1     -45.720  28.721  -5.269  1.00  0.00     0.062 A 
ATOM     17  C   UNL     1     -45.928  28.466  -6.632  1.00  0.00     0.158 A 
BRANCH  15  18
ATOM     18  O   UNL     1     -45.257  27.377  -8.683  1.00  0.00    -0.504 OA
ATOM     19  H   UNL     1     -45.105  26.458  -9.080  1.00  0.00     0.293 HD
ENDBRANCH  15  18
BRANCH  17  20
ATOM     20  O   UNL     1     -47.008  29.041  -7.301  1.00  0.00    -0.504 OA
ATOM     21  H   UNL     1     -46.977  29.996  -7.635  1.00  0.00     0.293 HD
ENDBRANCH  17  20
ENDBRANCH   1  12
BRANCH   2  22
ATOM     22  O   UNL     1     -42.353  29.625  -3.610  1.00  0.00    -0.502 OA
ATOM     23  H   UNL     1     -42.586  30.160  -4.437  1.00  0.00     0.293 HD
ENDBRANCH   2  22
BRANCH   6  24
ATOM     24  O   UNL     1     -43.074  29.912   1.533  1.00  0.00    -0.507 OA
ATOM     25  H   UNL     1     -42.900  29.904   2.531  1.00  0.00     0.293 HD
ENDBRANCH   6  24
BRANCH   8  26
ATOM     26  O   UNL     1     -47.125  27.351   2.096  1.00  0.00    -0.508 OA
ATOM     27  H   UNL     1     -47.172  26.360   2.301  1.00  0.00     0.293 HD
ENDBRANCH   8  26
TORSDOF 6
ENDMDL
MODEL 5
REMARK VINA RESULT:    -4.236      1.738      6.774
REMARK INTER + INTRA:          -5.083
REMARK INTER:                  -5.535
REMARK INTRA:                   0.452
REMARK UNBOUND:                 0.020
REMARK SMILES O=c1c(O)c(-c2ccc(O)c(O)c2)oc2cc(O)cc(O)c12
REMARK SMILES IDX 5 1 3 2 2 3 1 4 22 5 20 6 19 7 17 8 16 9 15 10 14 11 6 12
REMARK SMILES IDX 7 13 8 14 9 15 13 16 11 17 10 18 12 20 4 22 21 24 18 26
REMARK H PARENT 10 19 12 21 4 23 21 25 18 27
REMARK Flexibility Score: inf
ROOT
ATOM      1  C   UNL     1     -44.736  28.284  -3.503  1.00  0.00     0.180 A 
ATOM      2  C   UNL     1     -45.941  27.941  -4.146  1.00  0.00     0.208 A 
ATOM      3  C   UNL     1     -46.046  28.129  -5.533  1.00  0.00     0.238 A 
ATOM      4  O   UNL     1     -47.124  27.836  -6.119  1.00  0.00    -0.285 OA
ATOM      5  C   UNL     1     -44.944  28.634  -6.254  1.00  0.00     0.111 A 
ATOM      6  C   UNL     1     -44.967  28.849  -7.653  1.00  0.00     0.134 A 
ATOM      7  C   UNL     1     -43.825  29.347  -8.299  1.00  0.00     0.093 A 
ATOM      8  C   UNL     1     -42.665  29.631  -7.576  1.00  0.00     0.123 A 
ATOM      9  C   UNL     1     -42.637  29.422  -6.193  1.00  0.00     0.094 A 
ATOM     10  C   UNL     1     -43.765  28.928  -5.531  1.00  0.00     0.146 A 
ATOM     11  O   UNL     1     -43.713  28.743  -4.217  1.00  0.00    -0.452 OA
ENDROOT
BRANCH   1  12
ATOM     12  C   UNL     1     -44.554  28.132  -2.041  1.00  0.00     0.025 A 
ATOM     13  C   UNL     1     -45.618  27.743  -1.208  1.00  0.00     0.016 A 
ATOM     14  C   UNL     1     -45.429  27.629   0.172  1.00  0.00     0.051 A 
ATOM     15  C   UNL     1     -44.182  27.917   0.740  1.00  0.00     0.157 A 
ATOM     16  C   UNL     1     -43.312  28.438  -1.464  1.00  0.00     0.062 A 
ATOM     17  C   UNL     1     -43.122  28.325  -0.079  1.00  0.00     0.158 A 
BRANCH  15  18
ATOM     18  O   UNL     1     -43.988  27.803   2.115  1.00  0.00    -0.504 OA
ATOM     19  H   UNL     1     -44.130  28.591   2.737  1.00  0.00     0.293 HD
ENDBRANCH  15  18
BRANCH  17  20
ATOM     20  O   UNL     1     -41.882  28.617   0.489  1.00  0.00    -0.504 OA
ATOM     21  H   UNL     1     -41.520  29.562   0.514  1.00  0.00     0.293 HD
ENDBRANCH  17  20
ENDBRANCH   1  12
BRANCH   2  22
ATOM     22  O   UNL     1     -47.002  27.396  -3.418  1.00  0.00    -0.502 OA
ATOM     23  H   UNL     1     -46.997  26.439  -3.087  1.00  0.00     0.293 HD
ENDBRANCH   2  22
BRANCH   6  24
ATOM     24  O   UNL     1     -46.110  28.573  -8.404  1.00  0.00    -0.507 OA
ATOM     25  H   UNL     1     -46.600  29.297  -8.915  1.00  0.00     0.293 HD
ENDBRANCH   6  24
BRANCH   8  26
ATOM     26  O   UNL     1     -41.544  30.124  -8.242  1.00  0.00    -0.508 OA
ATOM     27  H   UNL     1     -41.124  31.011  -7.989  1.00  0.00     0.293 HD
ENDBRANCH   8  26
TORSDOF 6
ENDMDL
MODEL 6
REMARK VINA RESULT:    -3.927      1.305      3.183
REMARK INTER + INTRA:          -4.711
REMARK INTER:                  -4.816
REMARK INTRA:                   0.105
REMARK UNBOUND:                 0.020
REMARK SMILES O=c1c(O)c(-c2ccc(O)c(O)c2)oc2cc(O)cc(O)c12
REMARK SMILES IDX 5 1 3 2 2 3 1 4 22 5 20 6 19 7 17 8 16 9 15 10 14 11 6 12
REMARK SMILES IDX 7 13 8 14 9 15 13 16 11 17 10 18 12 20 4 22 21 24 18 26
REMARK H PARENT 10 19 12 21 4 23 21 25 18 27
REMARK Flexibility Score: inf
ROOT
ATOM      1  C   UNL     1     -44.452  28.604  -3.114  1.00  0.00     0.180 A 
ATOM      2  C   UNL     1     -43.334  29.320  -2.645  1.00  0.00     0.208 A 
ATOM      3  C   UNL     1     -43.161  29.475  -1.260  1.00  0.00     0.238 A 
ATOM      4  O   UNL     1     -42.170  30.125  -0.827  1.00  0.00    -0.285 OA
ATOM      5  C   UNL     1     -44.092  28.898  -0.372  1.00  0.00     0.111 A 
ATOM      6  C   UNL     1     -43.988  29.004   1.036  1.00  0.00     0.134 A 
ATOM      7  C   UNL     1     -44.951  28.393   1.853  1.00  0.00     0.093 A 
ATOM      8  C   UNL     1     -46.011  27.678   1.291  1.00  0.00     0.123 A 
ATOM      9  C   UNL     1     -46.120  27.570  -0.099  1.00  0.00     0.094 A 
ATOM     10  C   UNL     1     -45.171  28.174  -0.930  1.00  0.00     0.146 A 
ATOM     11  O   UNL     1     -45.300  28.060  -2.247  1.00  0.00    -0.452 OA
ENDROOT
BRANCH   1  12
ATOM     12  C   UNL     1     -44.713  28.412  -4.559  1.00  0.00     0.025 A 
ATOM     13  C   UNL     1     -46.005  28.557  -5.095  1.00  0.00     0.016 A 
ATOM     14  C   UNL     1     -46.232  28.348  -6.458  1.00  0.00     0.051 A 
ATOM     15  C   UNL     1     -45.177  27.977  -7.301  1.00  0.00     0.157 A 
ATOM     16  C   UNL     1     -43.663  28.021  -5.405  1.00  0.00     0.062 A 
ATOM     17  C   UNL     1     -43.890  27.810  -6.773  1.00  0.00     0.158 A 
BRANCH  15  18
ATOM     18  O   UNL     1     -45.398  27.770  -8.661  1.00  0.00    -0.504 OA
ATOM     19  H   UNL     1     -45.203  26.877  -9.099  1.00  0.00     0.293 HD
ENDBRANCH  15  18
BRANCH  17  20
ATOM     20  O   UNL     1     -42.843  27.435  -7.613  1.00  0.00    -0.504 OA
ATOM     21  H   UNL     1     -42.136  26.773  -7.316  1.00  0.00     0.293 HD
ENDBRANCH  17  20
ENDBRANCH   1  12
BRANCH   2  22
ATOM     22  O   UNL     1     -42.399  29.841  -3.543  1.00  0.00    -0.502 OA
ATOM     23  H   UNL     1     -41.968  29.277  -4.265  1.00  0.00     0.293 HD
ENDBRANCH   2  22
BRANCH   6  24
ATOM     24  O   UNL     1     -42.940  29.710   1.628  1.00  0.00    -0.507 OA
ATOM     25  H   UNL     1     -43.018  30.696   1.847  1.00  0.00     0.293 HD
ENDBRANCH   6  24
BRANCH   8  26
ATOM     26  O   UNL     1     -46.954  27.079   2.125  1.00  0.00    -0.508 OA
ATOM     27  H   UNL     1     -46.835  26.133   2.466  1.00  0.00     0.293 HD
ENDBRANCH   8  26
TORSDOF 6
ENDMDL
MODEL 7
REMARK VINA RESULT:    -3.737      2.216      7.165
REMARK INTER + INTRA:          -4.482
REMARK INTER:                  -4.940
REMARK INTRA:                   0.458
REMARK UNBOUND:                 0.020
REMARK SMILES O=c1c(O)c(-c2ccc(O)c(O)c2)oc2cc(O)cc(O)c12
REMARK SMILES IDX 5 1 3 2 2 3 1 4 22 5 20 6 19 7 17 8 16 9 15 10 14 11 6 12
REMARK SMILES IDX 7 13 8 14 9 15 13 16 11 17 10 18 12 20 4 22 21 24 18 26
REMARK H PARENT 10 19 12 21 4 23 21 25 18 27
REMARK Flexibility Score: inf
ROOT
ATOM      1  C   UNL     1     -45.652  28.152  -3.358  1.00  0.00     0.180 A 
ATOM      2  C   UNL     1     -44.632  27.242  -3.698  1.00  0.00     0.208 A 
ATOM      3  C   UNL     1     -44.310  27.060  -5.052  1.00  0.00     0.238 A 
ATOM      4  O   UNL     1     -43.406  26.240  -5.370  1.00  0.00    -0.285 OA
ATOM      5  C   UNL     1     -44.995  27.801  -6.037  1.00  0.00     0.111 A 
ATOM      6  C   UNL     1     -44.729  27.678  -7.423  1.00  0.00     0.134 A 
ATOM      7  C   UNL     1     -45.448  28.458  -8.341  1.00  0.00     0.093 A 
ATOM      8  C   UNL     1     -46.424  29.354  -7.902  1.00  0.00     0.123 A 
ATOM      9  C   UNL     1     -46.693  29.479  -6.535  1.00  0.00     0.094 A 
ATOM     10  C   UNL     1     -45.988  28.710  -5.605  1.00  0.00     0.146 A 
ATOM     11  O   UNL     1     -46.266  28.844  -4.313  1.00  0.00    -0.452 OA
ENDROOT
BRANCH   1  12
ATOM     12  C   UNL     1     -46.061  28.386  -1.954  1.00  0.00     0.025 A 
ATOM     13  C   UNL     1     -46.760  29.547  -1.580  1.00  0.00     0.016 A 
ATOM     14  C   UNL     1     -47.115  29.758  -0.244  1.00  0.00     0.051 A 
ATOM     15  C   UNL     1     -46.764  28.821   0.736  1.00  0.00     0.157 A 
ATOM     16  C   UNL     1     -45.695  27.460  -0.964  1.00  0.00     0.062 A 
ATOM     17  C   UNL     1     -46.050  27.672   0.376  1.00  0.00     0.158 A 
BRANCH  15  18
ATOM     18  O   UNL     1     -47.117  29.027   2.068  1.00  0.00    -0.504 OA
ATOM     19  H   UNL     1     -47.866  28.502   2.505  1.00  0.00     0.293 HD
ENDBRANCH  15  18
BRANCH  17  20
ATOM     20  O   UNL     1     -45.696  26.744   1.355  1.00  0.00    -0.504 OA
ATOM     21  H   UNL     1     -45.731  25.748   1.178  1.00  0.00     0.293 HD
ENDBRANCH  17  20
ENDBRANCH   1  12
BRANCH   2  22
ATOM     22  O   UNL     1     -43.934  26.557  -2.700  1.00  0.00    -0.502 OA
ATOM     23  H   UNL     1     -42.981  26.788  -2.449  1.00  0.00     0.293 HD
ENDBRANCH   2  22
BRANCH   6  24
ATOM     24  O   UNL     1     -43.758  26.793  -7.892  1.00  0.00    -0.507 OA
ATOM     25  H   UNL     1     -42.777  27.048  -7.929  1.00  0.00     0.293 HD
ENDBRANCH   6  24
BRANCH   8  26
ATOM     26  O   UNL     1     -47.124  30.118  -8.835  1.00  0.00    -0.508 OA
ATOM     27  H   UNL     1     -46.701  30.918  -9.291  1.00  0.00     0.293 HD
ENDBRANCH   8  26
TORSDOF 6
ENDMDL
MODEL 8
REMARK VINA RESULT:    -3.319      1.557      1.566
REMARK INTER + INTRA:          -3.979
REMARK INTER:                  -4.119
REMARK INTRA:                   0.140
REMARK UNBOUND:                 0.020
REMARK SMILES O=c1c(O)c(-c2ccc(O)c(O)c2)oc2cc(O)cc(O)c12
REMARK SMILES IDX 5 1 3 2 2 3 1 4 22 5 20 6 19 7 17 8 16 9 15 10 14 11 6 12
REMARK SMILES IDX 7 13 8 14 9 15 13 16 11 17 10 18 12 20 4 22 21 24 18 26
REMARK H PARENT 10 19 12 21 4 23 21 25 18 27
REMARK Flexibility Score: inf
ROOT
ATOM      1  C   UNL     1     -44.724  29.196  -3.032  1.00  0.00     0.180 A 
ATOM      2  C   UNL     1     -45.967  29.411  -2.407  1.00  0.00     0.208 A 
ATOM      3  C   UNL     1     -46.016  29.491  -1.006  1.00  0.00     0.238 A 
ATOM      4  O   UNL     1     -47.125  29.672  -0.433  1.00  0.00    -0.285 OA
ATOM      5  C   UNL     1     -44.825  29.375  -0.259  1.00  0.00     0.111 A 
ATOM      6  C   UNL     1     -44.788  29.448   1.155  1.00  0.00     0.134 A 
ATOM      7  C   UNL     1     -43.561  29.332   1.825  1.00  0.00     0.093 A 
ATOM      8  C   UNL     1     -42.375  29.147   1.112  1.00  0.00     0.123 A 
ATOM      9  C   UNL     1     -42.405  29.074  -0.284  1.00  0.00     0.094 A 
ATOM     10  C   UNL     1     -43.618  29.185  -0.971  1.00  0.00     0.146 A 
ATOM     11  O   UNL     1     -43.620  29.107  -2.297  1.00  0.00    -0.452 OA
ENDROOT
BRANCH   1  12
ATOM     12  C   UNL     1     -44.593  29.082  -4.503  1.00  0.00     0.025 A 
ATOM     13  C   UNL     1     -43.561  29.738  -5.199  1.00  0.00     0.016 A 
ATOM     14  C   UNL     1     -43.472  29.636  -6.590  1.00  0.00     0.051 A 
ATOM     15  C   UNL     1     -44.418  28.892  -7.306  1.00  0.00     0.157 A 
ATOM     16  C   UNL     1     -45.550  28.354  -5.228  1.00  0.00     0.062 A 
ATOM     17  C   UNL     1     -45.461  28.252  -6.623  1.00  0.00     0.158 A 
BRANCH  15  18
ATOM     18  O   UNL     1     -44.331  28.786  -8.692  1.00  0.00    -0.504 OA
ATOM     19  H   UNL     1     -44.429  27.894  -9.162  1.00  0.00     0.293 HD
ENDBRANCH  15  18
BRANCH  17  20
ATOM     20  O   UNL     1     -46.405  27.517  -7.339  1.00  0.00    -0.504 OA
ATOM     21  H   UNL     1     -46.410  27.503  -8.352  1.00  0.00     0.293 HD
ENDBRANCH  17  20
ENDBRANCH   1  12
BRANCH   2  22
ATOM     22  O   UNL     1     -47.125  29.572  -3.172  1.00  0.00    -0.502 OA
ATOM     23  H   UNL     1     -47.801  30.303  -2.985  1.00  0.00     0.293 HD
ENDBRANCH   2  22
BRANCH   6  24
ATOM     24  O   UNL     1     -45.956  29.634   1.895  1.00  0.00    -0.507 OA
ATOM     25  H   UNL     1     -45.979  29.492   2.899  1.00  0.00     0.293 HD
ENDBRANCH   6  24
BRANCH   8  26
ATOM     26  O   UNL     1     -41.169  29.036   1.802  1.00  0.00    -0.508 OA
ATOM     27  H   UNL     1     -40.927  28.197   2.316  1.00  0.00     0.293 HD
ENDBRANCH   8  26
TORSDOF 6
ENDMDL
MODEL 9
REMARK VINA RESULT:    -3.278      1.644      6.920
REMARK INTER + INTRA:          -3.929
REMARK INTER:                  -3.596
REMARK INTRA:                  -0.333
REMARK UNBOUND:                 0.020
REMARK SMILES O=c1c(O)c(-c2ccc(O)c(O)c2)oc2cc(O)cc(O)c12
REMARK SMILES IDX 5 1 3 2 2 3 1 4 22 5 20 6 19 7 17 8 16 9 15 10 14 11 6 12
REMARK SMILES IDX 7 13 8 14 9 15 13 16 11 17 10 18 12 20 4 22 21 24 18 26
REMARK H PARENT 10 19 12 21 4 23 21 25 18 27
REMARK Flexibility Score: inf
ROOT
ATOM      1  C   UNL     1     -44.447  28.947  -3.258  1.00  0.00     0.180 A 
ATOM      2  C   UNL     1     -45.667  29.530  -3.649  1.00  0.00     0.208 A 
ATOM      3  C   UNL     1     -46.039  29.482  -5.002  1.00  0.00     0.238 A 
ATOM      4  O   UNL     1     -47.125  30.011  -5.366  1.00  0.00    -0.285 OA
ATOM      5  C   UNL     1     -45.199  28.838  -5.933  1.00  0.00     0.111 A 
ATOM      6  C   UNL     1     -45.502  28.742  -7.313  1.00  0.00     0.134 A 
ATOM      7  C   UNL     1     -44.618  28.076  -8.175  1.00  0.00     0.093 A 
ATOM      8  C   UNL     1     -43.442  27.505  -7.686  1.00  0.00     0.123 A 
ATOM      9  C   UNL     1     -43.136  27.597  -6.324  1.00  0.00     0.094 A 
ATOM     10  C   UNL     1     -44.004  28.257  -5.449  1.00  0.00     0.146 A 
ATOM     11  O   UNL     1     -43.688  28.334  -4.161  1.00  0.00    -0.452 OA
ENDROOT
BRANCH   1  12
ATOM     12  C   UNL     1     -43.977  28.973  -1.854  1.00  0.00     0.025 A 
ATOM     13  C   UNL     1     -43.190  30.030  -1.365  1.00  0.00     0.016 A 
ATOM     14  C   UNL     1     -42.738  30.021  -0.042  1.00  0.00     0.051 A 
ATOM     15  C   UNL     1     -43.052  28.950   0.804  1.00  0.00     0.157 A 
ATOM     16  C   UNL     1     -44.271  27.892  -1.007  1.00  0.00     0.062 A 
ATOM     17  C   UNL     1     -43.818  27.882   0.319  1.00  0.00     0.158 A 
BRANCH  15  18
ATOM     18  O   UNL     1     -42.605  28.938   2.123  1.00  0.00    -0.504 OA
ATOM     19  H   UNL     1     -41.655  29.198   2.363  1.00  0.00     0.293 HD
ENDBRANCH  15  18
BRANCH  17  20
ATOM     20  O   UNL     1     -44.123  26.814   1.162  1.00  0.00    -0.504 OA
ATOM     21  H   UNL     1     -43.424  26.131   1.427  1.00  0.00     0.293 HD
ENDBRANCH  17  20
ENDBRANCH   1  12
BRANCH   2  22
ATOM     22  O   UNL     1     -46.506  30.119  -2.699  1.00  0.00    -0.502 OA
ATOM     23  H   UNL     1     -46.986  30.995  -2.868  1.00  0.00     0.293 HD
ENDBRANCH   2  22
BRANCH   6  24
ATOM     24  O   UNL     1     -46.670  29.301  -7.833  1.00  0.00    -0.507 OA
ATOM     25  H   UNL     1     -47.217  28.829  -8.544  1.00  0.00     0.293 HD
ENDBRANCH   6  24
BRANCH   8  26
ATOM     26  O   UNL     1     -42.581  26.848  -8.563  1.00  0.00    -0.508 OA
ATOM     27  H   UNL     1     -41.651  26.562  -8.279  1.00  0.00     0.293 HD
ENDBRANCH   8  26
TORSDOF 6
ENDMDL
