MODEL 1
REMARK VINA RESULT:    10.087      0.000      0.000
REMARK INTER + INTRA:          12.019
REMARK INTER:                  12.151
REMARK INTRA:                  -0.132
REMARK UNBOUND:                -0.132
REMARK SMILES O=c1c(O)c(-c2ccc(O)cc2O)oc2cc(O)cc(O)c12
REMARK SMILES IDX 5 1 3 2 2 3 1 4 22 5 20 6 19 7 17 8 16 9 15 10 14 11 6 12
REMARK SMILES IDX 8 13 7 14 9 15 11 16 12 17 10 18 13 20 4 22 21 24 18 26
REMARK H PARENT 10 19 13 21 4 23 21 25 18 27
REMARK Flexibility Score: inf
ROOT
ATOM      1  C   UNL     1      10.634   6.141  -4.145  1.00  0.00     0.184 A 
ATOM      2  C   UNL     1       9.554   7.031  -4.242  1.00  0.00     0.208 A 
ATOM      3  C   UNL     1       9.158   7.746  -3.101  1.00  0.00     0.238 A 
ATOM      4  O   UNL     1       8.223   8.583  -3.205  1.00  0.00    -0.285 OA
ATOM      5  C   UNL     1       9.838   7.548  -1.874  1.00  0.00     0.111 A 
ATOM      6  C   UNL     1       9.496   8.188  -0.646  1.00  0.00     0.134 A 
ATOM      7  C   UNL     1      10.319   8.017   0.475  1.00  0.00     0.093 A 
ATOM      8  C   UNL     1      11.431   7.178   0.429  1.00  0.00     0.123 A 
ATOM      9  C   UNL     1      11.741   6.499  -0.750  1.00  0.00     0.094 A 
ATOM     10  C   UNL     1      10.961   6.679  -1.895  1.00  0.00     0.146 A 
ATOM     11  O   UNL     1      11.296   6.024  -3.000  1.00  0.00    -0.451 OA
ENDROOT
BRANCH   1  12
ATOM     12  C   UNL     1      11.091   5.345  -5.304  1.00  0.00     0.063 A 
ATOM     13  C   UNL     1      11.720   5.265  -7.651  1.00  0.00     0.047 A 
ATOM     14  C   UNL     1      11.284   5.987  -6.537  1.00  0.00     0.020 A 
ATOM     15  C   UNL     1      11.982   3.897  -7.544  1.00  0.00     0.119 A 
ATOM     16  C   UNL     1      11.815   3.251  -6.313  1.00  0.00     0.093 A 
ATOM     17  C   UNL     1      11.383   3.970  -5.188  1.00  0.00     0.130 A 
BRANCH  15  18
ATOM     18  O   UNL     1      12.412   3.190  -8.664  1.00  0.00    -0.508 OA
ATOM     19  H   UNL     1      11.755   2.807  -9.333  1.00  0.00     0.293 HD
ENDBRANCH  15  18
BRANCH  17  20
ATOM     20  O   UNL     1      11.268   3.326  -3.955  1.00  0.00    -0.507 OA
ATOM     21  H   UNL     1      11.024   2.345  -3.889  1.00  0.00     0.293 HD
ENDBRANCH  17  20
ENDBRANCH   1  12
BRANCH   2  22
ATOM     22  O   UNL     1       8.912   7.221  -5.469  1.00  0.00    -0.502 OA
ATOM     23  H   UNL     1       8.210   7.937  -5.609  1.00  0.00     0.293 HD
ENDBRANCH   2  22
BRANCH   6  24
ATOM     24  O   UNL     1       8.355   8.976  -0.467  1.00  0.00    -0.507 OA
ATOM     25  H   UNL     1       8.291   9.955  -0.694  1.00  0.00     0.293 HD
ENDBRANCH   6  24
BRANCH   8  26
ATOM     26  O   UNL     1      12.218   7.018   1.568  1.00  0.00    -0.508 OA
ATOM     27  H   UNL     1      12.231   7.714   2.305  1.00  0.00     0.293 HD
ENDBRANCH   8  26
TORSDOF 6
ENDMDL
