MODEL 1
REMARK VINA RESULT:    -4.993      0.000      0.000
REMARK INTER + INTRA:         -12.661
REMARK INTER:                  -9.663
REMARK INTRA:                  -2.997
REMARK UNBOUND:                -2.997
REMARK SMILES CCCCCCCCCCCCCCCCCC(=O)[O-]
REMARK SMILES IDX 10 1 11 2 12 3 13 4 14 5 15 6 16 7 17 8 18 9 19 10 20 11
REMARK SMILES IDX 9 12 8 13 7 14 6 15 5 16 4 17 3 18 2 19 1 20
REMARK H PARENT
REMARK Flexibility Score: inf
ROOT
ATOM      1  C   UNL     1      15.803  43.195   5.119  1.00  0.00     0.000 C 
ENDROOT
BRANCH   1   2
ATOM      2  C   UNL     1      15.242  43.690   3.769  1.00  0.00     0.000 C 
BRANCH   2   3
ATOM      3  C   UNL     1      15.275  45.217   3.568  1.00  0.00     0.000 C 
BRANCH   3   4
ATOM      4  C   UNL     1      13.984  45.950   3.979  1.00  0.00     0.000 C 
BRANCH   4   5
ATOM      5  C   UNL     1      13.993  46.445   5.443  1.00  0.00     0.000 C 
BRANCH   5   6
ATOM      6  C   UNL     1      13.110  45.580   6.359  1.00  0.00     0.000 C 
BRANCH   6   7
ATOM      7  C   UNL     1      11.898  44.985   5.625  1.00  0.00     0.006 C 
BRANCH   7   8
ATOM      8  C   UNL     1      11.602  43.539   6.042  1.00  0.00     0.053 C 
BRANCH   8   9
ATOM      9  C   UNL     1      11.974  42.593   4.944  1.00  0.00     0.041 C 
ATOM     10  O   UNL     1      12.002  42.989   3.749  1.00  0.00    -0.550 OA
ATOM     11  O   UNL     1      12.339  41.287   5.246  1.00  0.00    -0.550 OA
ENDBRANCH   8   9
ENDBRANCH   7   8
ENDBRANCH   6   7
ENDBRANCH   5   6
ENDBRANCH   4   5
ENDBRANCH   3   4
ENDBRANCH   2   3
ENDBRANCH   1   2
BRANCH   1  12
ATOM     12  C   UNL     1      17.329  43.322   5.277  1.00  0.00     0.000 C 
BRANCH  12  13
ATOM     13  C   UNL     1      17.742  43.902   6.640  1.00  0.00    -0.000 C 
BRANCH  13  14
ATOM     14  C   UNL     1      16.934  45.153   7.017  1.00  0.00    -0.000 C 
BRANCH  14  15
ATOM     15  C   UNL     1      16.514  45.159   8.497  1.00  0.00    -0.000 C 
BRANCH  15  16
ATOM     16  C   UNL     1      16.192  43.752   9.026  1.00  0.00    -0.000 C 
BRANCH  16  17
ATOM     17  C   UNL     1      14.747  43.327   8.731  1.00  0.00    -0.000 C 
BRANCH  17  18
ATOM     18  C   UNL     1      14.663  41.821   8.459  1.00  0.00    -0.000 C 
BRANCH  18  19
ATOM     19  C   UNL     1      16.041  41.161   8.586  1.00  0.00    -0.003 C 
ATOM     20  C   UNL     1      15.942  39.804   9.276  1.00  0.00     0.004 C 
ENDBRANCH  18  19
ENDBRANCH  17  18
ENDBRANCH  16  17
ENDBRANCH  15  16
ENDBRANCH  14  15
ENDBRANCH  13  14
ENDBRANCH  12  13
ENDBRANCH   1  12
TORSDOF 16
ENDMDL
MODEL 2
REMARK VINA RESULT:    -4.948      2.079      2.303
REMARK INTER + INTRA:         -12.574
REMARK INTER:                  -9.823
REMARK INTRA:                  -2.751
REMARK UNBOUND:                -2.997
REMARK SMILES CCCCCCCCCCCCCCCCCC(=O)[O-]
REMARK SMILES IDX 10 1 11 2 12 3 13 4 14 5 15 6 16 7 17 8 18 9 19 10 20 11
REMARK SMILES IDX 9 12 8 13 7 14 6 15 5 16 4 17 3 18 2 19 1 20
REMARK H PARENT
REMARK Flexibility Score: inf
ROOT
ATOM      1  C   UNL     1      15.579  43.201   5.157  1.00  0.00     0.000 C 
ENDROOT
BRANCH   1   2
ATOM      2  C   UNL     1      14.967  43.714   3.837  1.00  0.00     0.000 C 
BRANCH   2   3
ATOM      3  C   UNL     1      14.932  45.246   3.684  1.00  0.00     0.000 C 
BRANCH   3   4
ATOM      4  C   UNL     1      13.564  45.893   3.974  1.00  0.00     0.000 C 
BRANCH   4   5
ATOM      5  C   UNL     1      13.462  46.521   5.382  1.00  0.00     0.000 C 
BRANCH   5   6
ATOM      6  C   UNL     1      13.042  45.498   6.451  1.00  0.00     0.000 C 
BRANCH   6   7
ATOM      7  C   UNL     1      12.653  46.159   7.783  1.00  0.00     0.006 C 
BRANCH   7   8
ATOM      8  C   UNL     1      11.572  45.377   8.540  1.00  0.00     0.053 C 
BRANCH   8   9
ATOM      9  C   UNL     1      10.210  45.790   8.078  1.00  0.00     0.041 C 
ATOM     10  O   UNL     1      10.056  46.865   7.440  1.00  0.00    -0.550 OA
ATOM     11  O   UNL     1       9.118  44.964   8.309  1.00  0.00    -0.550 OA
ENDBRANCH   8   9
ENDBRANCH   7   8
ENDBRANCH   6   7
ENDBRANCH   5   6
ENDBRANCH   4   5
ENDBRANCH   3   4
ENDBRANCH   2   3
ENDBRANCH   1   2
BRANCH   1  12
ATOM     12  C   UNL     1      17.111  43.311   5.252  1.00  0.00     0.000 C 
BRANCH  12  13
ATOM     13  C   UNL     1      17.583  43.986   6.552  1.00  0.00    -0.000 C 
BRANCH  13  14
ATOM     14  C   UNL     1      16.712  45.191   6.938  1.00  0.00    -0.000 C 
BRANCH  14  15
ATOM     15  C   UNL     1      16.318  45.179   8.426  1.00  0.00    -0.000 C 
BRANCH  15  16
ATOM     16  C   UNL     1      16.140  43.756   8.979  1.00  0.00    -0.000 C 
BRANCH  16  17
ATOM     17  C   UNL     1      14.695  43.250   8.857  1.00  0.00    -0.000 C 
BRANCH  17  18
ATOM     18  C   UNL     1      14.664  41.768   8.471  1.00  0.00    -0.000 C 
BRANCH  18  19
ATOM     19  C   UNL     1      16.073  41.163   8.493  1.00  0.00    -0.003 C 
ATOM     20  C   UNL     1      16.089  39.829   9.234  1.00  0.00     0.004 C 
ENDBRANCH  18  19
ENDBRANCH  17  18
ENDBRANCH  16  17
ENDBRANCH  15  16
ENDBRANCH  14  15
ENDBRANCH  13  14
ENDBRANCH  12  13
ENDBRANCH   1  12
TORSDOF 16
ENDMDL
MODEL 3
REMARK VINA RESULT:    -4.861      2.133      4.988
REMARK INTER + INTRA:         -12.405
REMARK INTER:                  -9.553
REMARK INTRA:                  -2.852
REMARK UNBOUND:                -2.997
REMARK SMILES CCCCCCCCCCCCCCCCCC(=O)[O-]
REMARK SMILES IDX 10 1 11 2 12 3 13 4 14 5 15 6 16 7 17 8 18 9 19 10 20 11
REMARK SMILES IDX 9 12 8 13 7 14 6 15 5 16 4 17 3 18 2 19 1 20
REMARK H PARENT
REMARK Flexibility Score: inf
ROOT
ATOM      1  C   UNL     1      16.682  43.361   3.933  1.00  0.00     0.000 C 
ENDROOT
BRANCH   1   2
ATOM      2  C   UNL     1      16.730  42.998   5.432  1.00  0.00     0.000 C 
BRANCH   2   3
ATOM      3  C   UNL     1      17.770  43.776   6.261  1.00  0.00     0.000 C 
BRANCH   3   4
ATOM      4  C   UNL     1      17.174  44.723   7.319  1.00  0.00     0.000 C 
BRANCH   4   5
ATOM      5  C   UNL     1      15.844  45.379   6.883  1.00  0.00     0.000 C 
BRANCH   5   6
ATOM      6  C   UNL     1      14.702  45.101   7.876  1.00  0.00     0.000 C 
BRANCH   6   7
ATOM      7  C   UNL     1      14.262  43.629   7.877  1.00  0.00     0.006 C 
BRANCH   7   8
ATOM      8  C   UNL     1      14.646  42.896   9.169  1.00  0.00     0.053 C 
BRANCH   8   9
ATOM      9  C   UNL     1      15.191  41.539   8.858  1.00  0.00     0.041 C 
ATOM     10  O   UNL     1      16.399  41.401   8.530  1.00  0.00    -0.550 OA
ATOM     11  O   UNL     1      14.378  40.419   8.978  1.00  0.00    -0.550 OA
ENDBRANCH   8   9
ENDBRANCH   7   8
ENDBRANCH   6   7
ENDBRANCH   5   6
ENDBRANCH   4   5
ENDBRANCH   3   4
ENDBRANCH   2   3
ENDBRANCH   1   2
BRANCH   1  12
ATOM     12  C   UNL     1      15.331  43.907   3.437  1.00  0.00     0.000 C 
BRANCH  12  13
ATOM     13  C   UNL     1      14.132  43.309   4.192  1.00  0.00    -0.000 C 
BRANCH  13  14
ATOM     14  C   UNL     1      12.893  44.216   4.141  1.00  0.00    -0.000 C 
BRANCH  14  15
ATOM     15  C   UNL     1      13.245  45.704   4.323  1.00  0.00    -0.000 C 
BRANCH  15  16
ATOM     16  C   UNL     1      12.085  46.636   3.938  1.00  0.00    -0.000 C 
BRANCH  16  17
ATOM     17  C   UNL     1      11.176  46.972   5.130  1.00  0.00    -0.000 C 
BRANCH  17  18
ATOM     18  C   UNL     1      11.985  47.061   6.428  1.00  0.00    -0.000 C 
BRANCH  18  19
ATOM     19  C   UNL     1      11.273  46.327   7.572  1.00  0.00    -0.003 C 
ATOM     20  C   UNL     1      10.815  44.939   7.135  1.00  0.00     0.004 C 
ENDBRANCH  18  19
ENDBRANCH  17  18
ENDBRANCH  16  17
ENDBRANCH  15  16
ENDBRANCH  14  15
ENDBRANCH  13  14
ENDBRANCH  12  13
ENDBRANCH   1  12
TORSDOF 16
ENDMDL
MODEL 4
REMARK VINA RESULT:    -4.850      2.592      4.046
REMARK INTER + INTRA:         -12.383
REMARK INTER:                  -9.601
REMARK INTRA:                  -2.783
REMARK UNBOUND:                -2.997
REMARK SMILES CCCCCCCCCCCCCCCCCC(=O)[O-]
REMARK SMILES IDX 10 1 11 2 12 3 13 4 14 5 15 6 16 7 17 8 18 9 19 10 20 11
REMARK SMILES IDX 9 12 8 13 7 14 6 15 5 16 4 17 3 18 2 19 1 20
REMARK H PARENT
REMARK Flexibility Score: inf
ROOT
ATOM      1  C   UNL     1      14.822  44.797   3.637  1.00  0.00     0.000 C 
ENDROOT
BRANCH   1   2
ATOM      2  C   UNL     1      13.845  45.945   3.964  1.00  0.00     0.000 C 
BRANCH   2   3
ATOM      3  C   UNL     1      13.934  46.490   5.402  1.00  0.00     0.000 C 
BRANCH   3   4
ATOM      4  C   UNL     1      12.619  47.073   5.954  1.00  0.00     0.000 C 
BRANCH   4   5
ATOM      5  C   UNL     1      12.273  46.580   7.377  1.00  0.00     0.000 C 
BRANCH   5   6
ATOM      6  C   UNL     1      10.768  46.318   7.556  1.00  0.00     0.000 C 
BRANCH   6   7
ATOM      7  C   UNL     1      10.473  44.920   8.122  1.00  0.00     0.006 C 
BRANCH   7   8
ATOM      8  C   UNL     1       9.550  44.095   7.215  1.00  0.00     0.053 C 
BRANCH   8   9
ATOM      9  C   UNL     1       8.127  44.230   7.657  1.00  0.00     0.041 C 
ATOM     10  O   UNL     1       7.861  44.648   8.814  1.00  0.00    -0.550 OA
ATOM     11  O   UNL     1       7.095  43.941   6.774  1.00  0.00    -0.550 OA
ENDBRANCH   8   9
ENDBRANCH   7   8
ENDBRANCH   6   7
ENDBRANCH   5   6
ENDBRANCH   4   5
ENDBRANCH   3   4
ENDBRANCH   2   3
ENDBRANCH   1   2
BRANCH   1  12
ATOM     12  C   UNL     1      14.175  43.407   3.504  1.00  0.00     0.000 C 
BRANCH  12  13
ATOM     13  C   UNL     1      12.652  43.434   3.716  1.00  0.00    -0.000 C 
BRANCH  13  14
ATOM     14  C   UNL     1      12.243  42.954   5.116  1.00  0.00    -0.000 C 
BRANCH  14  15
ATOM     15  C   UNL     1      13.443  42.450   5.939  1.00  0.00    -0.000 C 
BRANCH  15  16
ATOM     16  C   UNL     1      13.725  43.327   7.170  1.00  0.00    -0.000 C 
BRANCH  16  17
ATOM     17  C   UNL     1      15.158  43.163   7.696  1.00  0.00    -0.000 C 
BRANCH  17  18
ATOM     18  C   UNL     1      16.104  42.706   6.580  1.00  0.00    -0.000 C 
BRANCH  18  19
ATOM     19  C   UNL     1      17.149  43.784   6.268  1.00  0.00    -0.003 C 
ATOM     20  C   UNL     1      16.950  45.016   7.147  1.00  0.00     0.004 C 
ENDBRANCH  18  19
ENDBRANCH  17  18
ENDBRANCH  16  17
ENDBRANCH  15  16
ENDBRANCH  14  15
ENDBRANCH  13  14
ENDBRANCH  12  13
ENDBRANCH   1  12
TORSDOF 16
ENDMDL
MODEL 5
REMARK VINA RESULT:    -4.821      2.184      3.299
REMARK INTER + INTRA:         -12.328
REMARK INTER:                  -9.812
REMARK INTRA:                  -2.516
REMARK UNBOUND:                -2.997
REMARK SMILES CCCCCCCCCCCCCCCCCC(=O)[O-]
REMARK SMILES IDX 10 1 11 2 12 3 13 4 14 5 15 6 16 7 17 8 18 9 19 10 20 11
REMARK SMILES IDX 9 12 8 13 7 14 6 15 5 16 4 17 3 18 2 19 1 20
REMARK H PARENT
REMARK Flexibility Score: inf
ROOT
ATOM      1  C   UNL     1      14.357  43.363   3.411  1.00  0.00     0.000 C 
ENDROOT
BRANCH   1   2
ATOM      2  C   UNL     1      12.835  43.242   3.639  1.00  0.00     0.000 C 
BRANCH   2   3
ATOM      3  C   UNL     1      12.342  43.710   5.021  1.00  0.00     0.000 C 
BRANCH   3   4
ATOM      4  C   UNL     1      13.131  43.141   6.215  1.00  0.00     0.000 C 
BRANCH   4   5
ATOM      5  C   UNL     1      13.160  44.081   7.442  1.00  0.00     0.000 C 
BRANCH   5   6
ATOM      6  C   UNL     1      13.619  45.504   7.078  1.00  0.00     0.000 C 
BRANCH   6   7
ATOM      7  C   UNL     1      12.608  46.579   7.507  1.00  0.00     0.006 C 
BRANCH   7   8
ATOM      8  C   UNL     1      11.218  46.003   7.804  1.00  0.00     0.053 C 
BRANCH   8   9
ATOM      9  C   UNL     1      10.189  46.643   6.927  1.00  0.00     0.041 C 
ATOM     10  O   UNL     1       9.015  46.188   6.892  1.00  0.00    -0.550 OA
ATOM     11  O   UNL     1      10.512  47.774   6.188  1.00  0.00    -0.550 OA
ENDBRANCH   8   9
ENDBRANCH   7   8
ENDBRANCH   6   7
ENDBRANCH   5   6
ENDBRANCH   4   5
ENDBRANCH   3   4
ENDBRANCH   2   3
ENDBRANCH   1   2
BRANCH   1  12
ATOM     12  C   UNL     1      14.926  44.786   3.552  1.00  0.00     0.000 C 
BRANCH  12  13
ATOM     13  C   UNL     1      16.030  44.885   4.619  1.00  0.00    -0.000 C 
BRANCH  13  14
ATOM     14  C   UNL     1      16.717  43.537   4.882  1.00  0.00    -0.000 C 
BRANCH  14  15
ATOM     15  C   UNL     1      17.685  43.593   6.077  1.00  0.00    -0.000 C 
BRANCH  15  16
ATOM     16  C   UNL     1      17.316  44.692   7.087  1.00  0.00    -0.000 C 
BRANCH  16  17
ATOM     17  C   UNL     1      16.772  44.124   8.406  1.00  0.00    -0.000 C 
BRANCH  17  18
ATOM     18  C   UNL     1      17.138  42.644   8.559  1.00  0.00    -0.000 C 
BRANCH  18  19
ATOM     19  C   UNL     1      15.881  41.767   8.608  1.00  0.00    -0.003 C 
ATOM     20  C   UNL     1      16.219  40.341   9.031  1.00  0.00     0.004 C 
ENDBRANCH  18  19
ENDBRANCH  17  18
ENDBRANCH  16  17
ENDBRANCH  15  16
ENDBRANCH  14  15
ENDBRANCH  13  14
ENDBRANCH  12  13
ENDBRANCH   1  12
TORSDOF 16
ENDMDL
MODEL 6
REMARK VINA RESULT:    -4.806      2.697      5.636
REMARK INTER + INTRA:         -12.299
REMARK INTER:                 -10.069
REMARK INTRA:                  -2.230
REMARK UNBOUND:                -2.997
REMARK SMILES CCCCCCCCCCCCCCCCCC(=O)[O-]
REMARK SMILES IDX 10 1 11 2 12 3 13 4 14 5 15 6 16 7 17 8 18 9 19 10 20 11
REMARK SMILES IDX 9 12 8 13 7 14 6 15 5 16 4 17 3 18 2 19 1 20
REMARK H PARENT
REMARK Flexibility Score: inf
ROOT
ATOM      1  C   UNL     1      12.987  46.387   7.087  1.00  0.00     0.000 C 
ENDROOT
BRANCH   1   2
ATOM      2  C   UNL     1      13.302  45.376   8.209  1.00  0.00     0.000 C 
BRANCH   2   3
ATOM      3  C   UNL     1      13.479  43.918   7.745  1.00  0.00     0.000 C 
BRANCH   3   4
ATOM      4  C   UNL     1      14.342  43.044   8.675  1.00  0.00     0.000 C 
BRANCH   4   5
ATOM      5  C   UNL     1      14.648  41.643   8.100  1.00  0.00     0.000 C 
BRANCH   5   6
ATOM      6  C   UNL     1      15.899  41.010   8.734  1.00  0.00     0.000 C 
BRANCH   6   7
ATOM      7  C   UNL     1      15.565  39.799   9.620  1.00  0.00     0.006 C 
BRANCH   7   8
ATOM      8  C   UNL     1      14.075  39.434   9.590  1.00  0.00     0.053 C 
BRANCH   8   9
ATOM      9  C   UNL     1      13.758  38.449  10.669  1.00  0.00     0.041 C 
ATOM     10  O   UNL     1      14.547  38.294  11.638  1.00  0.00    -0.550 OA
ATOM     11  O   UNL     1      12.565  37.737  10.632  1.00  0.00    -0.550 OA
ENDBRANCH   8   9
ENDBRANCH   7   8
ENDBRANCH   6   7
ENDBRANCH   5   6
ENDBRANCH   4   5
ENDBRANCH   3   4
ENDBRANCH   2   3
ENDBRANCH   1   2
BRANCH   1  12
ATOM     12  C   UNL     1      13.958  46.361   5.893  1.00  0.00     0.000 C 
BRANCH  12  13
ATOM     13  C   UNL     1      13.441  45.508   4.721  1.00  0.00    -0.000 C 
BRANCH  13  14
ATOM     14  C   UNL     1      14.497  45.317   3.623  1.00  0.00    -0.000 C 
BRANCH  14  15
ATOM     15  C   UNL     1      14.962  43.855   3.501  1.00  0.00    -0.000 C 
BRANCH  15  16
ATOM     16  C   UNL     1      15.505  43.295   4.826  1.00  0.00    -0.000 C 
BRANCH  16  17
ATOM     17  C   UNL     1      17.029  43.442   4.949  1.00  0.00    -0.000 C 
BRANCH  17  18
ATOM     18  C   UNL     1      17.454  43.548   6.418  1.00  0.00    -0.000 C 
BRANCH  18  19
ATOM     19  C   UNL     1      17.141  44.939   6.982  1.00  0.00    -0.003 C 
ATOM     20  C   UNL     1      17.219  44.947   8.506  1.00  0.00     0.004 C 
ENDBRANCH  18  19
ENDBRANCH  17  18
ENDBRANCH  16  17
ENDBRANCH  15  16
ENDBRANCH  14  15
ENDBRANCH  13  14
ENDBRANCH  12  13
ENDBRANCH   1  12
TORSDOF 16
ENDMDL
MODEL 7
REMARK VINA RESULT:    -4.746      4.024      7.317
REMARK INTER + INTRA:         -12.182
REMARK INTER:                 -10.341
REMARK INTRA:                  -1.842
REMARK UNBOUND:                -2.997
REMARK SMILES CCCCCCCCCCCCCCCCCC(=O)[O-]
REMARK SMILES IDX 10 1 11 2 12 3 13 4 14 5 15 6 16 7 17 8 18 9 19 10 20 11
REMARK SMILES IDX 9 12 8 13 7 14 6 15 5 16 4 17 3 18 2 19 1 20
REMARK H PARENT
REMARK Flexibility Score: inf
ROOT
ATOM      1  C   UNL     1      14.706  42.200   8.520  1.00  0.00     0.000 C 
ENDROOT
BRANCH   1   2
ATOM      2  C   UNL     1      15.984  41.338   8.595  1.00  0.00     0.000 C 
BRANCH   2   3
ATOM      3  C   UNL     1      15.797  39.947   9.230  1.00  0.00     0.000 C 
BRANCH   3   4
ATOM      4  C   UNL     1      14.330  39.514   9.416  1.00  0.00     0.000 C 
BRANCH   4   5
ATOM      5  C   UNL     1      14.039  38.894  10.801  1.00  0.00     0.000 C 
BRANCH   5   6
ATOM      6  C   UNL     1      12.915  37.844  10.749  1.00  0.00     0.000 C 
BRANCH   6   7
ATOM      7  C   UNL     1      12.290  37.578  12.127  1.00  0.00     0.006 C 
BRANCH   7   8
ATOM      8  C   UNL     1      12.144  36.082  12.433  1.00  0.00     0.053 C 
BRANCH   8   9
ATOM      9  C   UNL     1      13.479  35.408  12.395  1.00  0.00     0.041 C 
ATOM     10  O   UNL     1      13.667  34.415  11.644  1.00  0.00    -0.550 OA
ATOM     11  O   UNL     1      14.531  35.908  13.153  1.00  0.00    -0.550 OA
ENDBRANCH   8   9
ENDBRANCH   7   8
ENDBRANCH   6   7
ENDBRANCH   5   6
ENDBRANCH   4   5
ENDBRANCH   3   4
ENDBRANCH   2   3
ENDBRANCH   1   2
BRANCH   1  12
ATOM     12  C   UNL     1      14.192  42.482   7.096  1.00  0.00     0.000 C 
BRANCH  12  13
ATOM     13  C   UNL     1      13.433  43.816   6.989  1.00  0.00    -0.000 C 
BRANCH  13  14
ATOM     14  C   UNL     1      13.494  44.415   5.576  1.00  0.00    -0.000 C 
BRANCH  14  15
ATOM     15  C   UNL     1      13.795  43.357   4.500  1.00  0.00    -0.000 C 
BRANCH  15  16
ATOM     16  C   UNL     1      14.993  43.739   3.614  1.00  0.00    -0.000 C 
BRANCH  16  17
ATOM     17  C   UNL     1      16.150  44.351   4.417  1.00  0.00    -0.000 C 
BRANCH  17  18
ATOM     18  C   UNL     1      16.999  43.258   5.076  1.00  0.00    -0.000 C 
BRANCH  18  19
ATOM     19  C   UNL     1      17.766  43.810   6.283  1.00  0.00    -0.003 C 
ATOM     20  C   UNL     1      17.004  44.955   6.945  1.00  0.00     0.004 C 
ENDBRANCH  18  19
ENDBRANCH  17  18
ENDBRANCH  16  17
ENDBRANCH  15  16
ENDBRANCH  14  15
ENDBRANCH  13  14
ENDBRANCH  12  13
ENDBRANCH   1  12
TORSDOF 16
ENDMDL
MODEL 8
REMARK VINA RESULT:    -4.715      3.081      5.649
REMARK INTER + INTRA:         -12.122
REMARK INTER:                  -9.890
REMARK INTRA:                  -2.232
REMARK UNBOUND:                -2.997
REMARK SMILES CCCCCCCCCCCCCCCCCC(=O)[O-]
REMARK SMILES IDX 10 1 11 2 12 3 13 4 14 5 15 6 16 7 17 8 18 9 19 10 20 11
REMARK SMILES IDX 9 12 8 13 7 14 6 15 5 16 4 17 3 18 2 19 1 20
REMARK H PARENT
REMARK Flexibility Score: inf
ROOT
ATOM      1  C   UNL     1      12.529  44.447   6.282  1.00  0.00     0.000 C 
ENDROOT
BRANCH   1   2
ATOM      2  C   UNL     1      12.843  44.108   4.810  1.00  0.00     0.000 C 
BRANCH   2   3
ATOM      3  C   UNL     1      13.461  45.258   3.991  1.00  0.00     0.000 C 
BRANCH   3   4
ATOM      4  C   UNL     1      14.935  45.050   3.595  1.00  0.00     0.000 C 
BRANCH   4   5
ATOM      5  C   UNL     1      15.377  43.570   3.616  1.00  0.00     0.000 C 
BRANCH   5   6
ATOM      6  C   UNL     1      16.715  43.369   4.348  1.00  0.00     0.000 C 
BRANCH   6   7
ATOM      7  C   UNL     1      16.549  43.282   5.873  1.00  0.00     0.006 C 
BRANCH   7   8
ATOM      8  C   UNL     1      17.530  44.186   6.630  1.00  0.00     0.053 C 
BRANCH   8   9
ATOM      9  C   UNL     1      17.154  44.269   8.076  1.00  0.00     0.041 C 
ATOM     10  O   UNL     1      16.319  45.127   8.465  1.00  0.00    -0.550 OA
ATOM     11  O   UNL     1      17.689  43.366   8.986  1.00  0.00    -0.550 OA
ENDBRANCH   8   9
ENDBRANCH   7   8
ENDBRANCH   6   7
ENDBRANCH   5   6
ENDBRANCH   4   5
ENDBRANCH   3   4
ENDBRANCH   2   3
ENDBRANCH   1   2
BRANCH   1  12
ATOM     12  C   UNL     1      13.246  45.692   6.833  1.00  0.00     0.000 C 
BRANCH  12  13
ATOM     13  C   UNL     1      12.271  46.781   7.311  1.00  0.00    -0.000 C 
BRANCH  13  14
ATOM     14  C   UNL     1      11.401  47.334   6.173  1.00  0.00    -0.000 C 
BRANCH  14  15
ATOM     15  C   UNL     1       9.924  47.484   6.579  1.00  0.00    -0.000 C 
BRANCH  15  16
ATOM     16  C   UNL     1       9.552  46.609   7.787  1.00  0.00    -0.000 C 
BRANCH  16  17
ATOM     17  C   UNL     1       8.784  45.342   7.384  1.00  0.00    -0.000 C 
BRANCH  17  18
ATOM     18  C   UNL     1       9.316  44.116   8.134  1.00  0.00    -0.000 C 
BRANCH  18  19
ATOM     19  C   UNL     1      10.258  44.533   9.271  1.00  0.00    -0.003 C 
ATOM     20  C   UNL     1       9.751  44.032  10.619  1.00  0.00     0.004 C 
ENDBRANCH  18  19
ENDBRANCH  17  18
ENDBRANCH  16  17
ENDBRANCH  15  16
ENDBRANCH  14  15
ENDBRANCH  13  14
ENDBRANCH  12  13
ENDBRANCH   1  12
TORSDOF 16
ENDMDL
MODEL 9
REMARK VINA RESULT:    -4.701      2.510      3.334
REMARK INTER + INTRA:         -12.096
REMARK INTER:                  -9.567
REMARK INTRA:                  -2.529
REMARK UNBOUND:                -2.997
REMARK SMILES CCCCCCCCCCCCCCCCCC(=O)[O-]
REMARK SMILES IDX 10 1 11 2 12 3 13 4 14 5 15 6 16 7 17 8 18 9 19 10 20 11
REMARK SMILES IDX 9 12 8 13 7 14 6 15 5 16 4 17 3 18 2 19 1 20
REMARK H PARENT
REMARK Flexibility Score: inf
ROOT
ATOM      1  C   UNL     1      14.150  43.304   4.279  1.00  0.00     0.000 C 
ENDROOT
BRANCH   1   2
ATOM      2  C   UNL     1      12.914  44.216   4.434  1.00  0.00     0.000 C 
BRANCH   2   3
ATOM      3  C   UNL     1      13.178  45.718   4.213  1.00  0.00     0.000 C 
BRANCH   3   4
ATOM      4  C   UNL     1      13.675  46.476   5.459  1.00  0.00     0.000 C 
BRANCH   4   5
ATOM      5  C   UNL     1      12.535  47.022   6.347  1.00  0.00     0.000 C 
BRANCH   5   6
ATOM      6  C   UNL     1      12.563  46.430   7.767  1.00  0.00     0.000 C 
BRANCH   6   7
ATOM      7  C   UNL     1      11.811  45.094   7.867  1.00  0.00     0.006 C 
BRANCH   7   8
ATOM      8  C   UNL     1      11.887  44.474   9.268  1.00  0.00     0.053 C 
BRANCH   8   9
ATOM      9  C   UNL     1      10.518  44.335   9.854  1.00  0.00     0.041 C 
ATOM     10  O   UNL     1      10.375  43.983  11.054  1.00  0.00    -0.550 OA
ATOM     11  O   UNL     1       9.400  44.644   9.089  1.00  0.00    -0.550 OA
ENDBRANCH   8   9
ENDBRANCH   7   8
ENDBRANCH   6   7
ENDBRANCH   5   6
ENDBRANCH   4   5
ENDBRANCH   3   4
ENDBRANCH   2   3
ENDBRANCH   1   2
BRANCH   1  12
ATOM     12  C   UNL     1      15.280  43.880   3.408  1.00  0.00     0.000 C 
BRANCH  12  13
ATOM     13  C   UNL     1      16.680  43.576   3.968  1.00  0.00    -0.000 C 
BRANCH  13  14
ATOM     14  C   UNL     1      16.632  42.994   5.388  1.00  0.00    -0.000 C 
BRANCH  14  15
ATOM     15  C   UNL     1      17.499  43.790   6.380  1.00  0.00    -0.000 C 
BRANCH  15  16
ATOM     16  C   UNL     1      16.810  45.075   6.868  1.00  0.00    -0.000 C 
BRANCH  16  17
ATOM     17  C   UNL     1      15.864  44.826   8.052  1.00  0.00    -0.000 C 
BRANCH  17  18
ATOM     18  C   UNL     1      16.319  43.613   8.871  1.00  0.00    -0.000 C 
BRANCH  18  19
ATOM     19  C   UNL     1      15.143  42.671   9.159  1.00  0.00    -0.003 C 
ATOM     20  C   UNL     1      14.458  42.233   7.868  1.00  0.00     0.004 C 
ENDBRANCH  18  19
ENDBRANCH  17  18
ENDBRANCH  16  17
ENDBRANCH  15  16
ENDBRANCH  14  15
ENDBRANCH  13  14
ENDBRANCH  12  13
ENDBRANCH   1  12
TORSDOF 16
ENDMDL
