MODEL 1
REMARK VINA RESULT:    -3.726      0.000      0.000
REMARK INTER + INTRA:         -11.387
REMARK INTER:                  -8.082
REMARK INTRA:                  -3.306
REMARK UNBOUND:                -3.306
REMARK SMILES CCCCCCCCCCCCCCCCCCCCCC(=O)[O-]
REMARK SMILES IDX 12 1 11 2 10 3 9 4 8 5 7 6 6 7 5 8 4 9 3 10 2 11 1 12 13 13
REMARK SMILES IDX 14 14 15 15 16 16 17 17 18 18 19 19 20 20 21 21 22 22 23 23
REMARK SMILES IDX 24 24
REMARK H PARENT
REMARK Flexibility Score: inf
ROOT
ATOM      1  C   UNL     1      -2.834   1.503   7.533  1.00  0.00     0.000 C 
ENDROOT
BRANCH   1   2
ATOM      2  C   UNL     1      -2.118   1.540   8.894  1.00  0.00     0.000 C 
BRANCH   2   3
ATOM      3  C   UNL     1      -2.685   2.618   9.830  1.00  0.00     0.000 C 
BRANCH   3   4
ATOM      4  C   UNL     1      -3.650   3.545   9.079  1.00  0.00    -0.000 C 
BRANCH   4   5
ATOM      5  C   UNL     1      -5.023   3.585   9.766  1.00  0.00    -0.000 C 
BRANCH   5   6
ATOM      6  C   UNL     1      -5.689   2.200   9.855  1.00  0.00    -0.000 C 
BRANCH   6   7
ATOM      7  C   UNL     1      -6.915   2.010   8.942  1.00  0.00    -0.000 C 
BRANCH   7   8
ATOM      8  C   UNL     1      -6.580   1.756   7.461  1.00  0.00    -0.000 C 
BRANCH   8   9
ATOM      9  C   UNL     1      -7.791   1.931   6.516  1.00  0.00    -0.000 C 
BRANCH   9  10
ATOM     10  C   UNL     1      -7.898   0.825   5.452  1.00  0.00    -0.000 C 
BRANCH  10  11
ATOM     11  C   UNL     1      -6.660   0.772   4.546  1.00  0.00    -0.003 C 
ATOM     12  C   UNL     1      -7.056   0.659   3.078  1.00  0.00     0.004 C 
ENDBRANCH  10  11
ENDBRANCH   9  10
ENDBRANCH   8   9
ENDBRANCH   7   8
ENDBRANCH   6   7
ENDBRANCH   5   6
ENDBRANCH   4   5
ENDBRANCH   3   4
ENDBRANCH   2   3
ENDBRANCH   1   2
BRANCH   1  13
ATOM     13  C   UNL     1      -3.402   0.111   7.207  1.00  0.00     0.000 C 
BRANCH  13  14
ATOM     14  C   UNL     1      -3.650  -0.739   8.464  1.00  0.00     0.000 C 
BRANCH  14  15
ATOM     15  C   UNL     1      -3.773  -2.239   8.153  1.00  0.00     0.000 C 
BRANCH  15  16
ATOM     16  C   UNL     1      -5.008  -2.842   8.841  1.00  0.00     0.000 C 
BRANCH  16  17
ATOM     17  C   UNL     1      -6.018  -1.772   9.288  1.00  0.00     0.000 C 
BRANCH  17  18
ATOM     18  C   UNL     1      -7.294  -1.772   8.426  1.00  0.00     0.000 C 
BRANCH  18  19
ATOM     19  C   UNL     1      -7.034  -2.239   6.985  1.00  0.00     0.000 C 
BRANCH  19  20
ATOM     20  C   UNL     1      -7.890  -3.451   6.589  1.00  0.00     0.006 C 
BRANCH  20  21
ATOM     21  C   UNL     1      -7.063  -4.465   5.792  1.00  0.00     0.053 C 
BRANCH  21  22
ATOM     22  C   UNL     1      -6.325  -3.791   4.679  1.00  0.00     0.041 C 
ATOM     23  O   UNL     1      -5.066  -3.835   4.631  1.00  0.00    -0.550 OA
ATOM     24  O   UNL     1      -7.027  -3.114   3.689  1.00  0.00    -0.550 OA
ENDBRANCH  21  22
ENDBRANCH  20  21
ENDBRANCH  19  20
ENDBRANCH  18  19
ENDBRANCH  17  18
ENDBRANCH  16  17
ENDBRANCH  15  16
ENDBRANCH  14  15
ENDBRANCH  13  14
ENDBRANCH   1  13
TORSDOF 20
ENDMDL
MODEL 2
REMARK VINA RESULT:    -3.704      6.548     10.428
REMARK INTER + INTRA:         -11.341
REMARK INTER:                 -10.145
REMARK INTRA:                  -1.197
REMARK UNBOUND:                -3.306
REMARK SMILES CCCCCCCCCCCCCCCCCCCCCC(=O)[O-]
REMARK SMILES IDX 12 1 11 2 10 3 9 4 8 5 7 6 6 7 5 8 4 9 3 10 2 11 1 12 13 13
REMARK SMILES IDX 14 14 15 15 16 16 17 17 18 18 19 19 20 20 21 21 22 22 23 23
REMARK SMILES IDX 24 24
REMARK H PARENT
REMARK Flexibility Score: inf
ROOT
ATOM      1  C   UNL     1      -6.800   3.463  -0.179  1.00  0.00     0.000 C 
ENDROOT
BRANCH   1   2
ATOM      2  C   UNL     1      -7.298   3.376   1.273  1.00  0.00     0.000 C 
BRANCH   2   3
ATOM      3  C   UNL     1      -7.903   2.004   1.608  1.00  0.00     0.000 C 
BRANCH   3   4
ATOM      4  C   UNL     1      -7.766   1.694   3.104  1.00  0.00    -0.000 C 
BRANCH   4   5
ATOM      5  C   UNL     1      -7.042   0.358   3.328  1.00  0.00    -0.000 C 
BRANCH   5   6
ATOM      6  C   UNL     1      -7.468  -0.730   2.325  1.00  0.00    -0.000 C 
BRANCH   6   7
ATOM      7  C   UNL     1      -7.761  -2.108   2.949  1.00  0.00    -0.000 C 
BRANCH   7   8
ATOM      8  C   UNL     1      -7.088  -2.351   4.313  1.00  0.00    -0.000 C 
BRANCH   8   9
ATOM      9  C   UNL     1      -6.418  -3.739   4.430  1.00  0.00    -0.000 C 
BRANCH   9  10
ATOM     10  C   UNL     1      -5.351  -3.809   5.537  1.00  0.00    -0.000 C 
BRANCH  10  11
ATOM     11  C   UNL     1      -5.203  -2.475   6.282  1.00  0.00    -0.003 C 
ATOM     12  C   UNL     1      -4.061  -2.531   7.291  1.00  0.00     0.004 C 
ENDBRANCH  10  11
ENDBRANCH   9  10
ENDBRANCH   8   9
ENDBRANCH   7   8
ENDBRANCH   6   7
ENDBRANCH   5   6
ENDBRANCH   4   5
ENDBRANCH   3   4
ENDBRANCH   2   3
ENDBRANCH   1   2
BRANCH   1  13
ATOM     13  C   UNL     1      -7.482   4.595  -0.967  1.00  0.00     0.000 C 
BRANCH  13  14
ATOM     14  C   UNL     1      -8.054   4.120  -2.313  1.00  0.00     0.000 C 
BRANCH  14  15
ATOM     15  C   UNL     1      -8.056   2.589  -2.450  1.00  0.00     0.000 C 
BRANCH  15  16
ATOM     16  C   UNL     1      -7.742   2.168  -3.894  1.00  0.00     0.000 C 
BRANCH  16  17
ATOM     17  C   UNL     1      -7.217   0.726  -3.989  1.00  0.00     0.000 C 
BRANCH  17  18
ATOM     18  C   UNL     1      -5.818   0.651  -4.628  1.00  0.00     0.000 C 
BRANCH  18  19
ATOM     19  C   UNL     1      -5.102  -0.676  -4.330  1.00  0.00     0.000 C 
BRANCH  19  20
ATOM     20  C   UNL     1      -4.565  -1.359  -5.596  1.00  0.00     0.006 C 
BRANCH  20  21
ATOM     21  C   UNL     1      -4.901  -0.537  -6.843  1.00  0.00     0.053 C 
BRANCH  21  22
ATOM     22  C   UNL     1      -3.674  -0.290  -7.664  1.00  0.00     0.041 C 
ATOM     23  O   UNL     1      -3.555   0.776  -8.327  1.00  0.00    -0.550 OA
ATOM     24  O   UNL     1      -2.658  -1.237  -7.697  1.00  0.00    -0.550 OA
ENDBRANCH  21  22
ENDBRANCH  20  21
ENDBRANCH  19  20
ENDBRANCH  18  19
ENDBRANCH  17  18
ENDBRANCH  16  17
ENDBRANCH  15  16
ENDBRANCH  14  15
ENDBRANCH  13  14
ENDBRANCH   1  13
TORSDOF 20
ENDMDL
MODEL 3
REMARK VINA RESULT:    -3.628      4.889      7.649
REMARK INTER + INTRA:         -11.176
REMARK INTER:                  -9.911
REMARK INTRA:                  -1.265
REMARK UNBOUND:                -3.306
REMARK SMILES CCCCCCCCCCCCCCCCCCCCCC(=O)[O-]
REMARK SMILES IDX 12 1 11 2 10 3 9 4 8 5 7 6 6 7 5 8 4 9 3 10 2 11 1 12 13 13
REMARK SMILES IDX 14 14 15 15 16 16 17 17 18 18 19 19 20 20 21 21 22 22 23 23
REMARK SMILES IDX 24 24
REMARK H PARENT
REMARK Flexibility Score: inf
ROOT
ATOM      1  C   UNL     1      -7.015  -0.503   3.257  1.00  0.00     0.000 C 
ENDROOT
BRANCH   1   2
ATOM      2  C   UNL     1      -6.987   0.893   3.902  1.00  0.00     0.000 C 
BRANCH   2   3
ATOM      3  C   UNL     1      -8.037   1.841   3.302  1.00  0.00     0.000 C 
BRANCH   3   4
ATOM      4  C   UNL     1      -7.893   1.925   1.777  1.00  0.00    -0.000 C 
BRANCH   4   5
ATOM      5  C   UNL     1      -7.850   3.386   1.306  1.00  0.00    -0.000 C 
BRANCH   5   6
ATOM      6  C   UNL     1      -6.712   3.660   0.307  1.00  0.00    -0.000 C 
BRANCH   6   7
ATOM      7  C   UNL     1      -7.073   4.623  -0.840  1.00  0.00    -0.000 C 
BRANCH   7   8
ATOM      8  C   UNL     1      -6.797   6.108  -0.544  1.00  0.00    -0.000 C 
BRANCH   8   9
ATOM      9  C   UNL     1      -5.901   6.792  -1.602  1.00  0.00    -0.000 C 
BRANCH   9  10
ATOM     10  C   UNL     1      -6.700   7.520  -2.697  1.00  0.00    -0.000 C 
BRANCH  10  11
ATOM     11  C   UNL     1      -6.019   7.425  -4.069  1.00  0.00    -0.003 C 
ATOM     12  C   UNL     1      -4.541   7.790  -3.977  1.00  0.00     0.004 C 
ENDBRANCH  10  11
ENDBRANCH   9  10
ENDBRANCH   8   9
ENDBRANCH   7   8
ENDBRANCH   6   7
ENDBRANCH   5   6
ENDBRANCH   4   5
ENDBRANCH   3   4
ENDBRANCH   2   3
ENDBRANCH   1   2
BRANCH   1  13
ATOM     13  C   UNL     1      -8.014  -1.448   3.946  1.00  0.00     0.000 C 
BRANCH  13  14
ATOM     14  C   UNL     1      -8.000  -2.864   3.347  1.00  0.00     0.000 C 
BRANCH  14  15
ATOM     15  C   UNL     1      -7.537  -3.930   4.353  1.00  0.00     0.000 C 
BRANCH  15  16
ATOM     16  C   UNL     1      -6.016  -3.860   4.566  1.00  0.00     0.000 C 
BRANCH  16  17
ATOM     17  C   UNL     1      -5.631  -3.735   6.049  1.00  0.00     0.000 C 
BRANCH  17  18
ATOM     18  C   UNL     1      -5.422  -2.273   6.481  1.00  0.00     0.000 C 
BRANCH  18  19
ATOM     19  C   UNL     1      -4.673  -2.151   7.817  1.00  0.00     0.000 C 
BRANCH  19  20
ATOM     20  C   UNL     1      -3.610  -1.042   7.804  1.00  0.00     0.006 C 
BRANCH  20  21
ATOM     21  C   UNL     1      -4.150   0.222   7.127  1.00  0.00     0.053 C 
BRANCH  21  22
ATOM     22  C   UNL     1      -3.324   1.415   7.492  1.00  0.00     0.041 C 
ATOM     23  O   UNL     1      -3.851   2.558   7.554  1.00  0.00    -0.550 OA
ATOM     24  O   UNL     1      -1.971   1.265   7.768  1.00  0.00    -0.550 OA
ENDBRANCH  21  22
ENDBRANCH  20  21
ENDBRANCH  19  20
ENDBRANCH  18  19
ENDBRANCH  17  18
ENDBRANCH  16  17
ENDBRANCH  15  16
ENDBRANCH  14  15
ENDBRANCH  13  14
ENDBRANCH   1  13
TORSDOF 20
ENDMDL
MODEL 4
REMARK VINA RESULT:    -3.605      3.708      6.611
REMARK INTER + INTRA:         -11.125
REMARK INTER:                  -9.298
REMARK INTRA:                  -1.827
REMARK UNBOUND:                -3.306
REMARK SMILES CCCCCCCCCCCCCCCCCCCCCC(=O)[O-]
REMARK SMILES IDX 12 1 11 2 10 3 9 4 8 5 7 6 6 7 5 8 4 9 3 10 2 11 1 12 13 13
REMARK SMILES IDX 14 14 15 15 16 16 17 17 18 18 19 19 20 20 21 21 22 22 23 23
REMARK SMILES IDX 24 24
REMARK H PARENT
REMARK Flexibility Score: inf
ROOT
ATOM      1  C   UNL     1      -8.051  -2.765   3.359  1.00  0.00     0.000 C 
ENDROOT
BRANCH   1   2
ATOM      2  C   UNL     1      -8.028  -1.253   3.638  1.00  0.00     0.000 C 
BRANCH   2   3
ATOM      3  C   UNL     1      -6.806  -0.826   4.465  1.00  0.00     0.000 C 
BRANCH   3   4
ATOM      4  C   UNL     1      -6.793   0.693   4.681  1.00  0.00    -0.000 C 
BRANCH   4   5
ATOM      5  C   UNL     1      -7.740   1.398   3.700  1.00  0.00    -0.000 C 
BRANCH   5   6
ATOM      6  C   UNL     1      -7.013   1.970   2.469  1.00  0.00    -0.000 C 
BRANCH   6   7
ATOM      7  C   UNL     1      -7.886   2.843   1.548  1.00  0.00    -0.000 C 
BRANCH   7   8
ATOM      8  C   UNL     1      -7.107   3.887   0.725  1.00  0.00    -0.000 C 
BRANCH   8   9
ATOM      9  C   UNL     1      -7.139   3.620  -0.797  1.00  0.00    -0.000 C 
BRANCH   9  10
ATOM     10  C   UNL     1      -7.353   4.893  -1.634  1.00  0.00    -0.000 C 
BRANCH  10  11
ATOM     11  C   UNL     1      -6.691   6.122  -0.997  1.00  0.00    -0.003 C 
ATOM     12  C   UNL     1      -6.004   6.986  -2.050  1.00  0.00     0.004 C 
ENDBRANCH  10  11
ENDBRANCH   9  10
ENDBRANCH   8   9
ENDBRANCH   7   8
ENDBRANCH   6   7
ENDBRANCH   5   6
ENDBRANCH   4   5
ENDBRANCH   3   4
ENDBRANCH   2   3
ENDBRANCH   1   2
BRANCH   1  13
ATOM     13  C   UNL     1      -6.942  -3.519   4.113  1.00  0.00     0.000 C 
BRANCH  13  14
ATOM     14  C   UNL     1      -7.493  -4.633   5.019  1.00  0.00     0.000 C 
BRANCH  14  15
ATOM     15  C   UNL     1      -6.871  -4.617   6.424  1.00  0.00     0.000 C 
BRANCH  15  16
ATOM     16  C   UNL     1      -7.324  -3.375   7.210  1.00  0.00     0.000 C 
BRANCH  16  17
ATOM     17  C   UNL     1      -6.148  -2.627   7.861  1.00  0.00     0.000 C 
BRANCH  17  18
ATOM     18  C   UNL     1      -4.868  -2.691   7.010  1.00  0.00     0.000 C 
BRANCH  18  19
ATOM     19  C   UNL     1      -3.635  -2.153   7.755  1.00  0.00     0.000 C 
BRANCH  19  20
ATOM     20  C   UNL     1      -3.780  -0.677   8.155  1.00  0.00     0.006 C 
BRANCH  20  21
ATOM     21  C   UNL     1      -3.153   0.238   7.099  1.00  0.00     0.053 C 
BRANCH  21  22
ATOM     22  C   UNL     1      -3.265   1.674   7.505  1.00  0.00     0.041 C 
ATOM     23  O   UNL     1      -4.004   2.463   6.856  1.00  0.00    -0.550 OA
ATOM     24  O   UNL     1      -2.557   2.143   8.604  1.00  0.00    -0.550 OA
ENDBRANCH  21  22
ENDBRANCH  20  21
ENDBRANCH  19  20
ENDBRANCH  18  19
ENDBRANCH  17  18
ENDBRANCH  16  17
ENDBRANCH  15  16
ENDBRANCH  14  15
ENDBRANCH  13  14
ENDBRANCH   1  13
TORSDOF 20
ENDMDL
MODEL 5
REMARK VINA RESULT:    -3.569     12.965     15.547
REMARK INTER + INTRA:         -11.049
REMARK INTER:                  -8.979
REMARK INTRA:                  -2.070
REMARK UNBOUND:                -3.306
REMARK SMILES CCCCCCCCCCCCCCCCCCCCCC(=O)[O-]
REMARK SMILES IDX 12 1 11 2 10 3 9 4 8 5 7 6 6 7 5 8 4 9 3 10 2 11 1 12 13 13
REMARK SMILES IDX 14 14 15 15 16 16 17 17 18 18 19 19 20 20 21 21 22 22 23 23
REMARK SMILES IDX 24 24
REMARK H PARENT
REMARK Flexibility Score: inf
ROOT
ATOM      1  C   UNL     1      -2.137  -0.193  -7.581  1.00  0.00     0.000 C 
ENDROOT
BRANCH   1   2
ATOM      2  C   UNL     1      -1.822   0.851  -8.666  1.00  0.00     0.000 C 
BRANCH   2   3
ATOM      3  C   UNL     1      -3.080   1.328  -9.408  1.00  0.00     0.000 C 
BRANCH   3   4
ATOM      4  C   UNL     1      -3.117   2.859  -9.498  1.00  0.00    -0.000 C 
BRANCH   4   5
ATOM      5  C   UNL     1      -4.560   3.380  -9.436  1.00  0.00    -0.000 C 
BRANCH   5   6
ATOM      6  C   UNL     1      -4.640   4.916  -9.359  1.00  0.00    -0.000 C 
BRANCH   6   7
ATOM      7  C   UNL     1      -3.334   5.652  -9.714  1.00  0.00    -0.000 C 
BRANCH   7   8
ATOM      8  C   UNL     1      -3.060   6.915  -8.876  1.00  0.00    -0.000 C 
BRANCH   8   9
ATOM      9  C   UNL     1      -3.103   6.665  -7.352  1.00  0.00    -0.000 C 
BRANCH   9  10
ATOM     10  C   UNL     1      -3.366   7.940  -6.532  1.00  0.00    -0.000 C 
BRANCH  10  11
ATOM     11  C   UNL     1      -4.374   7.701  -5.400  1.00  0.00    -0.003 C 
ATOM     12  C   UNL     1      -3.679   7.658  -4.043  1.00  0.00     0.004 C 
ENDBRANCH  10  11
ENDBRANCH   9  10
ENDBRANCH   8   9
ENDBRANCH   7   8
ENDBRANCH   6   7
ENDBRANCH   5   6
ENDBRANCH   4   5
ENDBRANCH   3   4
ENDBRANCH   2   3
ENDBRANCH   1   2
BRANCH   1  13
ATOM     13  C   UNL     1      -3.649  -0.417  -7.403  1.00  0.00     0.000 C 
BRANCH  13  14
ATOM     14  C   UNL     1      -3.982  -1.247  -6.152  1.00  0.00     0.000 C 
BRANCH  14  15
ATOM     15  C   UNL     1      -5.112  -0.629  -5.314  1.00  0.00     0.000 C 
BRANCH  15  16
ATOM     16  C   UNL     1      -6.085   0.162  -6.203  1.00  0.00     0.000 C 
BRANCH  16  17
ATOM     17  C   UNL     1      -7.533  -0.343  -6.089  1.00  0.00     0.000 C 
BRANCH  17  18
ATOM     18  C   UNL     1      -7.716  -1.746  -6.696  1.00  0.00     0.000 C 
BRANCH  18  19
ATOM     19  C   UNL     1      -7.337  -1.800  -8.184  1.00  0.00     0.000 C 
BRANCH  19  20
ATOM     20  C   UNL     1      -6.302  -2.891  -8.495  1.00  0.00     0.006 C 
BRANCH  20  21
ATOM     21  C   UNL     1      -6.291  -3.960  -7.398  1.00  0.00     0.053 C 
BRANCH  21  22
ATOM     22  C   UNL     1      -5.100  -4.856  -7.540  1.00  0.00     0.041 C 
ATOM     23  O   UNL     1      -5.084  -5.757  -8.421  1.00  0.00    -0.550 OA
ATOM     24  O   UNL     1      -4.005  -4.694  -6.701  1.00  0.00    -0.550 OA
ENDBRANCH  21  22
ENDBRANCH  20  21
ENDBRANCH  19  20
ENDBRANCH  18  19
ENDBRANCH  17  18
ENDBRANCH  16  17
ENDBRANCH  15  16
ENDBRANCH  14  15
ENDBRANCH  13  14
ENDBRANCH   1  13
TORSDOF 20
ENDMDL
MODEL 6
REMARK VINA RESULT:    -3.552      3.273      3.983
REMARK INTER + INTRA:         -11.010
REMARK INTER:                  -8.381
REMARK INTRA:                  -2.629
REMARK UNBOUND:                -3.306
REMARK SMILES CCCCCCCCCCCCCCCCCCCCCC(=O)[O-]
REMARK SMILES IDX 12 1 11 2 10 3 9 4 8 5 7 6 6 7 5 8 4 9 3 10 2 11 1 12 13 13
REMARK SMILES IDX 14 14 15 15 16 16 17 17 18 18 19 19 20 20 21 21 22 22 23 23
REMARK SMILES IDX 24 24
REMARK H PARENT
REMARK Flexibility Score: inf
ROOT
ATOM      1  C   UNL     1      -3.661  -0.911   8.016  1.00  0.00     0.000 C 
ENDROOT
BRANCH   1   2
ATOM      2  C   UNL     1      -3.280   0.275   7.114  1.00  0.00     0.000 C 
BRANCH   2   3
ATOM      3  C   UNL     1      -2.288   1.234   7.789  1.00  0.00     0.000 C 
BRANCH   3   4
ATOM      4  C   UNL     1      -2.882   1.821   9.077  1.00  0.00    -0.000 C 
BRANCH   4   5
ATOM      5  C   UNL     1      -3.584   3.158   8.801  1.00  0.00    -0.000 C 
BRANCH   5   6
ATOM      6  C   UNL     1      -5.024   3.203   9.345  1.00  0.00    -0.000 C 
BRANCH   6   7
ATOM      7  C   UNL     1      -5.800   1.876   9.236  1.00  0.00    -0.000 C 
BRANCH   7   8
ATOM      8  C   UNL     1      -6.565   1.686   7.913  1.00  0.00    -0.000 C 
BRANCH   8   9
ATOM      9  C   UNL     1      -7.349   0.356   7.840  1.00  0.00    -0.000 C 
BRANCH   9  10
ATOM     10  C   UNL     1      -7.721  -0.054   6.405  1.00  0.00    -0.000 C 
BRANCH  10  11
ATOM     11  C   UNL     1      -6.523   0.036   5.449  1.00  0.00    -0.003 C 
ATOM     12  C   UNL     1      -6.892  -0.462   4.055  1.00  0.00     0.004 C 
ENDBRANCH  10  11
ENDBRANCH   9  10
ENDBRANCH   8   9
ENDBRANCH   7   8
ENDBRANCH   6   7
ENDBRANCH   5   6
ENDBRANCH   4   5
ENDBRANCH   3   4
ENDBRANCH   2   3
ENDBRANCH   1   2
BRANCH   1  13
ATOM     13  C   UNL     1      -3.910  -2.201   7.216  1.00  0.00     0.000 C 
BRANCH  13  14
ATOM     14  C   UNL     1      -5.326  -2.764   7.424  1.00  0.00     0.000 C 
BRANCH  14  15
ATOM     15  C   UNL     1      -5.802  -3.626   6.245  1.00  0.00     0.000 C 
BRANCH  15  16
ATOM     16  C   UNL     1      -7.228  -4.147   6.486  1.00  0.00     0.000 C 
BRANCH  16  17
ATOM     17  C   UNL     1      -7.248  -5.485   7.245  1.00  0.00     0.000 C 
BRANCH  17  18
ATOM     18  C   UNL     1      -7.669  -5.318   8.716  1.00  0.00     0.000 C 
BRANCH  18  19
ATOM     19  C   UNL     1      -7.008  -6.353   9.641  1.00  0.00     0.000 C 
BRANCH  19  20
ATOM     20  C   UNL     1      -6.778  -7.706   8.951  1.00  0.00     0.006 C 
BRANCH  20  21
ATOM     21  C   UNL     1      -5.937  -8.632   9.834  1.00  0.00     0.053 C 
BRANCH  21  22
ATOM     22  C   UNL     1      -5.280  -9.697   9.015  1.00  0.00     0.041 C 
ATOM     23  O   UNL     1      -4.087  -9.560   8.632  1.00  0.00    -0.550 OA
ATOM     24  O   UNL     1      -5.983 -10.846   8.675  1.00  0.00    -0.550 OA
ENDBRANCH  21  22
ENDBRANCH  20  21
ENDBRANCH  19  20
ENDBRANCH  18  19
ENDBRANCH  17  18
ENDBRANCH  16  17
ENDBRANCH  15  16
ENDBRANCH  14  15
ENDBRANCH  13  14
ENDBRANCH   1  13
TORSDOF 20
ENDMDL
MODEL 7
REMARK VINA RESULT:    -3.530     12.329     15.704
REMARK INTER + INTRA:         -10.962
REMARK INTER:                  -8.145
REMARK INTRA:                  -2.818
REMARK UNBOUND:                -3.306
REMARK SMILES CCCCCCCCCCCCCCCCCCCCCC(=O)[O-]
REMARK SMILES IDX 12 1 11 2 10 3 9 4 8 5 7 6 6 7 5 8 4 9 3 10 2 11 1 12 13 13
REMARK SMILES IDX 14 14 15 15 16 16 17 17 18 18 19 19 20 20 21 21 22 22 23 23
REMARK SMILES IDX 24 24
REMARK H PARENT
REMARK Flexibility Score: inf
ROOT
ATOM      1  C   UNL     1      -4.662  -1.268  -5.957  1.00  0.00     0.000 C 
ENDROOT
BRANCH   1   2
ATOM      2  C   UNL     1      -3.980  -0.132  -6.736  1.00  0.00     0.000 C 
BRANCH   2   3
ATOM      3  C   UNL     1      -2.742  -0.608  -7.511  1.00  0.00     0.000 C 
BRANCH   3   4
ATOM      4  C   UNL     1      -2.757  -0.077  -8.950  1.00  0.00    -0.000 C 
BRANCH   4   5
ATOM      5  C   UNL     1      -2.385   1.412  -8.993  1.00  0.00    -0.000 C 
BRANCH   5   6
ATOM      6  C   UNL     1      -3.535   2.302  -9.497  1.00  0.00    -0.000 C 
BRANCH   6   7
ATOM      7  C   UNL     1      -3.156   3.776  -9.740  1.00  0.00    -0.000 C 
BRANCH   7   8
ATOM      8  C   UNL     1      -4.193   4.797  -9.237  1.00  0.00    -0.000 C 
BRANCH   8   9
ATOM      9  C   UNL     1      -3.625   6.226  -9.082  1.00  0.00    -0.000 C 
BRANCH   9  10
ATOM     10  C   UNL     1      -2.817   6.424  -7.788  1.00  0.00    -0.000 C 
BRANCH  10  11
ATOM     11  C   UNL     1      -3.236   7.693  -7.033  1.00  0.00    -0.003 C 
ATOM     12  C   UNL     1      -3.617   7.377  -5.591  1.00  0.00     0.004 C 
ENDBRANCH  10  11
ENDBRANCH   9  10
ENDBRANCH   8   9
ENDBRANCH   7   8
ENDBRANCH   6   7
ENDBRANCH   5   6
ENDBRANCH   4   5
ENDBRANCH   3   4
ENDBRANCH   2   3
ENDBRANCH   1   2
BRANCH   1  13
ATOM     13  C   UNL     1      -5.029  -0.858  -4.520  1.00  0.00     0.000 C 
BRANCH  13  14
ATOM     14  C   UNL     1      -5.498   0.603  -4.423  1.00  0.00     0.000 C 
BRANCH  14  15
ATOM     15  C   UNL     1      -7.024   0.730  -4.293  1.00  0.00     0.000 C 
BRANCH  15  16
ATOM     16  C   UNL     1      -7.598   1.613  -5.413  1.00  0.00     0.000 C 
BRANCH  16  17
ATOM     17  C   UNL     1      -7.683   0.877  -6.761  1.00  0.00     0.000 C 
BRANCH  17  18
ATOM     18  C   UNL     1      -6.877   1.582  -7.867  1.00  0.00     0.000 C 
BRANCH  18  19
ATOM     19  C   UNL     1      -6.792   0.751  -9.157  1.00  0.00     0.000 C 
BRANCH  19  20
ATOM     20  C   UNL     1      -6.856  -0.761  -8.896  1.00  0.00     0.006 C 
BRANCH  20  21
ATOM     21  C   UNL     1      -5.918  -1.517  -9.841  1.00  0.00     0.053 C 
BRANCH  21  22
ATOM     22  C   UNL     1      -5.513  -2.831  -9.251  1.00  0.00     0.041 C 
ATOM     23  O   UNL     1      -6.167  -3.327  -8.294  1.00  0.00    -0.550 OA
ATOM     24  O   UNL     1      -4.415  -3.513  -9.759  1.00  0.00    -0.550 OA
ENDBRANCH  21  22
ENDBRANCH  20  21
ENDBRANCH  19  20
ENDBRANCH  18  19
ENDBRANCH  17  18
ENDBRANCH  16  17
ENDBRANCH  15  16
ENDBRANCH  14  15
ENDBRANCH  13  14
ENDBRANCH   1  13
TORSDOF 20
ENDMDL
MODEL 8
REMARK VINA RESULT:    -3.529      1.571      3.889
REMARK INTER + INTRA:         -10.960
REMARK INTER:                  -8.133
REMARK INTRA:                  -2.827
REMARK UNBOUND:                -3.306
REMARK SMILES CCCCCCCCCCCCCCCCCCCCCC(=O)[O-]
REMARK SMILES IDX 12 1 11 2 10 3 9 4 8 5 7 6 6 7 5 8 4 9 3 10 2 11 1 12 13 13
REMARK SMILES IDX 14 14 15 15 16 16 17 17 18 18 19 19 20 20 21 21 22 22 23 23
REMARK SMILES IDX 24 24
REMARK H PARENT
REMARK Flexibility Score: inf
ROOT
ATOM      1  C   UNL     1      -3.663  -2.386   8.374  1.00  0.00     0.000 C 
ENDROOT
BRANCH   1   2
ATOM      2  C   UNL     1      -4.563  -1.528   7.469  1.00  0.00     0.000 C 
BRANCH   2   3
ATOM      3  C   UNL     1      -3.885  -0.221   7.032  1.00  0.00     0.000 C 
BRANCH   3   4
ATOM      4  C   UNL     1      -3.018   0.352   8.160  1.00  0.00    -0.000 C 
BRANCH   4   5
ATOM      5  C   UNL     1      -2.749   1.849   7.944  1.00  0.00    -0.000 C 
BRANCH   5   6
ATOM      6  C   UNL     1      -2.794   2.661   9.251  1.00  0.00    -0.000 C 
BRANCH   6   7
ATOM      7  C   UNL     1      -3.327   4.099   9.103  1.00  0.00    -0.000 C 
BRANCH   7   8
ATOM      8  C   UNL     1      -4.644   4.376   9.852  1.00  0.00    -0.000 C 
BRANCH   8   9
ATOM      9  C   UNL     1      -5.478   3.104  10.125  1.00  0.00    -0.000 C 
BRANCH   9  10
ATOM     10  C   UNL     1      -6.647   2.918   9.142  1.00  0.00    -0.000 C 
BRANCH  10  11
ATOM     11  C   UNL     1      -6.690   1.500   8.556  1.00  0.00    -0.003 C 
ATOM     12  C   UNL     1      -6.663   0.447   9.660  1.00  0.00     0.004 C 
ENDBRANCH  10  11
ENDBRANCH   9  10
ENDBRANCH   8   9
ENDBRANCH   7   8
ENDBRANCH   6   7
ENDBRANCH   5   6
ENDBRANCH   4   5
ENDBRANCH   3   4
ENDBRANCH   2   3
ENDBRANCH   1   2
BRANCH   1  13
ATOM     13  C   UNL     1      -4.400  -2.890   9.627  1.00  0.00     0.000 C 
BRANCH  13  14
ATOM     14  C   UNL     1      -5.925  -2.940   9.438  1.00  0.00     0.000 C 
BRANCH  14  15
ATOM     15  C   UNL     1      -6.447  -4.365   9.196  1.00  0.00     0.000 C 
BRANCH  15  16
ATOM     16  C   UNL     1      -7.606  -4.361   8.187  1.00  0.00     0.000 C 
BRANCH  16  17
ATOM     17  C   UNL     1      -7.277  -3.566   6.912  1.00  0.00     0.000 C 
BRANCH  17  18
ATOM     18  C   UNL     1      -6.329  -4.331   5.971  1.00  0.00     0.000 C 
BRANCH  18  19
ATOM     19  C   UNL     1      -6.415  -3.839   4.518  1.00  0.00     0.000 C 
BRANCH  19  20
ATOM     20  C   UNL     1      -7.607  -2.901   4.277  1.00  0.00     0.006 C 
BRANCH  20  21
ATOM     21  C   UNL     1      -7.368  -2.023   3.045  1.00  0.00     0.053 C 
BRANCH  21  22
ATOM     22  C   UNL     1      -6.999  -0.630   3.447  1.00  0.00     0.041 C 
ATOM     23  O   UNL     1      -6.898   0.278   2.578  1.00  0.00    -0.550 OA
ATOM     24  O   UNL     1      -6.768  -0.331   4.784  1.00  0.00    -0.550 OA
ENDBRANCH  21  22
ENDBRANCH  20  21
ENDBRANCH  19  20
ENDBRANCH  18  19
ENDBRANCH  17  18
ENDBRANCH  16  17
ENDBRANCH  15  16
ENDBRANCH  14  15
ENDBRANCH  13  14
ENDBRANCH   1  13
TORSDOF 20
ENDMDL
MODEL 9
REMARK VINA RESULT:    -3.457      2.328      6.583
REMARK INTER + INTRA:         -10.804
REMARK INTER:                  -7.598
REMARK INTRA:                  -3.206
REMARK UNBOUND:                -3.306
REMARK SMILES CCCCCCCCCCCCCCCCCCCCCC(=O)[O-]
REMARK SMILES IDX 12 1 11 2 10 3 9 4 8 5 7 6 6 7 5 8 4 9 3 10 2 11 1 12 13 13
REMARK SMILES IDX 14 14 15 15 16 16 17 17 18 18 19 19 20 20 21 21 22 22 23 23
REMARK SMILES IDX 24 24
REMARK H PARENT
REMARK Flexibility Score: inf
ROOT
ATOM      1  C   UNL     1      -7.005  -0.873   3.554  1.00  0.00     0.000 C 
ENDROOT
BRANCH   1   2
ATOM      2  C   UNL     1      -7.494  -1.791   4.686  1.00  0.00     0.000 C 
BRANCH   2   3
ATOM      3  C   UNL     1      -7.390  -3.280   4.324  1.00  0.00     0.000 C 
BRANCH   3   4
ATOM      4  C   UNL     1      -5.959  -3.796   4.526  1.00  0.00    -0.000 C 
BRANCH   4   5
ATOM      5  C   UNL     1      -5.701  -4.146   5.998  1.00  0.00    -0.000 C 
BRANCH   5   6
ATOM      6  C   UNL     1      -6.984  -4.529   6.757  1.00  0.00    -0.000 C 
BRANCH   6   7
ATOM      7  C   UNL     1      -7.281  -3.673   8.003  1.00  0.00    -0.000 C 
BRANCH   7   8
ATOM      8  C   UNL     1      -6.745  -4.254   9.325  1.00  0.00    -0.000 C 
BRANCH   8   9
ATOM      9  C   UNL     1      -5.490  -3.525   9.855  1.00  0.00    -0.000 C 
BRANCH   9  10
ATOM     10  C   UNL     1      -5.294  -2.126   9.243  1.00  0.00    -0.000 C 
BRANCH  10  11
ATOM     11  C   UNL     1      -3.901  -1.959   8.619  1.00  0.00    -0.003 C 
ATOM     12  C   UNL     1      -3.994  -1.391   7.207  1.00  0.00     0.004 C 
ENDBRANCH  10  11
ENDBRANCH   9  10
ENDBRANCH   8   9
ENDBRANCH   7   8
ENDBRANCH   6   7
ENDBRANCH   5   6
ENDBRANCH   4   5
ENDBRANCH   3   4
ENDBRANCH   2   3
ENDBRANCH   1   2
BRANCH   1  13
ATOM     13  C   UNL     1      -7.013   0.612   3.958  1.00  0.00     0.000 C 
BRANCH  13  14
ATOM     14  C   UNL     1      -6.195   0.885   5.231  1.00  0.00     0.000 C 
BRANCH  14  15
ATOM     15  C   UNL     1      -7.044   1.478   6.366  1.00  0.00     0.000 C 
BRANCH  15  16
ATOM     16  C   UNL     1      -7.261   0.447   7.486  1.00  0.00     0.000 C 
BRANCH  16  17
ATOM     17  C   UNL     1      -7.627   1.101   8.829  1.00  0.00     0.000 C 
BRANCH  17  18
ATOM     18  C   UNL     1      -6.386   1.466   9.662  1.00  0.00     0.000 C 
BRANCH  18  19
ATOM     19  C   UNL     1      -6.069   2.969   9.625  1.00  0.00     0.000 C 
BRANCH  19  20
ATOM     20  C   UNL     1      -4.561   3.259   9.601  1.00  0.00     0.006 C 
BRANCH  20  21
ATOM     21  C   UNL     1      -3.761   1.966   9.415  1.00  0.00     0.053 C 
BRANCH  21  22
ATOM     22  C   UNL     1      -3.102   1.937   8.072  1.00  0.00     0.041 C 
ATOM     23  O   UNL     1      -1.982   1.378   7.924  1.00  0.00    -0.550 OA
ATOM     24  O   UNL     1      -3.726   2.523   6.978  1.00  0.00    -0.550 OA
ENDBRANCH  21  22
ENDBRANCH  20  21
ENDBRANCH  19  20
ENDBRANCH  18  19
ENDBRANCH  17  18
ENDBRANCH  16  17
ENDBRANCH  15  16
ENDBRANCH  14  15
ENDBRANCH  13  14
ENDBRANCH   1  13
TORSDOF 20
ENDMDL
