MODEL 1
REMARK VINA RESULT:    -6.161      0.000      0.000
REMARK INTER + INTRA:          -7.634
REMARK INTER:                  -7.421
REMARK INTRA:                  -0.213
REMARK UNBOUND:                -0.213
REMARK SMILES O=c1c(O)c(-c2ccc(O)c(O)c2)oc2cc(O)cc(O)c12
REMARK SMILES IDX 5 1 3 2 2 3 1 4 22 5 20 6 19 7 17 8 16 9 15 10 14 11 6 12
REMARK SMILES IDX 7 13 8 14 9 15 13 16 11 17 10 18 12 20 4 22 21 24 18 26
REMARK H PARENT 10 19 12 21 4 23 21 25 18 27
REMARK Flexibility Score: inf
ROOT
ATOM      1  C   UNL     1      -3.479  -7.430  37.874  1.00  0.00     0.180 A 
ATOM      2  C   UNL     1      -2.282  -7.764  38.533  1.00  0.00     0.208 A 
ATOM      3  C   UNL     1      -2.346  -8.452  39.754  1.00  0.00     0.238 A 
ATOM      4  O   UNL     1      -1.274  -8.700  40.365  1.00  0.00    -0.285 OA
ATOM      5  C   UNL     1      -3.603  -8.812  40.295  1.00  0.00     0.111 A 
ATOM      6  C   UNL     1      -3.785  -9.547  41.506  1.00  0.00     0.134 A 
ATOM      7  C   UNL     1      -5.076  -9.733  42.014  1.00  0.00     0.093 A 
ATOM      8  C   UNL     1      -6.195  -9.272  41.322  1.00  0.00     0.123 A 
ATOM      9  C   UNL     1      -6.033  -8.604  40.107  1.00  0.00     0.094 A 
ATOM     10  C   UNL     1      -4.755  -8.371  39.593  1.00  0.00     0.146 A 
ATOM     11  O   UNL     1      -4.644  -7.724  38.440  1.00  0.00    -0.452 OA
ENDROOT
BRANCH   1  12
ATOM     12  C   UNL     1      -3.493  -6.727  36.571  1.00  0.00     0.025 A 
ATOM     13  C   UNL     1      -3.009  -7.343  35.403  1.00  0.00     0.016 A 
ATOM     14  C   UNL     1      -3.054  -6.669  34.179  1.00  0.00     0.051 A 
ATOM     15  C   UNL     1      -3.595  -5.379  34.102  1.00  0.00     0.157 A 
ATOM     16  C   UNL     1      -4.052  -5.442  36.484  1.00  0.00     0.062 A 
ATOM     17  C   UNL     1      -4.096  -4.765  35.256  1.00  0.00     0.158 A 
BRANCH  15  18
ATOM     18  O   UNL     1      -3.639  -4.703  32.884  1.00  0.00    -0.504 OA
ATOM     19  H   UNL     1      -3.819  -3.707  32.837  1.00  0.00     0.293 HD
ENDBRANCH  15  18
BRANCH  17  20
ATOM     20  O   UNL     1      -4.640  -3.484  35.177  1.00  0.00    -0.504 OA
ATOM     21  H   UNL     1      -5.188  -3.188  34.378  1.00  0.00     0.293 HD
ENDBRANCH  17  20
ENDBRANCH   1  12
BRANCH   2  22
ATOM     22  O   UNL     1      -1.052  -7.379  37.991  1.00  0.00    -0.502 OA
ATOM     23  H   UNL     1      -0.200  -7.364  38.537  1.00  0.00     0.293 HD
ENDBRANCH   2  22
BRANCH   6  24
ATOM     24  O   UNL     1      -2.740 -10.130  42.228  1.00  0.00    -0.507 OA
ATOM     25  H   UNL     1      -1.832  -9.713  42.364  1.00  0.00     0.293 HD
ENDBRANCH   6  24
BRANCH   8  26
ATOM     26  O   UNL     1      -7.467  -9.490  41.849  1.00  0.00    -0.508 OA
ATOM     27  H   UNL     1      -8.027  -8.728  42.214  1.00  0.00     0.293 HD
ENDBRANCH   8  26
TORSDOF 6
ENDMDL
MODEL 2
REMARK VINA RESULT:    -5.981      1.489      1.904
REMARK INTER + INTRA:          -7.417
REMARK INTER:                  -7.551
REMARK INTRA:                   0.134
REMARK UNBOUND:                -0.213
REMARK SMILES O=c1c(O)c(-c2ccc(O)c(O)c2)oc2cc(O)cc(O)c12
REMARK SMILES IDX 5 1 3 2 2 3 1 4 22 5 20 6 19 7 17 8 16 9 15 10 14 11 6 12
REMARK SMILES IDX 7 13 8 14 9 15 13 16 11 17 10 18 12 20 4 22 21 24 18 26
REMARK H PARENT 10 19 12 21 4 23 21 25 18 27
REMARK Flexibility Score: inf
ROOT
ATOM      1  C   UNL     1      -2.774  -7.572  37.427  1.00  0.00     0.180 A 
ATOM      2  C   UNL     1      -1.490  -8.131  37.307  1.00  0.00     0.208 A 
ATOM      3  C   UNL     1      -1.047  -9.037  38.283  1.00  0.00     0.238 A 
ATOM      4  O   UNL     1       0.123  -9.492  38.199  1.00  0.00    -0.285 OA
ATOM      5  C   UNL     1      -1.898  -9.384  39.360  1.00  0.00     0.111 A 
ATOM      6  C   UNL     1      -1.568 -10.322  40.385  1.00  0.00     0.134 A 
ATOM      7  C   UNL     1      -2.433 -10.489  41.473  1.00  0.00     0.093 A 
ATOM      8  C   UNL     1      -3.647  -9.805  41.539  1.00  0.00     0.123 A 
ATOM      9  C   UNL     1      -4.007  -8.930  40.513  1.00  0.00     0.094 A 
ATOM     10  C   UNL     1      -3.147  -8.715  39.434  1.00  0.00     0.146 A 
ATOM     11  O   UNL     1      -3.523  -7.867  38.484  1.00  0.00    -0.452 OA
ENDROOT
BRANCH   1  12
ATOM     12  C   UNL     1      -3.321  -6.630  36.425  1.00  0.00     0.025 A 
ATOM     13  C   UNL     1      -3.080  -6.803  35.050  1.00  0.00     0.016 A 
ATOM     14  C   UNL     1      -3.626  -5.914  34.120  1.00  0.00     0.051 A 
ATOM     15  C   UNL     1      -4.432  -4.851  34.547  1.00  0.00     0.157 A 
ATOM     16  C   UNL     1      -4.146  -5.574  36.846  1.00  0.00     0.062 A 
ATOM     17  C   UNL     1      -4.694  -4.681  35.912  1.00  0.00     0.158 A 
BRANCH  15  18
ATOM     18  O   UNL     1      -4.977  -3.961  33.623  1.00  0.00    -0.504 OA
ATOM     19  H   UNL     1      -5.588  -3.206  33.910  1.00  0.00     0.293 HD
ENDBRANCH  15  18
BRANCH  17  20
ATOM     20  O   UNL     1      -5.501  -3.627  36.335  1.00  0.00    -0.504 OA
ATOM     21  H   UNL     1      -5.829  -3.559  37.291  1.00  0.00     0.293 HD
ENDBRANCH  17  20
ENDBRANCH   1  12
BRANCH   2  22
ATOM     22  O   UNL     1      -0.658  -7.758  36.247  1.00  0.00    -0.502 OA
ATOM     23  H   UNL     1       0.074  -7.066  36.350  1.00  0.00     0.293 HD
ENDBRANCH   2  22
BRANCH   6  24
ATOM     24  O   UNL     1      -0.424 -11.125  40.368  1.00  0.00    -0.507 OA
ATOM     25  H   UNL     1       0.264 -11.161  41.105  1.00  0.00     0.293 HD
ENDBRANCH   6  24
BRANCH   8  26
ATOM     26  O   UNL     1      -4.492 -10.009  42.629  1.00  0.00    -0.508 OA
ATOM     27  H   UNL     1      -4.139 -10.352  43.515  1.00  0.00     0.293 HD
ENDBRANCH   8  26
TORSDOF 6
ENDMDL
MODEL 3
REMARK VINA RESULT:    -5.821      2.914      7.573
REMARK INTER + INTRA:          -7.224
REMARK INTER:                  -6.929
REMARK INTRA:                  -0.295
REMARK UNBOUND:                -0.213
REMARK SMILES O=c1c(O)c(-c2ccc(O)c(O)c2)oc2cc(O)cc(O)c12
REMARK SMILES IDX 5 1 3 2 2 3 1 4 22 5 20 6 19 7 17 8 16 9 15 10 14 11 6 12
REMARK SMILES IDX 7 13 8 14 9 15 13 16 11 17 10 18 12 20 4 22 21 24 18 26
REMARK H PARENT 10 19 12 21 4 23 21 25 18 27
REMARK Flexibility Score: inf
ROOT
ATOM      1  C   UNL     1      -2.296  -7.685  36.386  1.00  0.00     0.180 A 
ATOM      2  C   UNL     1      -3.152  -6.612  36.691  1.00  0.00     0.208 A 
ATOM      3  C   UNL     1      -3.632  -5.806  35.647  1.00  0.00     0.238 A 
ATOM      4  O   UNL     1      -4.354  -4.815  35.932  1.00  0.00    -0.285 OA
ATOM      5  C   UNL     1      -3.263  -6.091  34.310  1.00  0.00     0.111 A 
ATOM      6  C   UNL     1      -3.723  -5.365  33.170  1.00  0.00     0.134 A 
ATOM      7  C   UNL     1      -3.191  -5.651  31.908  1.00  0.00     0.093 A 
ATOM      8  C   UNL     1      -2.267  -6.681  31.733  1.00  0.00     0.123 A 
ATOM      9  C   UNL     1      -1.855  -7.437  32.831  1.00  0.00     0.094 A 
ATOM     10  C   UNL     1      -2.341  -7.150  34.109  1.00  0.00     0.146 A 
ATOM     11  O   UNL     1      -1.916  -7.887  35.129  1.00  0.00    -0.452 OA
ENDROOT
BRANCH   1  12
ATOM     12  C   UNL     1      -1.769  -8.595  37.428  1.00  0.00     0.025 A 
ATOM     13  C   UNL     1      -0.667  -8.235  38.224  1.00  0.00     0.016 A 
ATOM     14  C   UNL     1      -0.200  -9.100  39.218  1.00  0.00     0.051 A 
ATOM     15  C   UNL     1      -0.837 -10.327  39.442  1.00  0.00     0.157 A 
ATOM     16  C   UNL     1      -2.415  -9.818  37.671  1.00  0.00     0.062 A 
ATOM     17  C   UNL     1      -1.947 -10.686  38.668  1.00  0.00     0.158 A 
BRANCH  15  18
ATOM     18  O   UNL     1      -0.374 -11.193  40.431  1.00  0.00    -0.504 OA
ATOM     19  H   UNL     1      -0.231 -10.881  41.384  1.00  0.00     0.293 HD
ENDBRANCH  15  18
BRANCH  17  20
ATOM     20  O   UNL     1      -2.583 -11.905  38.896  1.00  0.00    -0.504 OA
ATOM     21  H   UNL     1      -3.250 -12.288  38.237  1.00  0.00     0.293 HD
ENDBRANCH  17  20
ENDBRANCH   1  12
BRANCH   2  22
ATOM     22  O   UNL     1      -3.485  -6.337  38.020  1.00  0.00    -0.502 OA
ATOM     23  H   UNL     1      -4.001  -5.508  38.290  1.00  0.00     0.293 HD
ENDBRANCH   2  22
BRANCH   6  24
ATOM     24  O   UNL     1      -4.713  -4.378  33.221  1.00  0.00    -0.507 OA
ATOM     25  H   UNL     1      -4.621  -3.497  33.704  1.00  0.00     0.293 HD
ENDBRANCH   6  24
BRANCH   8  26
ATOM     26  O   UNL     1      -1.770  -6.949  30.459  1.00  0.00    -0.508 OA
ATOM     27  H   UNL     1      -0.882  -7.418  30.325  1.00  0.00     0.293 HD
ENDBRANCH   8  26
TORSDOF 6
ENDMDL
MODEL 4
REMARK VINA RESULT:    -5.808      0.612      1.455
REMARK INTER + INTRA:          -7.210
REMARK INTER:                  -7.071
REMARK INTRA:                  -0.139
REMARK UNBOUND:                -0.213
REMARK SMILES O=c1c(O)c(-c2ccc(O)c(O)c2)oc2cc(O)cc(O)c12
REMARK SMILES IDX 5 1 3 2 2 3 1 4 22 5 20 6 19 7 17 8 16 9 15 10 14 11 6 12
REMARK SMILES IDX 7 13 8 14 9 15 13 16 11 17 10 18 12 20 4 22 21 24 18 26
REMARK H PARENT 10 19 12 21 4 23 21 25 18 27
REMARK Flexibility Score: inf
ROOT
ATOM      1  C   UNL     1      -3.435  -7.385  37.889  1.00  0.00     0.180 A 
ATOM      2  C   UNL     1      -2.189  -7.698  38.461  1.00  0.00     0.208 A 
ATOM      3  C   UNL     1      -2.155  -8.418  39.666  1.00  0.00     0.238 A 
ATOM      4  O   UNL     1      -1.039  -8.648  40.200  1.00  0.00    -0.285 OA
ATOM      5  C   UNL     1      -3.364  -8.828  40.277  1.00  0.00     0.111 A 
ATOM      6  C   UNL     1      -3.446  -9.597  41.477  1.00  0.00     0.134 A 
ATOM      7  C   UNL     1      -4.696  -9.834  42.062  1.00  0.00     0.093 A 
ATOM      8  C   UNL     1      -5.870  -9.390  41.455  1.00  0.00     0.123 A 
ATOM      9  C   UNL     1      -5.806  -8.689  40.249  1.00  0.00     0.094 A 
ATOM     10  C   UNL     1      -4.571  -8.405  39.661  1.00  0.00     0.146 A 
ATOM     11  O   UNL     1      -4.553  -7.728  38.520  1.00  0.00    -0.452 OA
ENDROOT
BRANCH   1  12
ATOM     12  C   UNL     1      -3.553  -6.652  36.609  1.00  0.00     0.025 A 
ATOM     13  C   UNL     1      -4.139  -5.374  36.549  1.00  0.00     0.016 A 
ATOM     14  C   UNL     1      -4.219  -4.690  35.332  1.00  0.00     0.051 A 
ATOM     15  C   UNL     1      -3.702  -5.265  34.164  1.00  0.00     0.157 A 
ATOM     16  C   UNL     1      -3.020  -7.214  35.437  1.00  0.00     0.062 A 
ATOM     17  C   UNL     1      -3.100  -6.527  34.217  1.00  0.00     0.158 A 
BRANCH  15  18
ATOM     18  O   UNL     1      -3.782  -4.586  32.949  1.00  0.00    -0.504 OA
ATOM     19  H   UNL     1      -4.624  -4.605  32.386  1.00  0.00     0.293 HD
ENDBRANCH  15  18
BRANCH  17  20
ATOM     20  O   UNL     1      -2.582  -7.095  33.054  1.00  0.00    -0.504 OA
ATOM     21  H   UNL     1      -1.731  -6.748  32.627  1.00  0.00     0.293 HD
ENDBRANCH  17  20
ENDBRANCH   1  12
BRANCH   2  22
ATOM     22  O   UNL     1      -1.009  -7.264  37.852  1.00  0.00    -0.502 OA
ATOM     23  H   UNL     1      -0.264  -7.900  37.597  1.00  0.00     0.293 HD
ENDBRANCH   2  22
BRANCH   6  24
ATOM     24  O   UNL     1      -2.340 -10.166  42.115  1.00  0.00    -0.507 OA
ATOM     25  H   UNL     1      -1.380 -10.018  41.843  1.00  0.00     0.293 HD
ENDBRANCH   6  24
BRANCH   8  26
ATOM     26  O   UNL     1      -7.098  -9.659  42.056  1.00  0.00    -0.508 OA
ATOM     27  H   UNL     1      -7.196  -9.703  43.064  1.00  0.00     0.293 HD
ENDBRANCH   8  26
TORSDOF 6
ENDMDL
MODEL 5
REMARK VINA RESULT:    -5.762      1.631      3.195
REMARK INTER + INTRA:          -7.153
REMARK INTER:                  -6.835
REMARK INTRA:                  -0.318
REMARK UNBOUND:                -0.213
REMARK SMILES O=c1c(O)c(-c2ccc(O)c(O)c2)oc2cc(O)cc(O)c12
REMARK SMILES IDX 5 1 3 2 2 3 1 4 22 5 20 6 19 7 17 8 16 9 15 10 14 11 6 12
REMARK SMILES IDX 7 13 8 14 9 15 13 16 11 17 10 18 12 20 4 22 21 24 18 26
REMARK H PARENT 10 19 12 21 4 23 21 25 18 27
REMARK Flexibility Score: inf
ROOT
ATOM      1  C   UNL     1      -4.299  -7.647  37.623  1.00  0.00     0.180 A 
ATOM      2  C   UNL     1      -5.205  -7.724  38.695  1.00  0.00     0.208 A 
ATOM      3  C   UNL     1      -4.843  -8.446  39.843  1.00  0.00     0.238 A 
ATOM      4  O   UNL     1      -5.679  -8.557  40.776  1.00  0.00    -0.285 OA
ATOM      5  C   UNL     1      -3.573  -9.070  39.911  1.00  0.00     0.111 A 
ATOM      6  C   UNL     1      -3.085  -9.793  41.041  1.00  0.00     0.134 A 
ATOM      7  C   UNL     1      -1.868 -10.478  40.950  1.00  0.00     0.093 A 
ATOM      8  C   UNL     1      -1.090 -10.412  39.794  1.00  0.00     0.123 A 
ATOM      9  C   UNL     1      -1.529  -9.659  38.704  1.00  0.00     0.094 A 
ATOM     10  C   UNL     1      -2.757  -8.994  38.753  1.00  0.00     0.146 A 
ATOM     11  O   UNL     1      -3.142  -8.297  37.691  1.00  0.00    -0.452 OA
ENDROOT
BRANCH   1  12
ATOM     12  C   UNL     1      -4.599  -6.884  36.390  1.00  0.00     0.025 A 
ATOM     13  C   UNL     1      -5.319  -7.462  35.329  1.00  0.00     0.016 A 
ATOM     14  C   UNL     1      -5.610  -6.715  34.184  1.00  0.00     0.051 A 
ATOM     15  C   UNL     1      -5.201  -5.379  34.089  1.00  0.00     0.157 A 
ATOM     16  C   UNL     1      -4.208  -5.538  36.297  1.00  0.00     0.062 A 
ATOM     17  C   UNL     1      -4.501  -4.789  35.147  1.00  0.00     0.158 A 
BRANCH  15  18
ATOM     18  O   UNL     1      -5.489  -4.632  32.947  1.00  0.00    -0.504 OA
ATOM     19  H   UNL     1      -6.408  -4.234  32.792  1.00  0.00     0.293 HD
ENDBRANCH  15  18
BRANCH  17  20
ATOM     20  O   UNL     1      -4.099  -3.458  35.053  1.00  0.00    -0.504 OA
ATOM     21  H   UNL     1      -4.448  -2.751  35.690  1.00  0.00     0.293 HD
ENDBRANCH  17  20
ENDBRANCH   1  12
BRANCH   2  22
ATOM     22  O   UNL     1      -6.462  -7.120  38.596  1.00  0.00    -0.502 OA
ATOM     23  H   UNL     1      -7.222  -7.531  38.067  1.00  0.00     0.293 HD
ENDBRANCH   2  22
BRANCH   6  24
ATOM     24  O   UNL     1      -3.741  -9.846  42.275  1.00  0.00    -0.507 OA
ATOM     25  H   UNL     1      -4.234 -10.652  42.630  1.00  0.00     0.293 HD
ENDBRANCH   6  24
BRANCH   8  26
ATOM     26  O   UNL     1       0.125 -11.094  39.744  1.00  0.00    -0.508 OA
ATOM     27  H   UNL     1       0.291 -11.922  40.304  1.00  0.00     0.293 HD
ENDBRANCH   8  26
TORSDOF 6
ENDMDL
MODEL 6
REMARK VINA RESULT:    -5.645      1.180      2.917
REMARK INTER + INTRA:          -7.012
REMARK INTER:                  -6.791
REMARK INTRA:                  -0.221
REMARK UNBOUND:                -0.213
REMARK SMILES O=c1c(O)c(-c2ccc(O)c(O)c2)oc2cc(O)cc(O)c12
REMARK SMILES IDX 5 1 3 2 2 3 1 4 22 5 20 6 19 7 17 8 16 9 15 10 14 11 6 12
REMARK SMILES IDX 7 13 8 14 9 15 13 16 11 17 10 18 12 20 4 22 21 24 18 26
REMARK H PARENT 10 19 12 21 4 23 21 25 18 27
REMARK Flexibility Score: inf
ROOT
ATOM      1  C   UNL     1      -4.727  -7.297  37.656  1.00  0.00     0.180 A 
ATOM      2  C   UNL     1      -6.063  -7.338  38.092  1.00  0.00     0.208 A 
ATOM      3  C   UNL     1      -6.358  -7.936  39.327  1.00  0.00     0.238 A 
ATOM      4  O   UNL     1      -7.561  -8.019  39.687  1.00  0.00    -0.285 OA
ATOM      5  C   UNL     1      -5.314  -8.472  40.118  1.00  0.00     0.111 A 
ATOM      6  C   UNL     1      -5.493  -9.065  41.405  1.00  0.00     0.134 A 
ATOM      7  C   UNL     1      -4.407  -9.681  42.039  1.00  0.00     0.093 A 
ATOM      8  C   UNL     1      -3.136  -9.665  41.466  1.00  0.00     0.123 A 
ATOM      9  C   UNL     1      -2.936  -9.036  40.237  1.00  0.00     0.094 A 
ATOM     10  C   UNL     1      -4.008  -8.446  39.562  1.00  0.00     0.146 A 
ATOM     11  O   UNL     1      -3.778  -7.867  38.391  1.00  0.00    -0.452 OA
ENDROOT
BRANCH   1  12
ATOM     12  C   UNL     1      -4.334  -6.662  36.378  1.00  0.00     0.025 A 
ATOM     13  C   UNL     1      -3.935  -7.431  35.271  1.00  0.00     0.016 A 
ATOM     14  C   UNL     1      -3.590  -6.811  34.067  1.00  0.00     0.051 A 
ATOM     15  C   UNL     1      -3.654  -5.417  33.947  1.00  0.00     0.157 A 
ATOM     16  C   UNL     1      -4.415  -5.266  36.245  1.00  0.00     0.062 A 
ATOM     17  C   UNL     1      -4.068  -4.643  35.037  1.00  0.00     0.158 A 
BRANCH  15  18
ATOM     18  O   UNL     1      -3.309  -4.795  32.748  1.00  0.00    -0.504 OA
ATOM     19  H   UNL     1      -3.312  -5.299  31.869  1.00  0.00     0.293 HD
ENDBRANCH  15  18
BRANCH  17  20
ATOM     20  O   UNL     1      -4.137  -3.257  34.914  1.00  0.00    -0.504 OA
ATOM     21  H   UNL     1      -4.481  -2.814  34.071  1.00  0.00     0.293 HD
ENDBRANCH  17  20
ENDBRANCH   1  12
BRANCH   2  22
ATOM     22  O   UNL     1      -7.081  -6.823  37.285  1.00  0.00    -0.502 OA
ATOM     23  H   UNL     1      -8.055  -6.838  37.563  1.00  0.00     0.293 HD
ENDBRANCH   2  22
BRANCH   6  24
ATOM     24  O   UNL     1      -6.702  -9.054  42.107  1.00  0.00    -0.507 OA
ATOM     25  H   UNL     1      -6.874  -9.557  42.964  1.00  0.00     0.293 HD
ENDBRANCH   6  24
BRANCH   8  26
ATOM     26  O   UNL     1      -2.074 -10.273  42.134  1.00  0.00    -0.508 OA
ATOM     27  H   UNL     1      -1.773  -9.957  43.049  1.00  0.00     0.293 HD
ENDBRANCH   8  26
TORSDOF 6
ENDMDL
MODEL 7
REMARK VINA RESULT:    -5.629      1.554      6.939
REMARK INTER + INTRA:          -6.993
REMARK INTER:                  -6.847
REMARK INTRA:                  -0.146
REMARK UNBOUND:                -0.213
REMARK SMILES O=c1c(O)c(-c2ccc(O)c(O)c2)oc2cc(O)cc(O)c12
REMARK SMILES IDX 5 1 3 2 2 3 1 4 22 5 20 6 19 7 17 8 16 9 15 10 14 11 6 12
REMARK SMILES IDX 7 13 8 14 9 15 13 16 11 17 10 18 12 20 4 22 21 24 18 26
REMARK H PARENT 10 19 12 21 4 23 21 25 18 27
REMARK Flexibility Score: inf
ROOT
ATOM      1  C   UNL     1      -3.457  -8.250  37.922  1.00  0.00     0.180 A 
ATOM      2  C   UNL     1      -2.857  -9.058  36.940  1.00  0.00     0.208 A 
ATOM      3  C   UNL     1      -2.617  -8.518  35.667  1.00  0.00     0.238 A 
ATOM      4  O   UNL     1      -2.130  -9.261  34.776  1.00  0.00    -0.285 OA
ATOM      5  C   UNL     1      -2.966  -7.173  35.395  1.00  0.00     0.111 A 
ATOM      6  C   UNL     1      -2.732  -6.509  34.153  1.00  0.00     0.134 A 
ATOM      7  C   UNL     1      -3.237  -5.219  33.953  1.00  0.00     0.093 A 
ATOM      8  C   UNL     1      -3.907  -4.543  34.972  1.00  0.00     0.123 A 
ATOM      9  C   UNL     1      -4.090  -5.158  36.210  1.00  0.00     0.094 A 
ATOM     10  C   UNL     1      -3.629  -6.459  36.428  1.00  0.00     0.146 A 
ATOM     11  O   UNL     1      -3.832  -7.013  37.617  1.00  0.00    -0.452 OA
ENDROOT
BRANCH   1  12
ATOM     12  C   UNL     1      -3.718  -8.740  39.294  1.00  0.00     0.025 A 
ATOM     13  C   UNL     1      -5.029  -8.886  39.782  1.00  0.00     0.016 A 
ATOM     14  C   UNL     1      -5.253  -9.372  41.073  1.00  0.00     0.051 A 
ATOM     15  C   UNL     1      -4.173  -9.734  41.889  1.00  0.00     0.157 A 
ATOM     16  C   UNL     1      -2.640  -9.124  40.110  1.00  0.00     0.062 A 
ATOM     17  C   UNL     1      -2.865  -9.612  41.406  1.00  0.00     0.158 A 
BRANCH  15  18
ATOM     18  O   UNL     1      -4.393 -10.218  43.177  1.00  0.00    -0.504 OA
ATOM     19  H   UNL     1      -4.778  -9.629  43.906  1.00  0.00     0.293 HD
ENDBRANCH  15  18
BRANCH  17  20
ATOM     20  O   UNL     1      -1.792  -9.978  42.216  1.00  0.00    -0.504 OA
ATOM     21  H   UNL     1      -0.985 -10.462  41.842  1.00  0.00     0.293 HD
ENDBRANCH  17  20
ENDBRANCH   1  12
BRANCH   2  22
ATOM     22  O   UNL     1      -2.541 -10.390  37.224  1.00  0.00    -0.502 OA
ATOM     23  H   UNL     1      -1.795 -10.647  37.859  1.00  0.00     0.293 HD
ENDBRANCH   2  22
BRANCH   6  24
ATOM     24  O   UNL     1      -1.994  -7.061  33.102  1.00  0.00    -0.507 OA
ATOM     25  H   UNL     1      -2.374  -7.312  32.202  1.00  0.00     0.293 HD
ENDBRANCH   6  24
BRANCH   8  26
ATOM     26  O   UNL     1      -4.382  -3.252  34.743  1.00  0.00    -0.508 OA
ATOM     27  H   UNL     1      -3.752  -2.462  34.670  1.00  0.00     0.293 HD
ENDBRANCH   8  26
TORSDOF 6
ENDMDL
MODEL 8
REMARK VINA RESULT:    -5.458      5.163      9.602
REMARK INTER + INTRA:          -6.787
REMARK INTER:                  -6.465
REMARK INTRA:                  -0.323
REMARK UNBOUND:                -0.213
REMARK SMILES O=c1c(O)c(-c2ccc(O)c(O)c2)oc2cc(O)cc(O)c12
REMARK SMILES IDX 5 1 3 2 2 3 1 4 22 5 20 6 19 7 17 8 16 9 15 10 14 11 6 12
REMARK SMILES IDX 7 13 8 14 9 15 13 16 11 17 10 18 12 20 4 22 21 24 18 26
REMARK H PARENT 10 19 12 21 4 23 21 25 18 27
REMARK Flexibility Score: inf
ROOT
ATOM      1  C   UNL     1      -3.286 -13.804  42.247  1.00  0.00     0.180 A 
ATOM      2  C   UNL     1      -4.440 -13.250  42.828  1.00  0.00     0.208 A 
ATOM      3  C   UNL     1      -4.711 -11.886  42.635  1.00  0.00     0.238 A 
ATOM      4  O   UNL     1      -5.715 -11.383  43.202  1.00  0.00    -0.285 OA
ATOM      5  C   UNL     1      -3.833 -11.096  41.853  1.00  0.00     0.111 A 
ATOM      6  C   UNL     1      -4.031  -9.713  41.559  1.00  0.00     0.134 A 
ATOM      7  C   UNL     1      -3.032  -9.000  40.886  1.00  0.00     0.093 A 
ATOM      8  C   UNL     1      -1.875  -9.634  40.436  1.00  0.00     0.123 A 
ATOM      9  C   UNL     1      -1.697 -10.999  40.666  1.00  0.00     0.094 A 
ATOM     10  C   UNL     1      -2.660 -11.729  41.367  1.00  0.00     0.146 A 
ATOM     11  O   UNL     1      -2.448 -13.023  41.573  1.00  0.00    -0.452 OA
ENDROOT
BRANCH   1  12
ATOM     12  C   UNL     1      -2.945 -15.238  42.383  1.00  0.00     0.025 A 
ATOM     13  C   UNL     1      -2.155 -15.704  43.449  1.00  0.00     0.016 A 
ATOM     14  C   UNL     1      -1.866 -17.066  43.571  1.00  0.00     0.051 A 
ATOM     15  C   UNL     1      -2.373 -17.983  42.641  1.00  0.00     0.157 A 
ATOM     16  C   UNL     1      -3.468 -16.164  41.465  1.00  0.00     0.062 A 
ATOM     17  C   UNL     1      -3.177 -17.531  41.588  1.00  0.00     0.158 A 
BRANCH  15  18
ATOM     18  O   UNL     1      -2.085 -19.341  42.758  1.00  0.00    -0.504 OA
ATOM     19  H   UNL     1      -2.432 -20.017  42.087  1.00  0.00     0.293 HD
ENDBRANCH  15  18
BRANCH  17  20
ATOM     20  O   UNL     1      -3.686 -18.445  40.666  1.00  0.00    -0.504 OA
ATOM     21  H   UNL     1      -3.524 -19.440  40.760  1.00  0.00     0.293 HD
ENDBRANCH  17  20
ENDBRANCH   1  12
BRANCH   2  22
ATOM     22  O   UNL     1      -5.280 -14.043  43.614  1.00  0.00    -0.502 OA
ATOM     23  H   UNL     1      -5.138 -15.039  43.725  1.00  0.00     0.293 HD
ENDBRANCH   2  22
BRANCH   6  24
ATOM     24  O   UNL     1      -5.194  -9.006  41.883  1.00  0.00    -0.507 OA
ATOM     25  H   UNL     1      -5.786  -8.538  41.214  1.00  0.00     0.293 HD
ENDBRANCH   6  24
BRANCH   8  26
ATOM     26  O   UNL     1      -0.908  -8.896  39.754  1.00  0.00    -0.508 OA
ATOM     27  H   UNL     1       0.029  -9.254  39.613  1.00  0.00     0.293 HD
ENDBRANCH   8  26
TORSDOF 6
ENDMDL
MODEL 9
REMARK VINA RESULT:    -5.282      1.952      7.097
REMARK INTER + INTRA:          -6.576
REMARK INTER:                  -6.241
REMARK INTRA:                  -0.334
REMARK UNBOUND:                -0.213
REMARK SMILES O=c1c(O)c(-c2ccc(O)c(O)c2)oc2cc(O)cc(O)c12
REMARK SMILES IDX 5 1 3 2 2 3 1 4 22 5 20 6 19 7 17 8 16 9 15 10 14 11 6 12
REMARK SMILES IDX 7 13 8 14 9 15 13 16 11 17 10 18 12 20 4 22 21 24 18 26
REMARK H PARENT 10 19 12 21 4 23 21 25 18 27
REMARK Flexibility Score: inf
ROOT
ATOM      1  C   UNL     1      -2.253  -8.123  36.891  1.00  0.00     0.180 A 
ATOM      2  C   UNL     1      -1.465  -8.740  35.903  1.00  0.00     0.208 A 
ATOM      3  C   UNL     1      -1.467  -8.214  34.602  1.00  0.00     0.238 A 
ATOM      4  O   UNL     1      -0.803  -8.803  33.711  1.00  0.00    -0.285 OA
ATOM      5  C   UNL     1      -2.246  -7.069  34.307  1.00  0.00     0.111 A 
ATOM      6  C   UNL     1      -2.293  -6.426  33.032  1.00  0.00     0.134 A 
ATOM      7  C   UNL     1      -3.197  -5.380  32.819  1.00  0.00     0.093 A 
ATOM      8  C   UNL     1      -4.008  -4.908  33.851  1.00  0.00     0.123 A 
ATOM      9  C   UNL     1      -3.928  -5.488  35.117  1.00  0.00     0.094 A 
ATOM     10  C   UNL     1      -3.061  -6.559  35.350  1.00  0.00     0.146 A 
ATOM     11  O   UNL     1      -3.022  -7.089  36.566  1.00  0.00    -0.452 OA
ENDROOT
BRANCH   1  12
ATOM     12  C   UNL     1      -2.283  -8.603  38.290  1.00  0.00     0.025 A 
ATOM     13  C   UNL     1      -1.363  -8.134  39.245  1.00  0.00     0.016 A 
ATOM     14  C   UNL     1      -1.425  -8.584  40.567  1.00  0.00     0.051 A 
ATOM     15  C   UNL     1      -2.414  -9.496  40.957  1.00  0.00     0.157 A 
ATOM     16  C   UNL     1      -3.285  -9.502  38.692  1.00  0.00     0.062 A 
ATOM     17  C   UNL     1      -3.347  -9.954  40.019  1.00  0.00     0.158 A 
BRANCH  15  18
ATOM     18  O   UNL     1      -2.478  -9.949  42.274  1.00  0.00    -0.504 OA
ATOM     19  H   UNL     1      -3.274  -9.744  42.867  1.00  0.00     0.293 HD
ENDBRANCH  15  18
BRANCH  17  20
ATOM     20  O   UNL     1      -4.334 -10.856  40.410  1.00  0.00    -0.504 OA
ATOM     21  H   UNL     1      -4.846 -11.410  39.734  1.00  0.00     0.293 HD
ENDBRANCH  17  20
ENDBRANCH   1  12
BRANCH   2  22
ATOM     22  O   UNL     1      -0.721  -9.883  36.212  1.00  0.00    -0.502 OA
ATOM     23  H   UNL     1       0.286  -9.863  36.316  1.00  0.00     0.293 HD
ENDBRANCH   2  22
BRANCH   6  24
ATOM     24  O   UNL     1      -1.460  -6.761  31.960  1.00  0.00    -0.507 OA
ATOM     25  H   UNL     1      -0.835  -7.552  31.942  1.00  0.00     0.293 HD
ENDBRANCH   6  24
BRANCH   8  26
ATOM     26  O   UNL     1      -4.885  -3.852  33.607  1.00  0.00    -0.508 OA
ATOM     27  H   UNL     1      -5.096  -3.164  34.319  1.00  0.00     0.293 HD
ENDBRANCH   8  26
TORSDOF 6
ENDMDL
