MODEL 1
REMARK VINA RESULT:    -2.788      0.000      0.000
REMARK INTER + INTRA:         -12.416
REMARK INTER:                  -7.026
REMARK INTRA:                  -5.390
REMARK UNBOUND:                -5.390
REMARK SMILES CCCCCCCCCCCCCCCCCCCCCCCCCCCC(=O)[O-]
REMARK SMILES IDX 15 1 16 2 17 3 18 4 19 5 20 6 21 7 22 8 23 9 24 10 25 11
REMARK SMILES IDX 26 12 27 13 28 14 29 15 30 16 14 17 13 18 12 19 11 20 10 21
REMARK SMILES IDX 9 22 8 23 7 24 6 25 5 26 4 27 3 28 2 29 1 30
REMARK H PARENT
REMARK Flexibility Score: inf
ROOT
ATOM      1  C   UNL     1      63.438  24.801  50.805  1.00  0.00     0.000 C 
ENDROOT
BRANCH   1   2
ATOM      2  C   UNL     1      62.348  23.911  51.428  1.00  0.00     0.000 C 
BRANCH   2   3
ATOM      3  C   UNL     1      61.402  23.297  50.379  1.00  0.00     0.000 C 
BRANCH   3   4
ATOM      4  C   UNL     1      59.901  23.432  50.700  1.00  0.00     0.000 C 
BRANCH   4   5
ATOM      5  C   UNL     1      59.379  24.887  50.638  1.00  0.00     0.000 C 
BRANCH   5   6
ATOM      6  C   UNL     1      59.806  25.629  49.360  1.00  0.00     0.000 C 
BRANCH   6   7
ATOM      7  C   UNL     1      60.592  26.919  49.668  1.00  0.00     0.000 C 
BRANCH   7   8
ATOM      8  C   UNL     1      60.240  27.537  51.034  1.00  0.00     0.000 C 
BRANCH   8   9
ATOM      9  C   UNL     1      60.927  28.884  51.325  1.00  0.00     0.000 C 
BRANCH   9  10
ATOM     10  C   UNL     1      61.516  29.554  50.069  1.00  0.00     0.000 C 
BRANCH  10  11
ATOM     11  C   UNL     1      62.782  30.376  50.368  1.00  0.00     0.000 C 
BRANCH  11  12
ATOM     12  C   UNL     1      63.220  31.307  49.216  1.00  0.00     0.006 C 
BRANCH  12  13
ATOM     13  C   UNL     1      63.686  32.700  49.684  1.00  0.00     0.053 C 
BRANCH  13  14
ATOM     14  C   UNL     1      63.803  33.676  48.554  1.00  0.00     0.041 C 
ATOM     15  O   UNL     1      62.803  34.363  48.205  1.00  0.00    -0.550 OA
ATOM     16  O   UNL     1      65.013  33.835  47.889  1.00  0.00    -0.550 OA
ENDBRANCH  13  14
ENDBRANCH  12  13
ENDBRANCH  11  12
ENDBRANCH  10  11
ENDBRANCH   9  10
ENDBRANCH   8   9
ENDBRANCH   7   8
ENDBRANCH   6   7
ENDBRANCH   5   6
ENDBRANCH   4   5
ENDBRANCH   3   4
ENDBRANCH   2   3
ENDBRANCH   1   2
BRANCH   1  17
ATOM     17  C   UNL     1      63.837  25.980  51.714  1.00  0.00     0.000 C 
BRANCH  17  18
ATOM     18  C   UNL     1      64.337  27.242  50.978  1.00  0.00     0.000 C 
BRANCH  18  19
ATOM     19  C   UNL     1      64.994  26.994  49.608  1.00  0.00     0.000 C 
BRANCH  19  20
ATOM     20  C   UNL     1      64.051  27.274  48.425  1.00  0.00     0.000 C 
BRANCH  20  21
ATOM     21  C   UNL     1      64.545  28.420  47.524  1.00  0.00     0.000 C 
BRANCH  21  22
ATOM     22  C   UNL     1      65.854  28.140  46.764  1.00  0.00    -0.000 C 
BRANCH  22  23
ATOM     23  C   UNL     1      66.950  29.179  47.046  1.00  0.00    -0.000 C 
BRANCH  23  24
ATOM     24  C   UNL     1      66.378  30.373  47.825  1.00  0.00    -0.000 C 
BRANCH  24  25
ATOM     25  C   UNL     1      67.492  31.320  48.299  1.00  0.00    -0.000 C 
BRANCH  25  26
ATOM     26  C   UNL     1      67.552  31.404  49.833  1.00  0.00    -0.000 C 
BRANCH  26  27
ATOM     27  C   UNL     1      66.566  30.430  50.507  1.00  0.00    -0.000 C 
BRANCH  27  28
ATOM     28  C   UNL     1      67.278  29.415  51.421  1.00  0.00    -0.000 C 
BRANCH  28  29
ATOM     29  C   UNL     1      68.653  28.963  50.886  1.00  0.00    -0.003 C 
ATOM     30  C   UNL     1      68.563  27.717  50.004  1.00  0.00     0.004 C 
ENDBRANCH  28  29
ENDBRANCH  27  28
ENDBRANCH  26  27
ENDBRANCH  25  26
ENDBRANCH  24  25
ENDBRANCH  23  24
ENDBRANCH  22  23
ENDBRANCH  21  22
ENDBRANCH  20  21
ENDBRANCH  19  20
ENDBRANCH  18  19
ENDBRANCH  17  18
ENDBRANCH   1  17
TORSDOF 26
ENDMDL
MODEL 2
REMARK VINA RESULT:    -2.753     10.651     13.851
REMARK INTER + INTRA:         -12.327
REMARK INTER:                  -7.843
REMARK INTRA:                  -4.484
REMARK UNBOUND:                -5.390
REMARK SMILES CCCCCCCCCCCCCCCCCCCCCCCCCCCC(=O)[O-]
REMARK SMILES IDX 15 1 16 2 17 3 18 4 19 5 20 6 21 7 22 8 23 9 24 10 25 11
REMARK SMILES IDX 26 12 27 13 28 14 29 15 30 16 14 17 13 18 12 19 11 20 10 21
REMARK SMILES IDX 9 22 8 23 7 24 6 25 5 26 4 27 3 28 2 29 1 30
REMARK H PARENT
REMARK Flexibility Score: inf
ROOT
ATOM      1  C   UNL     1      63.162  26.407  60.340  1.00  0.00     0.000 C 
ENDROOT
BRANCH   1   2
ATOM      2  C   UNL     1      62.827  27.158  61.641  1.00  0.00     0.000 C 
BRANCH   2   3
ATOM      3  C   UNL     1      62.625  28.670  61.426  1.00  0.00     0.000 C 
BRANCH   3   4
ATOM      4  C   UNL     1      61.199  29.082  61.010  1.00  0.00     0.000 C 
BRANCH   4   5
ATOM      5  C   UNL     1      61.028  29.279  59.486  1.00  0.00     0.000 C 
BRANCH   5   6
ATOM      6  C   UNL     1      62.210  30.017  58.834  1.00  0.00     0.000 C 
BRANCH   6   7
ATOM      7  C   UNL     1      61.831  31.442  58.382  1.00  0.00     0.000 C 
BRANCH   7   8
ATOM      8  C   UNL     1      62.887  32.500  58.752  1.00  0.00     0.000 C 
BRANCH   8   9
ATOM      9  C   UNL     1      64.310  31.946  58.944  1.00  0.00     0.000 C 
BRANCH   9  10
ATOM     10  C   UNL     1      64.885  32.209  60.348  1.00  0.00     0.000 C 
BRANCH  10  11
ATOM     11  C   UNL     1      65.282  30.916  61.083  1.00  0.00     0.000 C 
BRANCH  11  12
ATOM     12  C   UNL     1      65.956  29.857  60.183  1.00  0.00     0.006 C 
BRANCH  12  13
ATOM     13  C   UNL     1      66.292  28.542  60.914  1.00  0.00     0.053 C 
BRANCH  13  14
ATOM     14  C   UNL     1      67.765  28.272  60.959  1.00  0.00     0.041 C 
ATOM     15  O   UNL     1      68.407  28.440  62.034  1.00  0.00    -0.550 OA
ATOM     16  O   UNL     1      68.431  27.827  59.823  1.00  0.00    -0.550 OA
ENDBRANCH  13  14
ENDBRANCH  12  13
ENDBRANCH  11  12
ENDBRANCH  10  11
ENDBRANCH   9  10
ENDBRANCH   8   9
ENDBRANCH   7   8
ENDBRANCH   6   7
ENDBRANCH   5   6
ENDBRANCH   4   5
ENDBRANCH   3   4
ENDBRANCH   2   3
ENDBRANCH   1   2
BRANCH   1  17
ATOM     17  C   UNL     1      62.167  25.271  60.034  1.00  0.00     0.000 C 
BRANCH  17  18
ATOM     18  C   UNL     1      60.994  25.652  59.105  1.00  0.00     0.000 C 
BRANCH  18  19
ATOM     19  C   UNL     1      59.588  25.487  59.710  1.00  0.00     0.000 C 
BRANCH  19  20
ATOM     20  C   UNL     1      59.610  25.012  61.173  1.00  0.00     0.000 C 
BRANCH  20  21
ATOM     21  C   UNL     1      59.188  26.110  62.166  1.00  0.00     0.000 C 
BRANCH  21  22
ATOM     22  C   UNL     1      58.297  27.220  61.576  1.00  0.00    -0.000 C 
BRANCH  22  23
ATOM     23  C   UNL     1      56.946  27.354  62.296  1.00  0.00    -0.000 C 
BRANCH  23  24
ATOM     24  C   UNL     1      55.785  27.138  61.315  1.00  0.00    -0.000 C 
BRANCH  24  25
ATOM     25  C   UNL     1      55.403  25.653  61.215  1.00  0.00    -0.000 C 
BRANCH  25  26
ATOM     26  C   UNL     1      55.432  24.964  62.589  1.00  0.00    -0.000 C 
BRANCH  26  27
ATOM     27  C   UNL     1      56.377  23.747  62.609  1.00  0.00    -0.000 C 
BRANCH  27  28
ATOM     28  C   UNL     1      56.916  23.446  64.020  1.00  0.00    -0.000 C 
BRANCH  28  29
ATOM     29  C   UNL     1      58.356  22.895  64.025  1.00  0.00    -0.003 C 
ATOM     30  C   UNL     1      58.426  21.431  64.463  1.00  0.00     0.004 C 
ENDBRANCH  28  29
ENDBRANCH  27  28
ENDBRANCH  26  27
ENDBRANCH  25  26
ENDBRANCH  24  25
ENDBRANCH  23  24
ENDBRANCH  22  23
ENDBRANCH  21  22
ENDBRANCH  20  21
ENDBRANCH  19  20
ENDBRANCH  18  19
ENDBRANCH  17  18
ENDBRANCH   1  17
TORSDOF 26
ENDMDL
MODEL 3
REMARK VINA RESULT:    -2.699      9.851     12.895
REMARK INTER + INTRA:         -12.190
REMARK INTER:                  -8.328
REMARK INTRA:                  -3.862
REMARK UNBOUND:                -5.390
REMARK SMILES CCCCCCCCCCCCCCCCCCCCCCCCCCCC(=O)[O-]
REMARK SMILES IDX 15 1 16 2 17 3 18 4 19 5 20 6 21 7 22 8 23 9 24 10 25 11
REMARK SMILES IDX 26 12 27 13 28 14 29 15 30 16 14 17 13 18 12 19 11 20 10 21
REMARK SMILES IDX 9 22 8 23 7 24 6 25 5 26 4 27 3 28 2 29 1 30
REMARK H PARENT
REMARK Flexibility Score: inf
ROOT
ATOM      1  C   UNL     1      64.829  27.515  60.181  1.00  0.00     0.000 C 
ENDROOT
BRANCH   1   2
ATOM      2  C   UNL     1      66.310  27.545  60.600  1.00  0.00     0.000 C 
BRANCH   2   3
ATOM      3  C   UNL     1      66.848  28.974  60.797  1.00  0.00     0.000 C 
BRANCH   3   4
ATOM      4  C   UNL     1      66.205  30.041  59.890  1.00  0.00     0.000 C 
BRANCH   4   5
ATOM      5  C   UNL     1      65.371  31.093  60.659  1.00  0.00     0.000 C 
BRANCH   5   6
ATOM      6  C   UNL     1      64.046  31.443  59.961  1.00  0.00     0.000 C 
BRANCH   6   7
ATOM      7  C   UNL     1      63.951  30.833  58.548  1.00  0.00     0.000 C 
BRANCH   7   8
ATOM      8  C   UNL     1      62.743  31.347  57.742  1.00  0.00     0.000 C 
BRANCH   8   9
ATOM      9  C   UNL     1      61.606  31.936  58.597  1.00  0.00     0.000 C 
BRANCH   9  10
ATOM     10  C   UNL     1      61.414  33.451  58.399  1.00  0.00     0.000 C 
BRANCH  10  11
ATOM     11  C   UNL     1      62.746  34.216  58.310  1.00  0.00     0.000 C 
BRANCH  11  12
ATOM     12  C   UNL     1      62.859  35.408  59.286  1.00  0.00     0.006 C 
BRANCH  12  13
ATOM     13  C   UNL     1      63.361  35.018  60.690  1.00  0.00     0.053 C 
BRANCH  13  14
ATOM     14  C   UNL     1      64.854  35.052  60.796  1.00  0.00     0.041 C 
ATOM     15  O   UNL     1      65.426  34.601  61.828  1.00  0.00    -0.550 OA
ATOM     16  O   UNL     1      65.618  35.572  59.759  1.00  0.00    -0.550 OA
ENDBRANCH  13  14
ENDBRANCH  12  13
ENDBRANCH  11  12
ENDBRANCH  10  11
ENDBRANCH   9  10
ENDBRANCH   8   9
ENDBRANCH   7   8
ENDBRANCH   6   7
ENDBRANCH   5   6
ENDBRANCH   4   5
ENDBRANCH   3   4
ENDBRANCH   2   3
ENDBRANCH   1   2
BRANCH   1  17
ATOM     17  C   UNL     1      63.999  26.505  60.997  1.00  0.00     0.000 C 
BRANCH  17  18
ATOM     18  C   UNL     1      62.772  27.094  61.727  1.00  0.00     0.000 C 
BRANCH  18  19
ATOM     19  C   UNL     1      62.603  28.621  61.614  1.00  0.00     0.000 C 
BRANCH  19  20
ATOM     20  C   UNL     1      61.298  29.035  60.914  1.00  0.00     0.000 C 
BRANCH  20  21
ATOM     21  C   UNL     1      60.716  27.921  60.023  1.00  0.00     0.000 C 
BRANCH  21  22
ATOM     22  C   UNL     1      59.226  27.609  60.253  1.00  0.00    -0.000 C 
BRANCH  22  23
ATOM     23  C   UNL     1      58.922  27.133  61.682  1.00  0.00    -0.000 C 
BRANCH  23  24
ATOM     24  C   UNL     1      57.510  26.538  61.767  1.00  0.00    -0.000 C 
BRANCH  24  25
ATOM     25  C   UNL     1      56.564  27.447  62.566  1.00  0.00    -0.000 C 
BRANCH  25  26
ATOM     26  C   UNL     1      55.518  28.116  61.659  1.00  0.00    -0.000 C 
BRANCH  26  27
ATOM     27  C   UNL     1      55.376  27.395  60.306  1.00  0.00    -0.000 C 
BRANCH  27  28
ATOM     28  C   UNL     1      55.662  28.325  59.112  1.00  0.00    -0.000 C 
BRANCH  28  29
ATOM     29  C   UNL     1      56.123  27.577  57.844  1.00  0.00    -0.003 C 
ATOM     30  C   UNL     1      56.595  26.153  58.138  1.00  0.00     0.004 C 
ENDBRANCH  28  29
ENDBRANCH  27  28
ENDBRANCH  26  27
ENDBRANCH  25  26
ENDBRANCH  24  25
ENDBRANCH  23  24
ENDBRANCH  22  23
ENDBRANCH  21  22
ENDBRANCH  20  21
ENDBRANCH  19  20
ENDBRANCH  18  19
ENDBRANCH  17  18
ENDBRANCH   1  17
TORSDOF 26
ENDMDL
MODEL 4
REMARK VINA RESULT:    -2.642      9.357     11.337
REMARK INTER + INTRA:         -12.047
REMARK INTER:                  -6.795
REMARK INTRA:                  -5.252
REMARK UNBOUND:                -5.390
REMARK SMILES CCCCCCCCCCCCCCCCCCCCCCCCCCCC(=O)[O-]
REMARK SMILES IDX 15 1 16 2 17 3 18 4 19 5 20 6 21 7 22 8 23 9 24 10 25 11
REMARK SMILES IDX 26 12 27 13 28 14 29 15 30 16 14 17 13 18 12 19 11 20 10 21
REMARK SMILES IDX 9 22 8 23 7 24 6 25 5 26 4 27 3 28 2 29 1 30
REMARK H PARENT
REMARK Flexibility Score: inf
ROOT
ATOM      1  C   UNL     1      65.280  26.298  58.477  1.00  0.00     0.000 C 
ENDROOT
BRANCH   1   2
ATOM      2  C   UNL     1      64.539  25.934  59.777  1.00  0.00     0.000 C 
BRANCH   2   3
ATOM      3  C   UNL     1      64.613  27.045  60.840  1.00  0.00     0.000 C 
BRANCH   3   4
ATOM      4  C   UNL     1      63.270  27.390  61.513  1.00  0.00     0.000 C 
BRANCH   4   5
ATOM      5  C   UNL     1      63.014  28.909  61.651  1.00  0.00     0.000 C 
BRANCH   5   6
ATOM      6  C   UNL     1      64.280  29.757  61.438  1.00  0.00     0.000 C 
BRANCH   6   7
ATOM      7  C   UNL     1      64.229  30.566  60.126  1.00  0.00     0.000 C 
BRANCH   7   8
ATOM      8  C   UNL     1      62.921  30.366  59.338  1.00  0.00     0.000 C 
BRANCH   8   9
ATOM      9  C   UNL     1      63.050  29.456  58.103  1.00  0.00     0.000 C 
BRANCH   9  10
ATOM     10  C   UNL     1      62.106  28.238  58.140  1.00  0.00     0.000 C 
BRANCH  10  11
ATOM     11  C   UNL     1      60.620  28.635  58.189  1.00  0.00     0.000 C 
BRANCH  11  12
ATOM     12  C   UNL     1      59.935  28.360  59.546  1.00  0.00     0.006 C 
BRANCH  12  13
ATOM     13  C   UNL     1      60.046  26.896  60.014  1.00  0.00     0.053 C 
BRANCH  13  14
ATOM     14  C   UNL     1      59.492  26.690  61.391  1.00  0.00     0.041 C 
ATOM     15  O   UNL     1      60.077  25.914  62.198  1.00  0.00    -0.550 OA
ATOM     16  O   UNL     1      58.340  27.355  61.788  1.00  0.00    -0.550 OA
ENDBRANCH  13  14
ENDBRANCH  12  13
ENDBRANCH  11  12
ENDBRANCH  10  11
ENDBRANCH   9  10
ENDBRANCH   8   9
ENDBRANCH   7   8
ENDBRANCH   6   7
ENDBRANCH   5   6
ENDBRANCH   4   5
ENDBRANCH   3   4
ENDBRANCH   2   3
ENDBRANCH   1   2
BRANCH   1  17
ATOM     17  C   UNL     1      66.359  25.266  58.096  1.00  0.00     0.000 C 
BRANCH  17  18
ATOM     18  C   UNL     1      67.817  25.754  58.229  1.00  0.00     0.000 C 
BRANCH  18  19
ATOM     19  C   UNL     1      68.439  25.612  59.630  1.00  0.00     0.000 C 
BRANCH  19  20
ATOM     20  C   UNL     1      69.106  26.906  60.129  1.00  0.00     0.000 C 
BRANCH  20  21
ATOM     21  C   UNL     1      68.216  27.703  61.100  1.00  0.00     0.000 C 
BRANCH  21  22
ATOM     22  C   UNL     1      67.778  29.091  60.599  1.00  0.00    -0.000 C 
BRANCH  22  23
ATOM     23  C   UNL     1      67.645  29.165  59.070  1.00  0.00    -0.000 C 
BRANCH  23  24
ATOM     24  C   UNL     1      68.378  30.397  58.521  1.00  0.00    -0.000 C 
BRANCH  24  25
ATOM     25  C   UNL     1      69.184  30.056  57.258  1.00  0.00    -0.000 C 
BRANCH  25  26
ATOM     26  C   UNL     1      70.316  29.061  57.557  1.00  0.00    -0.000 C 
BRANCH  26  27
ATOM     27  C   UNL     1      71.393  29.666  58.478  1.00  0.00    -0.000 C 
BRANCH  27  28
ATOM     28  C   UNL     1      72.254  28.587  59.161  1.00  0.00    -0.000 C 
BRANCH  28  29
ATOM     29  C   UNL     1      72.394  28.783  60.685  1.00  0.00    -0.003 C 
ATOM     30  C   UNL     1      71.367  29.766  61.250  1.00  0.00     0.004 C 
ENDBRANCH  28  29
ENDBRANCH  27  28
ENDBRANCH  26  27
ENDBRANCH  25  26
ENDBRANCH  24  25
ENDBRANCH  23  24
ENDBRANCH  22  23
ENDBRANCH  21  22
ENDBRANCH  20  21
ENDBRANCH  19  20
ENDBRANCH  18  19
ENDBRANCH  17  18
ENDBRANCH   1  17
TORSDOF 26
ENDMDL
MODEL 5
REMARK VINA RESULT:    -2.638      9.353     12.140
REMARK INTER + INTRA:         -12.038
REMARK INTER:                  -7.845
REMARK INTRA:                  -4.193
REMARK UNBOUND:                -5.390
REMARK SMILES CCCCCCCCCCCCCCCCCCCCCCCCCCCC(=O)[O-]
REMARK SMILES IDX 15 1 16 2 17 3 18 4 19 5 20 6 21 7 22 8 23 9 24 10 25 11
REMARK SMILES IDX 26 12 27 13 28 14 29 15 30 16 14 17 13 18 12 19 11 20 10 21
REMARK SMILES IDX 9 22 8 23 7 24 6 25 5 26 4 27 3 28 2 29 1 30
REMARK H PARENT
REMARK Flexibility Score: inf
ROOT
ATOM      1  C   UNL     1      63.907  31.829  59.734  1.00  0.00     0.000 C 
ENDROOT
BRANCH   1   2
ATOM      2  C   UNL     1      63.996  30.293  59.798  1.00  0.00     0.000 C 
BRANCH   2   3
ATOM      3  C   UNL     1      64.089  29.758  61.239  1.00  0.00     0.000 C 
BRANCH   3   4
ATOM      4  C   UNL     1      62.805  29.089  61.767  1.00  0.00     0.000 C 
BRANCH   4   5
ATOM      5  C   UNL     1      61.642  29.080  60.746  1.00  0.00     0.000 C 
BRANCH   5   6
ATOM      6  C   UNL     1      61.291  27.670  60.242  1.00  0.00     0.000 C 
BRANCH   6   7
ATOM      7  C   UNL     1      62.118  27.269  59.003  1.00  0.00     0.000 C 
BRANCH   7   8
ATOM      8  C   UNL     1      62.992  26.022  59.231  1.00  0.00     0.000 C 
BRANCH   8   9
ATOM      9  C   UNL     1      64.275  26.278  60.041  1.00  0.00     0.000 C 
BRANCH   9  10
ATOM     10  C   UNL     1      65.426  26.856  59.196  1.00  0.00     0.000 C 
BRANCH  10  11
ATOM     11  C   UNL     1      66.771  26.155  59.459  1.00  0.00     0.000 C 
BRANCH  11  12
ATOM     12  C   UNL     1      67.837  27.056  60.120  1.00  0.00     0.006 C 
BRANCH  12  13
ATOM     13  C   UNL     1      67.356  28.495  60.392  1.00  0.00     0.053 C 
BRANCH  13  14
ATOM     14  C   UNL     1      68.058  29.506  59.538  1.00  0.00     0.041 C 
ATOM     15  O   UNL     1      67.392  30.371  58.904  1.00  0.00    -0.550 OA
ATOM     16  O   UNL     1      69.444  29.501  59.445  1.00  0.00    -0.550 OA
ENDBRANCH  13  14
ENDBRANCH  12  13
ENDBRANCH  11  12
ENDBRANCH  10  11
ENDBRANCH   9  10
ENDBRANCH   8   9
ENDBRANCH   7   8
ENDBRANCH   6   7
ENDBRANCH   5   6
ENDBRANCH   4   5
ENDBRANCH   3   4
ENDBRANCH   2   3
ENDBRANCH   1   2
BRANCH   1  17
ATOM     17  C   UNL     1      65.094  32.525  60.428  1.00  0.00     0.000 C 
BRANCH  17  18
ATOM     18  C   UNL     1      65.137  34.061  60.280  1.00  0.00     0.000 C 
BRANCH  18  19
ATOM     19  C   UNL     1      64.799  34.860  61.552  1.00  0.00     0.000 C 
BRANCH  19  20
ATOM     20  C   UNL     1      63.589  35.794  61.376  1.00  0.00     0.000 C 
BRANCH  20  21
ATOM     21  C   UNL     1      62.731  35.438  60.148  1.00  0.00     0.000 C 
BRANCH  21  22
ATOM     22  C   UNL     1      61.336  36.088  60.112  1.00  0.00    -0.000 C 
BRANCH  22  23
ATOM     23  C   UNL     1      60.445  35.542  58.985  1.00  0.00    -0.000 C 
BRANCH  23  24
ATOM     24  C   UNL     1      61.077  34.296  58.349  1.00  0.00    -0.000 C 
BRANCH  24  25
ATOM     25  C   UNL     1      60.028  33.205  58.087  1.00  0.00    -0.000 C 
BRANCH  25  26
ATOM     26  C   UNL     1      60.479  31.840  58.633  1.00  0.00    -0.000 C 
BRANCH  26  27
ATOM     27  C   UNL     1      61.015  30.918  57.521  1.00  0.00    -0.000 C 
BRANCH  27  28
ATOM     28  C   UNL     1      60.011  29.813  57.141  1.00  0.00    -0.000 C 
BRANCH  28  29
ATOM     29  C   UNL     1      58.788  29.744  58.078  1.00  0.00    -0.003 C 
ATOM     30  C   UNL     1      57.465  29.943  57.337  1.00  0.00     0.004 C 
ENDBRANCH  28  29
ENDBRANCH  27  28
ENDBRANCH  26  27
ENDBRANCH  25  26
ENDBRANCH  24  25
ENDBRANCH  23  24
ENDBRANCH  22  23
ENDBRANCH  21  22
ENDBRANCH  20  21
ENDBRANCH  19  20
ENDBRANCH  18  19
ENDBRANCH  17  18
ENDBRANCH   1  17
TORSDOF 26
ENDMDL
MODEL 6
REMARK VINA RESULT:    -2.635      9.017     12.221
REMARK INTER + INTRA:         -12.029
REMARK INTER:                  -6.120
REMARK INTRA:                  -5.910
REMARK UNBOUND:                -5.390
REMARK SMILES CCCCCCCCCCCCCCCCCCCCCCCCCCCC(=O)[O-]
REMARK SMILES IDX 15 1 16 2 17 3 18 4 19 5 20 6 21 7 22 8 23 9 24 10 25 11
REMARK SMILES IDX 26 12 27 13 28 14 29 15 30 16 14 17 13 18 12 19 11 20 10 21
REMARK SMILES IDX 9 22 8 23 7 24 6 25 5 26 4 27 3 28 2 29 1 30
REMARK H PARENT
REMARK Flexibility Score: inf
ROOT
ATOM      1  C   UNL     1      61.677  30.629  58.990  1.00  0.00     0.000 C 
ENDROOT
BRANCH   1   2
ATOM      2  C   UNL     1      62.364  30.986  57.659  1.00  0.00     0.000 C 
BRANCH   2   3
ATOM      3  C   UNL     1      62.660  32.491  57.522  1.00  0.00     0.000 C 
BRANCH   3   4
ATOM      4  C   UNL     1      62.519  33.302  58.825  1.00  0.00     0.000 C 
BRANCH   4   5
ATOM      5  C   UNL     1      63.783  34.114  59.192  1.00  0.00     0.000 C 
BRANCH   5   6
ATOM      6  C   UNL     1      65.021  33.232  59.431  1.00  0.00     0.000 C 
BRANCH   6   7
ATOM      7  C   UNL     1      64.832  32.270  60.622  1.00  0.00     0.000 C 
BRANCH   7   8
ATOM      8  C   UNL     1      65.620  30.955  60.475  1.00  0.00     0.000 C 
BRANCH   8   9
ATOM      9  C   UNL     1      65.893  30.531  59.020  1.00  0.00     0.000 C 
BRANCH   9  10
ATOM     10  C   UNL     1      65.773  29.012  58.794  1.00  0.00     0.000 C 
BRANCH  10  11
ATOM     11  C   UNL     1      65.823  28.206  60.104  1.00  0.00     0.000 C 
BRANCH  11  12
ATOM     12  C   UNL     1      67.011  27.224  60.199  1.00  0.00     0.006 C 
BRANCH  12  13
ATOM     13  C   UNL     1      68.367  27.848  59.815  1.00  0.00     0.053 C 
BRANCH  13  14
ATOM     14  C   UNL     1      69.053  28.493  60.980  1.00  0.00     0.041 C 
ATOM     15  O   UNL     1      68.560  28.393  62.138  1.00  0.00    -0.550 OA
ATOM     16  O   UNL     1      70.236  29.196  60.794  1.00  0.00    -0.550 OA
ENDBRANCH  13  14
ENDBRANCH  12  13
ENDBRANCH  11  12
ENDBRANCH  10  11
ENDBRANCH   9  10
ENDBRANCH   8   9
ENDBRANCH   7   8
ENDBRANCH   6   7
ENDBRANCH   5   6
ENDBRANCH   4   5
ENDBRANCH   3   4
ENDBRANCH   2   3
ENDBRANCH   1   2
BRANCH   1  17
ATOM     17  C   UNL     1      62.318  29.413  59.686  1.00  0.00     0.000 C 
BRANCH  17  18
ATOM     18  C   UNL     1      61.713  29.041  61.056  1.00  0.00     0.000 C 
BRANCH  18  19
ATOM     19  C   UNL     1      60.634  27.943  61.028  1.00  0.00     0.000 C 
BRANCH  19  20
ATOM     20  C   UNL     1      61.160  26.565  61.466  1.00  0.00     0.000 C 
BRANCH  20  21
ATOM     21  C   UNL     1      62.654  26.585  61.837  1.00  0.00     0.000 C 
BRANCH  21  22
ATOM     22  C   UNL     1      63.528  25.557  61.095  1.00  0.00    -0.000 C 
BRANCH  22  23
ATOM     23  C   UNL     1      62.944  25.138  59.737  1.00  0.00    -0.000 C 
BRANCH  23  24
ATOM     24  C   UNL     1      63.794  25.697  58.586  1.00  0.00    -0.000 C 
BRANCH  24  25
ATOM     25  C   UNL     1      62.946  26.534  57.617  1.00  0.00    -0.000 C 
BRANCH  25  26
ATOM     26  C   UNL     1      61.446  26.235  57.769  1.00  0.00    -0.000 C 
BRANCH  26  27
ATOM     27  C   UNL     1      60.567  27.352  57.172  1.00  0.00    -0.000 C 
BRANCH  27  28
ATOM     28  C   UNL     1      59.135  27.337  57.739  1.00  0.00    -0.000 C 
BRANCH  28  29
ATOM     29  C   UNL     1      58.573  28.743  58.031  1.00  0.00    -0.003 C 
ATOM     30  C   UNL     1      58.796  29.719  56.875  1.00  0.00     0.004 C 
ENDBRANCH  28  29
ENDBRANCH  27  28
ENDBRANCH  26  27
ENDBRANCH  25  26
ENDBRANCH  24  25
ENDBRANCH  23  24
ENDBRANCH  22  23
ENDBRANCH  21  22
ENDBRANCH  20  21
ENDBRANCH  19  20
ENDBRANCH  18  19
ENDBRANCH  17  18
ENDBRANCH   1  17
TORSDOF 26
ENDMDL
MODEL 7
REMARK VINA RESULT:    -2.621      9.914     11.994
REMARK INTER + INTRA:         -11.994
REMARK INTER:                  -7.574
REMARK INTRA:                  -4.420
REMARK UNBOUND:                -5.390
REMARK SMILES CCCCCCCCCCCCCCCCCCCCCCCCCCCC(=O)[O-]
REMARK SMILES IDX 15 1 16 2 17 3 18 4 19 5 20 6 21 7 22 8 23 9 24 10 25 11
REMARK SMILES IDX 26 12 27 13 28 14 29 15 30 16 14 17 13 18 12 19 11 20 10 21
REMARK SMILES IDX 9 22 8 23 7 24 6 25 5 26 4 27 3 28 2 29 1 30
REMARK H PARENT
REMARK Flexibility Score: inf
ROOT
ATOM      1  C   UNL     1      63.948  30.464  58.428  1.00  0.00     0.000 C 
ENDROOT
BRANCH   1   2
ATOM      2  C   UNL     1      62.857  29.416  58.713  1.00  0.00     0.000 C 
BRANCH   2   3
ATOM      3  C   UNL     1      61.717  29.963  59.593  1.00  0.00     0.000 C 
BRANCH   3   4
ATOM      4  C   UNL     1      61.409  29.125  60.850  1.00  0.00     0.000 C 
BRANCH   4   5
ATOM      5  C   UNL     1      62.670  28.684  61.629  1.00  0.00     0.000 C 
BRANCH   5   6
ATOM      6  C   UNL     1      62.715  27.171  61.903  1.00  0.00     0.000 C 
BRANCH   6   7
ATOM      7  C   UNL     1      63.346  26.384  60.737  1.00  0.00     0.000 C 
BRANCH   7   8
ATOM      8  C   UNL     1      62.383  25.368  60.095  1.00  0.00     0.000 C 
BRANCH   8   9
ATOM      9  C   UNL     1      61.369  25.978  59.111  1.00  0.00     0.000 C 
BRANCH   9  10
ATOM     10  C   UNL     1      59.902  25.732  59.514  1.00  0.00     0.000 C 
BRANCH  10  11
ATOM     11  C   UNL     1      59.752  25.269  60.974  1.00  0.00     0.000 C 
BRANCH  11  12
ATOM     12  C   UNL     1      58.662  26.021  61.769  1.00  0.00     0.006 C 
BRANCH  12  13
ATOM     13  C   UNL     1      57.942  27.115  60.956  1.00  0.00     0.053 C 
BRANCH  13  14
ATOM     14  C   UNL     1      56.569  27.408  61.479  1.00  0.00     0.041 C 
ATOM     15  O   UNL     1      55.580  27.410  60.693  1.00  0.00    -0.550 OA
ATOM     16  O   UNL     1      56.375  27.670  62.829  1.00  0.00    -0.550 OA
ENDBRANCH  13  14
ENDBRANCH  12  13
ENDBRANCH  11  12
ENDBRANCH  10  11
ENDBRANCH   9  10
ENDBRANCH   8   9
ENDBRANCH   7   8
ENDBRANCH   6   7
ENDBRANCH   5   6
ENDBRANCH   4   5
ENDBRANCH   3   4
ENDBRANCH   2   3
ENDBRANCH   1   2
BRANCH   1  17
ATOM     17  C   UNL     1      64.091  31.501  59.559  1.00  0.00     0.000 C 
BRANCH  17  18
ATOM     18  C   UNL     1      65.148  31.166  60.632  1.00  0.00     0.000 C 
BRANCH  18  19
ATOM     19  C   UNL     1      66.250  30.185  60.195  1.00  0.00     0.000 C 
BRANCH  19  20
ATOM     20  C   UNL     1      66.306  28.913  61.059  1.00  0.00     0.000 C 
BRANCH  20  21
ATOM     21  C   UNL     1      66.563  27.639  60.234  1.00  0.00     0.000 C 
BRANCH  21  22
ATOM     22  C   UNL     1      66.709  27.858  58.718  1.00  0.00    -0.000 C 
BRANCH  22  23
ATOM     23  C   UNL     1      67.715  26.898  58.064  1.00  0.00    -0.000 C 
BRANCH  23  24
ATOM     24  C   UNL     1      69.009  27.637  57.695  1.00  0.00    -0.000 C 
BRANCH  24  25
ATOM     25  C   UNL     1      69.958  27.744  58.899  1.00  0.00    -0.000 C 
BRANCH  25  26
ATOM     26  C   UNL     1      69.958  29.159  59.499  1.00  0.00    -0.000 C 
BRANCH  26  27
ATOM     27  C   UNL     1      70.164  29.143  61.026  1.00  0.00    -0.000 C 
BRANCH  27  28
ATOM     28  C   UNL     1      71.423  29.920  61.456  1.00  0.00    -0.000 C 
BRANCH  28  29
ATOM     29  C   UNL     1      72.742  29.231  61.047  1.00  0.00    -0.003 C 
ATOM     30  C   UNL     1      73.439  29.935  59.882  1.00  0.00     0.004 C 
ENDBRANCH  28  29
ENDBRANCH  27  28
ENDBRANCH  26  27
ENDBRANCH  25  26
ENDBRANCH  24  25
ENDBRANCH  23  24
ENDBRANCH  22  23
ENDBRANCH  21  22
ENDBRANCH  20  21
ENDBRANCH  19  20
ENDBRANCH  18  19
ENDBRANCH  17  18
ENDBRANCH   1  17
TORSDOF 26
ENDMDL
MODEL 8
REMARK VINA RESULT:    -2.610      3.746      9.006
REMARK INTER + INTRA:         -11.967
REMARK INTER:                  -7.755
REMARK INTRA:                  -4.212
REMARK UNBOUND:                -5.390
REMARK SMILES CCCCCCCCCCCCCCCCCCCCCCCCCCCC(=O)[O-]
REMARK SMILES IDX 15 1 16 2 17 3 18 4 19 5 20 6 21 7 22 8 23 9 24 10 25 11
REMARK SMILES IDX 26 12 27 13 28 14 29 15 30 16 14 17 13 18 12 19 11 20 10 21
REMARK SMILES IDX 9 22 8 23 7 24 6 25 5 26 4 27 3 28 2 29 1 30
REMARK H PARENT
REMARK Flexibility Score: inf
ROOT
ATOM      1  C   UNL     1      60.939  22.621  49.720  1.00  0.00     0.000 C 
ENDROOT
BRANCH   1   2
ATOM      2  C   UNL     1      61.802  23.815  50.167  1.00  0.00     0.000 C 
BRANCH   2   3
ATOM      3  C   UNL     1      60.963  25.042  50.574  1.00  0.00     0.000 C 
BRANCH   3   4
ATOM      4  C   UNL     1      59.571  25.123  49.917  1.00  0.00     0.000 C 
BRANCH   4   5
ATOM      5  C   UNL     1      58.405  24.842  50.893  1.00  0.00     0.000 C 
BRANCH   5   6
ATOM      6  C   UNL     1      57.131  25.636  50.558  1.00  0.00     0.000 C 
BRANCH   6   7
ATOM      7  C   UNL     1      56.608  26.439  51.766  1.00  0.00     0.000 C 
BRANCH   7   8
ATOM      8  C   UNL     1      57.430  27.708  52.058  1.00  0.00     0.000 C 
BRANCH   8   9
ATOM      9  C   UNL     1      58.539  27.525  53.109  1.00  0.00     0.000 C 
BRANCH   9  10
ATOM     10  C   UNL     1      59.925  27.993  52.624  1.00  0.00     0.000 C 
BRANCH  10  11
ATOM     11  C   UNL     1      59.872  28.701  51.259  1.00  0.00     0.000 C 
BRANCH  11  12
ATOM     12  C   UNL     1      61.249  28.872  50.580  1.00  0.00     0.006 C 
BRANCH  12  13
ATOM     13  C   UNL     1      62.215  29.792  51.353  1.00  0.00     0.053 C 
BRANCH  13  14
ATOM     14  C   UNL     1      63.354  30.269  50.506  1.00  0.00     0.041 C 
ATOM     15  O   UNL     1      64.536  30.220  50.950  1.00  0.00    -0.550 OA
ATOM     16  O   UNL     1      63.120  30.760  49.228  1.00  0.00    -0.550 OA
ENDBRANCH  13  14
ENDBRANCH  12  13
ENDBRANCH  11  12
ENDBRANCH  10  11
ENDBRANCH   9  10
ENDBRANCH   8   9
ENDBRANCH   7   8
ENDBRANCH   6   7
ENDBRANCH   5   6
ENDBRANCH   4   5
ENDBRANCH   3   4
ENDBRANCH   2   3
ENDBRANCH   1   2
BRANCH   1  17
ATOM     17  C   UNL     1      61.529  21.265  50.151  1.00  0.00     0.000 C 
BRANCH  17  18
ATOM     18  C   UNL     1      60.571  20.060  50.034  1.00  0.00     0.000 C 
BRANCH  18  19
ATOM     19  C   UNL     1      60.882  18.872  50.964  1.00  0.00     0.000 C 
BRANCH  19  20
ATOM     20  C   UNL     1      60.067  17.611  50.628  1.00  0.00     0.000 C 
BRANCH  20  21
ATOM     21  C   UNL     1      58.881  17.897  49.689  1.00  0.00     0.000 C 
BRANCH  21  22
ATOM     22  C   UNL     1      57.510  17.417  50.200  1.00  0.00    -0.000 C 
BRANCH  22  23
ATOM     23  C   UNL     1      56.534  18.571  50.481  1.00  0.00    -0.000 C 
BRANCH  23  24
ATOM     24  C   UNL     1      56.161  18.615  51.970  1.00  0.00    -0.000 C 
BRANCH  24  25
ATOM     25  C   UNL     1      57.312  18.109  52.853  1.00  0.00    -0.000 C 
BRANCH  25  26
ATOM     26  C   UNL     1      57.935  19.244  53.682  1.00  0.00    -0.000 C 
BRANCH  26  27
ATOM     27  C   UNL     1      57.413  20.629  53.255  1.00  0.00    -0.000 C 
BRANCH  27  28
ATOM     28  C   UNL     1      58.522  21.515  52.658  1.00  0.00    -0.000 C 
BRANCH  28  29
ATOM     29  C   UNL     1      59.832  21.494  53.472  1.00  0.00    -0.003 C 
ATOM     30  C   UNL     1      60.486  22.874  53.574  1.00  0.00     0.004 C 
ENDBRANCH  28  29
ENDBRANCH  27  28
ENDBRANCH  26  27
ENDBRANCH  25  26
ENDBRANCH  24  25
ENDBRANCH  23  24
ENDBRANCH  22  23
ENDBRANCH  21  22
ENDBRANCH  20  21
ENDBRANCH  19  20
ENDBRANCH  18  19
ENDBRANCH  17  18
ENDBRANCH   1  17
TORSDOF 26
ENDMDL
MODEL 9
REMARK VINA RESULT:    -2.593      6.489      9.808
REMARK INTER + INTRA:         -11.923
REMARK INTER:                  -6.455
REMARK INTRA:                  -5.468
REMARK UNBOUND:                -5.390
REMARK SMILES CCCCCCCCCCCCCCCCCCCCCCCCCCCC(=O)[O-]
REMARK SMILES IDX 15 1 16 2 17 3 18 4 19 5 20 6 21 7 22 8 23 9 24 10 25 11
REMARK SMILES IDX 26 12 27 13 28 14 29 15 30 16 14 17 13 18 12 19 11 20 10 21
REMARK SMILES IDX 9 22 8 23 7 24 6 25 5 26 4 27 3 28 2 29 1 30
REMARK H PARENT
REMARK Flexibility Score: inf
ROOT
ATOM      1  C   UNL     1      57.780  18.169  50.212  1.00  0.00     0.000 C 
ENDROOT
BRANCH   1   2
ATOM      2  C   UNL     1      56.279  18.275  50.535  1.00  0.00     0.000 C 
BRANCH   2   3
ATOM      3  C   UNL     1      56.007  18.814  51.952  1.00  0.00     0.000 C 
BRANCH   3   4
ATOM      4  C   UNL     1      57.188  18.682  52.934  1.00  0.00     0.000 C 
BRANCH   4   5
ATOM      5  C   UNL     1      57.567  20.009  53.634  1.00  0.00     0.000 C 
BRANCH   5   6
ATOM      6  C   UNL     1      58.057  21.090  52.656  1.00  0.00     0.000 C 
BRANCH   6   7
ATOM      7  C   UNL     1      57.983  22.505  53.264  1.00  0.00     0.000 C 
BRANCH   7   8
ATOM      8  C   UNL     1      59.188  22.849  54.158  1.00  0.00     0.000 C 
BRANCH   8   9
ATOM      9  C   UNL     1      59.741  24.274  53.970  1.00  0.00     0.000 C 
BRANCH   9  10
ATOM     10  C   UNL     1      61.278  24.327  53.887  1.00  0.00     0.000 C 
BRANCH  10  11
ATOM     11  C   UNL     1      61.925  22.931  53.877  1.00  0.00     0.000 C 
BRANCH  11  12
ATOM     12  C   UNL     1      63.466  22.947  53.770  1.00  0.00     0.006 C 
BRANCH  12  13
ATOM     13  C   UNL     1      64.049  21.742  53.005  1.00  0.00     0.053 C 
BRANCH  13  14
ATOM     14  C   UNL     1      64.535  22.112  51.637  1.00  0.00     0.041 C 
ATOM     15  O   UNL     1      64.449  23.306  51.236  1.00  0.00    -0.550 OA
ATOM     16  O   UNL     1      65.088  21.146  50.806  1.00  0.00    -0.550 OA
ENDBRANCH  13  14
ENDBRANCH  12  13
ENDBRANCH  11  12
ENDBRANCH  10  11
ENDBRANCH   9  10
ENDBRANCH   8   9
ENDBRANCH   7   8
ENDBRANCH   6   7
ENDBRANCH   5   6
ENDBRANCH   4   5
ENDBRANCH   3   4
ENDBRANCH   2   3
ENDBRANCH   1   2
BRANCH   1  17
ATOM     17  C   UNL     1      58.143  16.859  49.485  1.00  0.00     0.000 C 
BRANCH  17  18
ATOM     18  C   UNL     1      59.544  16.294  49.803  1.00  0.00     0.000 C 
BRANCH  18  19
ATOM     19  C   UNL     1      59.903  16.210  51.298  1.00  0.00     0.000 C 
BRANCH  19  20
ATOM     20  C   UNL     1      61.095  17.102  51.684  1.00  0.00     0.000 C 
BRANCH  20  21
ATOM     21  C   UNL     1      60.717  18.207  52.687  1.00  0.00     0.000 C 
BRANCH  21  22
ATOM     22  C   UNL     1      61.163  19.628  52.296  1.00  0.00    -0.000 C 
BRANCH  22  23
ATOM     23  C   UNL     1      61.677  19.723  50.850  1.00  0.00    -0.000 C 
BRANCH  23  24
ATOM     24  C   UNL     1      60.613  20.348  49.936  1.00  0.00    -0.000 C 
BRANCH  24  25
ATOM     25  C   UNL     1      61.031  21.749  49.465  1.00  0.00    -0.000 C 
BRANCH  25  26
ATOM     26  C   UNL     1      60.726  22.820  50.524  1.00  0.00    -0.000 C 
BRANCH  26  27
ATOM     27  C   UNL     1      61.252  24.209  50.114  1.00  0.00    -0.000 C 
BRANCH  27  28
ATOM     28  C   UNL     1      60.191  25.312  50.287  1.00  0.00    -0.000 C 
BRANCH  28  29
ATOM     29  C   UNL     1      58.744  24.777  50.314  1.00  0.00    -0.003 C 
ATOM     30  C   UNL     1      57.762  25.763  50.947  1.00  0.00     0.004 C 
ENDBRANCH  28  29
ENDBRANCH  27  28
ENDBRANCH  26  27
ENDBRANCH  25  26
ENDBRANCH  24  25
ENDBRANCH  23  24
ENDBRANCH  22  23
ENDBRANCH  21  22
ENDBRANCH  20  21
ENDBRANCH  19  20
ENDBRANCH  18  19
ENDBRANCH  17  18
ENDBRANCH   1  17
TORSDOF 26
ENDMDL
