MODEL 1
REMARK VINA RESULT:    -3.515      0.000      0.000
REMARK INTER + INTRA:          -8.459
REMARK INTER:                  -6.391
REMARK INTRA:                  -2.067
REMARK UNBOUND:                -2.067
REMARK SMILES CCCCCCCCCCCCCCCC(=O)[O-]
REMARK SMILES IDX 9 1 10 2 11 3 12 4 13 5 14 6 15 7 16 8 17 9 18 10 8 11 7 12
REMARK SMILES IDX 6 13 5 14 4 15 3 16 2 17 1 18
REMARK H PARENT
REMARK Flexibility Score: inf
ROOT
ATOM      1  C   UNL     1       3.298   0.627   9.674  1.00  0.00     0.000 C 
ENDROOT
BRANCH   1   2
ATOM      2  C   UNL     1       1.979   0.507   8.895  1.00  0.00     0.000 C 
BRANCH   2   3
ATOM      3  C   UNL     1       1.460  -0.940   8.826  1.00  0.00     0.000 C 
BRANCH   3   4
ATOM      4  C   UNL     1       0.116  -1.041   8.072  1.00  0.00     0.000 C 
BRANCH   4   5
ATOM      5  C   UNL     1      -0.480   0.326   7.693  1.00  0.00     0.000 C 
BRANCH   5   6
ATOM      6  C   UNL     1      -1.806   0.619   8.407  1.00  0.00     0.006 C 
BRANCH   6   7
ATOM      7  C   UNL     1      -2.409  -0.660   8.994  1.00  0.00     0.053 C 
BRANCH   7   8
ATOM      8  C   UNL     1      -3.880  -0.715   8.730  1.00  0.00     0.041 C 
ATOM      9  O   UNL     1      -4.464   0.260   8.187  1.00  0.00    -0.550 OA
ATOM     10  O   UNL     1      -4.617  -1.822   9.129  1.00  0.00    -0.550 OA
ENDBRANCH   7   8
ENDBRANCH   6   7
ENDBRANCH   5   6
ENDBRANCH   4   5
ENDBRANCH   3   4
ENDBRANCH   2   3
ENDBRANCH   1   2
BRANCH   1  11
ATOM     11  C   UNL     1       3.972   1.995   9.491  1.00  0.00     0.000 C 
BRANCH  11  12
ATOM     12  C   UNL     1       4.117   2.340   8.005  1.00  0.00    -0.000 C 
BRANCH  12  13
ATOM     13  C   UNL     1       3.900   3.839   7.762  1.00  0.00    -0.000 C 
BRANCH  13  14
ATOM     14  C   UNL     1       2.959   4.075   6.574  1.00  0.00    -0.000 C 
BRANCH  14  15
ATOM     15  C   UNL     1       1.512   3.710   6.938  1.00  0.00    -0.000 C 
BRANCH  15  16
ATOM     16  C   UNL     1       0.961   4.553   8.098  1.00  0.00    -0.000 C 
BRANCH  16  17
ATOM     17  C   UNL     1       0.267   3.702   9.171  1.00  0.00    -0.003 C 
ATOM     18  C   UNL     1       0.969   3.840  10.519  1.00  0.00     0.004 C 
ENDBRANCH  16  17
ENDBRANCH  15  16
ENDBRANCH  14  15
ENDBRANCH  13  14
ENDBRANCH  12  13
ENDBRANCH  11  12
ENDBRANCH   1  11
TORSDOF 14
ENDMDL
MODEL 2
REMARK VINA RESULT:    -3.507     11.839     13.171
REMARK INTER + INTRA:          -8.445
REMARK INTER:                  -5.943
REMARK INTRA:                  -2.501
REMARK UNBOUND:                -2.067
REMARK SMILES CCCCCCCCCCCCCCCC(=O)[O-]
REMARK SMILES IDX 9 1 10 2 11 3 12 4 13 5 14 6 15 7 16 8 17 9 18 10 8 11 7 12
REMARK SMILES IDX 6 13 5 14 4 15 3 16 2 17 1 18
REMARK H PARENT
REMARK Flexibility Score: inf
ROOT
ATOM      1  C   UNL     1       3.076  -0.717  -5.769  1.00  0.00     0.000 C 
ENDROOT
BRANCH   1   2
ATOM      2  C   UNL     1       1.554  -0.600  -5.589  1.00  0.00     0.000 C 
BRANCH   2   3
ATOM      3  C   UNL     1       1.003  -1.584  -4.543  1.00  0.00     0.000 C 
BRANCH   3   4
ATOM      4  C   UNL     1       1.212  -1.076  -3.099  1.00  0.00     0.000 C 
BRANCH   4   5
ATOM      5  C   UNL     1       1.202  -2.198  -2.046  1.00  0.00     0.000 C 
BRANCH   5   6
ATOM      6  C   UNL     1       0.510  -3.475  -2.538  1.00  0.00     0.006 C 
BRANCH   6   7
ATOM      7  C   UNL     1       0.853  -4.667  -1.640  1.00  0.00     0.053 C 
BRANCH   7   8
ATOM      8  C   UNL     1      -0.315  -5.025  -0.776  1.00  0.00     0.041 C 
ATOM      9  O   UNL     1      -1.439  -5.259  -1.294  1.00  0.00    -0.550 OA
ATOM     10  O   UNL     1      -0.175  -5.053   0.606  1.00  0.00    -0.550 OA
ENDBRANCH   7   8
ENDBRANCH   6   7
ENDBRANCH   5   6
ENDBRANCH   4   5
ENDBRANCH   3   4
ENDBRANCH   2   3
ENDBRANCH   1   2
BRANCH   1  11
ATOM     11  C   UNL     1       3.829   0.519  -5.254  1.00  0.00     0.000 C 
BRANCH  11  12
ATOM     12  C   UNL     1       5.163   0.121  -4.614  1.00  0.00    -0.000 C 
BRANCH  12  13
ATOM     13  C   UNL     1       4.940  -0.644  -3.303  1.00  0.00    -0.000 C 
BRANCH  13  14
ATOM     14  C   UNL     1       5.505  -2.067  -3.391  1.00  0.00    -0.000 C 
BRANCH  14  15
ATOM     15  C   UNL     1       4.695  -3.035  -2.516  1.00  0.00    -0.000 C 
BRANCH  15  16
ATOM     16  C   UNL     1       4.264  -4.300  -3.274  1.00  0.00    -0.000 C 
BRANCH  16  17
ATOM     17  C   UNL     1       3.792  -4.000  -4.705  1.00  0.00    -0.003 C 
ATOM     18  C   UNL     1       2.712  -4.985  -5.144  1.00  0.00     0.004 C 
ENDBRANCH  16  17
ENDBRANCH  15  16
ENDBRANCH  14  15
ENDBRANCH  13  14
ENDBRANCH  12  13
ENDBRANCH  11  12
ENDBRANCH   1  11
TORSDOF 14
ENDMDL
MODEL 3
REMARK VINA RESULT:    -3.501      4.333      6.630
REMARK INTER + INTRA:          -8.433
REMARK INTER:                  -6.657
REMARK INTRA:                  -1.776
REMARK UNBOUND:                -2.067
REMARK SMILES CCCCCCCCCCCCCCCC(=O)[O-]
REMARK SMILES IDX 9 1 10 2 11 3 12 4 13 5 14 6 15 7 16 8 17 9 18 10 8 11 7 12
REMARK SMILES IDX 6 13 5 14 4 15 3 16 2 17 1 18
REMARK H PARENT
REMARK Flexibility Score: inf
ROOT
ATOM      1  C   UNL     1       1.341  -1.760   8.999  1.00  0.00     0.000 C 
ENDROOT
BRANCH   1   2
ATOM      2  C   UNL     1       2.126  -0.488   9.359  1.00  0.00     0.000 C 
BRANCH   2   3
ATOM      3  C   UNL     1       3.578  -0.784   9.771  1.00  0.00     0.000 C 
BRANCH   3   4
ATOM      4  C   UNL     1       4.519   0.407   9.485  1.00  0.00     0.000 C 
BRANCH   4   5
ATOM      5  C   UNL     1       3.791   1.647   8.936  1.00  0.00     0.000 C 
BRANCH   5   6
ATOM      6  C   UNL     1       4.534   2.308   7.768  1.00  0.00     0.006 C 
BRANCH   6   7
ATOM      7  C   UNL     1       5.362   3.503   8.249  1.00  0.00     0.053 C 
BRANCH   7   8
ATOM      8  C   UNL     1       6.823   3.192   8.176  1.00  0.00     0.041 C 
ATOM      9  O   UNL     1       7.387   2.571   9.116  1.00  0.00    -0.550 OA
ATOM     10  O   UNL     1       7.574   3.632   7.094  1.00  0.00    -0.550 OA
ENDBRANCH   7   8
ENDBRANCH   6   7
ENDBRANCH   5   6
ENDBRANCH   4   5
ENDBRANCH   3   4
ENDBRANCH   2   3
ENDBRANCH   1   2
BRANCH   1  11
ATOM     11  C   UNL     1       0.184  -1.485   8.026  1.00  0.00     0.000 C 
BRANCH  11  12
ATOM     12  C   UNL     1       0.031   0.017   7.766  1.00  0.00    -0.000 C 
BRANCH  12  13
ATOM     13  C   UNL     1      -1.397   0.487   8.073  1.00  0.00    -0.000 C 
BRANCH  13  14
ATOM     14  C   UNL     1      -1.387   1.787   8.887  1.00  0.00    -0.000 C 
BRANCH  14  15
ATOM     15  C   UNL     1       0.045   2.310   9.069  1.00  0.00    -0.000 C 
BRANCH  15  16
ATOM     16  C   UNL     1       0.251   3.701   8.449  1.00  0.00    -0.000 C 
BRANCH  16  17
ATOM     17  C   UNL     1       1.143   3.664   7.199  1.00  0.00    -0.003 C 
ATOM     18  C   UNL     1       1.904   4.976   7.030  1.00  0.00     0.004 C 
ENDBRANCH  16  17
ENDBRANCH  15  16
ENDBRANCH  14  15
ENDBRANCH  13  14
ENDBRANCH  12  13
ENDBRANCH  11  12
ENDBRANCH   1  11
TORSDOF 14
ENDMDL
MODEL 4
REMARK VINA RESULT:    -3.429      4.988      7.816
REMARK INTER + INTRA:          -8.302
REMARK INTER:                  -7.234
REMARK INTRA:                  -1.069
REMARK UNBOUND:                -2.067
REMARK SMILES CCCCCCCCCCCCCCCC(=O)[O-]
REMARK SMILES IDX 9 1 10 2 11 3 12 4 13 5 14 6 15 7 16 8 17 9 18 10 8 11 7 12
REMARK SMILES IDX 6 13 5 14 4 15 3 16 2 17 1 18
REMARK H PARENT
REMARK Flexibility Score: inf
ROOT
ATOM      1  C   UNL     1       1.711  -0.716   9.944  1.00  0.00     0.000 C 
ENDROOT
BRANCH   1   2
ATOM      2  C   UNL     1       3.015   0.063   9.708  1.00  0.00     0.000 C 
BRANCH   2   3
ATOM      3  C   UNL     1       2.785   1.395   8.971  1.00  0.00     0.000 C 
BRANCH   3   4
ATOM      4  C   UNL     1       4.097   1.980   8.404  1.00  0.00     0.000 C 
BRANCH   4   5
ATOM      5  C   UNL     1       5.351   1.190   8.815  1.00  0.00     0.000 C 
BRANCH   5   6
ATOM      6  C   UNL     1       6.631   1.711   8.150  1.00  0.00     0.006 C 
BRANCH   6   7
ATOM      7  C   UNL     1       6.796   3.216   8.378  1.00  0.00     0.053 C 
BRANCH   7   8
ATOM      8  C   UNL     1       7.805   3.783   7.429  1.00  0.00     0.041 C 
ATOM      9  O   UNL     1       8.623   3.024   6.846  1.00  0.00    -0.550 OA
ATOM     10  O   UNL     1       7.874   5.155   7.226  1.00  0.00    -0.550 OA
ENDBRANCH   7   8
ENDBRANCH   6   7
ENDBRANCH   5   6
ENDBRANCH   4   5
ENDBRANCH   3   4
ENDBRANCH   2   3
ENDBRANCH   1   2
BRANCH   1  11
ATOM     11  C   UNL     1       1.316  -1.587   8.742  1.00  0.00     0.000 C 
BRANCH  11  12
ATOM     12  C   UNL     1      -0.123  -1.296   8.304  1.00  0.00    -0.000 C 
BRANCH  12  13
ATOM     13  C   UNL     1      -0.226   0.075   7.623  1.00  0.00    -0.000 C 
BRANCH  13  14
ATOM     14  C   UNL     1      -1.497   0.814   8.061  1.00  0.00    -0.000 C 
BRANCH  14  15
ATOM     15  C   UNL     1      -2.392  -0.092   8.918  1.00  0.00    -0.000 C 
BRANCH  15  16
ATOM     16  C   UNL     1      -3.858  -0.083   8.458  1.00  0.00    -0.000 C 
BRANCH  16  17
ATOM     17  C   UNL     1      -4.646  -1.300   8.967  1.00  0.00    -0.003 C 
ATOM     18  C   UNL     1      -3.707  -2.372   9.512  1.00  0.00     0.004 C 
ENDBRANCH  16  17
ENDBRANCH  15  16
ENDBRANCH  14  15
ENDBRANCH  13  14
ENDBRANCH  12  13
ENDBRANCH  11  12
ENDBRANCH   1  11
TORSDOF 14
ENDMDL
MODEL 5
REMARK VINA RESULT:    -3.424      1.122      2.555
REMARK INTER + INTRA:          -8.294
REMARK INTER:                  -6.257
REMARK INTRA:                  -2.037
REMARK UNBOUND:                -2.067
REMARK SMILES CCCCCCCCCCCCCCCC(=O)[O-]
REMARK SMILES IDX 9 1 10 2 11 3 12 4 13 5 14 6 15 7 16 8 17 9 18 10 8 11 7 12
REMARK SMILES IDX 6 13 5 14 4 15 3 16 2 17 1 18
REMARK H PARENT
REMARK Flexibility Score: inf
ROOT
ATOM      1  C   UNL     1       2.105   0.765   8.836  1.00  0.00     0.000 C 
ENDROOT
BRANCH   1   2
ATOM      2  C   UNL     1       2.400  -0.641   9.384  1.00  0.00     0.000 C 
BRANCH   2   3
ATOM      3  C   UNL     1       1.376  -1.688   8.913  1.00  0.00     0.000 C 
BRANCH   3   4
ATOM      4  C   UNL     1       0.273  -1.067   8.029  1.00  0.00     0.000 C 
BRANCH   4   5
ATOM      5  C   UNL     1      -1.040  -0.794   8.785  1.00  0.00     0.000 C 
BRANCH   5   6
ATOM      6  C   UNL     1      -1.849   0.361   8.181  1.00  0.00     0.006 C 
BRANCH   6   7
ATOM      7  C   UNL     1      -2.799   0.968   9.217  1.00  0.00     0.053 C 
BRANCH   7   8
ATOM      8  C   UNL     1      -4.219   0.633   8.885  1.00  0.00     0.041 C 
ATOM      9  O   UNL     1      -4.494  -0.437   8.280  1.00  0.00    -0.550 OA
ATOM     10  O   UNL     1      -5.235   1.525   9.201  1.00  0.00    -0.550 OA
ENDBRANCH   7   8
ENDBRANCH   6   7
ENDBRANCH   5   6
ENDBRANCH   4   5
ENDBRANCH   3   4
ENDBRANCH   2   3
ENDBRANCH   1   2
BRANCH   1  11
ATOM     11  C   UNL     1       1.759   1.770   9.945  1.00  0.00     0.000 C 
BRANCH  11  12
ATOM     12  C   UNL     1       0.747   2.808   9.448  1.00  0.00    -0.000 C 
BRANCH  12  13
ATOM     13  C   UNL     1       0.827   2.971   7.924  1.00  0.00    -0.000 C 
BRANCH  13  14
ATOM     14  C   UNL     1       1.560   4.264   7.545  1.00  0.00    -0.000 C 
BRANCH  14  15
ATOM     15  C   UNL     1       2.815   3.960   6.713  1.00  0.00    -0.000 C 
BRANCH  15  16
ATOM     16  C   UNL     1       4.107   4.437   7.394  1.00  0.00    -0.000 C 
BRANCH  16  17
ATOM     17  C   UNL     1       4.650   3.423   8.411  1.00  0.00    -0.003 C 
ATOM     18  C   UNL     1       5.297   2.233   7.708  1.00  0.00     0.004 C 
ENDBRANCH  16  17
ENDBRANCH  15  16
ENDBRANCH  14  15
ENDBRANCH  13  14
ENDBRANCH  12  13
ENDBRANCH  11  12
ENDBRANCH   1  11
TORSDOF 14
ENDMDL
MODEL 6
REMARK VINA RESULT:    -3.401     11.812     13.109
REMARK INTER + INTRA:          -8.252
REMARK INTER:                  -5.790
REMARK INTRA:                  -2.462
REMARK UNBOUND:                -2.067
REMARK SMILES CCCCCCCCCCCCCCCC(=O)[O-]
REMARK SMILES IDX 9 1 10 2 11 3 12 4 13 5 14 6 15 7 16 8 17 9 18 10 8 11 7 12
REMARK SMILES IDX 6 13 5 14 4 15 3 16 2 17 1 18
REMARK H PARENT
REMARK Flexibility Score: inf
ROOT
ATOM      1  C   UNL     1       1.603  -1.236  -5.767  1.00  0.00     0.000 C 
ENDROOT
BRANCH   1   2
ATOM      2  C   UNL     1       0.695  -1.636  -4.593  1.00  0.00     0.000 C 
BRANCH   2   3
ATOM      3  C   UNL     1       1.166  -1.048  -3.252  1.00  0.00     0.000 C 
BRANCH   3   4
ATOM      4  C   UNL     1       1.173  -2.103  -2.124  1.00  0.00     0.000 C 
BRANCH   4   5
ATOM      5  C   UNL     1       0.481  -3.422  -2.511  1.00  0.00     0.000 C 
BRANCH   5   6
ATOM      6  C   UNL     1       0.886  -4.596  -1.611  1.00  0.00     0.006 C 
BRANCH   6   7
ATOM      7  C   UNL     1      -0.192  -4.882  -0.562  1.00  0.00     0.053 C 
BRANCH   7   8
ATOM      8  C   UNL     1       0.320  -5.836   0.470  1.00  0.00     0.041 C 
ATOM      9  O   UNL     1      -0.064  -5.744   1.666  1.00  0.00    -0.550 OA
ATOM     10  O   UNL     1       1.260  -6.798   0.122  1.00  0.00    -0.550 OA
ENDBRANCH   7   8
ENDBRANCH   6   7
ENDBRANCH   5   6
ENDBRANCH   4   5
ENDBRANCH   3   4
ENDBRANCH   2   3
ENDBRANCH   1   2
BRANCH   1  11
ATOM     11  C   UNL     1       2.174  -2.450  -6.515  1.00  0.00     0.000 C 
BRANCH  11  12
ATOM     12  C   UNL     1       2.417  -3.620  -5.556  1.00  0.00    -0.000 C 
BRANCH  12  13
ATOM     13  C   UNL     1       3.875  -3.648  -5.079  1.00  0.00    -0.000 C 
BRANCH  13  14
ATOM     14  C   UNL     1       3.977  -4.192  -3.648  1.00  0.00    -0.000 C 
BRANCH  14  15
ATOM     15  C   UNL     1       4.583  -3.143  -2.704  1.00  0.00    -0.000 C 
BRANCH  15  16
ATOM     16  C   UNL     1       5.411  -2.084  -3.448  1.00  0.00    -0.000 C 
BRANCH  16  17
ATOM     17  C   UNL     1       4.912  -0.654  -3.189  1.00  0.00    -0.003 C 
ATOM     18  C   UNL     1       4.743   0.113  -4.497  1.00  0.00     0.004 C 
ENDBRANCH  16  17
ENDBRANCH  15  16
ENDBRANCH  14  15
ENDBRANCH  13  14
ENDBRANCH  12  13
ENDBRANCH  11  12
ENDBRANCH   1  11
TORSDOF 14
ENDMDL
MODEL 7
REMARK VINA RESULT:    -3.390      2.420      5.965
REMARK INTER + INTRA:          -8.231
REMARK INTER:                  -6.669
REMARK INTRA:                  -1.562
REMARK UNBOUND:                -2.067
REMARK SMILES CCCCCCCCCCCCCCCC(=O)[O-]
REMARK SMILES IDX 9 1 10 2 11 3 12 4 13 5 14 6 15 7 16 8 17 9 18 10 8 11 7 12
REMARK SMILES IDX 6 13 5 14 4 15 3 16 2 17 1 18
REMARK H PARENT
REMARK Flexibility Score: inf
ROOT
ATOM      1  C   UNL     1       1.443  -0.966   8.944  1.00  0.00     0.000 C 
ENDROOT
BRANCH   1   2
ATOM      2  C   UNL     1       1.930   0.469   9.206  1.00  0.00     0.000 C 
BRANCH   2   3
ATOM      3  C   UNL     1       3.458   0.559   9.355  1.00  0.00     0.000 C 
BRANCH   3   4
ATOM      4  C   UNL     1       4.031   1.842   8.715  1.00  0.00     0.000 C 
BRANCH   4   5
ATOM      5  C   UNL     1       3.187   3.098   8.993  1.00  0.00     0.000 C 
BRANCH   5   6
ATOM      6  C   UNL     1       3.018   3.992   7.758  1.00  0.00     0.006 C 
BRANCH   6   7
ATOM      7  C   UNL     1       1.806   3.558   6.928  1.00  0.00     0.053 C 
BRANCH   7   8
ATOM      8  C   UNL     1       0.593   4.338   7.324  1.00  0.00     0.041 C 
ATOM      9  O   UNL     1      -0.147   3.930   8.258  1.00  0.00    -0.550 OA
ATOM     10  O   UNL     1       0.250   5.491   6.629  1.00  0.00    -0.550 OA
ENDBRANCH   7   8
ENDBRANCH   6   7
ENDBRANCH   5   6
ENDBRANCH   4   5
ENDBRANCH   3   4
ENDBRANCH   2   3
ENDBRANCH   1   2
BRANCH   1  11
ATOM     11  C   UNL     1       0.167  -1.011   8.089  1.00  0.00     0.000 C 
BRANCH  11  12
ATOM     12  C   UNL     1      -0.235   0.394   7.629  1.00  0.00    -0.000 C 
BRANCH  12  13
ATOM     13  C   UNL     1      -1.730   0.644   7.864  1.00  0.00    -0.000 C 
BRANCH  13  14
ATOM     14  C   UNL     1      -2.038   0.787   9.360  1.00  0.00    -0.000 C 
BRANCH  14  15
ATOM     15  C   UNL     1      -3.511   0.465   9.651  1.00  0.00    -0.000 C 
BRANCH  15  16
ATOM     16  C   UNL     1      -4.169  -0.361   8.536  1.00  0.00    -0.000 C 
BRANCH  16  17
ATOM     17  C   UNL     1      -4.632  -1.744   9.018  1.00  0.00    -0.003 C 
ATOM     18  C   UNL     1      -3.466  -2.541   9.597  1.00  0.00     0.004 C 
ENDBRANCH  16  17
ENDBRANCH  15  16
ENDBRANCH  14  15
ENDBRANCH  13  14
ENDBRANCH  12  13
ENDBRANCH  11  12
ENDBRANCH   1  11
TORSDOF 14
ENDMDL
MODEL 8
REMARK VINA RESULT:    -3.373      1.736      2.115
REMARK INTER + INTRA:          -8.201
REMARK INTER:                  -6.357
REMARK INTRA:                  -1.844
REMARK UNBOUND:                -2.067
REMARK SMILES CCCCCCCCCCCCCCCC(=O)[O-]
REMARK SMILES IDX 9 1 10 2 11 3 12 4 13 5 14 6 15 7 16 8 17 9 18 10 8 11 7 12
REMARK SMILES IDX 6 13 5 14 4 15 3 16 2 17 1 18
REMARK H PARENT
REMARK Flexibility Score: inf
ROOT
ATOM      1  C   UNL     1       3.579  -0.714   9.818  1.00  0.00     0.000 C 
ENDROOT
BRANCH   1   2
ATOM      2  C   UNL     1       2.194  -0.420   9.218  1.00  0.00     0.000 C 
BRANCH   2   3
ATOM      3  C   UNL     1       1.411  -1.700   8.877  1.00  0.00     0.000 C 
BRANCH   3   4
ATOM      4  C   UNL     1       0.143  -1.404   8.047  1.00  0.00     0.000 C 
BRANCH   4   5
ATOM      5  C   UNL     1      -0.055   0.091   7.739  1.00  0.00     0.000 C 
BRANCH   5   6
ATOM      6  C   UNL     1      -1.482   0.576   8.023  1.00  0.00     0.006 C 
BRANCH   6   7
ATOM      7  C   UNL     1      -2.009  -0.006   9.337  1.00  0.00     0.053 C 
BRANCH   7   8
ATOM      8  C   UNL     1      -1.528   0.804  10.499  1.00  0.00     0.041 C 
ATOM      9  O   UNL     1      -1.960   1.974  10.680  1.00  0.00    -0.550 OA
ATOM     10  O   UNL     1      -0.565   0.287  11.356  1.00  0.00    -0.550 OA
ENDBRANCH   7   8
ENDBRANCH   6   7
ENDBRANCH   5   6
ENDBRANCH   4   5
ENDBRANCH   3   4
ENDBRANCH   2   3
ENDBRANCH   1   2
BRANCH   1  11
ATOM     11  C   UNL     1       4.530   0.489   9.727  1.00  0.00     0.000 C 
BRANCH  11  12
ATOM     12  C   UNL     1       3.778   1.751   9.292  1.00  0.00    -0.000 C 
BRANCH  12  13
ATOM     13  C   UNL     1       4.349   2.309   7.982  1.00  0.00    -0.000 C 
BRANCH  13  14
ATOM     14  C   UNL     1       4.205   3.835   7.924  1.00  0.00    -0.000 C 
BRANCH  14  15
ATOM     15  C   UNL     1       3.337   4.260   6.730  1.00  0.00    -0.000 C 
BRANCH  15  16
ATOM     16  C   UNL     1       1.975   4.827   7.160  1.00  0.00    -0.000 C 
BRANCH  16  17
ATOM     17  C   UNL     1       0.909   3.736   7.339  1.00  0.00    -0.003 C 
ATOM     18  C   UNL     1       0.496   3.607   8.802  1.00  0.00     0.004 C 
ENDBRANCH  16  17
ENDBRANCH  15  16
ENDBRANCH  14  15
ENDBRANCH  13  14
ENDBRANCH  12  13
ENDBRANCH  11  12
ENDBRANCH   1  11
TORSDOF 14
ENDMDL
MODEL 9
REMARK VINA RESULT:    -3.353      2.211      5.494
REMARK INTER + INTRA:          -8.165
REMARK INTER:                  -6.975
REMARK INTRA:                  -1.189
REMARK UNBOUND:                -2.067
REMARK SMILES CCCCCCCCCCCCCCCC(=O)[O-]
REMARK SMILES IDX 9 1 10 2 11 3 12 4 13 5 14 6 15 7 16 8 17 9 18 10 8 11 7 12
REMARK SMILES IDX 6 13 5 14 4 15 3 16 2 17 1 18
REMARK H PARENT
REMARK Flexibility Score: inf
ROOT
ATOM      1  C   UNL     1       3.493  -0.321   9.717  1.00  0.00     0.000 C 
ENDROOT
BRANCH   1   2
ATOM      2  C   UNL     1       4.362   0.925   9.481  1.00  0.00     0.000 C 
BRANCH   2   3
ATOM      3  C   UNL     1       3.588   2.068   8.800  1.00  0.00     0.000 C 
BRANCH   3   4
ATOM      4  C   UNL     1       4.382   2.691   7.631  1.00  0.00     0.000 C 
BRANCH   4   5
ATOM      5  C   UNL     1       3.586   3.745   6.841  1.00  0.00     0.000 C 
BRANCH   5   6
ATOM      6  C   UNL     1       2.515   4.445   7.688  1.00  0.00     0.006 C 
BRANCH   6   7
ATOM      7  C   UNL     1       1.113   4.175   7.134  1.00  0.00     0.053 C 
BRANCH   7   8
ATOM      8  C   UNL     1       0.072   4.533   8.146  1.00  0.00     0.041 C 
ATOM      9  O   UNL     1      -0.245   5.738   8.332  1.00  0.00    -0.550 OA
ATOM     10  O   UNL     1      -0.514   3.541   8.922  1.00  0.00    -0.550 OA
ENDBRANCH   7   8
ENDBRANCH   6   7
ENDBRANCH   5   6
ENDBRANCH   4   5
ENDBRANCH   3   4
ENDBRANCH   2   3
ENDBRANCH   1   2
BRANCH   1  11
ATOM     11  C   UNL     1       2.095  -0.195   9.092  1.00  0.00     0.000 C 
BRANCH  11  12
ATOM     12  C   UNL     1       1.495  -1.575   8.806  1.00  0.00    -0.000 C 
BRANCH  12  13
ATOM     13  C   UNL     1       0.203  -1.457   7.989  1.00  0.00    -0.000 C 
BRANCH  13  14
ATOM     14  C   UNL     1      -0.209   0.011   7.819  1.00  0.00    -0.000 C 
BRANCH  14  15
ATOM     15  C   UNL     1      -1.632   0.246   8.348  1.00  0.00    -0.000 C 
BRANCH  15  16
ATOM     16  C   UNL     1      -2.121  -0.890   9.259  1.00  0.00    -0.000 C 
BRANCH  16  17
ATOM     17  C   UNL     1      -3.649  -1.043   9.246  1.00  0.00    -0.003 C 
ATOM     18  C   UNL     1      -4.291  -0.057   8.274  1.00  0.00     0.004 C 
ENDBRANCH  16  17
ENDBRANCH  15  16
ENDBRANCH  14  15
ENDBRANCH  13  14
ENDBRANCH  12  13
ENDBRANCH  11  12
ENDBRANCH   1  11
TORSDOF 14
ENDMDL
