MODEL 1
REMARK VINA RESULT:    -5.107      0.000      0.000
REMARK INTER + INTRA:          -6.153
REMARK INTER:                  -6.003
REMARK INTRA:                  -0.150
REMARK UNBOUND:                -0.150
REMARK SMILES O=C([O-])C=Cc1ccc(O)c(O)c1
REMARK SMILES IDX 6 1 13 2 7 3 11 4 8 5 9 6 5 7 4 8 2 9 1 10 3 11 12 12 10 14
REMARK H PARENT 12 13 10 15
REMARK Flexibility Score: inf
ROOT
ATOM      1  C   UNL     1      11.980   3.763  13.242  1.00  0.00    -0.022 A 
ATOM      2  C   UNL     1      12.657   4.777  12.534  1.00  0.00     0.058 A 
ATOM      3  C   UNL     1      12.471   2.449  13.176  1.00  0.00     0.012 A 
ATOM      4  C   UNL     1      13.810   4.484  11.797  1.00  0.00     0.157 A 
ATOM      5  C   UNL     1      13.622   2.155  12.441  1.00  0.00     0.051 A 
ATOM      6  C   UNL     1      14.299   3.169  11.753  1.00  0.00     0.157 A 
ENDROOT
BRANCH   1   7
ATOM      7  C   UNL     1      10.748   4.023  14.027  1.00  0.00     0.010 C 
ATOM      8  C   UNL     1       9.900   3.064  14.420  1.00  0.00     0.025 C 
BRANCH   8   9
ATOM      9  C   UNL     1       8.682   3.369  15.188  1.00  0.00     0.064 C 
ATOM     10  O   UNL     1       8.350   2.624  16.147  1.00  0.00    -0.545 OA
ATOM     11  O   UNL     1       7.893   4.469  14.873  1.00  0.00    -0.545 OA
ENDBRANCH   8   9
ENDBRANCH   1   7
BRANCH   4  12
ATOM     12  O   UNL     1      14.454   5.514  11.111  1.00  0.00    -0.504 OA
ATOM     13  H   UNL     1      15.309   5.937  11.454  1.00  0.00     0.293 HD
ENDBRANCH   4  12
BRANCH   6  14
ATOM     14  O   UNL     1      15.449   2.873  11.022  1.00  0.00    -0.504 OA
ATOM     15  H   UNL     1      15.670   1.924  10.742  1.00  0.00     0.293 HD
ENDBRANCH   6  14
TORSDOF 4
ENDMDL
MODEL 2
REMARK VINA RESULT:    -4.912      2.641      5.391
REMARK INTER + INTRA:          -5.924
REMARK INTER:                  -5.792
REMARK INTRA:                  -0.132
REMARK UNBOUND:                -0.150
REMARK SMILES O=C([O-])C=Cc1ccc(O)c(O)c1
REMARK SMILES IDX 6 1 13 2 7 3 11 4 8 5 9 6 5 7 4 8 2 9 1 10 3 11 12 12 10 14
REMARK H PARENT 12 13 10 15
REMARK Flexibility Score: inf
ROOT
ATOM      1  C   UNL     1      13.274   4.049  11.824  1.00  0.00    -0.022 A 
ATOM      2  C   UNL     1      12.044   3.562  12.310  1.00  0.00     0.058 A 
ATOM      3  C   UNL     1      14.460   3.416  12.231  1.00  0.00     0.012 A 
ATOM      4  C   UNL     1      12.002   2.454  13.165  1.00  0.00     0.157 A 
ATOM      5  C   UNL     1      14.421   2.310  13.082  1.00  0.00     0.051 A 
ATOM      6  C   UNL     1      13.195   1.821  13.549  1.00  0.00     0.157 A 
ENDROOT
BRANCH   1   7
ATOM      7  C   UNL     1      13.369   5.227  10.927  1.00  0.00     0.010 C 
ATOM      8  C   UNL     1      13.836   6.422  11.314  1.00  0.00     0.025 C 
BRANCH   8   9
ATOM      9  C   UNL     1      13.901   7.567  10.393  1.00  0.00     0.064 C 
ATOM     10  O   UNL     1      14.663   8.534  10.656  1.00  0.00    -0.545 OA
ATOM     11  O   UNL     1      13.136   7.598   9.232  1.00  0.00    -0.545 OA
ENDBRANCH   8   9
ENDBRANCH   1   7
BRANCH   4  12
ATOM     12  O   UNL     1      10.766   2.000  13.623  1.00  0.00    -0.504 OA
ATOM     13  H   UNL     1       9.954   1.949  13.020  1.00  0.00     0.293 HD
ENDBRANCH   4  12
BRANCH   6  14
ATOM     14  O   UNL     1      13.159   0.715  14.397  1.00  0.00    -0.504 OA
ATOM     15  H   UNL     1      13.418   0.785  15.374  1.00  0.00     0.293 HD
ENDBRANCH   6  14
TORSDOF 4
ENDMDL
MODEL 3
REMARK VINA RESULT:    -4.851      1.008      1.913
REMARK INTER + INTRA:          -5.852
REMARK INTER:                  -5.702
REMARK INTRA:                  -0.149
REMARK UNBOUND:                -0.150
REMARK SMILES O=C([O-])C=Cc1ccc(O)c(O)c1
REMARK SMILES IDX 6 1 13 2 7 3 11 4 8 5 9 6 5 7 4 8 2 9 1 10 3 11 12 12 10 14
REMARK H PARENT 12 13 10 15
REMARK Flexibility Score: inf
ROOT
ATOM      1  C   UNL     1      12.429   3.176  12.898  1.00  0.00    -0.022 A 
ATOM      2  C   UNL     1      13.629   2.449  13.030  1.00  0.00     0.058 A 
ATOM      3  C   UNL     1      12.415   4.316  12.079  1.00  0.00     0.012 A 
ATOM      4  C   UNL     1      14.781   2.843  12.340  1.00  0.00     0.157 A 
ATOM      5  C   UNL     1      13.563   4.711  11.388  1.00  0.00     0.051 A 
ATOM      6  C   UNL     1      14.749   3.976  11.511  1.00  0.00     0.157 A 
ENDROOT
BRANCH   1   7
ATOM      7  C   UNL     1      11.186   2.803  13.619  1.00  0.00     0.010 C 
ATOM      8  C   UNL     1      10.291   3.693  14.067  1.00  0.00     0.025 C 
BRANCH   8   9
ATOM      9  C   UNL     1       9.077   3.280  14.788  1.00  0.00     0.064 C 
ATOM     10  O   UNL     1       8.908   2.065  15.074  1.00  0.00    -0.545 OA
ATOM     11  O   UNL     1       8.113   4.209  15.162  1.00  0.00    -0.545 OA
ENDBRANCH   8   9
ENDBRANCH   1   7
BRANCH   4  12
ATOM     12  O   UNL     1      15.950   2.098  12.494  1.00  0.00    -0.504 OA
ATOM     13  H   UNL     1      16.222   1.380  11.832  1.00  0.00     0.293 HD
ENDBRANCH   4  12
BRANCH   6  14
ATOM     14  O   UNL     1      15.893   4.371  10.819  1.00  0.00    -0.504 OA
ATOM     15  H   UNL     1      16.268   5.308  10.904  1.00  0.00     0.293 HD
ENDBRANCH   6  14
TORSDOF 4
ENDMDL
MODEL 4
REMARK VINA RESULT:    -4.719     15.253     16.091
REMARK INTER + INTRA:          -5.698
REMARK INTER:                  -5.544
REMARK INTRA:                  -0.154
REMARK UNBOUND:                -0.150
REMARK SMILES O=C([O-])C=Cc1ccc(O)c(O)c1
REMARK SMILES IDX 6 1 13 2 7 3 11 4 8 5 9 6 5 7 4 8 2 9 1 10 3 11 12 12 10 14
REMARK H PARENT 12 13 10 15
REMARK Flexibility Score: inf
ROOT
ATOM      1  C   UNL     1      -3.407   1.751  14.508  1.00  0.00    -0.022 A 
ATOM      2  C   UNL     1      -3.082   2.703  13.520  1.00  0.00     0.058 A 
ATOM      3  C   UNL     1      -3.919   2.198  15.737  1.00  0.00     0.012 A 
ATOM      4  C   UNL     1      -3.287   4.068  13.751  1.00  0.00     0.157 A 
ATOM      5  C   UNL     1      -4.125   3.560  15.969  1.00  0.00     0.051 A 
ATOM      6  C   UNL     1      -3.815   4.501  14.979  1.00  0.00     0.157 A 
ENDROOT
BRANCH   1   7
ATOM      7  C   UNL     1      -3.197   0.295  14.314  1.00  0.00     0.010 C 
ATOM      8  C   UNL     1      -3.510  -0.631  15.230  1.00  0.00     0.025 C 
BRANCH   8   9
ATOM      9  C   UNL     1      -3.273  -2.064  15.000  1.00  0.00     0.064 C 
ATOM     10  O   UNL     1      -3.391  -2.534  13.838  1.00  0.00    -0.545 OA
ATOM     11  O   UNL     1      -2.917  -2.910  16.045  1.00  0.00    -0.545 OA
ENDBRANCH   8   9
ENDBRANCH   1   7
BRANCH   4  12
ATOM     12  O   UNL     1      -2.955   4.981  12.750  1.00  0.00    -0.504 OA
ATOM     13  H   UNL     1      -2.338   4.738  11.984  1.00  0.00     0.293 HD
ENDBRANCH   4  12
BRANCH   6  14
ATOM     14  O   UNL     1      -4.023   5.859  15.212  1.00  0.00    -0.504 OA
ATOM     15  H   UNL     1      -3.253   6.516  15.252  1.00  0.00     0.293 HD
ENDBRANCH   6  14
TORSDOF 4
ENDMDL
MODEL 5
REMARK VINA RESULT:    -4.679     14.869     15.904
REMARK INTER + INTRA:          -5.650
REMARK INTER:                  -5.502
REMARK INTRA:                  -0.148
REMARK UNBOUND:                -0.150
REMARK SMILES O=C([O-])C=Cc1ccc(O)c(O)c1
REMARK SMILES IDX 6 1 13 2 7 3 11 4 8 5 9 6 5 7 4 8 2 9 1 10 3 11 12 12 10 14
REMARK H PARENT 12 13 10 15
REMARK Flexibility Score: inf
ROOT
ATOM      1  C   UNL     1      -3.612   2.133  14.504  1.00  0.00    -0.022 A 
ATOM      2  C   UNL     1      -3.786   3.366  15.163  1.00  0.00     0.058 A 
ATOM      3  C   UNL     1      -3.076   2.129  13.206  1.00  0.00     0.012 A 
ATOM      4  C   UNL     1      -3.410   4.565  14.545  1.00  0.00     0.157 A 
ATOM      5  C   UNL     1      -2.699   3.323  12.588  1.00  0.00     0.051 A 
ATOM      6  C   UNL     1      -2.860   4.545  13.253  1.00  0.00     0.157 A 
ENDROOT
BRANCH   1   7
ATOM      7  C   UNL     1      -4.006   0.839  15.114  1.00  0.00     0.010 C 
ATOM      8  C   UNL     1      -3.489  -0.343  14.752  1.00  0.00     0.025 C 
BRANCH   8   9
ATOM      9  C   UNL     1      -3.918  -1.604  15.376  1.00  0.00     0.064 C 
ATOM     10  O   UNL     1      -4.125  -2.615  14.655  1.00  0.00    -0.545 OA
ATOM     11  O   UNL     1      -4.098  -1.699  16.751  1.00  0.00    -0.545 OA
ENDBRANCH   8   9
ENDBRANCH   1   7
BRANCH   4  12
ATOM     12  O   UNL     1      -3.595   5.766  15.229  1.00  0.00    -0.504 OA
ATOM     13  H   UNL     1      -4.510   6.073  15.540  1.00  0.00     0.293 HD
ENDBRANCH   4  12
BRANCH   6  14
ATOM     14  O   UNL     1      -2.480   5.735  12.635  1.00  0.00    -0.504 OA
ATOM     15  H   UNL     1      -2.300   6.577  13.169  1.00  0.00     0.293 HD
ENDBRANCH   6  14
TORSDOF 4
ENDMDL
MODEL 6
REMARK VINA RESULT:    -4.678      3.083      5.324
REMARK INTER + INTRA:          -5.649
REMARK INTER:                  -5.521
REMARK INTRA:                  -0.128
REMARK UNBOUND:                -0.150
REMARK SMILES O=C([O-])C=Cc1ccc(O)c(O)c1
REMARK SMILES IDX 6 1 13 2 7 3 11 4 8 5 9 6 5 7 4 8 2 9 1 10 3 11 12 12 10 14
REMARK H PARENT 12 13 10 15
REMARK Flexibility Score: inf
ROOT
ATOM      1  C   UNL     1      13.393   4.216  11.710  1.00  0.00    -0.022 A 
ATOM      2  C   UNL     1      14.545   3.630  12.272  1.00  0.00     0.058 A 
ATOM      3  C   UNL     1      12.141   3.640  11.978  1.00  0.00     0.012 A 
ATOM      4  C   UNL     1      14.442   2.508  13.102  1.00  0.00     0.157 A 
ATOM      5  C   UNL     1      12.035   2.521  12.807  1.00  0.00     0.051 A 
ATOM      6  C   UNL     1      13.182   1.952  13.376  1.00  0.00     0.157 A 
ENDROOT
BRANCH   1   7
ATOM      7  C   UNL     1      13.454   5.399  10.815  1.00  0.00     0.010 C 
ATOM      8  C   UNL     1      13.657   6.650  11.248  1.00  0.00     0.025 C 
BRANCH   8   9
ATOM      9  C   UNL     1      13.698   7.795  10.325  1.00  0.00     0.064 C 
ATOM     10  O   UNL     1      13.136   7.708   9.201  1.00  0.00    -0.545 OA
ATOM     11  O   UNL     1      14.345   8.975  10.673  1.00  0.00    -0.545 OA
ENDBRANCH   8   9
ENDBRANCH   1   7
BRANCH   4  12
ATOM     12  O   UNL     1      15.604   1.957  13.642  1.00  0.00    -0.504 OA
ATOM     13  H   UNL     1      16.517   2.368  13.487  1.00  0.00     0.293 HD
ENDBRANCH   4  12
BRANCH   6  14
ATOM     14  O   UNL     1      13.073   0.836  14.204  1.00  0.00    -0.504 OA
ATOM     15  H   UNL     1      13.190   0.907  15.208  1.00  0.00     0.293 HD
ENDBRANCH   6  14
TORSDOF 4
ENDMDL
MODEL 7
REMARK VINA RESULT:    -4.638      4.346      5.500
REMARK INTER + INTRA:          -5.601
REMARK INTER:                  -5.446
REMARK INTRA:                  -0.155
REMARK UNBOUND:                -0.150
REMARK SMILES O=C([O-])C=Cc1ccc(O)c(O)c1
REMARK SMILES IDX 6 1 13 2 7 3 11 4 8 5 9 6 5 7 4 8 2 9 1 10 3 11 12 12 10 14
REMARK H PARENT 12 13 10 15
REMARK Flexibility Score: inf
ROOT
ATOM      1  C   UNL     1      14.152   2.054  14.990  1.00  0.00    -0.022 A 
ATOM      2  C   UNL     1      13.543   1.883  13.730  1.00  0.00     0.058 A 
ATOM      3  C   UNL     1      14.300   3.355  15.499  1.00  0.00     0.012 A 
ATOM      4  C   UNL     1      13.074   2.987  13.008  1.00  0.00     0.157 A 
ATOM      5  C   UNL     1      13.831   4.458  14.781  1.00  0.00     0.051 A 
ATOM      6  C   UNL     1      13.213   4.280  13.537  1.00  0.00     0.157 A 
ENDROOT
BRANCH   1   7
ATOM      7  C   UNL     1      14.676   0.917  15.786  1.00  0.00     0.010 C 
ATOM      8  C   UNL     1      15.224   1.048  17.001  1.00  0.00     0.025 C 
BRANCH   8   9
ATOM      9  C   UNL     1      15.742  -0.107  17.750  1.00  0.00     0.064 C 
ATOM     10  O   UNL     1      15.842  -1.224  17.177  1.00  0.00    -0.545 OA
ATOM     11  O   UNL     1      16.125   0.014  19.081  1.00  0.00    -0.545 OA
ENDBRANCH   8   9
ENDBRANCH   1   7
BRANCH   4  12
ATOM     12  O   UNL     1      12.475   2.778  11.766  1.00  0.00    -0.504 OA
ATOM     13  H   UNL     1      12.186   1.857  11.456  1.00  0.00     0.293 HD
ENDBRANCH   4  12
BRANCH   6  14
ATOM     14  O   UNL     1      12.744   5.383  12.824  1.00  0.00    -0.504 OA
ATOM     15  H   UNL     1      13.276   5.789  12.063  1.00  0.00     0.293 HD
ENDBRANCH   6  14
TORSDOF 4
ENDMDL
MODEL 8
REMARK VINA RESULT:    -4.602      4.437      5.617
REMARK INTER + INTRA:          -5.559
REMARK INTER:                  -5.432
REMARK INTRA:                  -0.127
REMARK UNBOUND:                -0.150
REMARK SMILES O=C([O-])C=Cc1ccc(O)c(O)c1
REMARK SMILES IDX 6 1 13 2 7 3 11 4 8 5 9 6 5 7 4 8 2 9 1 10 3 11 12 12 10 14
REMARK H PARENT 12 13 10 15
REMARK Flexibility Score: inf
ROOT
ATOM      1  C   UNL     1      14.094   1.702  14.974  1.00  0.00    -0.022 A 
ATOM      2  C   UNL     1      14.441   2.963  15.499  1.00  0.00     0.058 A 
ATOM      3  C   UNL     1      13.165   1.638  13.922  1.00  0.00     0.012 A 
ATOM      4  C   UNL     1      13.887   4.134  14.967  1.00  0.00     0.157 A 
ATOM      5  C   UNL     1      12.613   2.805  13.389  1.00  0.00     0.051 A 
ATOM      6  C   UNL     1      12.973   4.057  13.904  1.00  0.00     0.157 A 
ENDROOT
BRANCH   1   7
ATOM      7  C   UNL     1      14.645   0.434  15.513  1.00  0.00     0.010 C 
ATOM      8  C   UNL     1      14.964   0.249  16.801  1.00  0.00     0.025 C 
BRANCH   8   9
ATOM      9  C   UNL     1      15.519  -1.023  17.289  1.00  0.00     0.064 C 
ATOM     10  O   UNL     1      15.764  -1.164  18.516  1.00  0.00    -0.545 OA
ATOM     11  O   UNL     1      15.775  -2.076  16.418  1.00  0.00    -0.545 OA
ENDBRANCH   8   9
ENDBRANCH   1   7
BRANCH   4  12
ATOM     12  O   UNL     1      14.256   5.364  15.511  1.00  0.00    -0.504 OA
ATOM     13  H   UNL     1      14.796   6.044  14.987  1.00  0.00     0.293 HD
ENDBRANCH   4  12
BRANCH   6  14
ATOM     14  O   UNL     1      12.422   5.220  13.368  1.00  0.00    -0.504 OA
ATOM     15  H   UNL     1      12.552   6.122  13.810  1.00  0.00     0.293 HD
ENDBRANCH   6  14
TORSDOF 4
ENDMDL
MODEL 9
REMARK VINA RESULT:    -4.387     14.277     15.669
REMARK INTER + INTRA:          -5.307
REMARK INTER:                  -5.179
REMARK INTRA:                  -0.127
REMARK UNBOUND:                -0.150
REMARK SMILES O=C([O-])C=Cc1ccc(O)c(O)c1
REMARK SMILES IDX 6 1 13 2 7 3 11 4 8 5 9 6 5 7 4 8 2 9 1 10 3 11 12 12 10 14
REMARK H PARENT 12 13 10 15
REMARK Flexibility Score: inf
ROOT
ATOM      1  C   UNL     1      -2.948   0.667  14.670  1.00  0.00    -0.022 A 
ATOM      2  C   UNL     1      -1.712   0.074  14.996  1.00  0.00     0.058 A 
ATOM      3  C   UNL     1      -4.125   0.116  15.204  1.00  0.00     0.012 A 
ATOM      4  C   UNL     1      -1.655  -1.030  15.855  1.00  0.00     0.157 A 
ATOM      5  C   UNL     1      -4.070  -0.984  16.062  1.00  0.00     0.051 A 
ATOM      6  C   UNL     1      -2.838  -1.560  16.395  1.00  0.00     0.157 A 
ENDROOT
BRANCH   1   7
ATOM      7  C   UNL     1      -3.060   1.830  13.755  1.00  0.00     0.010 C 
ATOM      8  C   UNL     1      -2.960   3.104  14.155  1.00  0.00     0.025 C 
BRANCH   8   9
ATOM      9  C   UNL     1      -3.089   4.228  13.214  1.00  0.00     0.064 C 
ATOM     10  O   UNL     1      -4.125   4.329  12.506  1.00  0.00    -0.545 OA
ATOM     11  O   UNL     1      -2.086   5.183  13.096  1.00  0.00    -0.545 OA
ENDBRANCH   8   9
ENDBRANCH   1   7
BRANCH   4  12
ATOM     12  O   UNL     1      -0.413  -1.589  16.157  1.00  0.00    -0.504 OA
ATOM     13  H   UNL     1      -0.263  -2.152  16.986  1.00  0.00     0.293 HD
ENDBRANCH   4  12
BRANCH   6  14
ATOM     14  O   UNL     1      -2.786  -2.657  17.253  1.00  0.00    -0.504 OA
ATOM     15  H   UNL     1      -2.735  -3.606  16.901  1.00  0.00     0.293 HD
ENDBRANCH   6  14
TORSDOF 4
ENDMDL
