MODEL 1
REMARK VINA RESULT:    -3.189      0.000      0.000
REMARK INTER + INTRA:         -10.184
REMARK INTER:                  -8.037
REMARK INTRA:                  -2.147
REMARK UNBOUND:                -2.147
REMARK SMILES CCCCCCCCCCCCCCCCCCCCCCCCCCCC(=O)[O-]
REMARK SMILES IDX 15 1 16 2 17 3 18 4 19 5 20 6 21 7 22 8 23 9 24 10 25 11
REMARK SMILES IDX 26 12 27 13 28 14 29 15 30 16 14 17 13 18 12 19 11 20 10 21
REMARK SMILES IDX 9 22 8 23 7 24 6 25 5 26 4 27 3 28 2 29 1 30
REMARK H PARENT
REMARK Flexibility Score: inf
ROOT
ATOM      1  C   UNL     1      -1.000  27.140  23.743  1.00  0.00     0.000 C 
ENDROOT
BRANCH   1   2
ATOM      2  C   UNL     1      -0.148  27.955  22.746  1.00  0.00     0.000 C 
BRANCH   2   3
ATOM      3  C   UNL     1      -0.173  27.463  21.284  1.00  0.00     0.000 C 
BRANCH   3   4
ATOM      4  C   UNL     1       1.218  27.283  20.635  1.00  0.00     0.000 C 
BRANCH   4   5
ATOM      5  C   UNL     1       1.178  27.158  19.100  1.00  0.00     0.000 C 
BRANCH   5   6
ATOM      6  C   UNL     1      -0.235  27.057  18.493  1.00  0.00     0.000 C 
BRANCH   6   7
ATOM      7  C   UNL     1      -0.535  25.741  17.748  1.00  0.00     0.000 C 
BRANCH   7   8
ATOM      8  C   UNL     1       0.599  24.696  17.774  1.00  0.00     0.000 C 
BRANCH   8   9
ATOM      9  C   UNL     1       0.141  23.241  17.979  1.00  0.00     0.000 C 
BRANCH   9  10
ATOM     10  C   UNL     1       1.153  22.401  18.778  1.00  0.00     0.000 C 
BRANCH  10  11
ATOM     11  C   UNL     1       0.473  21.573  19.891  1.00  0.00     0.000 C 
BRANCH  11  12
ATOM     12  C   UNL     1       0.159  22.382  21.160  1.00  0.00     0.006 C 
BRANCH  12  13
ATOM     13  C   UNL     1       1.173  23.501  21.421  1.00  0.00     0.053 C 
BRANCH  13  14
ATOM     14  C   UNL     1       1.007  24.052  22.802  1.00  0.00     0.041 C 
ATOM     15  O   UNL     1       0.024  23.704  23.510  1.00  0.00    -0.550 OA
ATOM     16  O   UNL     1       1.921  24.973  23.299  1.00  0.00    -0.550 OA
ENDBRANCH  13  14
ENDBRANCH  12  13
ENDBRANCH  11  12
ENDBRANCH  10  11
ENDBRANCH   9  10
ENDBRANCH   8   9
ENDBRANCH   7   8
ENDBRANCH   6   7
ENDBRANCH   5   6
ENDBRANCH   4   5
ENDBRANCH   3   4
ENDBRANCH   2   3
ENDBRANCH   1   2
BRANCH   1  17
ATOM     17  C   UNL     1      -0.848  27.534  25.223  1.00  0.00     0.000 C 
BRANCH  17  18
ATOM     18  C   UNL     1      -2.170  27.440  26.003  1.00  0.00     0.000 C 
BRANCH  18  19
ATOM     19  C   UNL     1      -3.212  26.546  25.306  1.00  0.00     0.000 C 
BRANCH  19  20
ATOM     20  C   UNL     1      -3.162  25.052  25.689  1.00  0.00     0.000 C 
BRANCH  20  21
ATOM     21  C   UNL     1      -4.430  24.245  25.357  1.00  0.00     0.000 C 
BRANCH  21  22
ATOM     22  C   UNL     1      -5.073  23.609  26.602  1.00  0.00    -0.000 C 
BRANCH  22  23
ATOM     23  C   UNL     1      -6.207  22.628  26.255  1.00  0.00    -0.000 C 
BRANCH  23  24
ATOM     24  C   UNL     1      -7.557  22.907  26.948  1.00  0.00    -0.000 C 
BRANCH  24  25
ATOM     25  C   UNL     1      -8.745  23.119  25.994  1.00  0.00    -0.000 C 
BRANCH  25  26
ATOM     26  C   UNL     1      -8.438  24.135  24.879  1.00  0.00    -0.000 C 
BRANCH  26  27
ATOM     27  C   UNL     1      -9.693  24.538  24.088  1.00  0.00    -0.000 C 
BRANCH  27  28
ATOM     28  C   UNL     1     -10.396  23.333  23.440  1.00  0.00    -0.000 C 
BRANCH  28  29
ATOM     29  C   UNL     1     -11.749  23.705  22.815  1.00  0.00    -0.003 C 
ATOM     30  C   UNL     1     -11.790  23.462  21.306  1.00  0.00     0.004 C 
ENDBRANCH  28  29
ENDBRANCH  27  28
ENDBRANCH  26  27
ENDBRANCH  25  26
ENDBRANCH  24  25
ENDBRANCH  23  24
ENDBRANCH  22  23
ENDBRANCH  21  22
ENDBRANCH  20  21
ENDBRANCH  19  20
ENDBRANCH  18  19
ENDBRANCH  17  18
ENDBRANCH   1  17
TORSDOF 26
ENDMDL
MODEL 2
REMARK VINA RESULT:    -2.944      3.417     10.015
REMARK INTER + INTRA:          -9.567
REMARK INTER:                  -7.544
REMARK INTRA:                  -2.022
REMARK UNBOUND:                -2.147
REMARK SMILES CCCCCCCCCCCCCCCCCCCCCCCCCCCC(=O)[O-]
REMARK SMILES IDX 15 1 16 2 17 3 18 4 19 5 20 6 21 7 22 8 23 9 24 10 25 11
REMARK SMILES IDX 26 12 27 13 28 14 29 15 30 16 14 17 13 18 12 19 11 20 10 21
REMARK SMILES IDX 9 22 8 23 7 24 6 25 5 26 4 27 3 28 2 29 1 30
REMARK H PARENT
REMARK Flexibility Score: inf
ROOT
ATOM      1  C   UNL     1      -1.254  28.112  26.593  1.00  0.00     0.000 C 
ENDROOT
BRANCH   1   2
ATOM      2  C   UNL     1      -2.344  27.585  25.635  1.00  0.00     0.000 C 
BRANCH   2   3
ATOM      3  C   UNL     1      -3.350  26.589  26.247  1.00  0.00     0.000 C 
BRANCH   3   4
ATOM      4  C   UNL     1      -3.558  25.292  25.432  1.00  0.00     0.000 C 
BRANCH   4   5
ATOM      5  C   UNL     1      -4.119  24.120  26.260  1.00  0.00     0.000 C 
BRANCH   5   6
ATOM      6  C   UNL     1      -5.306  23.379  25.617  1.00  0.00     0.000 C 
BRANCH   6   7
ATOM      7  C   UNL     1      -6.406  22.926  26.598  1.00  0.00     0.000 C 
BRANCH   7   8
ATOM      8  C   UNL     1      -7.840  23.350  26.220  1.00  0.00     0.000 C 
BRANCH   8   9
ATOM      9  C   UNL     1      -8.938  22.336  26.588  1.00  0.00     0.000 C 
BRANCH   9  10
ATOM     10  C   UNL     1     -10.195  22.470  25.712  1.00  0.00     0.000 C 
BRANCH  10  11
ATOM     11  C   UNL     1      -9.858  22.472  24.205  1.00  0.00     0.000 C 
BRANCH  11  12
ATOM     12  C   UNL     1     -10.302  23.749  23.472  1.00  0.00     0.006 C 
BRANCH  12  13
ATOM     13  C   UNL     1     -11.733  23.660  22.932  1.00  0.00     0.053 C 
BRANCH  13  14
ATOM     14  C   UNL     1     -11.727  23.522  21.442  1.00  0.00     0.041 C 
ATOM     15  O   UNL     1     -11.099  22.575  20.896  1.00  0.00    -0.550 OA
ATOM     16  O   UNL     1     -12.390  24.454  20.654  1.00  0.00    -0.550 OA
ENDBRANCH  13  14
ENDBRANCH  12  13
ENDBRANCH  11  12
ENDBRANCH  10  11
ENDBRANCH   9  10
ENDBRANCH   8   9
ENDBRANCH   7   8
ENDBRANCH   6   7
ENDBRANCH   5   6
ENDBRANCH   4   5
ENDBRANCH   3   4
ENDBRANCH   2   3
ENDBRANCH   1   2
BRANCH   1  17
ATOM     17  C   UNL     1       0.189  28.035  26.064  1.00  0.00     0.000 C 
BRANCH  17  18
ATOM     18  C   UNL     1       0.412  26.847  25.113  1.00  0.00     0.000 C 
BRANCH  18  19
ATOM     19  C   UNL     1       1.002  27.272  23.756  1.00  0.00     0.000 C 
BRANCH  19  20
ATOM     20  C   UNL     1       0.599  26.390  22.555  1.00  0.00     0.000 C 
BRANCH  20  21
ATOM     21  C   UNL     1       1.750  25.997  21.612  1.00  0.00     0.000 C 
BRANCH  21  22
ATOM     22  C   UNL     1       2.073  24.494  21.661  1.00  0.00    -0.000 C 
BRANCH  22  23
ATOM     23  C   UNL     1       1.011  23.677  22.418  1.00  0.00    -0.000 C 
BRANCH  23  24
ATOM     24  C   UNL     1       0.352  22.541  21.609  1.00  0.00    -0.000 C 
BRANCH  24  25
ATOM     25  C   UNL     1       1.064  22.184  20.293  1.00  0.00    -0.000 C 
BRANCH  25  26
ATOM     26  C   UNL     1       0.195  21.318  19.363  1.00  0.00    -0.000 C 
BRANCH  26  27
ATOM     27  C   UNL     1      -0.151  22.031  18.047  1.00  0.00    -0.000 C 
BRANCH  27  28
ATOM     28  C   UNL     1       0.801  23.201  17.741  1.00  0.00    -0.000 C 
BRANCH  28  29
ATOM     29  C   UNL     1       0.050  24.497  17.397  1.00  0.00    -0.003 C 
ATOM     30  C   UNL     1       0.091  25.522  18.532  1.00  0.00     0.004 C 
ENDBRANCH  28  29
ENDBRANCH  27  28
ENDBRANCH  26  27
ENDBRANCH  25  26
ENDBRANCH  24  25
ENDBRANCH  23  24
ENDBRANCH  22  23
ENDBRANCH  21  22
ENDBRANCH  20  21
ENDBRANCH  19  20
ENDBRANCH  18  19
ENDBRANCH  17  18
ENDBRANCH   1  17
TORSDOF 26
ENDMDL
MODEL 3
REMARK VINA RESULT:    -2.831      3.810     10.383
REMARK INTER + INTRA:          -9.281
REMARK INTER:                  -7.937
REMARK INTRA:                  -1.344
REMARK UNBOUND:                -2.147
REMARK SMILES CCCCCCCCCCCCCCCCCCCCCCCCCCCC(=O)[O-]
REMARK SMILES IDX 15 1 16 2 17 3 18 4 19 5 20 6 21 7 22 8 23 9 24 10 25 11
REMARK SMILES IDX 26 12 27 13 28 14 29 15 30 16 14 17 13 18 12 19 11 20 10 21
REMARK SMILES IDX 9 22 8 23 7 24 6 25 5 26 4 27 3 28 2 29 1 30
REMARK H PARENT
REMARK Flexibility Score: inf
ROOT
ATOM      1  C   UNL     1      -1.673  27.633  25.613  1.00  0.00     0.000 C 
ENDROOT
BRANCH   1   2
ATOM      2  C   UNL     1      -2.595  26.570  24.977  1.00  0.00     0.000 C 
BRANCH   2   3
ATOM      3  C   UNL     1      -3.704  26.010  25.891  1.00  0.00     0.000 C 
BRANCH   3   4
ATOM      4  C   UNL     1      -3.851  24.472  25.867  1.00  0.00     0.000 C 
BRANCH   4   5
ATOM      5  C   UNL     1      -5.261  23.987  25.479  1.00  0.00     0.000 C 
BRANCH   5   6
ATOM      6  C   UNL     1      -5.854  22.908  26.404  1.00  0.00     0.000 C 
BRANCH   6   7
ATOM      7  C   UNL     1      -7.290  23.182  26.895  1.00  0.00     0.000 C 
BRANCH   7   8
ATOM      8  C   UNL     1      -8.357  23.275  25.785  1.00  0.00     0.000 C 
BRANCH   8   9
ATOM      9  C   UNL     1      -9.401  22.143  25.788  1.00  0.00     0.000 C 
BRANCH   9  10
ATOM     10  C   UNL     1     -10.298  22.152  24.538  1.00  0.00     0.000 C 
BRANCH  10  11
ATOM     11  C   UNL     1     -10.525  23.579  23.993  1.00  0.00     0.000 C 
BRANCH  11  12
ATOM     12  C   UNL     1     -10.647  23.646  22.462  1.00  0.00     0.006 C 
BRANCH  12  13
ATOM     13  C   UNL     1     -12.102  23.660  21.980  1.00  0.00     0.053 C 
BRANCH  13  14
ATOM     14  C   UNL     1     -12.162  23.634  20.485  1.00  0.00     0.041 C 
ATOM     15  O   UNL     1     -12.234  22.535  19.872  1.00  0.00    -0.550 OA
ATOM     16  O   UNL     1     -12.111  24.822  19.765  1.00  0.00    -0.550 OA
ENDBRANCH  13  14
ENDBRANCH  12  13
ENDBRANCH  11  12
ENDBRANCH  10  11
ENDBRANCH   9  10
ENDBRANCH   8   9
ENDBRANCH   7   8
ENDBRANCH   6   7
ENDBRANCH   5   6
ENDBRANCH   4   5
ENDBRANCH   3   4
ENDBRANCH   2   3
ENDBRANCH   1   2
BRANCH   1  17
ATOM     17  C   UNL     1      -0.227  27.658  25.087  1.00  0.00     0.000 C 
BRANCH  17  18
ATOM     18  C   UNL     1      -0.139  28.066  23.607  1.00  0.00     0.000 C 
BRANCH  18  19
ATOM     19  C   UNL     1       0.144  26.874  22.675  1.00  0.00     0.000 C 
BRANCH  19  20
ATOM     20  C   UNL     1       0.543  25.562  23.382  1.00  0.00     0.000 C 
BRANCH  20  21
ATOM     21  C   UNL     1       1.546  24.681  22.618  1.00  0.00     0.000 C 
BRANCH  21  22
ATOM     22  C   UNL     1       0.981  23.291  22.278  1.00  0.00    -0.000 C 
BRANCH  22  23
ATOM     23  C   UNL     1       1.256  22.871  20.823  1.00  0.00    -0.000 C 
BRANCH  23  24
ATOM     24  C   UNL     1       0.618  23.771  19.745  1.00  0.00    -0.000 C 
BRANCH  24  25
ATOM     25  C   UNL     1       0.552  23.151  18.338  1.00  0.00    -0.000 C 
BRANCH  25  26
ATOM     26  C   UNL     1      -0.260  21.843  18.302  1.00  0.00    -0.000 C 
BRANCH  26  27
ATOM     27  C   UNL     1       0.580  20.642  17.838  1.00  0.00    -0.000 C 
BRANCH  27  28
ATOM     28  C   UNL     1       1.156  19.834  19.015  1.00  0.00    -0.000 C 
BRANCH  28  29
ATOM     29  C   UNL     1       0.499  18.452  19.158  1.00  0.00    -0.003 C 
ATOM     30  C   UNL     1       0.975  17.699  20.401  1.00  0.00     0.004 C 
ENDBRANCH  28  29
ENDBRANCH  27  28
ENDBRANCH  26  27
ENDBRANCH  25  26
ENDBRANCH  24  25
ENDBRANCH  23  24
ENDBRANCH  22  23
ENDBRANCH  21  22
ENDBRANCH  20  21
ENDBRANCH  19  20
ENDBRANCH  18  19
ENDBRANCH  17  18
ENDBRANCH   1  17
TORSDOF 26
ENDMDL
MODEL 4
REMARK VINA RESULT:    -2.773      2.338      2.956
REMARK INTER + INTRA:          -9.134
REMARK INTER:                  -7.732
REMARK INTRA:                  -1.402
REMARK UNBOUND:                -2.147
REMARK SMILES CCCCCCCCCCCCCCCCCCCCCCCCCCCC(=O)[O-]
REMARK SMILES IDX 15 1 16 2 17 3 18 4 19 5 20 6 21 7 22 8 23 9 24 10 25 11
REMARK SMILES IDX 26 12 27 13 28 14 29 15 30 16 14 17 13 18 12 19 11 20 10 21
REMARK SMILES IDX 9 22 8 23 7 24 6 25 5 26 4 27 3 28 2 29 1 30
REMARK H PARENT
REMARK Flexibility Score: inf
ROOT
ATOM      1  C   UNL     1       1.244  25.998  23.422  1.00  0.00     0.000 C 
ENDROOT
BRANCH   1   2
ATOM      2  C   UNL     1       2.120  27.153  22.890  1.00  0.00     0.000 C 
BRANCH   2   3
ATOM      3  C   UNL     1       1.454  28.075  21.849  1.00  0.00     0.000 C 
BRANCH   3   4
ATOM      4  C   UNL     1       1.156  27.408  20.487  1.00  0.00     0.000 C 
BRANCH   4   5
ATOM      5  C   UNL     1      -0.170  27.863  19.847  1.00  0.00     0.000 C 
BRANCH   5   6
ATOM      6  C   UNL     1      -0.692  26.955  18.718  1.00  0.00     0.000 C 
BRANCH   6   7
ATOM      7  C   UNL     1       0.372  26.055  18.056  1.00  0.00     0.000 C 
BRANCH   7   8
ATOM      8  C   UNL     1      -0.185  24.892  17.211  1.00  0.00     0.000 C 
BRANCH   8   9
ATOM      9  C   UNL     1       0.062  23.488  17.791  1.00  0.00     0.000 C 
BRANCH   9  10
ATOM     10  C   UNL     1       0.314  23.502  19.308  1.00  0.00     0.000 C 
BRANCH  10  11
ATOM     11  C   UNL     1       0.066  22.121  19.954  1.00  0.00     0.000 C 
BRANCH  11  12
ATOM     12  C   UNL     1       1.039  21.030  19.476  1.00  0.00     0.006 C 
BRANCH  12  13
ATOM     13  C   UNL     1       0.741  19.657  20.088  1.00  0.00     0.053 C 
BRANCH  13  14
ATOM     14  C   UNL     1       0.551  18.632  19.014  1.00  0.00     0.041 C 
ATOM     15  O   UNL     1       0.448  17.412  19.313  1.00  0.00    -0.550 OA
ATOM     16  O   UNL     1       0.515  19.020  17.680  1.00  0.00    -0.550 OA
ENDBRANCH  13  14
ENDBRANCH  12  13
ENDBRANCH  11  12
ENDBRANCH  10  11
ENDBRANCH   9  10
ENDBRANCH   8   9
ENDBRANCH   7   8
ENDBRANCH   6   7
ENDBRANCH   5   6
ENDBRANCH   4   5
ENDBRANCH   3   4
ENDBRANCH   2   3
ENDBRANCH   1   2
BRANCH   1  17
ATOM     17  C   UNL     1      -0.275  26.184  23.253  1.00  0.00     0.000 C 
BRANCH  17  18
ATOM     18  C   UNL     1      -1.049  25.986  24.568  1.00  0.00     0.000 C 
BRANCH  18  19
ATOM     19  C   UNL     1      -2.122  27.066  24.796  1.00  0.00     0.000 C 
BRANCH  19  20
ATOM     20  C   UNL     1      -3.144  26.757  25.910  1.00  0.00     0.000 C 
BRANCH  20  21
ATOM     21  C   UNL     1      -4.146  25.633  25.591  1.00  0.00     0.000 C 
BRANCH  21  22
ATOM     22  C   UNL     1      -3.685  24.260  26.110  1.00  0.00    -0.000 C 
BRANCH  22  23
ATOM     23  C   UNL     1      -4.838  23.418  26.685  1.00  0.00    -0.000 C 
BRANCH  23  24
ATOM     24  C   UNL     1      -6.153  23.463  25.880  1.00  0.00    -0.000 C 
BRANCH  24  25
ATOM     25  C   UNL     1      -7.397  22.969  26.641  1.00  0.00    -0.000 C 
BRANCH  25  26
ATOM     26  C   UNL     1      -8.713  23.434  25.993  1.00  0.00    -0.000 C 
BRANCH  26  27
ATOM     27  C   UNL     1      -9.667  22.266  25.695  1.00  0.00    -0.000 C 
BRANCH  27  28
ATOM     28  C   UNL     1     -10.045  22.177  24.206  1.00  0.00    -0.000 C 
BRANCH  28  29
ATOM     29  C   UNL     1     -10.357  23.551  23.594  1.00  0.00    -0.003 C 
ATOM     30  C   UNL     1     -11.747  23.615  22.962  1.00  0.00     0.004 C 
ENDBRANCH  28  29
ENDBRANCH  27  28
ENDBRANCH  26  27
ENDBRANCH  25  26
ENDBRANCH  24  25
ENDBRANCH  23  24
ENDBRANCH  22  23
ENDBRANCH  21  22
ENDBRANCH  20  21
ENDBRANCH  19  20
ENDBRANCH  18  19
ENDBRANCH  17  18
ENDBRANCH   1  17
TORSDOF 26
ENDMDL
MODEL 5
REMARK VINA RESULT:    -2.741      2.014      3.395
REMARK INTER + INTRA:          -9.055
REMARK INTER:                  -7.948
REMARK INTRA:                  -1.107
REMARK UNBOUND:                -2.147
REMARK SMILES CCCCCCCCCCCCCCCCCCCCCCCCCCCC(=O)[O-]
REMARK SMILES IDX 15 1 16 2 17 3 18 4 19 5 20 6 21 7 22 8 23 9 24 10 25 11
REMARK SMILES IDX 26 12 27 13 28 14 29 15 30 16 14 17 13 18 12 19 11 20 10 21
REMARK SMILES IDX 9 22 8 23 7 24 6 25 5 26 4 27 3 28 2 29 1 30
REMARK H PARENT
REMARK Flexibility Score: inf
ROOT
ATOM      1  C   UNL     1      -1.438  26.663  24.208  1.00  0.00     0.000 C 
ENDROOT
BRANCH   1   2
ATOM      2  C   UNL     1      -0.193  25.812  24.539  1.00  0.00     0.000 C 
BRANCH   2   3
ATOM      3  C   UNL     1       0.587  25.264  23.326  1.00  0.00     0.000 C 
BRANCH   3   4
ATOM      4  C   UNL     1       0.272  23.795  22.961  1.00  0.00     0.000 C 
BRANCH   4   5
ATOM      5  C   UNL     1       1.024  23.288  21.716  1.00  0.00     0.000 C 
BRANCH   5   6
ATOM      6  C   UNL     1       0.385  22.070  21.023  1.00  0.00     0.000 C 
BRANCH   6   7
ATOM      7  C   UNL     1       1.317  21.295  20.068  1.00  0.00     0.000 C 
BRANCH   7   8
ATOM      8  C   UNL     1       0.604  20.496  18.959  1.00  0.00     0.000 C 
BRANCH   8   9
ATOM      9  C   UNL     1       1.180  20.686  17.544  1.00  0.00     0.000 C 
BRANCH   9  10
ATOM     10  C   UNL     1       0.876  22.075  16.955  1.00  0.00     0.000 C 
BRANCH  10  11
ATOM     11  C   UNL     1       1.745  23.181  17.591  1.00  0.00     0.000 C 
BRANCH  11  12
ATOM     12  C   UNL     1       1.254  24.606  17.287  1.00  0.00     0.006 C 
BRANCH  12  13
ATOM     13  C   UNL     1       0.316  25.157  18.366  1.00  0.00     0.053 C 
BRANCH  13  14
ATOM     14  C   UNL     1      -0.195  26.509  17.981  1.00  0.00     0.041 C 
ATOM     15  O   UNL     1      -1.166  27.021  18.600  1.00  0.00    -0.550 OA
ATOM     16  O   UNL     1       0.383  27.195  16.918  1.00  0.00    -0.550 OA
ENDBRANCH  13  14
ENDBRANCH  12  13
ENDBRANCH  11  12
ENDBRANCH  10  11
ENDBRANCH   9  10
ENDBRANCH   8   9
ENDBRANCH   7   8
ENDBRANCH   6   7
ENDBRANCH   5   6
ENDBRANCH   4   5
ENDBRANCH   3   4
ENDBRANCH   2   3
ENDBRANCH   1   2
BRANCH   1  17
ATOM     17  C   UNL     1      -2.127  27.328  25.413  1.00  0.00     0.000 C 
BRANCH  17  18
ATOM     18  C   UNL     1      -3.258  26.467  26.001  1.00  0.00     0.000 C 
BRANCH  18  19
ATOM     19  C   UNL     1      -3.420  25.118  25.277  1.00  0.00     0.000 C 
BRANCH  19  20
ATOM     20  C   UNL     1      -4.135  24.016  26.085  1.00  0.00     0.000 C 
BRANCH  20  21
ATOM     21  C   UNL     1      -5.643  23.874  25.814  1.00  0.00     0.000 C 
BRANCH  21  22
ATOM     22  C   UNL     1      -6.259  22.645  26.505  1.00  0.00    -0.000 C 
BRANCH  22  23
ATOM     23  C   UNL     1      -7.712  22.877  26.957  1.00  0.00    -0.000 C 
BRANCH  23  24
ATOM     24  C   UNL     1      -8.686  23.320  25.846  1.00  0.00    -0.000 C 
BRANCH  24  25
ATOM     25  C   UNL     1      -9.913  22.410  25.657  1.00  0.00    -0.000 C 
BRANCH  25  26
ATOM     26  C   UNL     1     -10.231  22.141  24.175  1.00  0.00    -0.000 C 
BRANCH  26  27
ATOM     27  C   UNL     1     -10.950  23.323  23.504  1.00  0.00    -0.000 C 
BRANCH  27  28
ATOM     28  C   UNL     1     -10.889  23.256  21.968  1.00  0.00    -0.000 C 
BRANCH  28  29
ATOM     29  C   UNL     1     -12.115  23.897  21.301  1.00  0.00    -0.003 C 
ATOM     30  C   UNL     1     -12.426  23.293  19.931  1.00  0.00     0.004 C 
ENDBRANCH  28  29
ENDBRANCH  27  28
ENDBRANCH  26  27
ENDBRANCH  25  26
ENDBRANCH  24  25
ENDBRANCH  23  24
ENDBRANCH  22  23
ENDBRANCH  21  22
ENDBRANCH  20  21
ENDBRANCH  19  20
ENDBRANCH  18  19
ENDBRANCH  17  18
ENDBRANCH   1  17
TORSDOF 26
ENDMDL
MODEL 6
REMARK VINA RESULT:    -2.741      4.818     10.675
REMARK INTER + INTRA:          -9.055
REMARK INTER:                  -7.718
REMARK INTRA:                  -1.337
REMARK UNBOUND:                -2.147
REMARK SMILES CCCCCCCCCCCCCCCCCCCCCCCCCCCC(=O)[O-]
REMARK SMILES IDX 15 1 16 2 17 3 18 4 19 5 20 6 21 7 22 8 23 9 24 10 25 11
REMARK SMILES IDX 26 12 27 13 28 14 29 15 30 16 14 17 13 18 12 19 11 20 10 21
REMARK SMILES IDX 9 22 8 23 7 24 6 25 5 26 4 27 3 28 2 29 1 30
REMARK H PARENT
REMARK Flexibility Score: inf
ROOT
ATOM      1  C   UNL     1       1.614  23.258  22.173  1.00  0.00     0.000 C 
ENDROOT
BRANCH   1   2
ATOM      2  C   UNL     1       0.173  23.471  22.687  1.00  0.00     0.000 C 
BRANCH   2   3
ATOM      3  C   UNL     1       0.021  24.449  23.870  1.00  0.00     0.000 C 
BRANCH   3   4
ATOM      4  C   UNL     1       0.738  25.806  23.688  1.00  0.00     0.000 C 
BRANCH   4   5
ATOM      5  C   UNL     1       0.040  26.980  24.401  1.00  0.00     0.000 C 
BRANCH   5   6
ATOM      6  C   UNL     1      -1.138  27.601  23.628  1.00  0.00     0.000 C 
BRANCH   6   7
ATOM      7  C   UNL     1      -2.403  27.873  24.467  1.00  0.00     0.000 C 
BRANCH   7   8
ATOM      8  C   UNL     1      -2.383  27.291  25.895  1.00  0.00     0.000 C 
BRANCH   8   9
ATOM      9  C   UNL     1      -3.541  26.333  26.225  1.00  0.00     0.000 C 
BRANCH   9  10
ATOM     10  C   UNL     1      -3.467  25.010  25.443  1.00  0.00     0.000 C 
BRANCH  10  11
ATOM     11  C   UNL     1      -4.273  23.883  26.125  1.00  0.00     0.000 C 
BRANCH  11  12
ATOM     12  C   UNL     1      -5.789  23.971  25.880  1.00  0.00     0.006 C 
BRANCH  12  13
ATOM     13  C   UNL     1      -6.568  22.836  26.553  1.00  0.00     0.053 C 
BRANCH  13  14
ATOM     14  C   UNL     1      -8.041  23.026  26.369  1.00  0.00     0.041 C 
ATOM     15  O   UNL     1      -8.485  23.552  25.313  1.00  0.00    -0.550 OA
ATOM     16  O   UNL     1      -8.923  22.649  27.374  1.00  0.00    -0.550 OA
ENDBRANCH  13  14
ENDBRANCH  12  13
ENDBRANCH  11  12
ENDBRANCH  10  11
ENDBRANCH   9  10
ENDBRANCH   8   9
ENDBRANCH   7   8
ENDBRANCH   6   7
ENDBRANCH   5   6
ENDBRANCH   4   5
ENDBRANCH   3   4
ENDBRANCH   2   3
ENDBRANCH   1   2
BRANCH   1  17
ATOM     17  C   UNL     1       1.733  22.686  20.749  1.00  0.00     0.000 C 
BRANCH  17  18
ATOM     18  C   UNL     1       0.366  22.464  20.080  1.00  0.00     0.000 C 
BRANCH  18  19
ATOM     19  C   UNL     1       0.276  21.117  19.340  1.00  0.00     0.000 C 
BRANCH  19  20
ATOM     20  C   UNL     1       1.572  20.282  19.328  1.00  0.00     0.000 C 
BRANCH  20  21
ATOM     21  C   UNL     1       1.874  19.554  18.006  1.00  0.00     0.000 C 
BRANCH  21  22
ATOM     22  C   UNL     1       1.373  18.100  17.999  1.00  0.00    -0.000 C 
BRANCH  22  23
ATOM     23  C   UNL     1       2.115  17.204  19.007  1.00  0.00    -0.000 C 
BRANCH  23  24
ATOM     24  C   UNL     1       1.499  17.150  20.420  1.00  0.00    -0.000 C 
BRANCH  24  25
ATOM     25  C   UNL     1       1.482  15.754  21.067  1.00  0.00    -0.000 C 
BRANCH  25  26
ATOM     26  C   UNL     1       1.966  14.649  20.112  1.00  0.00    -0.000 C 
BRANCH  26  27
ATOM     27  C   UNL     1       0.918  14.292  19.045  1.00  0.00    -0.000 C 
BRANCH  27  28
ATOM     28  C   UNL     1       1.455  13.301  17.997  1.00  0.00    -0.000 C 
BRANCH  28  29
ATOM     29  C   UNL     1       1.784  11.926  18.601  1.00  0.00    -0.003 C 
ATOM     30  C   UNL     1       1.820  10.814  17.553  1.00  0.00     0.004 C 
ENDBRANCH  28  29
ENDBRANCH  27  28
ENDBRANCH  26  27
ENDBRANCH  25  26
ENDBRANCH  24  25
ENDBRANCH  23  24
ENDBRANCH  22  23
ENDBRANCH  21  22
ENDBRANCH  20  21
ENDBRANCH  19  20
ENDBRANCH  18  19
ENDBRANCH  17  18
ENDBRANCH   1  17
TORSDOF 26
ENDMDL
MODEL 7
REMARK VINA RESULT:    -2.721      4.375      5.969
REMARK INTER + INTRA:          -9.004
REMARK INTER:                  -7.592
REMARK INTRA:                  -1.412
REMARK UNBOUND:                -2.147
REMARK SMILES CCCCCCCCCCCCCCCCCCCCCCCCCCCC(=O)[O-]
REMARK SMILES IDX 15 1 16 2 17 3 18 4 19 5 20 6 21 7 22 8 23 9 24 10 25 11
REMARK SMILES IDX 26 12 27 13 28 14 29 15 30 16 14 17 13 18 12 19 11 20 10 21
REMARK SMILES IDX 9 22 8 23 7 24 6 25 5 26 4 27 3 28 2 29 1 30
REMARK H PARENT
REMARK Flexibility Score: inf
ROOT
ATOM      1  C   UNL     1       1.219  24.754  22.595  1.00  0.00     0.000 C 
ENDROOT
BRANCH   1   2
ATOM      2  C   UNL     1       1.158  23.258  22.219  1.00  0.00     0.000 C 
BRANCH   2   3
ATOM      3  C   UNL     1       1.199  22.944  20.709  1.00  0.00     0.000 C 
BRANCH   3   4
ATOM      4  C   UNL     1      -0.106  22.349  20.134  1.00  0.00     0.000 C 
BRANCH   4   5
ATOM      5  C   UNL     1      -0.144  22.303  18.594  1.00  0.00     0.000 C 
BRANCH   5   6
ATOM      6  C   UNL     1       0.957  21.446  17.943  1.00  0.00     0.000 C 
BRANCH   6   7
ATOM      7  C   UNL     1       0.943  19.954  18.332  1.00  0.00     0.000 C 
BRANCH   7   8
ATOM      8  C   UNL     1       1.700  19.605  19.629  1.00  0.00     0.000 C 
BRANCH   8   9
ATOM      9  C   UNL     1       1.349  18.238  20.243  1.00  0.00     0.000 C 
BRANCH   9  10
ATOM     10  C   UNL     1       0.691  17.280  19.235  1.00  0.00     0.000 C 
BRANCH  10  11
ATOM     11  C   UNL     1       1.574  16.048  18.940  1.00  0.00     0.000 C 
BRANCH  11  12
ATOM     12  C   UNL     1       1.676  15.702  17.445  1.00  0.00     0.006 C 
BRANCH  12  13
ATOM     13  C   UNL     1       2.113  14.254  17.196  1.00  0.00     0.053 C 
BRANCH  13  14
ATOM     14  C   UNL     1       1.065  13.299  17.672  1.00  0.00     0.041 C 
ATOM     15  O   UNL     1      -0.150  13.632  17.662  1.00  0.00    -0.550 OA
ATOM     16  O   UNL     1       1.432  12.047  18.154  1.00  0.00    -0.550 OA
ENDBRANCH  13  14
ENDBRANCH  12  13
ENDBRANCH  11  12
ENDBRANCH  10  11
ENDBRANCH   9  10
ENDBRANCH   8   9
ENDBRANCH   7   8
ENDBRANCH   6   7
ENDBRANCH   5   6
ENDBRANCH   4   5
ENDBRANCH   3   4
ENDBRANCH   2   3
ENDBRANCH   1   2
BRANCH   1  17
ATOM     17  C   UNL     1       0.150  25.231  23.594  1.00  0.00     0.000 C 
BRANCH  17  18
ATOM     18  C   UNL     1      -0.026  26.760  23.593  1.00  0.00     0.000 C 
BRANCH  18  19
ATOM     19  C   UNL     1      -1.476  27.193  23.874  1.00  0.00     0.000 C 
BRANCH  19  20
ATOM     20  C   UNL     1      -1.820  27.427  25.359  1.00  0.00     0.000 C 
BRANCH  20  21
ATOM     21  C   UNL     1      -3.112  26.750  25.850  1.00  0.00     0.000 C 
BRANCH  21  22
ATOM     22  C   UNL     1      -3.545  25.574  24.958  1.00  0.00    -0.000 C 
BRANCH  22  23
ATOM     23  C   UNL     1      -3.243  24.202  25.586  1.00  0.00    -0.000 C 
BRANCH  23  24
ATOM     24  C   UNL     1      -4.342  23.645  26.514  1.00  0.00    -0.000 C 
BRANCH  24  25
ATOM     25  C   UNL     1      -5.781  23.833  26.003  1.00  0.00    -0.000 C 
BRANCH  25  26
ATOM     26  C   UNL     1      -6.739  22.741  26.509  1.00  0.00    -0.000 C 
BRANCH  26  27
ATOM     27  C   UNL     1      -8.198  23.220  26.572  1.00  0.00    -0.000 C 
BRANCH  27  28
ATOM     28  C   UNL     1      -9.171  22.245  25.886  1.00  0.00    -0.000 C 
BRANCH  28  29
ATOM     29  C   UNL     1      -9.983  22.913  24.766  1.00  0.00    -0.003 C 
ATOM     30  C   UNL     1      -9.370  24.234  24.299  1.00  0.00     0.004 C 
ENDBRANCH  28  29
ENDBRANCH  27  28
ENDBRANCH  26  27
ENDBRANCH  25  26
ENDBRANCH  24  25
ENDBRANCH  23  24
ENDBRANCH  22  23
ENDBRANCH  21  22
ENDBRANCH  20  21
ENDBRANCH  19  20
ENDBRANCH  18  19
ENDBRANCH  17  18
ENDBRANCH   1  17
TORSDOF 26
ENDMDL
MODEL 8
REMARK VINA RESULT:    -2.705      3.701      4.881
REMARK INTER + INTRA:          -8.964
REMARK INTER:                  -8.065
REMARK INTRA:                  -0.899
REMARK UNBOUND:                -2.147
REMARK SMILES CCCCCCCCCCCCCCCCCCCCCCCCCCCC(=O)[O-]
REMARK SMILES IDX 15 1 16 2 17 3 18 4 19 5 20 6 21 7 22 8 23 9 24 10 25 11
REMARK SMILES IDX 26 12 27 13 28 14 29 15 30 16 14 17 13 18 12 19 11 20 10 21
REMARK SMILES IDX 9 22 8 23 7 24 6 25 5 26 4 27 3 28 2 29 1 30
REMARK H PARENT
REMARK Flexibility Score: inf
ROOT
ATOM      1  C   UNL     1       0.832  26.840  21.823  1.00  0.00     0.000 C 
ENDROOT
BRANCH   1   2
ATOM      2  C   UNL     1       0.951  26.890  20.284  1.00  0.00     0.000 C 
BRANCH   2   3
ATOM      3  C   UNL     1       0.635  25.574  19.544  1.00  0.00     0.000 C 
BRANCH   3   4
ATOM      4  C   UNL     1       1.674  24.448  19.749  1.00  0.00     0.000 C 
BRANCH   4   5
ATOM      5  C   UNL     1       1.918  24.087  21.227  1.00  0.00     0.000 C 
BRANCH   5   6
ATOM      6  C   UNL     1       1.105  22.886  21.744  1.00  0.00     0.000 C 
BRANCH   6   7
ATOM      7  C   UNL     1       0.324  22.109  20.665  1.00  0.00     0.000 C 
BRANCH   7   8
ATOM      8  C   UNL     1       1.029  20.850  20.121  1.00  0.00     0.000 C 
BRANCH   8   9
ATOM      9  C   UNL     1       0.487  20.328  18.778  1.00  0.00     0.000 C 
BRANCH   9  10
ATOM     10  C   UNL     1       1.249  19.094  18.264  1.00  0.00     0.000 C 
BRANCH  10  11
ATOM     11  C   UNL     1       1.537  18.076  19.389  1.00  0.00     0.000 C 
BRANCH  11  12
ATOM     12  C   UNL     1       0.906  16.694  19.151  1.00  0.00     0.006 C 
BRANCH  12  13
ATOM     13  C   UNL     1       1.609  15.575  19.928  1.00  0.00     0.053 C 
BRANCH  13  14
ATOM     14  C   UNL     1       1.323  14.244  19.309  1.00  0.00     0.041 C 
ATOM     15  O   UNL     1       1.679  13.184  19.890  1.00  0.00    -0.550 OA
ATOM     16  O   UNL     1       0.686  14.171  18.076  1.00  0.00    -0.550 OA
ENDBRANCH  13  14
ENDBRANCH  12  13
ENDBRANCH  11  12
ENDBRANCH  10  11
ENDBRANCH   9  10
ENDBRANCH   8   9
ENDBRANCH   7   8
ENDBRANCH   6   7
ENDBRANCH   5   6
ENDBRANCH   4   5
ENDBRANCH   3   4
ENDBRANCH   2   3
ENDBRANCH   1   2
BRANCH   1  17
ATOM     17  C   UNL     1      -0.410  27.529  22.415  1.00  0.00     0.000 C 
BRANCH  17  18
ATOM     18  C   UNL     1      -0.702  27.091  23.861  1.00  0.00     0.000 C 
BRANCH  18  19
ATOM     19  C   UNL     1      -2.004  27.695  24.416  1.00  0.00     0.000 C 
BRANCH  19  20
ATOM     20  C   UNL     1      -2.207  27.543  25.938  1.00  0.00     0.000 C 
BRANCH  20  21
ATOM     21  C   UNL     1      -3.375  26.634  26.359  1.00  0.00     0.000 C 
BRANCH  21  22
ATOM     22  C   UNL     1      -3.712  25.569  25.301  1.00  0.00    -0.000 C 
BRANCH  22  23
ATOM     23  C   UNL     1      -4.117  24.218  25.919  1.00  0.00    -0.000 C 
BRANCH  23  24
ATOM     24  C   UNL     1      -5.514  23.701  25.516  1.00  0.00    -0.000 C 
BRANCH  24  25
ATOM     25  C   UNL     1      -6.235  22.872  26.594  1.00  0.00    -0.000 C 
BRANCH  25  26
ATOM     26  C   UNL     1      -7.759  23.087  26.588  1.00  0.00    -0.000 C 
BRANCH  26  27
ATOM     27  C   UNL     1      -8.247  23.809  25.322  1.00  0.00    -0.000 C 
BRANCH  27  28
ATOM     28  C   UNL     1      -9.498  23.152  24.712  1.00  0.00    -0.000 C 
BRANCH  28  29
ATOM     29  C   UNL     1     -10.219  24.071  23.713  1.00  0.00    -0.003 C 
ATOM     30  C   UNL     1     -11.373  23.372  22.994  1.00  0.00     0.004 C 
ENDBRANCH  28  29
ENDBRANCH  27  28
ENDBRANCH  26  27
ENDBRANCH  25  26
ENDBRANCH  24  25
ENDBRANCH  23  24
ENDBRANCH  22  23
ENDBRANCH  21  22
ENDBRANCH  20  21
ENDBRANCH  19  20
ENDBRANCH  18  19
ENDBRANCH  17  18
ENDBRANCH   1  17
TORSDOF 26
ENDMDL
MODEL 9
REMARK VINA RESULT:    -2.574      2.579      3.682
REMARK INTER + INTRA:          -8.633
REMARK INTER:                  -7.205
REMARK INTRA:                  -1.428
REMARK UNBOUND:                -2.147
REMARK SMILES CCCCCCCCCCCCCCCCCCCCCCCCCCCC(=O)[O-]
REMARK SMILES IDX 15 1 16 2 17 3 18 4 19 5 20 6 21 7 22 8 23 9 24 10 25 11
REMARK SMILES IDX 26 12 27 13 28 14 29 15 30 16 14 17 13 18 12 19 11 20 10 21
REMARK SMILES IDX 9 22 8 23 7 24 6 25 5 26 4 27 3 28 2 29 1 30
REMARK H PARENT
REMARK Flexibility Score: inf
ROOT
ATOM      1  C   UNL     1      -1.993  27.413  24.593  1.00  0.00     0.000 C 
ENDROOT
BRANCH   1   2
ATOM      2  C   UNL     1      -0.736  26.631  24.153  1.00  0.00     0.000 C 
BRANCH   2   3
ATOM      3  C   UNL     1      -0.070  27.111  22.847  1.00  0.00     0.000 C 
BRANCH   3   4
ATOM      4  C   UNL     1       1.117  26.246  22.367  1.00  0.00     0.000 C 
BRANCH   4   5
ATOM      5  C   UNL     1       1.311  26.248  20.838  1.00  0.00     0.000 C 
BRANCH   5   6
ATOM      6  C   UNL     1       0.958  24.923  20.137  1.00  0.00     0.000 C 
BRANCH   6   7
ATOM      7  C   UNL     1       1.694  23.679  20.676  1.00  0.00     0.000 C 
BRANCH   7   8
ATOM      8  C   UNL     1       0.796  22.461  20.974  1.00  0.00     0.000 C 
BRANCH   8   9
ATOM      9  C   UNL     1       0.683  21.439  19.829  1.00  0.00     0.000 C 
BRANCH   9  10
ATOM     10  C   UNL     1       1.778  21.610  18.761  1.00  0.00     0.000 C 
BRANCH  10  11
ATOM     11  C   UNL     1       1.618  20.609  17.596  1.00  0.00     0.000 C 
BRANCH  11  12
ATOM     12  C   UNL     1       0.474  19.602  17.798  1.00  0.00     0.006 C 
BRANCH  12  13
ATOM     13  C   UNL     1       0.918  18.148  17.600  1.00  0.00     0.053 C 
BRANCH  13  14
ATOM     14  C   UNL     1       0.715  17.360  18.855  1.00  0.00     0.041 C 
ATOM     15  O   UNL     1       0.185  17.898  19.864  1.00  0.00    -0.550 OA
ATOM     16  O   UNL     1       1.135  16.037  18.922  1.00  0.00    -0.550 OA
ENDBRANCH  13  14
ENDBRANCH  12  13
ENDBRANCH  11  12
ENDBRANCH  10  11
ENDBRANCH   9  10
ENDBRANCH   8   9
ENDBRANCH   7   8
ENDBRANCH   6   7
ENDBRANCH   5   6
ENDBRANCH   4   5
ENDBRANCH   3   4
ENDBRANCH   2   3
ENDBRANCH   1   2
BRANCH   1  17
ATOM     17  C   UNL     1      -2.698  26.881  25.853  1.00  0.00     0.000 C 
BRANCH  17  18
ATOM     18  C   UNL     1      -3.829  25.890  25.529  1.00  0.00     0.000 C 
BRANCH  18  19
ATOM     19  C   UNL     1      -3.463  24.435  25.875  1.00  0.00     0.000 C 
BRANCH  19  20
ATOM     20  C   UNL     1      -4.542  23.648  26.647  1.00  0.00     0.000 C 
BRANCH  20  21
ATOM     21  C   UNL     1      -5.813  23.314  25.845  1.00  0.00     0.000 C 
BRANCH  21  22
ATOM     22  C   UNL     1      -6.954  22.785  26.731  1.00  0.00    -0.000 C 
BRANCH  22  23
ATOM     23  C   UNL     1      -8.348  23.184  26.215  1.00  0.00    -0.000 C 
BRANCH  23  24
ATOM     24  C   UNL     1      -8.358  24.242  25.093  1.00  0.00    -0.000 C 
BRANCH  24  25
ATOM     25  C   UNL     1      -9.658  24.304  24.271  1.00  0.00    -0.000 C 
BRANCH  25  26
ATOM     26  C   UNL     1     -10.203  22.910  23.915  1.00  0.00    -0.000 C 
BRANCH  26  27
ATOM     27  C   UNL     1     -11.723  22.914  23.685  1.00  0.00    -0.000 C 
BRANCH  27  28
ATOM     28  C   UNL     1     -12.148  23.878  22.563  1.00  0.00    -0.000 C 
BRANCH  28  29
ATOM     29  C   UNL     1     -11.451  23.573  21.228  1.00  0.00    -0.003 C 
ATOM     30  C   UNL     1     -12.439  23.278  20.099  1.00  0.00     0.004 C 
ENDBRANCH  28  29
ENDBRANCH  27  28
ENDBRANCH  26  27
ENDBRANCH  25  26
ENDBRANCH  24  25
ENDBRANCH  23  24
ENDBRANCH  22  23
ENDBRANCH  21  22
ENDBRANCH  20  21
ENDBRANCH  19  20
ENDBRANCH  18  19
ENDBRANCH  17  18
ENDBRANCH   1  17
TORSDOF 26
ENDMDL
