MODEL 1
REMARK VINA RESULT:    -6.092      0.000      0.000
REMARK INTER + INTRA:          -6.270
REMARK INTER:                  -6.270
REMARK INTRA:                   0.000
REMARK UNBOUND:                 0.000
REMARK SMILES O=c1ccc2ccc(O)cc2o1
REMARK SMILES IDX 6 1 7 2 8 3 10 4 11 5 5 6 4 7 3 8 2 9 1 10 12 11 9 12
REMARK H PARENT 9 13
REMARK Flexibility Score: inf
ROOT
ATOM      1  C   UNL     1      17.114  43.602   5.380  1.00  0.00     0.016 A 
ATOM      2  C   UNL     1      17.799  43.384   6.579  1.00  0.00     0.047 A 
ATOM      3  C   UNL     1      17.414  44.056   7.746  1.00  0.00     0.119 A 
ATOM      4  C   UNL     1      16.335  44.952   7.714  1.00  0.00     0.094 A 
ATOM      5  C   UNL     1      15.644  45.176   6.519  1.00  0.00     0.142 A 
ATOM      6  C   UNL     1      16.035  44.497   5.344  1.00  0.00     0.018 A 
ATOM      7  C   UNL     1      15.325  44.741   4.164  1.00  0.00     0.019 A 
ATOM      8  C   UNL     1      14.260  45.641   4.182  1.00  0.00     0.094 A 
ATOM      9  C   UNL     1      13.929  46.277   5.383  1.00  0.00     0.336 A 
ATOM     10  O   UNL     1      12.970  47.092   5.419  1.00  0.00    -0.246 OA
ATOM     11  O   UNL     1      14.621  46.027   6.491  1.00  0.00    -0.423 OA
ENDROOT
BRANCH   3  12
ATOM     12  O   UNL     1      18.110  43.825   8.930  1.00  0.00    -0.508 OA
ATOM     13  H   UNL     1      17.627  43.612   9.796  1.00  0.00     0.293 HD
ENDBRANCH   3  12
TORSDOF 1
ENDMDL
MODEL 2
REMARK VINA RESULT:    -6.051      0.963      1.228
REMARK INTER + INTRA:          -6.228
REMARK INTER:                  -6.228
REMARK INTRA:                   0.000
REMARK UNBOUND:                 0.000
REMARK SMILES O=c1ccc2ccc(O)cc2o1
REMARK SMILES IDX 6 1 7 2 8 3 10 4 11 5 5 6 4 7 3 8 2 9 1 10 12 11 9 12
REMARK H PARENT 9 13
REMARK Flexibility Score: inf
ROOT
ATOM      1  C   UNL     1      16.085  43.745   4.180  1.00  0.00     0.016 A 
ATOM      2  C   UNL     1      17.128  43.388   5.040  1.00  0.00     0.047 A 
ATOM      3  C   UNL     1      17.229  43.971   6.310  1.00  0.00     0.119 A 
ATOM      4  C   UNL     1      16.279  44.917   6.723  1.00  0.00     0.094 A 
ATOM      5  C   UNL     1      15.232  45.279   5.870  1.00  0.00     0.142 A 
ATOM      6  C   UNL     1      15.133  44.690   4.590  1.00  0.00     0.018 A 
ATOM      7  C   UNL     1      14.076  45.072   3.758  1.00  0.00     0.019 A 
ATOM      8  C   UNL     1      13.156  46.016   4.214  1.00  0.00     0.094 A 
ATOM      9  C   UNL     1      13.317  46.558   5.493  1.00  0.00     0.336 A 
ATOM     10  O   UNL     1      12.496  47.412   5.922  1.00  0.00    -0.246 OA
ATOM     11  O   UNL     1      14.332  46.177   6.264  1.00  0.00    -0.423 OA
ENDROOT
BRANCH   3  12
ATOM     12  O   UNL     1      18.276  43.603   7.151  1.00  0.00    -0.508 OA
ATOM     13  H   UNL     1      19.243  43.652   6.848  1.00  0.00     0.293 HD
ENDBRANCH   3  12
TORSDOF 1
ENDMDL
MODEL 3
REMARK VINA RESULT:    -5.973      2.161      2.454
REMARK INTER + INTRA:          -6.147
REMARK INTER:                  -6.147
REMARK INTRA:                   0.000
REMARK UNBOUND:                 0.000
REMARK SMILES O=c1ccc2ccc(O)cc2o1
REMARK SMILES IDX 6 1 7 2 8 3 10 4 11 5 5 6 4 7 3 8 2 9 1 10 12 11 9 12
REMARK H PARENT 9 13
REMARK Flexibility Score: inf
ROOT
ATOM      1  C   UNL     1      17.546  43.464   6.890  1.00  0.00     0.016 A 
ATOM      2  C   UNL     1      17.224  43.454   8.251  1.00  0.00     0.047 A 
ATOM      3  C   UNL     1      15.886  43.451   8.662  1.00  0.00     0.119 A 
ATOM      4  C   UNL     1      14.860  43.458   7.705  1.00  0.00     0.094 A 
ATOM      5  C   UNL     1      15.172  43.468   6.341  1.00  0.00     0.142 A 
ATOM      6  C   UNL     1      16.523  43.471   5.930  1.00  0.00     0.018 A 
ATOM      7  C   UNL     1      16.805  43.482   4.560  1.00  0.00     0.019 A 
ATOM      8  C   UNL     1      15.751  43.488   3.647  1.00  0.00     0.094 A 
ATOM      9  C   UNL     1      14.437  43.484   4.127  1.00  0.00     0.336 A 
ATOM     10  O   UNL     1      13.472  43.490   3.317  1.00  0.00    -0.246 OA
ATOM     11  O   UNL     1      14.197  43.475   5.435  1.00  0.00    -0.423 OA
ENDROOT
BRANCH   3  12
ATOM     12  O   UNL     1      15.587  43.441  10.022  1.00  0.00    -0.508 OA
ATOM     13  H   UNL     1      16.095  42.852  10.672  1.00  0.00     0.293 HD
ENDBRANCH   3  12
TORSDOF 1
ENDMDL
MODEL 4
REMARK VINA RESULT:    -5.921      2.260      2.376
REMARK INTER + INTRA:          -6.094
REMARK INTER:                  -6.094
REMARK INTRA:                   0.000
REMARK UNBOUND:                 0.000
REMARK SMILES O=c1ccc2ccc(O)cc2o1
REMARK SMILES IDX 6 1 7 2 8 3 10 4 11 5 5 6 4 7 3 8 2 9 1 10 12 11 9 12
REMARK H PARENT 9 13
REMARK Flexibility Score: inf
ROOT
ATOM      1  C   UNL     1      17.135  43.820   5.141  1.00  0.00     0.016 A 
ATOM      2  C   UNL     1      17.874  43.683   6.319  1.00  0.00     0.047 A 
ATOM      3  C   UNL     1      17.265  43.204   7.486  1.00  0.00     0.119 A 
ATOM      4  C   UNL     1      15.905  42.860   7.474  1.00  0.00     0.094 A 
ATOM      5  C   UNL     1      15.157  42.993   6.299  1.00  0.00     0.142 A 
ATOM      6  C   UNL     1      15.775  43.477   5.125  1.00  0.00     0.018 A 
ATOM      7  C   UNL     1      15.002  43.599   3.966  1.00  0.00     0.019 A 
ATOM      8  C   UNL     1      13.654  43.245   4.003  1.00  0.00     0.094 A 
ATOM      9  C   UNL     1      13.109  42.773   5.202  1.00  0.00     0.336 A 
ATOM     10  O   UNL     1      11.894  42.448   5.255  1.00  0.00    -0.246 OA
ATOM     11  O   UNL     1      13.866  42.667   6.291  1.00  0.00    -0.423 OA
ENDROOT
BRANCH   3  12
ATOM     12  O   UNL     1      18.019  43.076   8.650  1.00  0.00    -0.508 OA
ATOM     13  H   UNL     1      19.033  43.069   8.626  1.00  0.00     0.293 HD
ENDBRANCH   3  12
TORSDOF 1
ENDMDL
MODEL 5
REMARK VINA RESULT:    -5.904      1.249      4.245
REMARK INTER + INTRA:          -6.076
REMARK INTER:                  -6.076
REMARK INTRA:                   0.000
REMARK UNBOUND:                 0.000
REMARK SMILES O=c1ccc2ccc(O)cc2o1
REMARK SMILES IDX 6 1 7 2 8 3 10 4 11 5 5 6 4 7 3 8 2 9 1 10 12 11 9 12
REMARK H PARENT 9 13
REMARK Flexibility Score: inf
ROOT
ATOM      1  C   UNL     1      15.334  43.539   3.668  1.00  0.00     0.016 A 
ATOM      2  C   UNL     1      14.124  44.108   3.260  1.00  0.00     0.047 A 
ATOM      3  C   UNL     1      13.475  45.047   4.070  1.00  0.00     0.119 A 
ATOM      4  C   UNL     1      14.040  45.422   5.298  1.00  0.00     0.094 A 
ATOM      5  C   UNL     1      15.251  44.859   5.714  1.00  0.00     0.142 A 
ATOM      6  C   UNL     1      15.903  43.911   4.895  1.00  0.00     0.018 A 
ATOM      7  C   UNL     1      17.112  43.365   5.337  1.00  0.00     0.019 A 
ATOM      8  C   UNL     1      17.634  43.768   6.566  1.00  0.00     0.094 A 
ATOM      9  C   UNL     1      16.933  44.712   7.324  1.00  0.00     0.336 A 
ATOM     10  O   UNL     1      17.390  45.088   8.436  1.00  0.00    -0.246 OA
ATOM     11  O   UNL     1      15.785  45.215   6.880  1.00  0.00    -0.423 OA
ENDROOT
BRANCH   3  12
ATOM     12  O   UNL     1      12.270  45.602   3.645  1.00  0.00    -0.508 OA
ATOM     13  H   UNL     1      11.451  45.612   4.244  1.00  0.00     0.293 HD
ENDBRANCH   3  12
TORSDOF 1
ENDMDL
MODEL 6
REMARK VINA RESULT:    -5.894      1.446      1.567
REMARK INTER + INTRA:          -6.066
REMARK INTER:                  -6.066
REMARK INTRA:                   0.000
REMARK UNBOUND:                 0.000
REMARK SMILES O=c1ccc2ccc(O)cc2o1
REMARK SMILES IDX 6 1 7 2 8 3 10 4 11 5 5 6 4 7 3 8 2 9 1 10 12 11 9 12
REMARK H PARENT 9 13
REMARK Flexibility Score: inf
ROOT
ATOM      1  C   UNL     1      15.814  42.241   7.326  1.00  0.00     0.016 A 
ATOM      2  C   UNL     1      16.793  42.313   8.321  1.00  0.00     0.047 A 
ATOM      3  C   UNL     1      17.256  43.556   8.769  1.00  0.00     0.119 A 
ATOM      4  C   UNL     1      16.736  44.737   8.219  1.00  0.00     0.094 A 
ATOM      5  C   UNL     1      15.755  44.674   7.224  1.00  0.00     0.142 A 
ATOM      6  C   UNL     1      15.291  43.418   6.773  1.00  0.00     0.018 A 
ATOM      7  C   UNL     1      14.310  43.387   5.777  1.00  0.00     0.019 A 
ATOM      8  C   UNL     1      13.823  44.588   5.260  1.00  0.00     0.094 A 
ATOM      9  C   UNL     1      14.330  45.795   5.754  1.00  0.00     0.336 A 
ATOM     10  O   UNL     1      13.902  46.888   5.300  1.00  0.00    -0.246 OA
ATOM     11  O   UNL     1      15.263  45.796   6.702  1.00  0.00    -0.423 OA
ENDROOT
BRANCH   3  12
ATOM     12  O   UNL     1      18.233  43.606   9.761  1.00  0.00    -0.508 OA
ATOM     13  H   UNL     1      18.354  44.427  10.345  1.00  0.00     0.293 HD
ENDBRANCH   3  12
TORSDOF 1
ENDMDL
MODEL 7
REMARK VINA RESULT:    -5.830      2.504      4.684
REMARK INTER + INTRA:          -6.000
REMARK INTER:                  -6.000
REMARK INTRA:                   0.000
REMARK UNBOUND:                 0.000
REMARK SMILES O=c1ccc2ccc(O)cc2o1
REMARK SMILES IDX 6 1 7 2 8 3 10 4 11 5 5 6 4 7 3 8 2 9 1 10 12 11 9 12
REMARK H PARENT 9 13
REMARK Flexibility Score: inf
ROOT
ATOM      1  C   UNL     1      14.999  43.711   3.572  1.00  0.00     0.016 A 
ATOM      2  C   UNL     1      13.678  43.357   3.283  1.00  0.00     0.047 A 
ATOM      3  C   UNL     1      12.861  42.804   4.277  1.00  0.00     0.119 A 
ATOM      4  C   UNL     1      13.368  42.604   5.570  1.00  0.00     0.094 A 
ATOM      5  C   UNL     1      14.688  42.956   5.868  1.00  0.00     0.142 A 
ATOM      6  C   UNL     1      15.510  43.513   4.863  1.00  0.00     0.018 A 
ATOM      7  C   UNL     1      16.826  43.855   5.190  1.00  0.00     0.019 A 
ATOM      8  C   UNL     1      17.285  43.637   6.489  1.00  0.00     0.094 A 
ATOM      9  C   UNL     1      16.415  43.082   7.432  1.00  0.00     0.336 A 
ATOM     10  O   UNL     1      16.811  42.878   8.610  1.00  0.00    -0.246 OA
ATOM     11  O   UNL     1      15.168  42.765   7.095  1.00  0.00    -0.423 OA
ENDROOT
BRANCH   3  12
ATOM     12  O   UNL     1      11.547  42.457   3.969  1.00  0.00    -0.508 OA
ATOM     13  H   UNL     1      11.281  42.167   3.034  1.00  0.00     0.293 HD
ENDBRANCH   3  12
TORSDOF 1
ENDMDL
MODEL 8
REMARK VINA RESULT:    -5.752      1.597      4.360
REMARK INTER + INTRA:          -5.920
REMARK INTER:                  -5.920
REMARK INTRA:                   0.000
REMARK UNBOUND:                 0.000
REMARK SMILES O=c1ccc2ccc(O)cc2o1
REMARK SMILES IDX 6 1 7 2 8 3 10 4 11 5 5 6 4 7 3 8 2 9 1 10 12 11 9 12
REMARK H PARENT 9 13
REMARK Flexibility Score: inf
ROOT
ATOM      1  C   UNL     1      13.305  45.094   3.754  1.00  0.00     0.016 A 
ATOM      2  C   UNL     1      12.501  46.048   4.384  1.00  0.00     0.047 A 
ATOM      3  C   UNL     1      12.893  46.610   5.605  1.00  0.00     0.119 A 
ATOM      4  C   UNL     1      14.100  46.216   6.201  1.00  0.00     0.094 A 
ATOM      5  C   UNL     1      14.912  45.262   5.578  1.00  0.00     0.142 A 
ATOM      6  C   UNL     1      14.513  44.697   4.347  1.00  0.00     0.018 A 
ATOM      7  C   UNL     1      15.345  43.746   3.748  1.00  0.00     0.019 A 
ATOM      8  C   UNL     1      16.535  43.386   4.379  1.00  0.00     0.094 A 
ATOM      9  C   UNL     1      16.866  43.987   5.598  1.00  0.00     0.336 A 
ATOM     10  O   UNL     1      17.937  43.675   6.183  1.00  0.00    -0.246 OA
ATOM     11  O   UNL     1      16.056  44.889   6.146  1.00  0.00    -0.423 OA
ENDROOT
BRANCH   3  12
ATOM     12  O   UNL     1      12.077  47.559   6.216  1.00  0.00    -0.508 OA
ATOM     13  H   UNL     1      12.318  47.968   7.113  1.00  0.00     0.293 HD
ENDBRANCH   3  12
TORSDOF 1
ENDMDL
MODEL 9
REMARK VINA RESULT:    -5.730      2.173      3.038
REMARK INTER + INTRA:          -5.898
REMARK INTER:                  -5.898
REMARK INTRA:                   0.000
REMARK UNBOUND:                 0.000
REMARK SMILES O=c1ccc2ccc(O)cc2o1
REMARK SMILES IDX 6 1 7 2 8 3 10 4 11 5 5 6 4 7 3 8 2 9 1 10 12 11 9 12
REMARK H PARENT 9 13
REMARK Flexibility Score: inf
ROOT
ATOM      1  C   UNL     1      15.621  44.894   6.388  1.00  0.00     0.016 A 
ATOM      2  C   UNL     1      16.461  43.952   5.787  1.00  0.00     0.047 A 
ATOM      3  C   UNL     1      16.252  43.564   4.458  1.00  0.00     0.119 A 
ATOM      4  C   UNL     1      15.196  44.123   3.723  1.00  0.00     0.094 A 
ATOM      5  C   UNL     1      14.350  45.066   4.316  1.00  0.00     0.142 A 
ATOM      6  C   UNL     1      14.563  45.455   5.658  1.00  0.00     0.018 A 
ATOM      7  C   UNL     1      13.702  46.400   6.224  1.00  0.00     0.019 A 
ATOM      8  C   UNL     1      12.665  46.927   5.454  1.00  0.00     0.094 A 
ATOM      9  C   UNL     1      12.515  46.495   4.132  1.00  0.00     0.336 A 
ATOM     10  O   UNL     1      11.585  46.960   3.422  1.00  0.00    -0.246 OA
ATOM     11  O   UNL     1      13.348  45.594   3.618  1.00  0.00    -0.423 OA
ENDROOT
BRANCH   3  12
ATOM     12  O   UNL     1      17.100  42.624   3.877  1.00  0.00    -0.508 OA
ATOM     13  H   UNL     1      17.212  41.696   4.271  1.00  0.00     0.293 HD
ENDBRANCH   3  12
TORSDOF 1
ENDMDL
