MODEL 1
REMARK VINA RESULT:    59.337      0.000      0.000
REMARK INTER + INTRA:          79.223
REMARK INTER:                  78.416
REMARK INTRA:                   0.807
REMARK UNBOUND:                 0.807
REMARK SMILES CC[C@H](C=C[C@@H](C)[C@@H]1CC[C@@H]2[C@@H]3CC=C4C[C@H](O)CC[C@]4(C)[C@H]3CC[C@@]21C)C(C)C
REMARK SMILES IDX 6 1 7 2 5 3 4 4 3 5 2 6 1 7 28 8 29 9 30 10 8 11 9 12 26 13
REMARK SMILES IDX 10 14 11 15 25 16 27 17 12 18 24 19 23 20 13 21 21 22 14 23
REMARK SMILES IDX 15 24 20 25 22 26 16 27 19 28 17 29 18 30
REMARK H PARENT 18 31
REMARK Flexibility Score: inf
ROOT
ATOM      1  C   UNL     1     -36.279  27.530  -1.097  1.00  0.00     0.012 C 
ATOM      2  C   UNL     1     -35.033  28.071  -0.386  1.00  0.00     0.012 C 
ENDROOT
BRANCH   1   3
ATOM      3  C   UNL     1     -36.574  28.366  -2.332  1.00  0.00    -0.028 C 
ATOM      4  C   UNL     1     -35.804  29.330  -2.894  1.00  0.00    -0.027 C 
BRANCH   4   5
ATOM      5  C   UNL     1     -34.412  29.843  -2.521  1.00  0.00     0.014 C 
BRANCH   5   6
ATOM      6  C   UNL     1     -33.351  29.682  -3.638  1.00  0.00     0.004 C 
ATOM      7  C   UNL     1     -32.561  30.965  -3.904  1.00  0.00     0.004 C 
ENDBRANCH   5   6
BRANCH   5   8
ATOM      8  C   UNL     1     -34.402  31.213  -1.770  1.00  0.00    -0.011 C 
ATOM      9  C   UNL     1     -32.996  31.566  -1.258  1.00  0.00     0.008 C 
ATOM     10  C   UNL     1     -35.416  31.326  -0.629  1.00  0.00     0.008 C 
ENDBRANCH   5   8
ENDBRANCH   4   5
ENDBRANCH   1   3
BRANCH   1  11
ATOM     11  C   UNL     1     -37.496  27.331  -0.117  1.00  0.00     0.002 C 
ATOM     12  C   UNL     1     -37.620  28.440   0.941  1.00  0.00     0.005 C 
ATOM     13  C   UNL     1     -37.740  25.988   0.656  1.00  0.00    -0.026 C 
ATOM     14  C   UNL     1     -38.368  27.838   2.129  1.00  0.00     0.005 C 
ATOM     15  C   UNL     1     -38.794  26.425   1.704  1.00  0.00    -0.001 C 
ATOM     16  C   UNL     1     -36.464  25.478   1.382  1.00  0.00     0.007 C 
ATOM     17  C   UNL     1     -38.337  24.889  -0.264  1.00  0.00     0.012 C 
ATOM     18  C   UNL     1     -39.032  25.412   2.873  1.00  0.00     0.000 C 
ATOM     19  C   UNL     1     -36.761  24.382   2.406  1.00  0.00     0.005 C 
ATOM     20  C   UNL     1     -37.723  24.885   3.511  1.00  0.00     0.003 C 
ATOM     21  C   UNL     1     -39.944  26.017   3.953  1.00  0.00     0.031 C 
ATOM     22  C   UNL     1     -38.005  23.806   4.634  1.00  0.00    -0.008 C 
ATOM     23  C   UNL     1     -40.101  25.128   5.150  1.00  0.00    -0.027 C 
ATOM     24  C   UNL     1     -39.162  24.243   5.546  1.00  0.00    -0.065 C 
ATOM     25  C   UNL     1     -36.719  23.644   5.506  1.00  0.00     0.014 C 
ATOM     26  C   UNL     1     -38.381  22.429   4.016  1.00  0.00     0.016 C 
ATOM     27  C   UNL     1     -39.365  23.522   6.867  1.00  0.00     0.063 C 
ATOM     28  C   UNL     1     -36.939  22.838   6.798  1.00  0.00     0.033 C 
ATOM     29  C   UNL     1     -38.053  23.442   7.659  1.00  0.00     0.118 C 
BRANCH  29  30
ATOM     30  O   UNL     1     -37.668  24.720   8.099  1.00  0.00    -0.393 OA
ATOM     31  H   UNL     1     -37.066  24.587   8.877  1.00  0.00     0.210 HD
ENDBRANCH  29  30
ENDBRANCH   1  11
TORSDOF 6
ENDMDL
MODEL 2
REMARK VINA RESULT:    61.799      2.895      9.302
REMARK INTER + INTRA:          82.476
REMARK INTER:                  83.555
REMARK INTRA:                  -1.079
REMARK UNBOUND:                 0.807
REMARK SMILES CC[C@H](C=C[C@@H](C)[C@@H]1CC[C@@H]2[C@@H]3CC=C4C[C@H](O)CC[C@]4(C)[C@H]3CC[C@@]21C)C(C)C
REMARK SMILES IDX 6 1 7 2 5 3 4 4 3 5 2 6 1 7 28 8 29 9 30 10 8 11 9 12 26 13
REMARK SMILES IDX 10 14 11 15 25 16 27 17 12 18 24 19 23 20 13 21 21 22 14 23
REMARK SMILES IDX 15 24 20 25 22 26 16 27 19 28 17 29 18 30
REMARK H PARENT 18 31
REMARK Flexibility Score: inf
ROOT
ATOM      1  C   UNL     1     -37.490  24.950   2.230  1.00  0.00     0.012 C 
ATOM      2  C   UNL     1     -36.236  24.079   2.085  1.00  0.00     0.012 C 
ENDROOT
BRANCH   1   3
ATOM      3  C   UNL     1     -38.625  24.129   2.821  1.00  0.00    -0.028 C 
ATOM      4  C   UNL     1     -38.993  24.024   4.121  1.00  0.00    -0.027 C 
BRANCH   4   5
ATOM      5  C   UNL     1     -38.445  24.707   5.375  1.00  0.00     0.014 C 
BRANCH   5   6
ATOM      6  C   UNL     1     -39.495  25.525   6.167  1.00  0.00     0.004 C 
ATOM      7  C   UNL     1     -40.082  26.687   5.362  1.00  0.00     0.004 C 
ENDBRANCH   5   6
BRANCH   5   8
ATOM      8  C   UNL     1     -37.486  23.822   6.234  1.00  0.00    -0.011 C 
ATOM      9  C   UNL     1     -38.177  23.319   7.512  1.00  0.00     0.008 C 
ATOM     10  C   UNL     1     -36.151  24.481   6.589  1.00  0.00     0.008 C 
ENDBRANCH   5   8
ENDBRANCH   4   5
ENDBRANCH   1   3
BRANCH   1  11
ATOM     11  C   UNL     1     -37.843  25.726   0.906  1.00  0.00     0.002 C 
ATOM     12  C   UNL     1     -37.515  24.939  -0.374  1.00  0.00     0.005 C 
ATOM     13  C   UNL     1     -37.350  27.189   0.632  1.00  0.00    -0.026 C 
ATOM     14  C   UNL     1     -37.306  25.965  -1.485  1.00  0.00     0.005 C 
ATOM     15  C   UNL     1     -37.646  27.336  -0.881  1.00  0.00    -0.001 C 
ATOM     16  C   UNL     1     -35.826  27.361   0.885  1.00  0.00     0.007 C 
ATOM     17  C   UNL     1     -38.170  28.237   1.433  1.00  0.00     0.012 C 
ATOM     18  C   UNL     1     -36.972  28.565  -1.577  1.00  0.00     0.000 C 
ATOM     19  C   UNL     1     -35.270  28.661   0.302  1.00  0.00     0.005 C 
ATOM     20  C   UNL     1     -35.471  28.725  -1.232  1.00  0.00     0.003 C 
ATOM     21  C   UNL     1     -37.167  28.514  -3.101  1.00  0.00     0.031 C 
ATOM     22  C   UNL     1     -34.849  30.023  -1.892  1.00  0.00    -0.008 C 
ATOM     23  C   UNL     1     -36.435  29.608  -3.820  1.00  0.00    -0.027 C 
ATOM     24  C   UNL     1     -35.306  30.179  -3.351  1.00  0.00    -0.065 C 
ATOM     25  C   UNL     1     -33.292  29.896  -1.870  1.00  0.00     0.014 C 
ATOM     26  C   UNL     1     -35.268  31.307  -1.122  1.00  0.00     0.016 C 
ATOM     27  C   UNL     1     -34.567  31.155  -4.249  1.00  0.00     0.063 C 
ATOM     28  C   UNL     1     -32.568  30.951  -2.724  1.00  0.00     0.033 C 
ATOM     29  C   UNL     1     -33.050  30.929  -4.178  1.00  0.00     0.118 C 
BRANCH  29  30
ATOM     30  O   UNL     1     -32.710  29.700  -4.770  1.00  0.00    -0.393 OA
ATOM     31  H   UNL     1     -33.547  29.322  -5.148  1.00  0.00     0.210 HD
ENDBRANCH  29  30
ENDBRANCH   1  11
TORSDOF 6
ENDMDL
MODEL 3
REMARK VINA RESULT:    62.025      0.957      1.724
REMARK INTER + INTRA:          82.775
REMARK INTER:                  82.756
REMARK INTRA:                   0.020
REMARK UNBOUND:                 0.807
REMARK SMILES CC[C@H](C=C[C@@H](C)[C@@H]1CC[C@@H]2[C@@H]3CC=C4C[C@H](O)CC[C@]4(C)[C@H]3CC[C@@]21C)C(C)C
REMARK SMILES IDX 6 1 7 2 5 3 4 4 3 5 2 6 1 7 28 8 29 9 30 10 8 11 9 12 26 13
REMARK SMILES IDX 10 14 11 15 25 16 27 17 12 18 24 19 23 20 13 21 21 22 14 23
REMARK SMILES IDX 15 24 20 25 22 26 16 27 19 28 17 29 18 30
REMARK H PARENT 18 31
REMARK Flexibility Score: inf
ROOT
ATOM      1  C   UNL     1     -36.289  27.531  -1.480  1.00  0.00     0.012 C 
ATOM      2  C   UNL     1     -36.209  26.096  -2.014  1.00  0.00     0.012 C 
ENDROOT
BRANCH   1   3
ATOM      3  C   UNL     1     -34.903  28.015  -1.084  1.00  0.00    -0.028 C 
ATOM      4  C   UNL     1     -34.161  28.990  -1.662  1.00  0.00    -0.027 C 
BRANCH   4   5
ATOM      5  C   UNL     1     -34.476  29.931  -2.827  1.00  0.00     0.014 C 
BRANCH   5   6
ATOM      6  C   UNL     1     -35.939  30.438  -2.860  1.00  0.00     0.004 C 
ATOM      7  C   UNL     1     -36.414  30.989  -1.513  1.00  0.00     0.004 C 
ENDBRANCH   5   6
BRANCH   5   8
ATOM      8  C   UNL     1     -33.379  31.007  -3.111  1.00  0.00    -0.011 C 
ATOM      9  C   UNL     1     -33.001  31.047  -4.601  1.00  0.00     0.008 C 
ATOM     10  C   UNL     1     -32.116  30.876  -2.256  1.00  0.00     0.008 C 
ENDBRANCH   5   8
ENDBRANCH   4   5
ENDBRANCH   1   3
BRANCH   1  11
ATOM     11  C   UNL     1     -37.399  27.704  -0.376  1.00  0.00     0.002 C 
ATOM     12  C   UNL     1     -37.016  28.702   0.730  1.00  0.00     0.005 C 
ATOM     13  C   UNL     1     -38.040  26.482   0.370  1.00  0.00    -0.026 C 
ATOM     14  C   UNL     1     -37.817  28.318   1.972  1.00  0.00     0.005 C 
ATOM     15  C   UNL     1     -38.762  27.185   1.547  1.00  0.00    -0.001 C 
ATOM     16  C   UNL     1     -36.973  25.498   0.927  1.00  0.00     0.007 C 
ATOM     17  C   UNL     1     -39.075  25.739  -0.516  1.00  0.00     0.012 C 
ATOM     18  C   UNL     1     -39.241  26.238   2.697  1.00  0.00     0.000 C 
ATOM     19  C   UNL     1     -37.549  24.506   1.937  1.00  0.00     0.005 C 
ATOM     20  C   UNL     1     -38.158  25.233   3.162  1.00  0.00     0.003 C 
ATOM     21  C   UNL     1     -39.768  27.044   3.895  1.00  0.00     0.031 C 
ATOM     22  C   UNL     1     -38.706  24.244   4.269  1.00  0.00    -0.008 C 
ATOM     23  C   UNL     1     -40.125  26.181   5.068  1.00  0.00    -0.027 C 
ATOM     24  C   UNL     1     -39.537  24.994   5.323  1.00  0.00    -0.065 C 
ATOM     25  C   UNL     1     -37.490  23.570   4.983  1.00  0.00     0.014 C 
ATOM     26  C   UNL     1     -39.609  23.141   3.648  1.00  0.00     0.016 C 
ATOM     27  C   UNL     1     -39.863  24.295   6.630  1.00  0.00     0.063 C 
ATOM     28  C   UNL     1     -37.866  22.800   6.261  1.00  0.00     0.033 C 
ATOM     29  C   UNL     1     -38.601  23.694   7.265  1.00  0.00     0.118 C 
BRANCH  29  30
ATOM     30  O   UNL     1     -37.742  24.715   7.705  1.00  0.00    -0.393 OA
ATOM     31  H   UNL     1     -37.973  25.530   7.187  1.00  0.00     0.210 HD
ENDBRANCH  29  30
ENDBRANCH   1  11
TORSDOF 6
ENDMDL
