MODEL 1
REMARK VINA RESULT:    -5.182      0.000      0.000
REMARK INTER + INTRA:         -11.456
REMARK INTER:                  -9.727
REMARK INTRA:                  -1.729
REMARK UNBOUND:                -1.729
REMARK SMILES CCCCCCCCC=CCCCCCCCC(=O)[O-]
REMARK SMILES IDX 10 1 9 2 11 3 12 4 13 5 14 6 15 7 16 8 17 9 18 10 19 11
REMARK SMILES IDX 20 12 8 13 7 14 6 15 5 16 4 17 3 18 2 19 1 20
REMARK H PARENT
REMARK Flexibility Score: inf
ROOT
ATOM      1  C   UNL     1       1.865 -35.952  19.646  1.00  0.00    -0.031 C 
ATOM      2  C   UNL     1       1.909 -36.995  18.803  1.00  0.00    -0.031 C 
ENDROOT
BRANCH   1   3
ATOM      3  C   UNL     1       0.801 -35.843  20.703  1.00  0.00     0.027 C 
BRANCH   3   4
ATOM      4  C   UNL     1       0.396 -37.232  21.217  1.00  0.00     0.004 C 
BRANCH   4   5
ATOM      5  C   UNL     1      -1.129 -37.405  21.334  1.00  0.00     0.000 C 
BRANCH   5   6
ATOM      6  C   UNL     1      -1.947 -36.104  21.204  1.00  0.00     0.000 C 
BRANCH   6   7
ATOM      7  C   UNL     1      -3.236 -36.056  22.043  1.00  0.00     0.000 C 
BRANCH   7   8
ATOM      8  C   UNL     1      -3.263 -34.876  23.030  1.00  0.00     0.006 C 
BRANCH   8   9
ATOM      9  C   UNL     1      -1.987 -34.028  22.952  1.00  0.00     0.053 C 
BRANCH   9  10
ATOM     10  C   UNL     1      -2.103 -32.777  23.767  1.00  0.00     0.041 C 
ATOM     11  O   UNL     1      -3.203 -32.172  23.848  1.00  0.00    -0.550 OA
ATOM     12  O   UNL     1      -0.985 -32.260  24.412  1.00  0.00    -0.550 OA
ENDBRANCH   9  10
ENDBRANCH   8   9
ENDBRANCH   7   8
ENDBRANCH   6   7
ENDBRANCH   5   6
ENDBRANCH   4   5
ENDBRANCH   3   4
ENDBRANCH   1   3
BRANCH   2  13
ATOM     13  C   UNL     1       2.962 -37.103  17.735  1.00  0.00     0.027 C 
BRANCH  13  14
ATOM     14  C   UNL     1       4.214 -37.816  18.266  1.00  0.00     0.004 C 
BRANCH  14  15
ATOM     15  C   UNL     1       5.227 -36.847  18.893  1.00  0.00     0.000 C 
BRANCH  15  16
ATOM     16  C   UNL     1       5.870 -37.407  20.173  1.00  0.00     0.000 C 
BRANCH  16  17
ATOM     17  C   UNL     1       4.856 -37.436  21.327  1.00  0.00    -0.000 C 
BRANCH  17  18
ATOM     18  C   UNL     1       4.982 -36.219  22.257  1.00  0.00    -0.000 C 
BRANCH  18  19
ATOM     19  C   UNL     1       3.836 -36.132  23.276  1.00  0.00    -0.003 C 
ATOM     20  C   UNL     1       3.000 -34.875  23.055  1.00  0.00     0.004 C 
ENDBRANCH  18  19
ENDBRANCH  17  18
ENDBRANCH  16  17
ENDBRANCH  15  16
ENDBRANCH  14  15
ENDBRANCH  13  14
ENDBRANCH   2  13
TORSDOF 15
ENDMDL
MODEL 2
REMARK VINA RESULT:    -4.879     21.261     22.818
REMARK INTER + INTRA:         -10.886
REMARK INTER:                  -8.617
REMARK INTRA:                  -2.269
REMARK UNBOUND:                -1.729
REMARK SMILES CCCCCCCCC=CCCCCCCCC(=O)[O-]
REMARK SMILES IDX 10 1 9 2 11 3 12 4 13 5 14 6 15 7 16 8 17 9 18 10 19 11
REMARK SMILES IDX 20 12 8 13 7 14 6 15 5 16 4 17 3 18 2 19 1 20
REMARK H PARENT
REMARK Flexibility Score: inf
ROOT
ATOM      1  C   UNL     1      -9.999 -19.890  30.643  1.00  0.00    -0.031 C 
ATOM      2  C   UNL     1     -11.277 -19.535  30.848  1.00  0.00    -0.031 C 
ENDROOT
BRANCH   1   3
ATOM      3  C   UNL     1      -9.054 -19.007  29.875  1.00  0.00     0.027 C 
BRANCH   3   4
ATOM      4  C   UNL     1      -7.798 -18.699  30.702  1.00  0.00     0.004 C 
BRANCH   4   5
ATOM      5  C   UNL     1      -8.116 -17.990  32.031  1.00  0.00     0.000 C 
BRANCH   5   6
ATOM      6  C   UNL     1      -7.034 -18.130  33.122  1.00  0.00     0.000 C 
BRANCH   6   7
ATOM      7  C   UNL     1      -5.799 -18.953  32.716  1.00  0.00     0.000 C 
BRANCH   7   8
ATOM      8  C   UNL     1      -4.525 -18.530  33.467  1.00  0.00     0.006 C 
BRANCH   8   9
ATOM      9  C   UNL     1      -4.538 -18.989  34.931  1.00  0.00     0.053 C 
BRANCH   9  10
ATOM     10  C   UNL     1      -3.580 -20.116  35.167  1.00  0.00     0.041 C 
ATOM     11  O   UNL     1      -2.412 -20.063  34.700  1.00  0.00    -0.550 OA
ATOM     12  O   UNL     1      -3.988 -21.241  35.874  1.00  0.00    -0.550 OA
ENDBRANCH   9  10
ENDBRANCH   8   9
ENDBRANCH   7   8
ENDBRANCH   6   7
ENDBRANCH   5   6
ENDBRANCH   4   5
ENDBRANCH   3   4
ENDBRANCH   1   3
BRANCH   2  13
ATOM     13  C   UNL     1     -12.229 -20.420  31.604  1.00  0.00     0.027 C 
BRANCH  13  14
ATOM     14  C   UNL     1     -12.873 -19.663  32.775  1.00  0.00     0.004 C 
BRANCH  14  15
ATOM     15  C   UNL     1     -12.033 -19.732  34.058  1.00  0.00     0.000 C 
BRANCH  15  16
ATOM     16  C   UNL     1     -12.023 -21.135  34.686  1.00  0.00     0.000 C 
BRANCH  16  17
ATOM     17  C   UNL     1     -10.586 -21.661  34.828  1.00  0.00    -0.000 C 
BRANCH  17  18
ATOM     18  C   UNL     1      -9.567 -20.819  34.043  1.00  0.00    -0.000 C 
BRANCH  18  19
ATOM     19  C   UNL     1      -8.351 -21.638  33.585  1.00  0.00    -0.003 C 
ATOM     20  C   UNL     1      -7.262 -21.648  34.654  1.00  0.00     0.004 C 
ENDBRANCH  18  19
ENDBRANCH  17  18
ENDBRANCH  16  17
ENDBRANCH  15  16
ENDBRANCH  14  15
ENDBRANCH  13  14
ENDBRANCH   2  13
TORSDOF 15
ENDMDL
MODEL 3
REMARK VINA RESULT:    -4.808     21.184     22.974
REMARK INTER + INTRA:         -10.753
REMARK INTER:                  -9.329
REMARK INTRA:                  -1.424
REMARK UNBOUND:                -1.729
REMARK SMILES CCCCCCCCC=CCCCCCCCC(=O)[O-]
REMARK SMILES IDX 10 1 9 2 11 3 12 4 13 5 14 6 15 7 16 8 17 9 18 10 19 11
REMARK SMILES IDX 20 12 8 13 7 14 6 15 5 16 4 17 3 18 2 19 1 20
REMARK H PARENT
REMARK Flexibility Score: inf
ROOT
ATOM      1  C   UNL     1      -9.289 -18.873  30.533  1.00  0.00    -0.031 C 
ATOM      2  C   UNL     1      -9.936 -19.890  31.124  1.00  0.00    -0.031 C 
ENDROOT
BRANCH   1   3
ATOM      3  C   UNL     1      -7.837 -18.601  30.813  1.00  0.00     0.027 C 
BRANCH   3   4
ATOM      4  C   UNL     1      -7.612 -18.308  32.303  1.00  0.00     0.004 C 
BRANCH   4   5
ATOM      5  C   UNL     1      -6.674 -19.324  32.978  1.00  0.00     0.000 C 
BRANCH   5   6
ATOM      6  C   UNL     1      -7.382 -20.440  33.774  1.00  0.00     0.000 C 
BRANCH   6   7
ATOM      7  C   UNL     1      -6.455 -21.319  34.631  1.00  0.00     0.000 C 
BRANCH   7   8
ATOM      8  C   UNL     1      -5.411 -20.503  35.414  1.00  0.00     0.006 C 
BRANCH   8   9
ATOM      9  C   UNL     1      -4.004 -21.103  35.297  1.00  0.00     0.053 C 
BRANCH   9  10
ATOM     10  C   UNL     1      -3.013 -20.097  34.796  1.00  0.00     0.041 C 
ATOM     11  O   UNL     1      -1.779 -20.324  34.887  1.00  0.00    -0.550 OA
ATOM     12  O   UNL     1      -3.454 -18.894  34.258  1.00  0.00    -0.550 OA
ENDBRANCH   9  10
ENDBRANCH   8   9
ENDBRANCH   7   8
ENDBRANCH   6   7
ENDBRANCH   5   6
ENDBRANCH   4   5
ENDBRANCH   3   4
ENDBRANCH   1   3
BRANCH   2  13
ATOM     13  C   UNL     1     -11.391 -20.159  30.858  1.00  0.00     0.027 C 
BRANCH  13  14
ATOM     14  C   UNL     1     -12.199 -20.161  32.165  1.00  0.00     0.004 C 
BRANCH  14  15
ATOM     15  C   UNL     1     -11.807 -19.012  33.105  1.00  0.00     0.000 C 
BRANCH  15  16
ATOM     16  C   UNL     1     -11.375 -19.504  34.495  1.00  0.00     0.000 C 
BRANCH  16  17
ATOM     17  C   UNL     1     -12.517 -20.266  35.186  1.00  0.00    -0.000 C 
BRANCH  17  18
ATOM     18  C   UNL     1     -12.371 -21.791  35.063  1.00  0.00    -0.000 C 
BRANCH  18  19
ATOM     19  C   UNL     1     -11.381 -22.375  36.082  1.00  0.00    -0.003 C 
ATOM     20  C   UNL     1     -10.105 -22.854  35.396  1.00  0.00     0.004 C 
ENDBRANCH  18  19
ENDBRANCH  17  18
ENDBRANCH  16  17
ENDBRANCH  15  16
ENDBRANCH  14  15
ENDBRANCH  13  14
ENDBRANCH   2  13
TORSDOF 15
ENDMDL
MODEL 4
REMARK VINA RESULT:    -4.759      2.781      7.444
REMARK INTER + INTRA:         -10.661
REMARK INTER:                  -9.170
REMARK INTRA:                  -1.491
REMARK UNBOUND:                -1.729
REMARK SMILES CCCCCCCCC=CCCCCCCCC(=O)[O-]
REMARK SMILES IDX 10 1 9 2 11 3 12 4 13 5 14 6 15 7 16 8 17 9 18 10 19 11
REMARK SMILES IDX 20 12 8 13 7 14 6 15 5 16 4 17 3 18 2 19 1 20
REMARK H PARENT
REMARK Flexibility Score: inf
ROOT
ATOM      1  C   UNL     1       0.391 -35.998  20.311  1.00  0.00    -0.031 C 
ATOM      2  C   UNL     1      -0.276 -35.845  21.466  1.00  0.00    -0.031 C 
ENDROOT
BRANCH   1   3
ATOM      3  C   UNL     1       1.486 -37.019  20.168  1.00  0.00     0.027 C 
BRANCH   3   4
ATOM      4  C   UNL     1       1.644 -37.451  18.703  1.00  0.00     0.004 C 
BRANCH   4   5
ATOM      5  C   UNL     1       2.876 -36.827  18.025  1.00  0.00     0.000 C 
BRANCH   5   6
ATOM      6  C   UNL     1       3.931 -36.247  18.990  1.00  0.00     0.000 C 
BRANCH   6   7
ATOM      7  C   UNL     1       5.152 -37.150  19.242  1.00  0.00     0.000 C 
BRANCH   7   8
ATOM      8  C   UNL     1       5.328 -37.518  20.726  1.00  0.00     0.006 C 
BRANCH   8   9
ATOM      9  C   UNL     1       5.105 -36.313  21.650  1.00  0.00     0.053 C 
BRANCH   9  10
ATOM     10  C   UNL     1       4.003 -36.565  22.632  1.00  0.00     0.041 C 
ATOM     11  O   UNL     1       3.432 -35.601  23.205  1.00  0.00    -0.550 OA
ATOM     12  O   UNL     1       3.628 -37.867  22.940  1.00  0.00    -0.550 OA
ENDBRANCH   9  10
ENDBRANCH   8   9
ENDBRANCH   7   8
ENDBRANCH   6   7
ENDBRANCH   5   6
ENDBRANCH   4   5
ENDBRANCH   3   4
ENDBRANCH   1   3
BRANCH   2  13
ATOM     13  C   UNL     1      -1.362 -34.817  21.618  1.00  0.00     0.027 C 
BRANCH  13  14
ATOM     14  C   UNL     1      -2.411 -35.271  22.644  1.00  0.00     0.004 C 
BRANCH  14  15
ATOM     15  C   UNL     1      -3.554 -36.074  22.006  1.00  0.00     0.000 C 
BRANCH  15  16
ATOM     16  C   UNL     1      -3.187 -37.549  21.777  1.00  0.00     0.000 C 
BRANCH  16  17
ATOM     17  C   UNL     1      -3.276 -37.910  20.286  1.00  0.00    -0.000 C 
BRANCH  17  18
ATOM     18  C   UNL     1      -3.758 -36.735  19.420  1.00  0.00    -0.000 C 
BRANCH  18  19
ATOM     19  C   UNL     1      -4.607 -37.191  18.225  1.00  0.00    -0.003 C 
ATOM     20  C   UNL     1      -5.054 -36.000  17.382  1.00  0.00     0.004 C 
ENDBRANCH  18  19
ENDBRANCH  17  18
ENDBRANCH  16  17
ENDBRANCH  15  16
ENDBRANCH  14  15
ENDBRANCH  13  14
ENDBRANCH   2  13
TORSDOF 15
ENDMDL
MODEL 5
REMARK VINA RESULT:    -4.685     20.887     22.903
REMARK INTER + INTRA:         -10.522
REMARK INTER:                  -8.397
REMARK INTRA:                  -2.124
REMARK UNBOUND:                -1.729
REMARK SMILES CCCCCCCCC=CCCCCCCCC(=O)[O-]
REMARK SMILES IDX 10 1 9 2 11 3 12 4 13 5 14 6 15 7 16 8 17 9 18 10 19 11
REMARK SMILES IDX 20 12 8 13 7 14 6 15 5 16 4 17 3 18 2 19 1 20
REMARK H PARENT
REMARK Flexibility Score: inf
ROOT
ATOM      1  C   UNL     1      -6.849 -21.502  34.143  1.00  0.00    -0.031 C 
ATOM      2  C   UNL     1      -8.088 -21.224  34.578  1.00  0.00    -0.031 C 
ENDROOT
BRANCH   1   3
ATOM      3  C   UNL     1      -5.655 -20.731  34.632  1.00  0.00     0.027 C 
BRANCH   3   4
ATOM      4  C   UNL     1      -5.762 -19.250  34.242  1.00  0.00     0.004 C 
BRANCH   4   5
ATOM      5  C   UNL     1      -5.896 -19.040  32.723  1.00  0.00     0.000 C 
BRANCH   5   6
ATOM      6  C   UNL     1      -6.987 -18.036  32.296  1.00  0.00     0.000 C 
BRANCH   6   7
ATOM      7  C   UNL     1      -8.275 -18.668  31.741  1.00  0.00     0.000 C 
BRANCH   7   8
ATOM      8  C   UNL     1      -8.313 -18.698  30.203  1.00  0.00     0.006 C 
BRANCH   8   9
ATOM      9  C   UNL     1      -9.747 -18.755  29.661  1.00  0.00     0.053 C 
BRANCH   9  10
ATOM     10  C   UNL     1      -9.853 -19.654  28.468  1.00  0.00     0.041 C 
ATOM     11  O   UNL     1     -10.186 -20.859  28.609  1.00  0.00    -0.550 OA
ATOM     12  O   UNL     1      -9.550 -19.168  27.201  1.00  0.00    -0.550 OA
ENDBRANCH   9  10
ENDBRANCH   8   9
ENDBRANCH   7   8
ENDBRANCH   6   7
ENDBRANCH   5   6
ENDBRANCH   4   5
ENDBRANCH   3   4
ENDBRANCH   1   3
BRANCH   2  13
ATOM     13  C   UNL     1      -9.287 -21.983  34.082  1.00  0.00     0.027 C 
BRANCH  13  14
ATOM     14  C   UNL     1     -10.023 -22.670  35.243  1.00  0.00     0.004 C 
BRANCH  14  15
ATOM     15  C   UNL     1     -11.531 -22.379  35.242  1.00  0.00     0.000 C 
BRANCH  15  16
ATOM     16  C   UNL     1     -11.882 -21.065  35.957  1.00  0.00     0.000 C 
BRANCH  16  17
ATOM     17  C   UNL     1     -12.600 -20.097  35.003  1.00  0.00    -0.000 C 
BRANCH  17  18
ATOM     18  C   UNL     1     -11.662 -19.018  34.439  1.00  0.00    -0.000 C 
BRANCH  18  19
ATOM     19  C   UNL     1     -11.705 -18.939  32.906  1.00  0.00    -0.003 C 
ATOM     20  C   UNL     1     -12.311 -20.206  32.308  1.00  0.00     0.004 C 
ENDBRANCH  18  19
ENDBRANCH  17  18
ENDBRANCH  16  17
ENDBRANCH  15  16
ENDBRANCH  14  15
ENDBRANCH  13  14
ENDBRANCH   2  13
TORSDOF 15
ENDMDL
MODEL 6
REMARK VINA RESULT:    -4.650     21.349     23.181
REMARK INTER + INTRA:         -10.457
REMARK INTER:                  -8.385
REMARK INTRA:                  -2.072
REMARK UNBOUND:                -1.729
REMARK SMILES CCCCCCCCC=CCCCCCCCC(=O)[O-]
REMARK SMILES IDX 10 1 9 2 11 3 12 4 13 5 14 6 15 7 16 8 17 9 18 10 19 11
REMARK SMILES IDX 20 12 8 13 7 14 6 15 5 16 4 17 3 18 2 19 1 20
REMARK H PARENT
REMARK Flexibility Score: inf
ROOT
ATOM      1  C   UNL     1      -9.157 -21.630  33.802  1.00  0.00    -0.031 C 
ATOM      2  C   UNL     1      -9.499 -22.063  35.025  1.00  0.00    -0.031 C 
ENDROOT
BRANCH   1   3
ATOM      3  C   UNL     1      -7.880 -20.870  33.569  1.00  0.00     0.027 C 
BRANCH   3   4
ATOM      4  C   UNL     1      -8.172 -19.407  33.206  1.00  0.00     0.004 C 
BRANCH   4   5
ATOM      5  C   UNL     1      -6.983 -18.711  32.522  1.00  0.00     0.000 C 
BRANCH   5   6
ATOM      6  C   UNL     1      -5.611 -19.377  32.757  1.00  0.00     0.000 C 
BRANCH   6   7
ATOM      7  C   UNL     1      -4.525 -18.451  33.332  1.00  0.00     0.000 C 
BRANCH   7   8
ATOM      8  C   UNL     1      -4.563 -18.367  34.868  1.00  0.00     0.006 C 
BRANCH   8   9
ATOM      9  C   UNL     1      -5.209 -19.607  35.499  1.00  0.00     0.053 C 
BRANCH   9  10
ATOM     10  C   UNL     1      -4.232 -20.734  35.631  1.00  0.00     0.041 C 
ATOM     11  O   UNL     1      -4.640 -21.924  35.679  1.00  0.00    -0.550 OA
ATOM     12  O   UNL     1      -2.872 -20.468  35.736  1.00  0.00    -0.550 OA
ENDBRANCH   9  10
ENDBRANCH   8   9
ENDBRANCH   7   8
ENDBRANCH   6   7
ENDBRANCH   5   6
ENDBRANCH   4   5
ENDBRANCH   3   4
ENDBRANCH   1   3
BRANCH   2  13
ATOM     13  C   UNL     1     -10.780 -22.811  35.266  1.00  0.00     0.027 C 
BRANCH  13  14
ATOM     14  C   UNL     1     -11.877 -21.873  35.791  1.00  0.00     0.004 C 
BRANCH  14  15
ATOM     15  C   UNL     1     -12.552 -21.066  34.671  1.00  0.00     0.000 C 
BRANCH  15  16
ATOM     16  C   UNL     1     -12.073 -19.606  34.620  1.00  0.00     0.000 C 
BRANCH  16  17
ATOM     17  C   UNL     1     -11.932 -19.126  33.167  1.00  0.00    -0.000 C 
BRANCH  17  18
ATOM     18  C   UNL     1     -12.184 -20.247  32.146  1.00  0.00    -0.000 C 
BRANCH  18  19
ATOM     19  C   UNL     1     -11.179 -20.227  30.985  1.00  0.00    -0.003 C 
ATOM     20  C   UNL     1     -10.820 -18.797  30.595  1.00  0.00     0.004 C 
ENDBRANCH  18  19
ENDBRANCH  17  18
ENDBRANCH  16  17
ENDBRANCH  15  16
ENDBRANCH  14  15
ENDBRANCH  13  14
ENDBRANCH   2  13
TORSDOF 15
ENDMDL
MODEL 7
REMARK VINA RESULT:    -4.640     21.075     23.111
REMARK INTER + INTRA:         -10.437
REMARK INTER:                  -8.637
REMARK INTRA:                  -1.800
REMARK UNBOUND:                -1.729
REMARK SMILES CCCCCCCCC=CCCCCCCCC(=O)[O-]
REMARK SMILES IDX 10 1 9 2 11 3 12 4 13 5 14 6 15 7 16 8 17 9 18 10 19 11
REMARK SMILES IDX 20 12 8 13 7 14 6 15 5 16 4 17 3 18 2 19 1 20
REMARK H PARENT
REMARK Flexibility Score: inf
ROOT
ATOM      1  C   UNL     1      -9.747 -21.142  33.853  1.00  0.00    -0.031 C 
ATOM      2  C   UNL     1     -10.789 -21.272  34.687  1.00  0.00    -0.031 C 
ENDROOT
BRANCH   1   3
ATOM      3  C   UNL     1      -8.451 -21.864  34.099  1.00  0.00     0.027 C 
BRANCH   3   4
ATOM      4  C   UNL     1      -7.254 -20.921  33.914  1.00  0.00     0.004 C 
BRANCH   4   5
ATOM      5  C   UNL     1      -7.635 -19.599  33.224  1.00  0.00     0.000 C 
BRANCH   5   6
ATOM      6  C   UNL     1      -6.583 -18.476  33.335  1.00  0.00     0.000 C 
BRANCH   6   7
ATOM      7  C   UNL     1      -6.328 -17.958  34.761  1.00  0.00     0.000 C 
BRANCH   7   8
ATOM      8  C   UNL     1      -4.835 -17.944  35.134  1.00  0.00     0.006 C 
BRANCH   8   9
ATOM      9  C   UNL     1      -3.998 -18.827  34.199  1.00  0.00     0.053 C 
BRANCH   9  10
ATOM     10  C   UNL     1      -3.460 -20.031  34.909  1.00  0.00     0.041 C 
ATOM     11  O   UNL     1      -2.297 -20.445  34.661  1.00  0.00    -0.550 OA
ATOM     12  O   UNL     1      -4.255 -20.716  35.820  1.00  0.00    -0.550 OA
ENDBRANCH   9  10
ENDBRANCH   8   9
ENDBRANCH   7   8
ENDBRANCH   6   7
ENDBRANCH   5   6
ENDBRANCH   4   5
ENDBRANCH   3   4
ENDBRANCH   1   3
BRANCH   2  13
ATOM     13  C   UNL     1     -12.083 -20.542  34.453  1.00  0.00     0.027 C 
BRANCH  13  14
ATOM     14  C   UNL     1     -12.238 -20.157  32.975  1.00  0.00     0.004 C 
BRANCH  14  15
ATOM     15  C   UNL     1     -12.273 -18.637  32.759  1.00  0.00     0.000 C 
BRANCH  15  16
ATOM     16  C   UNL     1     -10.910 -18.066  32.335  1.00  0.00     0.000 C 
BRANCH  16  17
ATOM     17  C   UNL     1     -10.765 -18.074  30.805  1.00  0.00    -0.000 C 
BRANCH  17  18
ATOM     18  C   UNL     1      -9.994 -19.300  30.289  1.00  0.00    -0.000 C 
BRANCH  18  19
ATOM     19  C   UNL     1      -9.023 -18.952  29.152  1.00  0.00    -0.003 C 
ATOM     20  C   UNL     1      -9.708 -19.055  27.793  1.00  0.00     0.004 C 
ENDBRANCH  18  19
ENDBRANCH  17  18
ENDBRANCH  16  17
ENDBRANCH  15  16
ENDBRANCH  14  15
ENDBRANCH  13  14
ENDBRANCH   2  13
TORSDOF 15
ENDMDL
MODEL 8
REMARK VINA RESULT:    -4.590     21.213     22.428
REMARK INTER + INTRA:         -10.344
REMARK INTER:                  -8.097
REMARK INTRA:                  -2.247
REMARK UNBOUND:                -1.729
REMARK SMILES CCCCCCCCC=CCCCCCCCC(=O)[O-]
REMARK SMILES IDX 10 1 9 2 11 3 12 4 13 5 14 6 15 7 16 8 17 9 18 10 19 11
REMARK SMILES IDX 20 12 8 13 7 14 6 15 5 16 4 17 3 18 2 19 1 20
REMARK H PARENT
REMARK Flexibility Score: inf
ROOT
ATOM      1  C   UNL     1      -9.223 -22.031  34.988  1.00  0.00    -0.031 C 
ATOM      2  C   UNL     1      -9.048 -21.579  33.736  1.00  0.00    -0.031 C 
ENDROOT
BRANCH   1   3
ATOM      3  C   UNL     1     -10.397 -22.897  35.351  1.00  0.00     0.027 C 
BRANCH   3   4
ATOM      4  C   UNL     1     -11.476 -22.080  36.077  1.00  0.00     0.004 C 
BRANCH   4   5
ATOM      5  C   UNL     1     -12.542 -21.515  35.122  1.00  0.00     0.000 C 
BRANCH   5   6
ATOM      6  C   UNL     1     -12.259 -20.096  34.589  1.00  0.00     0.000 C 
BRANCH   6   7
ATOM      7  C   UNL     1     -12.999 -19.725  33.292  1.00  0.00     0.000 C 
BRANCH   7   8
ATOM      8  C   UNL     1     -12.236 -20.151  32.025  1.00  0.00     0.006 C 
BRANCH   8   9
ATOM      9  C   UNL     1     -11.167 -19.126  31.623  1.00  0.00     0.053 C 
BRANCH   9  10
ATOM     10  C   UNL     1     -10.440 -19.542  30.381  1.00  0.00     0.041 C 
ATOM     11  O   UNL     1     -10.209 -18.703  29.471  1.00  0.00    -0.550 OA
ATOM     12  O   UNL     1     -10.048 -20.865  30.214  1.00  0.00    -0.550 OA
ENDBRANCH   9  10
ENDBRANCH   8   9
ENDBRANCH   7   8
ENDBRANCH   6   7
ENDBRANCH   5   6
ENDBRANCH   4   5
ENDBRANCH   3   4
ENDBRANCH   1   3
BRANCH   2  13
ATOM     13  C   UNL     1      -7.883 -20.703  33.370  1.00  0.00     0.027 C 
BRANCH  13  14
ATOM     14  C   UNL     1      -8.194 -19.225  33.652  1.00  0.00     0.004 C 
BRANCH  14  15
ATOM     15  C   UNL     1      -6.936 -18.345  33.657  1.00  0.00     0.000 C 
BRANCH  15  16
ATOM     16  C   UNL     1      -5.699 -19.076  33.108  1.00  0.00     0.000 C 
BRANCH  16  17
ATOM     17  C   UNL     1      -4.551 -19.050  34.128  1.00  0.00    -0.000 C 
BRANCH  17  18
ATOM     18  C   UNL     1      -4.251 -20.438  34.718  1.00  0.00    -0.000 C 
BRANCH  18  19
ATOM     19  C   UNL     1      -5.121 -20.762  35.940  1.00  0.00    -0.003 C 
ATOM     20  C   UNL     1      -5.634 -22.198  35.884  1.00  0.00     0.004 C 
ENDBRANCH  18  19
ENDBRANCH  17  18
ENDBRANCH  16  17
ENDBRANCH  15  16
ENDBRANCH  14  15
ENDBRANCH  13  14
ENDBRANCH   2  13
TORSDOF 15
ENDMDL
MODEL 9
REMARK VINA RESULT:    -4.586     20.778     22.165
REMARK INTER + INTRA:         -10.337
REMARK INTER:                  -8.483
REMARK INTRA:                  -1.854
REMARK UNBOUND:                -1.729
REMARK SMILES CCCCCCCCC=CCCCCCCCC(=O)[O-]
REMARK SMILES IDX 10 1 9 2 11 3 12 4 13 5 14 6 15 7 16 8 17 9 18 10 19 11
REMARK SMILES IDX 20 12 8 13 7 14 6 15 5 16 4 17 3 18 2 19 1 20
REMARK H PARENT
REMARK Flexibility Score: inf
ROOT
ATOM      1  C   UNL     1      -8.877 -20.921  33.360  1.00  0.00    -0.031 C 
ATOM      2  C   UNL     1      -8.453 -19.648  33.377  1.00  0.00    -0.031 C 
ENDROOT
BRANCH   1   3
ATOM      3  C   UNL     1      -9.997 -21.386  34.249  1.00  0.00     0.027 C 
BRANCH   3   4
ATOM      4  C   UNL     1     -10.987 -20.245  34.524  1.00  0.00     0.004 C 
BRANCH   4   5
ATOM      5  C   UNL     1     -12.080 -20.128  33.448  1.00  0.00     0.000 C 
BRANCH   5   6
ATOM      6  C   UNL     1     -12.257 -18.719  32.846  1.00  0.00     0.000 C 
BRANCH   6   7
ATOM      7  C   UNL     1     -11.131 -18.267  31.900  1.00  0.00     0.000 C 
BRANCH   7   8
ATOM      8  C   UNL     1     -10.942 -19.212  30.700  1.00  0.00     0.006 C 
BRANCH   8   9
ATOM      9  C   UNL     1     -10.371 -18.484  29.476  1.00  0.00     0.053 C 
BRANCH   9  10
ATOM     10  C   UNL     1     -10.003 -19.441  28.384  1.00  0.00     0.041 C 
ATOM     11  O   UNL     1     -10.062 -20.683  28.583  1.00  0.00    -0.550 OA
ATOM     12  O   UNL     1      -9.563 -18.961  27.156  1.00  0.00    -0.550 OA
ENDBRANCH   9  10
ENDBRANCH   8   9
ENDBRANCH   7   8
ENDBRANCH   6   7
ENDBRANCH   5   6
ENDBRANCH   4   5
ENDBRANCH   3   4
ENDBRANCH   1   3
BRANCH   2  13
ATOM     13  C   UNL     1      -7.325 -19.181  32.500  1.00  0.00     0.027 C 
BRANCH  13  14
ATOM     14  C   UNL     1      -6.323 -18.330  33.296  1.00  0.00     0.004 C 
BRANCH  14  15
ATOM     15  C   UNL     1      -4.868 -18.773  33.082  1.00  0.00     0.000 C 
BRANCH  15  16
ATOM     16  C   UNL     1      -3.961 -18.425  34.273  1.00  0.00     0.000 C 
BRANCH  16  17
ATOM     17  C   UNL     1      -3.078 -19.623  34.656  1.00  0.00    -0.000 C 
BRANCH  17  18
ATOM     18  C   UNL     1      -3.868 -20.938  34.743  1.00  0.00    -0.000 C 
BRANCH  18  19
ATOM     19  C   UNL     1      -4.894 -20.939  35.885  1.00  0.00    -0.003 C 
ATOM     20  C   UNL     1      -6.081 -21.839  35.558  1.00  0.00     0.004 C 
ENDBRANCH  18  19
ENDBRANCH  17  18
ENDBRANCH  16  17
ENDBRANCH  15  16
ENDBRANCH  14  15
ENDBRANCH  13  14
ENDBRANCH   2  13
TORSDOF 15
ENDMDL
