MODEL 1
REMARK VINA RESULT:    -5.799      0.000      0.000
REMARK INTER + INTRA:          -7.098
REMARK INTER:                  -6.816
REMARK INTRA:                  -0.282
REMARK UNBOUND:                -0.282
REMARK SMILES O=c1cc(-c2ccc(O)c(O)c2)oc2cc(O)cc(O)c12
REMARK SMILES IDX 4 1 3 2 2 3 1 4 21 5 19 6 18 7 16 8 15 9 14 10 13 11 5 12
REMARK SMILES IDX 6 13 7 14 8 15 12 16 10 17 9 18 11 20 20 22 17 24
REMARK H PARENT 9 19 11 21 20 23 17 25
REMARK Flexibility Score: inf
ROOT
ATOM      1  C   UNL     1       6.961  10.390  12.156  1.00  0.00     0.138 A 
ATOM      2  C   UNL     1       6.780  11.632  12.787  1.00  0.00     0.100 A 
ATOM      3  C   UNL     1       7.545  12.726  12.381  1.00  0.00     0.197 A 
ATOM      4  O   UNL     1       7.373  13.837  12.951  1.00  0.00    -0.289 OA
ATOM      5  C   UNL     1       8.485  12.571  11.343  1.00  0.00     0.107 A 
ATOM      6  C   UNL     1       9.301  13.627  10.872  1.00  0.00     0.134 A 
ATOM      7  C   UNL     1      10.210  13.391   9.830  1.00  0.00     0.093 A 
ATOM      8  C   UNL     1      10.318  12.125   9.251  1.00  0.00     0.123 A 
ATOM      9  C   UNL     1       9.514  11.077   9.713  1.00  0.00     0.094 A 
ATOM     10  C   UNL     1       8.603  11.291  10.750  1.00  0.00     0.146 A 
ATOM     11  O   UNL     1       7.852  10.279  11.172  1.00  0.00    -0.456 OA
ENDROOT
BRANCH   1  12
ATOM     12  C   UNL     1       6.175   9.192  12.546  1.00  0.00     0.021 A 
ATOM     13  C   UNL     1       4.770   9.244  12.503  1.00  0.00     0.016 A 
ATOM     14  C   UNL     1       4.007   8.129  12.858  1.00  0.00     0.051 A 
ATOM     15  C   UNL     1       4.635   6.942  13.253  1.00  0.00     0.157 A 
ATOM     16  C   UNL     1       6.799   7.990  12.932  1.00  0.00     0.062 A 
ATOM     17  C   UNL     1       6.032   6.870  13.287  1.00  0.00     0.158 A 
BRANCH  15  18
ATOM     18  O   UNL     1       3.876   5.827  13.609  1.00  0.00    -0.504 OA
ATOM     19  H   UNL     1       3.860   4.991  13.037  1.00  0.00     0.293 HD
ENDBRANCH  15  18
BRANCH  17  20
ATOM     20  O   UNL     1       6.652   5.682  13.670  1.00  0.00    -0.504 OA
ATOM     21  H   UNL     1       7.645   5.642  13.869  1.00  0.00     0.293 HD
ENDBRANCH  17  20
ENDBRANCH   1  12
BRANCH   6  22
ATOM     22  O   UNL     1       9.215  14.903  11.430  1.00  0.00    -0.507 OA
ATOM     23  H   UNL     1       9.772  15.676  11.082  1.00  0.00     0.293 HD
ENDBRANCH   6  22
BRANCH   8  24
ATOM     24  O   UNL     1      11.228  11.919   8.217  1.00  0.00    -0.508 OA
ATOM     25  H   UNL     1      11.821  11.096   8.188  1.00  0.00     0.293 HD
ENDBRANCH   8  24
TORSDOF 5
ENDMDL
MODEL 2
REMARK VINA RESULT:    -5.354      3.145      7.024
REMARK INTER + INTRA:          -6.574
REMARK INTER:                  -6.258
REMARK INTRA:                  -0.316
REMARK UNBOUND:                -0.282
REMARK SMILES O=c1cc(-c2ccc(O)c(O)c2)oc2cc(O)cc(O)c12
REMARK SMILES IDX 4 1 3 2 2 3 1 4 21 5 19 6 18 7 16 8 15 9 14 10 13 11 5 12
REMARK SMILES IDX 6 13 7 14 8 15 12 16 10 17 9 18 11 20 20 22 17 24
REMARK H PARENT 9 19 11 21 20 23 17 25
REMARK Flexibility Score: inf
ROOT
ATOM      1  C   UNL     1      10.538  11.139   8.245  1.00  0.00     0.138 A 
ATOM      2  C   UNL     1      10.616  12.533   8.405  1.00  0.00     0.100 A 
ATOM      3  C   UNL     1      10.031  13.129   9.522  1.00  0.00     0.197 A 
ATOM      4  O   UNL     1      10.108  14.380   9.659  1.00  0.00    -0.289 OA
ATOM      5  C   UNL     1       9.373  12.326  10.475  1.00  0.00     0.107 A 
ATOM      6  C   UNL     1       8.752  12.849  11.634  1.00  0.00     0.134 A 
ATOM      7  C   UNL     1       8.122  11.980  12.537  1.00  0.00     0.093 A 
ATOM      8  C   UNL     1       8.101  10.604  12.305  1.00  0.00     0.123 A 
ATOM      9  C   UNL     1       8.712  10.081  11.161  1.00  0.00     0.094 A 
ATOM     10  C   UNL     1       9.344  10.929  10.248  1.00  0.00     0.146 A 
ATOM     11  O   UNL     1       9.917  10.408   9.168  1.00  0.00    -0.456 OA
ENDROOT
BRANCH   1  12
ATOM     12  C   UNL     1      11.143  10.451   7.076  1.00  0.00     0.021 A 
ATOM     13  C   UNL     1      12.016  11.161   6.233  1.00  0.00     0.016 A 
ATOM     14  C   UNL     1      12.605  10.535   5.131  1.00  0.00     0.051 A 
ATOM     15  C   UNL     1      12.337   9.189   4.858  1.00  0.00     0.157 A 
ATOM     16  C   UNL     1      10.890   9.093   6.803  1.00  0.00     0.062 A 
ATOM     17  C   UNL     1      11.481   8.465   5.697  1.00  0.00     0.158 A 
BRANCH  15  18
ATOM     18  O   UNL     1      12.921   8.562   3.758  1.00  0.00    -0.504 OA
ATOM     19  H   UNL     1      12.949   9.005   2.848  1.00  0.00     0.293 HD
ENDBRANCH  15  18
BRANCH  17  20
ATOM     20  O   UNL     1      11.227   7.121   5.429  1.00  0.00    -0.504 OA
ATOM     21  H   UNL     1      10.375   6.824   4.967  1.00  0.00     0.293 HD
ENDBRANCH  17  20
ENDBRANCH   1  12
BRANCH   6  22
ATOM     22  O   UNL     1       8.757  14.220  11.893  1.00  0.00    -0.507 OA
ATOM     23  H   UNL     1       7.904  14.725  12.108  1.00  0.00     0.293 HD
ENDBRANCH   6  22
BRANCH   8  24
ATOM     24  O   UNL     1       7.468   9.763  13.219  1.00  0.00    -0.508 OA
ATOM     25  H   UNL     1       7.951   9.410  14.037  1.00  0.00     0.293 HD
ENDBRANCH   8  24
TORSDOF 5
ENDMDL
MODEL 3
REMARK VINA RESULT:    -5.339      1.503      3.090
REMARK INTER + INTRA:          -6.557
REMARK INTER:                  -6.263
REMARK INTRA:                  -0.294
REMARK UNBOUND:                -0.282
REMARK SMILES O=c1cc(-c2ccc(O)c(O)c2)oc2cc(O)cc(O)c12
REMARK SMILES IDX 4 1 3 2 2 3 1 4 21 5 19 6 18 7 16 8 15 9 14 10 13 11 5 12
REMARK SMILES IDX 6 13 7 14 8 15 12 16 10 17 9 18 11 20 20 22 17 24
REMARK H PARENT 9 19 11 21 20 23 17 25
REMARK Flexibility Score: inf
ROOT
ATOM      1  C   UNL     1       8.148   9.534  10.970  1.00  0.00     0.138 A 
ATOM      2  C   UNL     1       9.108   9.460   9.945  1.00  0.00     0.100 A 
ATOM      3  C   UNL     1       9.776  10.617   9.546  1.00  0.00     0.197 A 
ATOM      4  O   UNL     1      10.637  10.540   8.629  1.00  0.00    -0.289 OA
ATOM      5  C   UNL     1       9.483  11.843  10.177  1.00  0.00     0.107 A 
ATOM      6  C   UNL     1      10.112  13.062   9.831  1.00  0.00     0.134 A 
ATOM      7  C   UNL     1       9.767  14.240  10.512  1.00  0.00     0.093 A 
ATOM      8  C   UNL     1       8.808  14.221  11.526  1.00  0.00     0.123 A 
ATOM      9  C   UNL     1       8.182  13.019  11.872  1.00  0.00     0.094 A 
ATOM     10  C   UNL     1       8.511  11.835  11.205  1.00  0.00     0.146 A 
ATOM     11  O   UNL     1       7.900  10.706  11.550  1.00  0.00    -0.456 OA
ENDROOT
BRANCH   1  12
ATOM     12  C   UNL     1       7.406   8.335  11.435  1.00  0.00     0.021 A 
ATOM     13  C   UNL     1       6.733   8.376  12.670  1.00  0.00     0.016 A 
ATOM     14  C   UNL     1       6.022   7.265  13.128  1.00  0.00     0.051 A 
ATOM     15  C   UNL     1       5.964   6.097  12.358  1.00  0.00     0.157 A 
ATOM     16  C   UNL     1       7.332   7.162  10.661  1.00  0.00     0.062 A 
ATOM     17  C   UNL     1       6.616   6.047  11.121  1.00  0.00     0.158 A 
BRANCH  15  18
ATOM     18  O   UNL     1       5.256   4.986  12.813  1.00  0.00    -0.504 OA
ATOM     19  H   UNL     1       5.623   4.385  13.541  1.00  0.00     0.293 HD
ENDBRANCH  15  18
BRANCH  17  20
ATOM     20  O   UNL     1       6.546   4.886  10.352  1.00  0.00    -0.504 OA
ATOM     21  H   UNL     1       5.676   4.577   9.935  1.00  0.00     0.293 HD
ENDBRANCH  17  20
ENDBRANCH   1  12
BRANCH   6  22
ATOM     22  O   UNL     1      11.075  13.112   8.822  1.00  0.00    -0.507 OA
ATOM     23  H   UNL     1      10.933  13.653   7.977  1.00  0.00     0.293 HD
ENDBRANCH   6  22
BRANCH   8  24
ATOM     24  O   UNL     1       8.484  15.405  12.186  1.00  0.00    -0.508 OA
ATOM     25  H   UNL     1       8.021  16.169  11.707  1.00  0.00     0.293 HD
ENDBRANCH   8  24
TORSDOF 5
ENDMDL
MODEL 4
REMARK VINA RESULT:    -5.229      2.738      7.060
REMARK INTER + INTRA:          -6.428
REMARK INTER:                  -6.131
REMARK INTRA:                  -0.297
REMARK UNBOUND:                -0.282
REMARK SMILES O=c1cc(-c2ccc(O)c(O)c2)oc2cc(O)cc(O)c12
REMARK SMILES IDX 4 1 3 2 2 3 1 4 21 5 19 6 18 7 16 8 15 9 14 10 13 11 5 12
REMARK SMILES IDX 6 13 7 14 8 15 12 16 10 17 9 18 11 20 20 22 17 24
REMARK H PARENT 9 19 11 21 20 23 17 25
REMARK Flexibility Score: inf
ROOT
ATOM      1  C   UNL     1       9.965  10.485   8.997  1.00  0.00     0.138 A 
ATOM      2  C   UNL     1      10.073  11.753   9.594  1.00  0.00     0.100 A 
ATOM      3  C   UNL     1       9.381  12.016  10.776  1.00  0.00     0.197 A 
ATOM      4  O   UNL     1       9.486  13.155  11.305  1.00  0.00    -0.289 OA
ATOM      5  C   UNL     1       8.586  11.008  11.356  1.00  0.00     0.107 A 
ATOM      6  C   UNL     1       7.851  11.192  12.551  1.00  0.00     0.134 A 
ATOM      7  C   UNL     1       7.087  10.135  13.067  1.00  0.00     0.093 A 
ATOM      8  C   UNL     1       7.044   8.902  12.414  1.00  0.00     0.123 A 
ATOM      9  C   UNL     1       7.768   8.714  11.232  1.00  0.00     0.094 A 
ATOM     10  C   UNL     1       8.535   9.754  10.701  1.00  0.00     0.146 A 
ATOM     11  O   UNL     1       9.212   9.552   9.576  1.00  0.00    -0.456 OA
ENDROOT
BRANCH   1  12
ATOM     12  C   UNL     1      10.679  10.148   7.740  1.00  0.00     0.021 A 
ATOM     13  C   UNL     1      10.507   8.875   7.167  1.00  0.00     0.016 A 
ATOM     14  C   UNL     1      11.161   8.535   5.981  1.00  0.00     0.051 A 
ATOM     15  C   UNL     1      11.992   9.463   5.343  1.00  0.00     0.157 A 
ATOM     16  C   UNL     1      11.507  11.080   7.084  1.00  0.00     0.062 A 
ATOM     17  C   UNL     1      12.162  10.739   5.893  1.00  0.00     0.158 A 
BRANCH  15  18
ATOM     18  O   UNL     1      12.648   9.126   4.159  1.00  0.00    -0.504 OA
ATOM     19  H   UNL     1      12.164   8.668   3.396  1.00  0.00     0.293 HD
ENDBRANCH  15  18
BRANCH  17  20
ATOM     20  O   UNL     1      12.981  11.664   5.247  1.00  0.00    -0.504 OA
ATOM     21  H   UNL     1      12.687  12.622   5.101  1.00  0.00     0.293 HD
ENDBRANCH  17  20
ENDBRANCH   1  12
BRANCH   6  22
ATOM     22  O   UNL     1       7.875  12.413  13.227  1.00  0.00    -0.507 OA
ATOM     23  H   UNL     1       7.337  12.564  14.073  1.00  0.00     0.293 HD
ENDBRANCH   6  22
BRANCH   8  24
ATOM     24  O   UNL     1       6.277   7.868  12.948  1.00  0.00    -0.508 OA
ATOM     25  H   UNL     1       6.690   7.147  13.529  1.00  0.00     0.293 HD
ENDBRANCH   8  24
TORSDOF 5
ENDMDL
MODEL 5
REMARK VINA RESULT:    -5.166     13.247     14.887
REMARK INTER + INTRA:          -6.354
REMARK INTER:                  -6.074
REMARK INTRA:                  -0.280
REMARK UNBOUND:                -0.282
REMARK SMILES O=c1cc(-c2ccc(O)c(O)c2)oc2cc(O)cc(O)c12
REMARK SMILES IDX 4 1 3 2 2 3 1 4 21 5 19 6 18 7 16 8 15 9 14 10 13 11 5 12
REMARK SMILES IDX 6 13 7 14 8 15 12 16 10 17 9 18 11 20 20 22 17 24
REMARK H PARENT 9 19 11 21 20 23 17 25
REMARK Flexibility Score: inf
ROOT
ATOM      1  C   UNL     1      14.153  21.151   6.560  1.00  0.00     0.138 A 
ATOM      2  C   UNL     1      12.821  21.343   6.963  1.00  0.00     0.100 A 
ATOM      3  C   UNL     1      12.552  22.069   8.123  1.00  0.00     0.197 A 
ATOM      4  O   UNL     1      11.354  22.239   8.475  1.00  0.00    -0.289 OA
ATOM      5  C   UNL     1      13.620  22.602   8.873  1.00  0.00     0.107 A 
ATOM      6  C   UNL     1      13.435  23.348  10.061  1.00  0.00     0.134 A 
ATOM      7  C   UNL     1      14.552  23.850  10.747  1.00  0.00     0.093 A 
ATOM      8  C   UNL     1      15.844  23.620  10.270  1.00  0.00     0.123 A 
ATOM      9  C   UNL     1      16.032  22.883   9.096  1.00  0.00     0.094 A 
ATOM     10  C   UNL     1      14.933  22.374   8.399  1.00  0.00     0.146 A 
ATOM     11  O   UNL     1      15.138  21.675   7.287  1.00  0.00    -0.456 OA
ENDROOT
BRANCH   1  12
ATOM     12  C   UNL     1      14.498  20.387   5.334  1.00  0.00     0.021 A 
ATOM     13  C   UNL     1      14.058  19.058   5.202  1.00  0.00     0.016 A 
ATOM     14  C   UNL     1      14.362  18.320   4.057  1.00  0.00     0.051 A 
ATOM     15  C   UNL     1      15.103  18.899   3.020  1.00  0.00     0.157 A 
ATOM     16  C   UNL     1      15.232  20.967   4.282  1.00  0.00     0.062 A 
ATOM     17  C   UNL     1      15.536  20.225   3.131  1.00  0.00     0.158 A 
BRANCH  15  18
ATOM     18  O   UNL     1      15.410  18.164   1.876  1.00  0.00    -0.504 OA
ATOM     19  H   UNL     1      16.209  18.393   1.296  1.00  0.00     0.293 HD
ENDBRANCH  15  18
BRANCH  17  20
ATOM     20  O   UNL     1      16.264  20.801   2.092  1.00  0.00    -0.504 OA
ATOM     21  H   UNL     1      16.163  21.781   1.851  1.00  0.00     0.293 HD
ENDBRANCH  17  20
ENDBRANCH   1  12
BRANCH   6  22
ATOM     22  O   UNL     1      12.157  23.595  10.563  1.00  0.00    -0.507 OA
ATOM     23  H   UNL     1      11.945  24.432  11.094  1.00  0.00     0.293 HD
ENDBRANCH   6  22
BRANCH   8  24
ATOM     24  O   UNL     1      16.935  24.130  10.970  1.00  0.00    -0.508 OA
ATOM     25  H   UNL     1      17.643  23.521  11.365  1.00  0.00     0.293 HD
ENDBRANCH   8  24
TORSDOF 5
ENDMDL
MODEL 6
REMARK VINA RESULT:    -5.158      3.149      6.380
REMARK INTER + INTRA:          -6.344
REMARK INTER:                  -6.062
REMARK INTRA:                  -0.282
REMARK UNBOUND:                -0.282
REMARK SMILES O=c1cc(-c2ccc(O)c(O)c2)oc2cc(O)cc(O)c12
REMARK SMILES IDX 4 1 3 2 2 3 1 4 21 5 19 6 18 7 16 8 15 9 14 10 13 11 5 12
REMARK SMILES IDX 6 13 7 14 8 15 12 16 10 17 9 18 11 20 20 22 17 24
REMARK H PARENT 9 19 11 21 20 23 17 25
REMARK Flexibility Score: inf
ROOT
ATOM      1  C   UNL     1       8.348  14.120  11.655  1.00  0.00     0.138 A 
ATOM      2  C   UNL     1       9.250  14.578  10.679  1.00  0.00     0.100 A 
ATOM      3  C   UNL     1       9.895  13.657   9.854  1.00  0.00     0.197 A 
ATOM      4  O   UNL     1      10.700  14.077   8.980  1.00  0.00    -0.289 OA
ATOM      5  C   UNL     1       9.630  12.281  10.008  1.00  0.00     0.107 A 
ATOM      6  C   UNL     1      10.242  11.281   9.214  1.00  0.00     0.134 A 
ATOM      7  C   UNL     1       9.921   9.932   9.427  1.00  0.00     0.093 A 
ATOM      8  C   UNL     1       9.003   9.566  10.414  1.00  0.00     0.123 A 
ATOM      9  C   UNL     1       8.396  10.550  11.202  1.00  0.00     0.094 A 
ATOM     10  C   UNL     1       8.704  11.898  11.006  1.00  0.00     0.146 A 
ATOM     11  O   UNL     1       8.115  12.814  11.768  1.00  0.00    -0.456 OA
ENDROOT
BRANCH   1  12
ATOM     12  C   UNL     1       7.634  15.055  12.561  1.00  0.00     0.021 A 
ATOM     13  C   UNL     1       8.374  15.962  13.341  1.00  0.00     0.016 A 
ATOM     14  C   UNL     1       7.726  16.857  14.195  1.00  0.00     0.051 A 
ATOM     15  C   UNL     1       6.329  16.867  14.279  1.00  0.00     0.157 A 
ATOM     16  C   UNL     1       6.228  15.080  12.641  1.00  0.00     0.062 A 
ATOM     17  C   UNL     1       5.578  15.980  13.499  1.00  0.00     0.158 A 
BRANCH  15  18
ATOM     18  O   UNL     1       5.680  17.758  15.133  1.00  0.00    -0.504 OA
ATOM     19  H   UNL     1       6.090  18.042  16.014  1.00  0.00     0.293 HD
ENDBRANCH  15  18
BRANCH  17  20
ATOM     20  O   UNL     1       4.187  16.001  13.577  1.00  0.00    -0.504 OA
ATOM     21  H   UNL     1       3.694  15.610  14.371  1.00  0.00     0.293 HD
ENDBRANCH  17  20
ENDBRANCH   1  12
BRANCH   6  22
ATOM     22  O   UNL     1      11.162  11.617   8.220  1.00  0.00    -0.507 OA
ATOM     23  H   UNL     1      10.875  12.072   7.360  1.00  0.00     0.293 HD
ENDBRANCH   6  22
BRANCH   8  24
ATOM     24  O   UNL     1       8.702   8.218  10.604  1.00  0.00    -0.508 OA
ATOM     25  H   UNL     1       8.713   7.798  11.527  1.00  0.00     0.293 HD
ENDBRANCH   8  24
TORSDOF 5
ENDMDL
MODEL 7
REMARK VINA RESULT:    -5.102      3.445      7.003
REMARK INTER + INTRA:          -6.279
REMARK INTER:                  -6.002
REMARK INTRA:                  -0.277
REMARK UNBOUND:                -0.282
REMARK SMILES O=c1cc(-c2ccc(O)c(O)c2)oc2cc(O)cc(O)c12
REMARK SMILES IDX 4 1 3 2 2 3 1 4 21 5 19 6 18 7 16 8 15 9 14 10 13 11 5 12
REMARK SMILES IDX 6 13 7 14 8 15 12 16 10 17 9 18 11 20 20 22 17 24
REMARK H PARENT 9 19 11 21 20 23 17 25
REMARK Flexibility Score: inf
ROOT
ATOM      1  C   UNL     1       8.232  14.401  11.777  1.00  0.00     0.138 A 
ATOM      2  C   UNL     1       7.720  13.213  12.325  1.00  0.00     0.100 A 
ATOM      3  C   UNL     1       8.102  11.986  11.782  1.00  0.00     0.197 A 
ATOM      4  O   UNL     1       7.639  10.925  12.282  1.00  0.00    -0.289 OA
ATOM      5  C   UNL     1       8.998  11.955  10.695  1.00  0.00     0.107 A 
ATOM      6  C   UNL     1       9.435  10.755  10.084  1.00  0.00     0.134 A 
ATOM      7  C   UNL     1      10.333  10.810   9.008  1.00  0.00     0.093 A 
ATOM      8  C   UNL     1      10.801  12.037   8.532  1.00  0.00     0.123 A 
ATOM      9  C   UNL     1      10.372  13.226   9.131  1.00  0.00     0.094 A 
ATOM     10  C   UNL     1       9.477  13.193  10.204  1.00  0.00     0.146 A 
ATOM     11  O   UNL     1       9.083  14.336  10.755  1.00  0.00    -0.456 OA
ENDROOT
BRANCH   1  12
ATOM     12  C   UNL     1       7.860  15.735  12.314  1.00  0.00     0.021 A 
ATOM     13  C   UNL     1       8.175  16.054  13.647  1.00  0.00     0.016 A 
ATOM     14  C   UNL     1       7.843  17.304  14.175  1.00  0.00     0.051 A 
ATOM     15  C   UNL     1       7.200  18.258  13.379  1.00  0.00     0.157 A 
ATOM     16  C   UNL     1       7.225  16.705  11.515  1.00  0.00     0.062 A 
ATOM     17  C   UNL     1       6.893  17.960  12.046  1.00  0.00     0.158 A 
BRANCH  15  18
ATOM     18  O   UNL     1       6.866  19.506  13.903  1.00  0.00    -0.504 OA
ATOM     19  H   UNL     1       7.461  20.315  13.767  1.00  0.00     0.293 HD
ENDBRANCH  15  18
BRANCH  17  20
ATOM     20  O   UNL     1       6.263  18.917  11.253  1.00  0.00    -0.504 OA
ATOM     21  H   UNL     1       6.781  19.480  10.588  1.00  0.00     0.293 HD
ENDBRANCH  17  20
ENDBRANCH   1  12
BRANCH   6  22
ATOM     22  O   UNL     1       8.985   9.515  10.538  1.00  0.00    -0.507 OA
ATOM     23  H   UNL     1       9.597   8.873  11.029  1.00  0.00     0.293 HD
ENDBRANCH   6  22
BRANCH   8  24
ATOM     24  O   UNL     1      11.693  12.063   7.462  1.00  0.00    -0.508 OA
ATOM     25  H   UNL     1      11.638  11.386   6.709  1.00  0.00     0.293 HD
ENDBRANCH   8  24
TORSDOF 5
ENDMDL
MODEL 8
REMARK VINA RESULT:    -5.034     14.404     17.506
REMARK INTER + INTRA:          -6.199
REMARK INTER:                  -5.894
REMARK INTRA:                  -0.305
REMARK UNBOUND:                -0.282
REMARK SMILES O=c1cc(-c2ccc(O)c(O)c2)oc2cc(O)cc(O)c12
REMARK SMILES IDX 4 1 3 2 2 3 1 4 21 5 19 6 18 7 16 8 15 9 14 10 13 11 5 12
REMARK SMILES IDX 6 13 7 14 8 15 12 16 10 17 9 18 11 20 20 22 17 24
REMARK H PARENT 9 19 11 21 20 23 17 25
REMARK Flexibility Score: inf
ROOT
ATOM      1  C   UNL     1      21.857  15.437   6.050  1.00  0.00     0.138 A 
ATOM      2  C   UNL     1      21.604  14.139   5.575  1.00  0.00     0.100 A 
ATOM      3  C   UNL     1      21.364  13.110   6.485  1.00  0.00     0.197 A 
ATOM      4  O   UNL     1      21.136  11.949   6.050  1.00  0.00    -0.289 OA
ATOM      5  C   UNL     1      21.375  13.386   7.867  1.00  0.00     0.107 A 
ATOM      6  C   UNL     1      21.144  12.401   8.856  1.00  0.00     0.134 A 
ATOM      7  C   UNL     1      21.167  12.760  10.213  1.00  0.00     0.093 A 
ATOM      8  C   UNL     1      21.416  14.079  10.597  1.00  0.00     0.123 A 
ATOM      9  C   UNL     1      21.646  15.056   9.623  1.00  0.00     0.094 A 
ATOM     10  C   UNL     1      21.629  14.720   8.267  1.00  0.00     0.146 A 
ATOM     11  O   UNL     1      21.852  15.666   7.361  1.00  0.00    -0.456 OA
ENDROOT
BRANCH   1  12
ATOM     12  C   UNL     1      22.119  16.571   5.128  1.00  0.00     0.021 A 
ATOM     13  C   UNL     1      22.752  16.327   3.896  1.00  0.00     0.016 A 
ATOM     14  C   UNL     1      23.003  17.374   3.006  1.00  0.00     0.051 A 
ATOM     15  C   UNL     1      22.619  18.681   3.329  1.00  0.00     0.157 A 
ATOM     16  C   UNL     1      21.724  17.886   5.438  1.00  0.00     0.062 A 
ATOM     17  C   UNL     1      21.975  18.937   4.545  1.00  0.00     0.158 A 
BRANCH  15  18
ATOM     18  O   UNL     1      22.870  19.729   2.444  1.00  0.00    -0.504 OA
ATOM     19  H   UNL     1      22.117  20.248   2.009  1.00  0.00     0.293 HD
ENDBRANCH  15  18
BRANCH  17  20
ATOM     20  O   UNL     1      21.584  20.238   4.857  1.00  0.00    -0.504 OA
ATOM     21  H   UNL     1      22.198  21.029   4.700  1.00  0.00     0.293 HD
ENDBRANCH  17  20
ENDBRANCH   1  12
BRANCH   6  22
ATOM     22  O   UNL     1      20.891  11.075   8.503  1.00  0.00    -0.507 OA
ATOM     23  H   UNL     1      21.550  10.535   7.953  1.00  0.00     0.293 HD
ENDBRANCH   6  22
BRANCH   8  24
ATOM     24  O   UNL     1      21.433  14.407  11.951  1.00  0.00    -0.508 OA
ATOM     25  H   UNL     1      21.117  15.313  12.281  1.00  0.00     0.293 HD
ENDBRANCH   8  24
TORSDOF 5
ENDMDL
MODEL 9
REMARK VINA RESULT:    -5.025     12.303     14.540
REMARK INTER + INTRA:          -6.188
REMARK INTER:                  -5.908
REMARK INTRA:                  -0.280
REMARK UNBOUND:                -0.282
REMARK SMILES O=c1cc(-c2ccc(O)c(O)c2)oc2cc(O)cc(O)c12
REMARK SMILES IDX 4 1 3 2 2 3 1 4 21 5 19 6 18 7 16 8 15 9 14 10 13 11 5 12
REMARK SMILES IDX 6 13 7 14 8 15 12 16 10 17 9 18 11 20 20 22 17 24
REMARK H PARENT 9 19 11 21 20 23 17 25
REMARK Flexibility Score: inf
ROOT
ATOM      1  C   UNL     1      14.003  21.140   6.607  1.00  0.00     0.138 A 
ATOM      2  C   UNL     1      14.883  21.987   7.302  1.00  0.00     0.100 A 
ATOM      3  C   UNL     1      14.440  22.646   8.449  1.00  0.00     0.197 A 
ATOM      4  O   UNL     1      15.238  23.401   9.067  1.00  0.00    -0.289 OA
ATOM      5  C   UNL     1      13.118  22.450   8.896  1.00  0.00     0.107 A 
ATOM      6  C   UNL     1      12.589  23.080  10.047  1.00  0.00     0.134 A 
ATOM      7  C   UNL     1      11.262  22.829  10.429  1.00  0.00     0.093 A 
ATOM      8  C   UNL     1      10.459  21.963   9.685  1.00  0.00     0.123 A 
ATOM      9  C   UNL     1      10.977  21.338   8.546  1.00  0.00     0.094 A 
ATOM     10  C   UNL     1      12.295  21.576   8.148  1.00  0.00     0.146 A 
ATOM     11  O   UNL     1      12.763  20.971   7.061  1.00  0.00    -0.456 OA
ENDROOT
BRANCH   1  12
ATOM     12  C   UNL     1      14.420  20.414   5.381  1.00  0.00     0.021 A 
ATOM     13  C   UNL     1      14.035  19.072   5.209  1.00  0.00     0.016 A 
ATOM     14  C   UNL     1      14.408  18.368   4.061  1.00  0.00     0.051 A 
ATOM     15  C   UNL     1      15.164  18.995   3.064  1.00  0.00     0.157 A 
ATOM     16  C   UNL     1      15.170  21.041   4.367  1.00  0.00     0.062 A 
ATOM     17  C   UNL     1      15.543  20.334   3.214  1.00  0.00     0.158 A 
BRANCH  15  18
ATOM     18  O   UNL     1      15.539  18.294   1.918  1.00  0.00    -0.504 OA
ATOM     19  H   UNL     1      16.436  18.447   1.472  1.00  0.00     0.293 HD
ENDBRANCH  15  18
BRANCH  17  20
ATOM     20  O   UNL     1      16.286  20.957   2.213  1.00  0.00    -0.504 OA
ATOM     21  H   UNL     1      15.914  21.737   1.684  1.00  0.00     0.293 HD
ENDBRANCH  17  20
ENDBRANCH   1  12
BRANCH   6  22
ATOM     22  O   UNL     1      13.368  23.950  10.812  1.00  0.00    -0.507 OA
ATOM     23  H   UNL     1      13.435  23.860  11.819  1.00  0.00     0.293 HD
ENDBRANCH   6  22
BRANCH   8  24
ATOM     24  O   UNL     1       9.145  21.730  10.087  1.00  0.00    -0.508 OA
ATOM     25  H   UNL     1       8.383  22.324   9.778  1.00  0.00     0.293 HD
ENDBRANCH   8  24
TORSDOF 5
ENDMDL
