MODEL 1
REMARK VINA RESULT:    -5.236      0.000      0.000
REMARK INTER + INTRA:         -18.568
REMARK INTER:                 -13.194
REMARK INTRA:                  -5.374
REMARK UNBOUND:                -5.374
REMARK SMILES CCCCCCCCCCCCCCCCCCCCCCCCCCCC(=O)[O-]
REMARK SMILES IDX 15 1 16 2 17 3 18 4 19 5 20 6 21 7 22 8 23 9 24 10 25 11
REMARK SMILES IDX 26 12 27 13 28 14 29 15 30 16 14 17 13 18 12 19 11 20 10 21
REMARK SMILES IDX 9 22 8 23 7 24 6 25 5 26 4 27 3 28 2 29 1 30
REMARK H PARENT
REMARK Flexibility Score: inf
ROOT
ATOM      1  C   UNL     1      19.836   0.216  21.823  1.00  0.00     0.000 C 
ENDROOT
BRANCH   1   2
ATOM      2  C   UNL     1      20.874   1.103  21.118  1.00  0.00     0.000 C 
BRANCH   2   3
ATOM      3  C   UNL     1      22.198   0.368  20.846  1.00  0.00     0.000 C 
BRANCH   3   4
ATOM      4  C   UNL     1      22.819  -0.217  22.125  1.00  0.00     0.000 C 
BRANCH   4   5
ATOM      5  C   UNL     1      23.455  -1.600  21.900  1.00  0.00     0.000 C 
BRANCH   5   6
ATOM      6  C   UNL     1      22.399  -2.689  21.618  1.00  0.00     0.000 C 
BRANCH   6   7
ATOM      7  C   UNL     1      21.325  -2.806  22.713  1.00  0.00     0.000 C 
BRANCH   7   8
ATOM      8  C   UNL     1      20.223  -3.819  22.360  1.00  0.00     0.000 C 
BRANCH   8   9
ATOM      9  C   UNL     1      19.215  -3.264  21.339  1.00  0.00     0.000 C 
BRANCH   9  10
ATOM     10  C   UNL     1      18.516  -4.375  20.538  1.00  0.00     0.000 C 
BRANCH  10  11
ATOM     11  C   UNL     1      17.113  -3.970  20.049  1.00  0.00     0.000 C 
BRANCH  11  12
ATOM     12  C   UNL     1      16.785  -4.372  18.600  1.00  0.00     0.006 C 
BRANCH  12  13
ATOM     13  C   UNL     1      15.279  -4.517  18.346  1.00  0.00     0.053 C 
BRANCH  13  14
ATOM     14  C   UNL     1      15.031  -5.427  17.185  1.00  0.00     0.041 C 
ATOM     15  O   UNL     1      13.926  -6.019  17.069  1.00  0.00    -0.550 OA
ATOM     16  O   UNL     1      16.038  -5.659  16.255  1.00  0.00    -0.550 OA
ENDBRANCH  13  14
ENDBRANCH  12  13
ENDBRANCH  11  12
ENDBRANCH  10  11
ENDBRANCH   9  10
ENDBRANCH   8   9
ENDBRANCH   7   8
ENDBRANCH   6   7
ENDBRANCH   5   6
ENDBRANCH   4   5
ENDBRANCH   3   4
ENDBRANCH   2   3
ENDBRANCH   1   2
BRANCH   1  17
ATOM     17  C   UNL     1      18.436   0.855  21.860  1.00  0.00     0.000 C 
BRANCH  17  18
ATOM     18  C   UNL     1      17.339  -0.159  22.222  1.00  0.00     0.000 C 
BRANCH  18  19
ATOM     19  C   UNL     1      15.954   0.499  22.367  1.00  0.00     0.000 C 
BRANCH  19  20
ATOM     20  C   UNL     1      14.842  -0.298  21.666  1.00  0.00     0.000 C 
BRANCH  20  21
ATOM     21  C   UNL     1      15.383  -1.186  20.533  1.00  0.00     0.000 C 
BRANCH  21  22
ATOM     22  C   UNL     1      14.851  -0.785  19.146  1.00  0.00    -0.000 C 
BRANCH  22  23
ATOM     23  C   UNL     1      15.923  -0.582  18.059  1.00  0.00    -0.000 C 
BRANCH  23  24
ATOM     24  C   UNL     1      17.332  -0.361  18.637  1.00  0.00    -0.000 C 
BRANCH  24  25
ATOM     25  C   UNL     1      18.436  -1.021  17.792  1.00  0.00    -0.000 C 
BRANCH  25  26
ATOM     26  C   UNL     1      19.824  -1.090  18.459  1.00  0.00    -0.000 C 
BRANCH  26  27
ATOM     27  C   UNL     1      20.716  -2.260  18.007  1.00  0.00    -0.000 C 
BRANCH  27  28
ATOM     28  C   UNL     1      19.912  -3.424  17.402  1.00  0.00    -0.000 C 
BRANCH  28  29
ATOM     29  C   UNL     1      20.671  -4.758  17.457  1.00  0.00    -0.003 C 
ATOM     30  C   UNL     1      21.496  -4.919  18.735  1.00  0.00     0.004 C 
ENDBRANCH  28  29
ENDBRANCH  27  28
ENDBRANCH  26  27
ENDBRANCH  25  26
ENDBRANCH  24  25
ENDBRANCH  23  24
ENDBRANCH  22  23
ENDBRANCH  21  22
ENDBRANCH  20  21
ENDBRANCH  19  20
ENDBRANCH  18  19
ENDBRANCH  17  18
ENDBRANCH   1  17
TORSDOF 26
ENDMDL
MODEL 2
REMARK VINA RESULT:    -4.815      3.346      6.315
REMARK INTER + INTRA:         -17.507
REMARK INTER:                 -13.825
REMARK INTRA:                  -3.683
REMARK UNBOUND:                -5.374
REMARK SMILES CCCCCCCCCCCCCCCCCCCCCCCCCCCC(=O)[O-]
REMARK SMILES IDX 15 1 16 2 17 3 18 4 19 5 20 6 21 7 22 8 23 9 24 10 25 11
REMARK SMILES IDX 26 12 27 13 28 14 29 15 30 16 14 17 13 18 12 19 11 20 10 21
REMARK SMILES IDX 9 22 8 23 7 24 6 25 5 26 4 27 3 28 2 29 1 30
REMARK H PARENT
REMARK Flexibility Score: inf
ROOT
ATOM      1  C   UNL     1      17.451  -0.241  21.760  1.00  0.00     0.000 C 
ENDROOT
BRANCH   1   2
ATOM      2  C   UNL     1      16.887  -0.229  20.331  1.00  0.00     0.000 C 
BRANCH   2   3
ATOM      3  C   UNL     1      17.001  -1.595  19.634  1.00  0.00     0.000 C 
BRANCH   3   4
ATOM      4  C   UNL     1      16.276  -1.625  18.277  1.00  0.00     0.000 C 
BRANCH   4   5
ATOM      5  C   UNL     1      15.244  -2.762  18.177  1.00  0.00     0.000 C 
BRANCH   5   6
ATOM      6  C   UNL     1      15.783  -3.971  17.385  1.00  0.00     0.000 C 
BRANCH   6   7
ATOM      7  C   UNL     1      14.964  -5.257  17.588  1.00  0.00     0.000 C 
BRANCH   7   8
ATOM      8  C   UNL     1      14.974  -6.171  16.351  1.00  0.00     0.000 C 
BRANCH   8   9
ATOM      9  C   UNL     1      16.371  -6.295  15.718  1.00  0.00     0.000 C 
BRANCH   9  10
ATOM     10  C   UNL     1      16.486  -7.505  14.778  1.00  0.00     0.000 C 
BRANCH  10  11
ATOM     11  C   UNL     1      17.922  -8.052  14.677  1.00  0.00     0.000 C 
BRANCH  11  12
ATOM     12  C   UNL     1      18.029  -9.556  14.369  1.00  0.00     0.006 C 
BRANCH  12  13
ATOM     13  C   UNL     1      18.229  -9.848  12.876  1.00  0.00     0.053 C 
BRANCH  13  14
ATOM     14  C   UNL     1      19.218 -10.955  12.689  1.00  0.00     0.041 C 
ATOM     15  O   UNL     1      20.452 -10.727  12.799  1.00  0.00    -0.550 OA
ATOM     16  O   UNL     1      18.780 -12.228  12.346  1.00  0.00    -0.550 OA
ENDBRANCH  13  14
ENDBRANCH  12  13
ENDBRANCH  11  12
ENDBRANCH  10  11
ENDBRANCH   9  10
ENDBRANCH   8   9
ENDBRANCH   7   8
ENDBRANCH   6   7
ENDBRANCH   5   6
ENDBRANCH   4   5
ENDBRANCH   3   4
ENDBRANCH   2   3
ENDBRANCH   1   2
BRANCH   1  17
ATOM     17  C   UNL     1      18.555   0.810  21.972  1.00  0.00     0.000 C 
BRANCH  17  18
ATOM     18  C   UNL     1      19.657   0.725  20.903  1.00  0.00     0.000 C 
BRANCH  18  19
ATOM     19  C   UNL     1      20.951   0.086  21.442  1.00  0.00     0.000 C 
BRANCH  19  20
ATOM     20  C   UNL     1      20.982   0.013  22.977  1.00  0.00     0.000 C 
BRANCH  20  21
ATOM     21  C   UNL     1      21.359  -1.386  23.490  1.00  0.00     0.000 C 
BRANCH  21  22
ATOM     22  C   UNL     1      21.885  -2.314  22.381  1.00  0.00    -0.000 C 
BRANCH  22  23
ATOM     23  C   UNL     1      21.019  -3.554  22.090  1.00  0.00    -0.000 C 
BRANCH  23  24
ATOM     24  C   UNL     1      19.605  -3.200  21.600  1.00  0.00    -0.000 C 
BRANCH  24  25
ATOM     25  C   UNL     1      18.711  -4.438  21.406  1.00  0.00    -0.000 C 
BRANCH  25  26
ATOM     26  C   UNL     1      18.554  -4.915  19.948  1.00  0.00    -0.000 C 
BRANCH  26  27
ATOM     27  C   UNL     1      19.791  -4.720  19.053  1.00  0.00    -0.000 C 
BRANCH  27  28
ATOM     28  C   UNL     1      19.428  -4.363  17.602  1.00  0.00    -0.000 C 
BRANCH  28  29
ATOM     29  C   UNL     1      19.530  -2.856  17.321  1.00  0.00    -0.003 C 
ATOM     30  C   UNL     1      20.438  -2.127  18.314  1.00  0.00     0.004 C 
ENDBRANCH  28  29
ENDBRANCH  27  28
ENDBRANCH  26  27
ENDBRANCH  25  26
ENDBRANCH  24  25
ENDBRANCH  23  24
ENDBRANCH  22  23
ENDBRANCH  21  22
ENDBRANCH  20  21
ENDBRANCH  19  20
ENDBRANCH  18  19
ENDBRANCH  17  18
ENDBRANCH   1  17
TORSDOF 26
ENDMDL
MODEL 3
REMARK VINA RESULT:    -4.700      4.921      7.632
REMARK INTER + INTRA:         -17.217
REMARK INTER:                 -14.606
REMARK INTRA:                  -2.611
REMARK UNBOUND:                -5.374
REMARK SMILES CCCCCCCCCCCCCCCCCCCCCCCCCCCC(=O)[O-]
REMARK SMILES IDX 15 1 16 2 17 3 18 4 19 5 20 6 21 7 22 8 23 9 24 10 25 11
REMARK SMILES IDX 26 12 27 13 28 14 29 15 30 16 14 17 13 18 12 19 11 20 10 21
REMARK SMILES IDX 9 22 8 23 7 24 6 25 5 26 4 27 3 28 2 29 1 30
REMARK H PARENT
REMARK Flexibility Score: inf
ROOT
ATOM      1  C   UNL     1      21.432  -3.756  20.042  1.00  0.00     0.000 C 
ENDROOT
BRANCH   1   2
ATOM      2  C   UNL     1      20.271  -3.412  20.988  1.00  0.00     0.000 C 
BRANCH   2   3
ATOM      3  C   UNL     1      20.641  -3.586  22.472  1.00  0.00     0.000 C 
BRANCH   3   4
ATOM      4  C   UNL     1      21.328  -2.340  23.055  1.00  0.00     0.000 C 
BRANCH   4   5
ATOM      5  C   UNL     1      20.336  -1.212  23.388  1.00  0.00     0.000 C 
BRANCH   5   6
ATOM      6  C   UNL     1      20.656   0.090  22.627  1.00  0.00     0.000 C 
BRANCH   6   7
ATOM      7  C   UNL     1      19.407   0.891  22.221  1.00  0.00     0.000 C 
BRANCH   7   8
ATOM      8  C   UNL     1      18.448   0.086  21.327  1.00  0.00     0.000 C 
BRANCH   8   9
ATOM      9  C   UNL     1      19.115  -0.393  20.026  1.00  0.00     0.000 C 
BRANCH   9  10
ATOM     10  C   UNL     1      18.164  -1.221  19.147  1.00  0.00     0.000 C 
BRANCH  10  11
ATOM     11  C   UNL     1      18.569  -1.223  17.661  1.00  0.00     0.000 C 
BRANCH  11  12
ATOM     12  C   UNL     1      18.435  -2.581  16.949  1.00  0.00     0.006 C 
BRANCH  12  13
ATOM     13  C   UNL     1      17.684  -3.625  17.787  1.00  0.00     0.053 C 
BRANCH  13  14
ATOM     14  C   UNL     1      16.252  -3.704  17.361  1.00  0.00     0.041 C 
ATOM     15  O   UNL     1      15.850  -4.678  16.672  1.00  0.00    -0.550 OA
ATOM     16  O   UNL     1      15.373  -2.677  17.684  1.00  0.00    -0.550 OA
ENDBRANCH  13  14
ENDBRANCH  12  13
ENDBRANCH  11  12
ENDBRANCH  10  11
ENDBRANCH   9  10
ENDBRANCH   8   9
ENDBRANCH   7   8
ENDBRANCH   6   7
ENDBRANCH   5   6
ENDBRANCH   4   5
ENDBRANCH   3   4
ENDBRANCH   2   3
ENDBRANCH   1   2
BRANCH   1  17
ATOM     17  C   UNL     1      21.000  -4.665  18.878  1.00  0.00     0.000 C 
BRANCH  17  18
ATOM     18  C   UNL     1      21.784  -4.376  17.587  1.00  0.00     0.000 C 
BRANCH  18  19
ATOM     19  C   UNL     1      21.906  -5.616  16.682  1.00  0.00     0.000 C 
BRANCH  19  20
ATOM     20  C   UNL     1      20.694  -6.555  16.796  1.00  0.00     0.000 C 
BRANCH  20  21
ATOM     21  C   UNL     1      20.756  -7.718  15.792  1.00  0.00     0.000 C 
BRANCH  21  22
ATOM     22  C   UNL     1      19.418  -7.970  15.076  1.00  0.00    -0.000 C 
BRANCH  22  23
ATOM     23  C   UNL     1      19.330  -9.285  14.280  1.00  0.00    -0.000 C 
BRANCH  23  24
ATOM     24  C   UNL     1      17.962  -9.492  13.607  1.00  0.00    -0.000 C 
BRANCH  24  25
ATOM     25  C   UNL     1      18.032 -10.424  12.384  1.00  0.00    -0.000 C 
BRANCH  25  26
ATOM     26  C   UNL     1      19.356 -11.198  12.221  1.00  0.00    -0.000 C 
BRANCH  26  27
ATOM     27  C   UNL     1      19.253 -12.724  12.391  1.00  0.00    -0.000 C 
BRANCH  27  28
ATOM     28  C   UNL     1      18.359 -13.384  11.327  1.00  0.00    -0.000 C 
BRANCH  28  29
ATOM     29  C   UNL     1      18.862 -13.136   9.897  1.00  0.00    -0.003 C 
ATOM     30  C   UNL     1      17.761 -12.638   8.958  1.00  0.00     0.004 C 
ENDBRANCH  28  29
ENDBRANCH  27  28
ENDBRANCH  26  27
ENDBRANCH  25  26
ENDBRANCH  24  25
ENDBRANCH  23  24
ENDBRANCH  22  23
ENDBRANCH  21  22
ENDBRANCH  20  21
ENDBRANCH  19  20
ENDBRANCH  18  19
ENDBRANCH  17  18
ENDBRANCH   1  17
TORSDOF 26
ENDMDL
MODEL 4
REMARK VINA RESULT:    -4.654      3.085      4.985
REMARK INTER + INTRA:         -17.101
REMARK INTER:                 -13.171
REMARK INTRA:                  -3.930
REMARK UNBOUND:                -5.374
REMARK SMILES CCCCCCCCCCCCCCCCCCCCCCCCCCCC(=O)[O-]
REMARK SMILES IDX 15 1 16 2 17 3 18 4 19 5 20 6 21 7 22 8 23 9 24 10 25 11
REMARK SMILES IDX 26 12 27 13 28 14 29 15 30 16 14 17 13 18 12 19 11 20 10 21
REMARK SMILES IDX 9 22 8 23 7 24 6 25 5 26 4 27 3 28 2 29 1 30
REMARK H PARENT
REMARK Flexibility Score: inf
ROOT
ATOM      1  C   UNL     1      22.123  -2.182  22.659  1.00  0.00     0.000 C 
ENDROOT
BRANCH   1   2
ATOM      2  C   UNL     1      21.169  -3.379  22.521  1.00  0.00     0.000 C 
BRANCH   2   3
ATOM      3  C   UNL     1      20.035  -3.123  21.513  1.00  0.00     0.000 C 
BRANCH   3   4
ATOM      4  C   UNL     1      20.230  -3.899  20.200  1.00  0.00     0.000 C 
BRANCH   4   5
ATOM      5  C   UNL     1      21.354  -3.316  19.325  1.00  0.00     0.000 C 
BRANCH   5   6
ATOM      6  C   UNL     1      21.520  -4.086  17.999  1.00  0.00     0.000 C 
BRANCH   6   7
ATOM      7  C   UNL     1      21.379  -5.610  18.148  1.00  0.00     0.000 C 
BRANCH   7   8
ATOM      8  C   UNL     1      20.602  -6.253  16.987  1.00  0.00     0.000 C 
BRANCH   8   9
ATOM      9  C   UNL     1      21.517  -7.022  16.018  1.00  0.00     0.000 C 
BRANCH   9  10
ATOM     10  C   UNL     1      20.807  -8.218  15.363  1.00  0.00     0.000 C 
BRANCH  10  11
ATOM     11  C   UNL     1      19.309  -7.964  15.115  1.00  0.00     0.000 C 
BRANCH  11  12
ATOM     12  C   UNL     1      18.754  -8.554  13.806  1.00  0.00     0.006 C 
BRANCH  12  13
ATOM     13  C   UNL     1      18.468 -10.059  13.901  1.00  0.00     0.053 C 
BRANCH  13  14
ATOM     14  C   UNL     1      17.471 -10.467  12.863  1.00  0.00     0.041 C 
ATOM     15  O   UNL     1      16.248 -10.214  13.026  1.00  0.00    -0.550 OA
ATOM     16  O   UNL     1      17.886 -11.170  11.738  1.00  0.00    -0.550 OA
ENDBRANCH  13  14
ENDBRANCH  12  13
ENDBRANCH  11  12
ENDBRANCH  10  11
ENDBRANCH   9  10
ENDBRANCH   8   9
ENDBRANCH   7   8
ENDBRANCH   6   7
ENDBRANCH   5   6
ENDBRANCH   4   5
ENDBRANCH   3   4
ENDBRANCH   2   3
ENDBRANCH   1   2
BRANCH   1  17
ATOM     17  C   UNL     1      21.379  -0.843  22.798  1.00  0.00     0.000 C 
BRANCH  17  18
ATOM     18  C   UNL     1      21.711   0.134  21.658  1.00  0.00     0.000 C 
BRANCH  18  19
ATOM     19  C   UNL     1      20.515   1.029  21.282  1.00  0.00     0.000 C 
BRANCH  19  20
ATOM     20  C   UNL     1      19.368   0.945  22.303  1.00  0.00     0.000 C 
BRANCH  20  21
ATOM     21  C   UNL     1      18.046   0.489  21.663  1.00  0.00     0.000 C 
BRANCH  21  22
ATOM     22  C   UNL     1      18.239  -0.172  20.286  1.00  0.00    -0.000 C 
BRANCH  22  23
ATOM     23  C   UNL     1      17.229   0.248  19.203  1.00  0.00    -0.000 C 
BRANCH  23  24
ATOM     24  C   UNL     1      17.584  -0.293  17.807  1.00  0.00    -0.000 C 
BRANCH  24  25
ATOM     25  C   UNL     1      18.657  -1.395  17.848  1.00  0.00    -0.000 C 
BRANCH  25  26
ATOM     26  C   UNL     1      18.510  -2.499  16.781  1.00  0.00    -0.000 C 
BRANCH  26  27
ATOM     27  C   UNL     1      17.886  -3.816  17.276  1.00  0.00    -0.000 C 
BRANCH  27  28
ATOM     28  C   UNL     1      16.357  -3.733  17.423  1.00  0.00    -0.000 C 
BRANCH  28  29
ATOM     29  C   UNL     1      15.874  -4.169  18.814  1.00  0.00    -0.003 C 
ATOM     30  C   UNL     1      16.591  -3.435  19.949  1.00  0.00     0.004 C 
ENDBRANCH  28  29
ENDBRANCH  27  28
ENDBRANCH  26  27
ENDBRANCH  25  26
ENDBRANCH  24  25
ENDBRANCH  23  24
ENDBRANCH  22  23
ENDBRANCH  21  22
ENDBRANCH  20  21
ENDBRANCH  19  20
ENDBRANCH  18  19
ENDBRANCH  17  18
ENDBRANCH   1  17
TORSDOF 26
ENDMDL
MODEL 5
REMARK VINA RESULT:    -4.595      7.048      9.829
REMARK INTER + INTRA:         -16.952
REMARK INTER:                 -13.946
REMARK INTRA:                  -3.007
REMARK UNBOUND:                -5.374
REMARK SMILES CCCCCCCCCCCCCCCCCCCCCCCCCCCC(=O)[O-]
REMARK SMILES IDX 15 1 16 2 17 3 18 4 19 5 20 6 21 7 22 8 23 9 24 10 25 11
REMARK SMILES IDX 26 12 27 13 28 14 29 15 30 16 14 17 13 18 12 19 11 20 10 21
REMARK SMILES IDX 9 22 8 23 7 24 6 25 5 26 4 27 3 28 2 29 1 30
REMARK H PARENT
REMARK Flexibility Score: inf
ROOT
ATOM      1  C   UNL     1      21.915  -5.925  16.619  1.00  0.00     0.000 C 
ENDROOT
BRANCH   1   2
ATOM      2  C   UNL     1      20.642  -6.786  16.622  1.00  0.00     0.000 C 
BRANCH   2   3
ATOM      3  C   UNL     1      20.651  -7.866  15.527  1.00  0.00     0.000 C 
BRANCH   3   4
ATOM      4  C   UNL     1      19.233  -8.277  15.095  1.00  0.00     0.000 C 
BRANCH   4   5
ATOM      5  C   UNL     1      19.147  -8.642  13.603  1.00  0.00     0.000 C 
BRANCH   5   6
ATOM      6  C   UNL     1      20.028  -9.858  13.248  1.00  0.00     0.000 C 
BRANCH   6   7
ATOM      7  C   UNL     1      19.229 -11.150  13.006  1.00  0.00     0.000 C 
BRANCH   7   8
ATOM      8  C   UNL     1      17.953 -10.915  12.180  1.00  0.00     0.000 C 
BRANCH   8   9
ATOM      9  C   UNL     1      17.923 -11.751  10.889  1.00  0.00     0.000 C 
BRANCH   9  10
ATOM     10  C   UNL     1      19.017 -12.831  10.860  1.00  0.00     0.000 C 
BRANCH  10  11
ATOM     11  C   UNL     1      18.494 -14.224  11.255  1.00  0.00     0.000 C 
BRANCH  11  12
ATOM     12  C   UNL     1      17.769 -14.992  10.136  1.00  0.00     0.006 C 
BRANCH  12  13
ATOM     13  C   UNL     1      18.563 -16.206   9.632  1.00  0.00     0.053 C 
BRANCH  13  14
ATOM     14  C   UNL     1      18.316 -17.391  10.509  1.00  0.00     0.041 C 
ATOM     15  O   UNL     1      19.245 -17.859  11.218  1.00  0.00    -0.550 OA
ATOM     16  O   UNL     1      17.071 -18.010  10.508  1.00  0.00    -0.550 OA
ENDBRANCH  13  14
ENDBRANCH  12  13
ENDBRANCH  11  12
ENDBRANCH  10  11
ENDBRANCH   9  10
ENDBRANCH   8   9
ENDBRANCH   7   8
ENDBRANCH   6   7
ENDBRANCH   5   6
ENDBRANCH   4   5
ENDBRANCH   3   4
ENDBRANCH   2   3
ENDBRANCH   1   2
BRANCH   1  17
ATOM     17  C   UNL     1      21.745  -4.611  17.400  1.00  0.00     0.000 C 
BRANCH  17  18
ATOM     18  C   UNL     1      20.291  -4.378  17.847  1.00  0.00     0.000 C 
BRANCH  18  19
ATOM     19  C   UNL     1      19.752  -3.005  17.405  1.00  0.00     0.000 C 
BRANCH  19  20
ATOM     20  C   UNL     1      18.219  -2.983  17.279  1.00  0.00     0.000 C 
BRANCH  20  21
ATOM     21  C   UNL     1      17.602  -4.387  17.391  1.00  0.00     0.000 C 
BRANCH  21  22
ATOM     22  C   UNL     1      16.771  -4.580  18.672  1.00  0.00    -0.000 C 
BRANCH  22  23
ATOM     23  C   UNL     1      16.507  -3.301  19.489  1.00  0.00    -0.000 C 
BRANCH  23  24
ATOM     24  C   UNL     1      17.178  -3.321  20.873  1.00  0.00    -0.000 C 
BRANCH  24  25
ATOM     25  C   UNL     1      18.441  -4.201  20.913  1.00  0.00    -0.000 C 
BRANCH  25  26
ATOM     26  C   UNL     1      19.731  -3.482  21.356  1.00  0.00    -0.000 C 
BRANCH  26  27
ATOM     27  C   UNL     1      19.558  -2.007  21.759  1.00  0.00    -0.000 C 
BRANCH  27  28
ATOM     28  C   UNL     1      19.954  -1.032  20.637  1.00  0.00    -0.000 C 
BRANCH  28  29
ATOM     29  C   UNL     1      18.963   0.134  20.492  1.00  0.00    -0.003 C 
ATOM     30  C   UNL     1      18.009  -0.042  19.309  1.00  0.00     0.004 C 
ENDBRANCH  28  29
ENDBRANCH  27  28
ENDBRANCH  26  27
ENDBRANCH  25  26
ENDBRANCH  24  25
ENDBRANCH  23  24
ENDBRANCH  22  23
ENDBRANCH  21  22
ENDBRANCH  20  21
ENDBRANCH  19  20
ENDBRANCH  18  19
ENDBRANCH  17  18
ENDBRANCH   1  17
TORSDOF 26
ENDMDL
MODEL 6
REMARK VINA RESULT:    -4.572      6.078      8.451
REMARK INTER + INTRA:         -16.894
REMARK INTER:                 -13.692
REMARK INTRA:                  -3.202
REMARK UNBOUND:                -5.374
REMARK SMILES CCCCCCCCCCCCCCCCCCCCCCCCCCCC(=O)[O-]
REMARK SMILES IDX 15 1 16 2 17 3 18 4 19 5 20 6 21 7 22 8 23 9 24 10 25 11
REMARK SMILES IDX 26 12 27 13 28 14 29 15 30 16 14 17 13 18 12 19 11 20 10 21
REMARK SMILES IDX 9 22 8 23 7 24 6 25 5 26 4 27 3 28 2 29 1 30
REMARK H PARENT
REMARK Flexibility Score: inf
ROOT
ATOM      1  C   UNL     1      21.354  -4.695  18.860  1.00  0.00     0.000 C 
ENDROOT
BRANCH   1   2
ATOM      2  C   UNL     1      21.705  -4.526  17.374  1.00  0.00     0.000 C 
BRANCH   2   3
ATOM      3  C   UNL     1      21.893  -5.870  16.650  1.00  0.00     0.000 C 
BRANCH   3   4
ATOM      4  C   UNL     1      20.627  -6.742  16.694  1.00  0.00     0.000 C 
BRANCH   4   5
ATOM      5  C   UNL     1      20.567  -7.764  15.544  1.00  0.00     0.000 C 
BRANCH   5   6
ATOM      6  C   UNL     1      19.124  -8.008  15.056  1.00  0.00     0.000 C 
BRANCH   6   7
ATOM      7  C   UNL     1      19.031  -8.978  13.866  1.00  0.00     0.000 C 
BRANCH   7   8
ATOM      8  C   UNL     1      20.332  -9.767  13.638  1.00  0.00     0.000 C 
BRANCH   8   9
ATOM      9  C   UNL     1      20.193 -10.828  12.532  1.00  0.00     0.000 C 
BRANCH   9  10
ATOM     10  C   UNL     1      18.768 -11.394  12.434  1.00  0.00     0.000 C 
BRANCH  10  11
ATOM     11  C   UNL     1      18.718 -12.781  11.766  1.00  0.00     0.000 C 
BRANCH  11  12
ATOM     12  C   UNL     1      18.434 -12.769  10.253  1.00  0.00     0.006 C 
BRANCH  12  13
ATOM     13  C   UNL     1      19.308 -13.759   9.473  1.00  0.00     0.053 C 
BRANCH  13  14
ATOM     14  C   UNL     1      18.509 -14.958   9.073  1.00  0.00     0.041 C 
ATOM     15  O   UNL     1      17.964 -15.677   9.952  1.00  0.00    -0.550 OA
ATOM     16  O   UNL     1      18.404 -15.310   7.732  1.00  0.00    -0.550 OA
ENDBRANCH  13  14
ENDBRANCH  12  13
ENDBRANCH  11  12
ENDBRANCH  10  11
ENDBRANCH   9  10
ENDBRANCH   8   9
ENDBRANCH   7   8
ENDBRANCH   6   7
ENDBRANCH   5   6
ENDBRANCH   4   5
ENDBRANCH   3   4
ENDBRANCH   2   3
ENDBRANCH   1   2
BRANCH   1  17
ATOM     17  C   UNL     1      21.739  -3.468  19.705  1.00  0.00     0.000 C 
BRANCH  17  18
ATOM     18  C   UNL     1      20.528  -2.842  20.417  1.00  0.00     0.000 C 
BRANCH  18  19
ATOM     19  C   UNL     1      19.652  -3.894  21.123  1.00  0.00     0.000 C 
BRANCH  19  20
ATOM     20  C   UNL     1      18.172  -3.803  20.715  1.00  0.00     0.000 C 
BRANCH  20  21
ATOM     21  C   UNL     1      17.807  -4.805  19.606  1.00  0.00     0.000 C 
BRANCH  21  22
ATOM     22  C   UNL     1      16.540  -4.409  18.829  1.00  0.00    -0.000 C 
BRANCH  22  23
ATOM     23  C   UNL     1      16.783  -3.715  17.475  1.00  0.00    -0.000 C 
BRANCH  23  24
ATOM     24  C   UNL     1      18.277  -3.544  17.147  1.00  0.00    -0.000 C 
BRANCH  24  25
ATOM     25  C   UNL     1      18.656  -2.084  16.837  1.00  0.00    -0.000 C 
BRANCH  25  26
ATOM     26  C   UNL     1      18.611  -1.122  18.041  1.00  0.00    -0.000 C 
BRANCH  26  27
ATOM     27  C   UNL     1      17.291  -0.351  18.219  1.00  0.00    -0.000 C 
BRANCH  27  28
ATOM     28  C   UNL     1      16.901  -0.169  19.697  1.00  0.00    -0.000 C 
BRANCH  28  29
ATOM     29  C   UNL     1      18.026   0.464  20.530  1.00  0.00    -0.003 C 
ATOM     30  C   UNL     1      18.304  -0.298  21.828  1.00  0.00     0.004 C 
ENDBRANCH  28  29
ENDBRANCH  27  28
ENDBRANCH  26  27
ENDBRANCH  25  26
ENDBRANCH  24  25
ENDBRANCH  23  24
ENDBRANCH  22  23
ENDBRANCH  21  22
ENDBRANCH  20  21
ENDBRANCH  19  20
ENDBRANCH  18  19
ENDBRANCH  17  18
ENDBRANCH   1  17
TORSDOF 26
ENDMDL
MODEL 7
REMARK VINA RESULT:    -4.567      7.006     10.326
REMARK INTER + INTRA:         -16.883
REMARK INTER:                 -14.411
REMARK INTRA:                  -2.472
REMARK UNBOUND:                -5.374
REMARK SMILES CCCCCCCCCCCCCCCCCCCCCCCCCCCC(=O)[O-]
REMARK SMILES IDX 15 1 16 2 17 3 18 4 19 5 20 6 21 7 22 8 23 9 24 10 25 11
REMARK SMILES IDX 26 12 27 13 28 14 29 15 30 16 14 17 13 18 12 19 11 20 10 21
REMARK SMILES IDX 9 22 8 23 7 24 6 25 5 26 4 27 3 28 2 29 1 30
REMARK H PARENT
REMARK Flexibility Score: inf
ROOT
ATOM      1  C   UNL     1      15.010  -5.695  16.882  1.00  0.00     0.000 C 
ENDROOT
BRANCH   1   2
ATOM      2  C   UNL     1      15.229  -4.697  18.029  1.00  0.00     0.000 C 
BRANCH   2   3
ATOM      3  C   UNL     1      15.793  -3.349  17.546  1.00  0.00     0.000 C 
BRANCH   3   4
ATOM      4  C   UNL     1      15.472  -2.198  18.513  1.00  0.00     0.000 C 
BRANCH   4   5
ATOM      5  C   UNL     1      16.363  -0.963  18.289  1.00  0.00     0.000 C 
BRANCH   5   6
ATOM      6  C   UNL     1      17.810  -1.193  18.771  1.00  0.00     0.000 C 
BRANCH   6   7
ATOM      7  C   UNL     1      18.821  -1.378  17.626  1.00  0.00     0.000 C 
BRANCH   7   8
ATOM      8  C   UNL     1      19.890  -2.437  17.940  1.00  0.00     0.000 C 
BRANCH   8   9
ATOM      9  C   UNL     1      19.352  -3.874  17.824  1.00  0.00     0.000 C 
BRANCH   9  10
ATOM     10  C   UNL     1      19.589  -4.697  19.101  1.00  0.00     0.000 C 
BRANCH  10  11
ATOM     11  C   UNL     1      18.480  -4.506  20.152  1.00  0.00     0.000 C 
BRANCH  11  12
ATOM     12  C   UNL     1      18.973  -4.161  21.569  1.00  0.00     0.006 C 
BRANCH  12  13
ATOM     13  C   UNL     1      19.657  -2.789  21.646  1.00  0.00     0.053 C 
BRANCH  13  14
ATOM     14  C   UNL     1      20.704  -2.788  22.715  1.00  0.00     0.041 C 
ATOM     15  O   UNL     1      21.101  -3.874  23.214  1.00  0.00    -0.550 OA
ATOM     16  O   UNL     1      21.206  -1.585  23.195  1.00  0.00    -0.550 OA
ENDBRANCH  13  14
ENDBRANCH  12  13
ENDBRANCH  11  12
ENDBRANCH  10  11
ENDBRANCH   9  10
ENDBRANCH   8   9
ENDBRANCH   7   8
ENDBRANCH   6   7
ENDBRANCH   5   6
ENDBRANCH   4   5
ENDBRANCH   3   4
ENDBRANCH   2   3
ENDBRANCH   1   2
BRANCH   1  17
ATOM     17  C   UNL     1      16.249  -5.846  15.981  1.00  0.00     0.000 C 
BRANCH  17  18
ATOM     18  C   UNL     1      16.193  -7.116  15.117  1.00  0.00     0.000 C 
BRANCH  18  19
ATOM     19  C   UNL     1      17.591  -7.593  14.680  1.00  0.00     0.000 C 
BRANCH  19  20
ATOM     20  C   UNL     1      17.584  -9.030  14.133  1.00  0.00     0.000 C 
BRANCH  20  21
ATOM     21  C   UNL     1      18.864  -9.365  13.350  1.00  0.00     0.000 C 
BRANCH  21  22
ATOM     22  C   UNL     1      18.984 -10.859  13.000  1.00  0.00    -0.000 C 
BRANCH  22  23
ATOM     23  C   UNL     1      17.938 -11.391  12.002  1.00  0.00    -0.000 C 
BRANCH  23  24
ATOM     24  C   UNL     1      18.519 -12.412  11.009  1.00  0.00    -0.000 C 
BRANCH  24  25
ATOM     25  C   UNL     1      19.100 -13.657  11.704  1.00  0.00    -0.000 C 
BRANCH  25  26
ATOM     26  C   UNL     1      19.268 -14.896  10.802  1.00  0.00    -0.000 C 
BRANCH  26  27
ATOM     27  C   UNL     1      18.017 -15.307  10.005  1.00  0.00    -0.000 C 
BRANCH  27  28
ATOM     28  C   UNL     1      18.301 -15.496   8.505  1.00  0.00    -0.000 C 
BRANCH  28  29
ATOM     29  C   UNL     1      18.571 -14.167   7.783  1.00  0.00    -0.003 C 
ATOM     30  C   UNL     1      17.341 -13.630   7.049  1.00  0.00     0.004 C 
ENDBRANCH  28  29
ENDBRANCH  27  28
ENDBRANCH  26  27
ENDBRANCH  25  26
ENDBRANCH  24  25
ENDBRANCH  23  24
ENDBRANCH  22  23
ENDBRANCH  21  22
ENDBRANCH  20  21
ENDBRANCH  19  20
ENDBRANCH  18  19
ENDBRANCH  17  18
ENDBRANCH   1  17
TORSDOF 26
ENDMDL
MODEL 8
REMARK VINA RESULT:    -4.530      6.319      8.864
REMARK INTER + INTRA:         -16.788
REMARK INTER:                 -13.738
REMARK INTRA:                  -3.051
REMARK UNBOUND:                -5.374
REMARK SMILES CCCCCCCCCCCCCCCCCCCCCCCCCCCC(=O)[O-]
REMARK SMILES IDX 15 1 16 2 17 3 18 4 19 5 20 6 21 7 22 8 23 9 24 10 25 11
REMARK SMILES IDX 26 12 27 13 28 14 29 15 30 16 14 17 13 18 12 19 11 20 10 21
REMARK SMILES IDX 9 22 8 23 7 24 6 25 5 26 4 27 3 28 2 29 1 30
REMARK H PARENT
REMARK Flexibility Score: inf
ROOT
ATOM      1  C   UNL     1      21.292  -5.210  18.493  1.00  0.00     0.000 C 
ENDROOT
BRANCH   1   2
ATOM      2  C   UNL     1      21.431  -5.486  16.988  1.00  0.00     0.000 C 
BRANCH   2   3
ATOM      3  C   UNL     1      20.663  -6.742  16.539  1.00  0.00     0.000 C 
BRANCH   3   4
ATOM      4  C   UNL     1      21.575  -7.777  15.861  1.00  0.00     0.000 C 
BRANCH   4   5
ATOM      5  C   UNL     1      20.845  -8.601  14.785  1.00  0.00     0.000 C 
BRANCH   5   6
ATOM      6  C   UNL     1      19.333  -8.301  14.747  1.00  0.00     0.000 C 
BRANCH   6   7
ATOM      7  C   UNL     1      18.597  -8.985  13.582  1.00  0.00     0.000 C 
BRANCH   7   8
ATOM      8  C   UNL     1      18.680 -10.519  13.644  1.00  0.00     0.000 C 
BRANCH   8   9
ATOM      9  C   UNL     1      19.150 -11.140  12.317  1.00  0.00     0.000 C 
BRANCH   9  10
ATOM     10  C   UNL     1      18.261 -12.310  11.867  1.00  0.00     0.000 C 
BRANCH  10  11
ATOM     11  C   UNL     1      18.398 -12.625  10.365  1.00  0.00     0.000 C 
BRANCH  11  12
ATOM     12  C   UNL     1      18.803 -14.073  10.035  1.00  0.00     0.006 C 
BRANCH  12  13
ATOM     13  C   UNL     1      18.138 -15.105  10.955  1.00  0.00     0.053 C 
BRANCH  13  14
ATOM     14  C   UNL     1      19.132 -16.134  11.389  1.00  0.00     0.041 C 
ATOM     15  O   UNL     1      20.344 -15.823  11.534  1.00  0.00    -0.550 OA
ATOM     16  O   UNL     1      18.729 -17.450  11.588  1.00  0.00    -0.550 OA
ENDBRANCH  13  14
ENDBRANCH  12  13
ENDBRANCH  11  12
ENDBRANCH  10  11
ENDBRANCH   9  10
ENDBRANCH   8   9
ENDBRANCH   7   8
ENDBRANCH   6   7
ENDBRANCH   5   6
ENDBRANCH   4   5
ENDBRANCH   3   4
ENDBRANCH   2   3
ENDBRANCH   1   2
BRANCH   1  17
ATOM     17  C   UNL     1      21.387  -3.713  18.833  1.00  0.00     0.000 C 
BRANCH  17  18
ATOM     18  C   UNL     1      20.006  -3.075  19.059  1.00  0.00     0.000 C 
BRANCH  18  19
ATOM     19  C   UNL     1      19.744  -1.887  18.113  1.00  0.00     0.000 C 
BRANCH  19  20
ATOM     20  C   UNL     1      18.728  -2.222  17.009  1.00  0.00     0.000 C 
BRANCH  20  21
ATOM     21  C   UNL     1      17.922  -3.495  17.320  1.00  0.00     0.000 C 
BRANCH  21  22
ATOM     22  C   UNL     1      16.591  -3.206  18.037  1.00  0.00    -0.000 C 
BRANCH  22  23
ATOM     23  C   UNL     1      16.465  -3.788  19.457  1.00  0.00    -0.000 C 
BRANCH  23  24
ATOM     24  C   UNL     1      16.565  -2.718  20.558  1.00  0.00    -0.000 C 
BRANCH  24  25
ATOM     25  C   UNL     1      16.346  -1.290  20.025  1.00  0.00    -0.000 C 
BRANCH  25  26
ATOM     26  C   UNL     1      17.425  -0.264  20.426  1.00  0.00    -0.000 C 
BRANCH  26  27
ATOM     27  C   UNL     1      17.994  -0.426  21.847  1.00  0.00    -0.000 C 
BRANCH  27  28
ATOM     28  C   UNL     1      19.517  -0.640  21.859  1.00  0.00    -0.000 C 
BRANCH  28  29
ATOM     29  C   UNL     1      20.266   0.397  21.008  1.00  0.00    -0.003 C 
ATOM     30  C   UNL     1      21.705  -0.018  20.696  1.00  0.00     0.004 C 
ENDBRANCH  28  29
ENDBRANCH  27  28
ENDBRANCH  26  27
ENDBRANCH  25  26
ENDBRANCH  24  25
ENDBRANCH  23  24
ENDBRANCH  22  23
ENDBRANCH  21  22
ENDBRANCH  20  21
ENDBRANCH  19  20
ENDBRANCH  18  19
ENDBRANCH  17  18
ENDBRANCH   1  17
TORSDOF 26
ENDMDL
MODEL 9
REMARK VINA RESULT:    -4.516      6.285      8.864
REMARK INTER + INTRA:         -16.754
REMARK INTER:                 -13.615
REMARK INTRA:                  -3.139
REMARK UNBOUND:                -5.374
REMARK SMILES CCCCCCCCCCCCCCCCCCCCCCCCCCCC(=O)[O-]
REMARK SMILES IDX 15 1 16 2 17 3 18 4 19 5 20 6 21 7 22 8 23 9 24 10 25 11
REMARK SMILES IDX 26 12 27 13 28 14 29 15 30 16 14 17 13 18 12 19 11 20 10 21
REMARK SMILES IDX 9 22 8 23 7 24 6 25 5 26 4 27 3 28 2 29 1 30
REMARK H PARENT
REMARK Flexibility Score: inf
ROOT
ATOM      1  C   UNL     1      20.449  -3.913  17.448  1.00  0.00     0.000 C 
ENDROOT
BRANCH   1   2
ATOM      2  C   UNL     1      21.374  -5.136  17.349  1.00  0.00     0.000 C 
BRANCH   2   3
ATOM      3  C   UNL     1      20.634  -6.406  16.895  1.00  0.00     0.000 C 
BRANCH   3   4
ATOM      4  C   UNL     1      21.556  -7.387  16.151  1.00  0.00     0.000 C 
BRANCH   4   5
ATOM      5  C   UNL     1      20.800  -8.258  15.132  1.00  0.00     0.000 C 
BRANCH   5   6
ATOM      6  C   UNL     1      19.284  -7.973  15.131  1.00  0.00     0.000 C 
BRANCH   6   7
ATOM      7  C   UNL     1      18.461  -9.014  14.353  1.00  0.00     0.000 C 
BRANCH   7   8
ATOM      8  C   UNL     1      19.279  -9.726  13.262  1.00  0.00     0.000 C 
BRANCH   8   9
ATOM      9  C   UNL     1      18.916 -11.215  13.129  1.00  0.00     0.000 C 
BRANCH   9  10
ATOM     10  C   UNL     1      18.061 -11.503  11.884  1.00  0.00     0.000 C 
BRANCH  10  11
ATOM     11  C   UNL     1      18.796 -12.363  10.838  1.00  0.00     0.000 C 
BRANCH  11  12
ATOM     12  C   UNL     1      18.886 -13.863  11.171  1.00  0.00     0.006 C 
BRANCH  12  13
ATOM     13  C   UNL     1      18.953 -14.751   9.921  1.00  0.00     0.053 C 
BRANCH  13  14
ATOM     14  C   UNL     1      19.109 -16.187  10.309  1.00  0.00     0.041 C 
ATOM     15  O   UNL     1      19.983 -16.523  11.151  1.00  0.00    -0.550 OA
ATOM     16  O   UNL     1      18.323 -17.160   9.705  1.00  0.00    -0.550 OA
ENDBRANCH  13  14
ENDBRANCH  12  13
ENDBRANCH  11  12
ENDBRANCH  10  11
ENDBRANCH   9  10
ENDBRANCH   8   9
ENDBRANCH   7   8
ENDBRANCH   6   7
ENDBRANCH   5   6
ENDBRANCH   4   5
ENDBRANCH   3   4
ENDBRANCH   2   3
ENDBRANCH   1   2
BRANCH   1  17
ATOM     17  C   UNL     1      20.889  -2.922  18.540  1.00  0.00     0.000 C 
BRANCH  17  18
ATOM     18  C   UNL     1      21.630  -3.616  19.696  1.00  0.00     0.000 C 
BRANCH  18  19
ATOM     19  C   UNL     1      21.731  -2.726  20.949  1.00  0.00     0.000 C 
BRANCH  19  20
ATOM     20  C   UNL     1      21.076  -3.365  22.185  1.00  0.00     0.000 C 
BRANCH  20  21
ATOM     21  C   UNL     1      20.999  -2.395  23.375  1.00  0.00     0.000 C 
BRANCH  21  22
ATOM     22  C   UNL     1      21.450  -0.967  23.020  1.00  0.00    -0.000 C 
BRANCH  22  23
ATOM     23  C   UNL     1      20.323   0.078  22.923  1.00  0.00    -0.000 C 
BRANCH  23  24
ATOM     24  C   UNL     1      20.265   0.776  21.554  1.00  0.00    -0.000 C 
BRANCH  24  25
ATOM     25  C   UNL     1      19.440  -0.009  20.517  1.00  0.00    -0.000 C 
BRANCH  25  26
ATOM     26  C   UNL     1      18.293  -0.861  21.097  1.00  0.00    -0.000 C 
BRANCH  26  27
ATOM     27  C   UNL     1      17.756  -1.964  20.168  1.00  0.00    -0.000 C 
BRANCH  27  28
ATOM     28  C   UNL     1      17.604  -3.320  20.878  1.00  0.00    -0.000 C 
BRANCH  28  29
ATOM     29  C   UNL     1      17.995  -4.504  19.980  1.00  0.00    -0.003 C 
ATOM     30  C   UNL     1      17.068  -4.665  18.773  1.00  0.00     0.004 C 
ENDBRANCH  28  29
ENDBRANCH  27  28
ENDBRANCH  26  27
ENDBRANCH  25  26
ENDBRANCH  24  25
ENDBRANCH  23  24
ENDBRANCH  22  23
ENDBRANCH  21  22
ENDBRANCH  20  21
ENDBRANCH  19  20
ENDBRANCH  18  19
ENDBRANCH  17  18
ENDBRANCH   1  17
TORSDOF 26
ENDMDL
