MODEL 1
REMARK VINA RESULT:    -3.385      0.000      0.000
REMARK INTER + INTRA:          -3.583
REMARK INTER:                  -3.583
REMARK INTRA:                   0.000
REMARK UNBOUND:                 0.000
REMARK SMILES O=c1ccc2cc(O)c(O)cc2o1
REMARK SMILES IDX 4 1 3 2 2 3 1 4 13 5 12 6 11 7 9 8 7 9 6 10 5 11 8 12 10 14
REMARK H PARENT 8 13 10 15
REMARK Flexibility Score: inf
ROOT
ATOM      1  C   UNL     1      11.905  -1.117  11.009  1.00  0.00     0.019 A 
ATOM      2  C   UNL     1      10.899  -1.875  10.410  1.00  0.00     0.094 A 
ATOM      3  C   UNL     1      10.986  -3.270  10.450  1.00  0.00     0.336 A 
ATOM      4  O   UNL     1      10.088  -3.971   9.915  1.00  0.00    -0.246 OA
ATOM      5  O   UNL     1      12.014  -3.864  11.050  1.00  0.00    -0.423 OA
ATOM      6  C   UNL     1      12.995  -3.179  11.634  1.00  0.00     0.142 A 
ATOM      7  C   UNL     1      14.050  -3.858  12.250  1.00  0.00     0.098 A 
ATOM      8  C   UNL     1      15.086  -3.146  12.866  1.00  0.00     0.161 A 
ATOM      9  C   UNL     1      15.067  -1.738  12.867  1.00  0.00     0.158 A 
ATOM     10  C   UNL     1      14.010  -1.053  12.249  1.00  0.00     0.062 A 
ATOM     11  C   UNL     1      12.974  -1.768  11.633  1.00  0.00     0.022 A 
ENDROOT
BRANCH   9  12
ATOM     12  O   UNL     1      16.098  -1.027  13.480  1.00  0.00    -0.504 OA
ATOM     13  H   UNL     1      15.924  -0.162  13.976  1.00  0.00     0.293 HD
ENDBRANCH   9  12
BRANCH   8  14
ATOM     14  O   UNL     1      16.125  -3.851  13.472  1.00  0.00    -0.504 OA
ATOM     15  H   UNL     1      16.379  -3.708  14.443  1.00  0.00     0.293 HD
ENDBRANCH   8  14
TORSDOF 2
ENDMDL
MODEL 2
REMARK VINA RESULT:    -3.088      1.506      5.040
REMARK INTER + INTRA:          -3.269
REMARK INTER:                  -3.269
REMARK INTRA:                   0.000
REMARK UNBOUND:                 0.000
REMARK SMILES O=c1ccc2cc(O)c(O)cc2o1
REMARK SMILES IDX 4 1 3 2 2 3 1 4 13 5 12 6 11 7 9 8 7 9 6 10 5 11 8 12 10 14
REMARK H PARENT 8 13 10 15
REMARK Flexibility Score: inf
ROOT
ATOM      1  C   UNL     1      15.051  -2.796  12.327  1.00  0.00     0.019 A 
ATOM      2  C   UNL     1      15.875  -1.770  12.790  1.00  0.00     0.094 A 
ATOM      3  C   UNL     1      15.396  -0.456  12.775  1.00  0.00     0.336 A 
ATOM      4  O   UNL     1      16.124   0.483  13.189  1.00  0.00    -0.246 OA
ATOM      5  O   UNL     1      14.172  -0.191  12.326  1.00  0.00    -0.423 OA
ATOM      6  C   UNL     1      13.353  -1.139  11.876  1.00  0.00     0.142 A 
ATOM      7  C   UNL     1      12.078  -0.799  11.415  1.00  0.00     0.098 A 
ATOM      8  C   UNL     1      11.211  -1.790  10.940  1.00  0.00     0.161 A 
ATOM      9  C   UNL     1      11.623  -3.136  10.924  1.00  0.00     0.158 A 
ATOM     10  C   UNL     1      12.902  -3.480  11.384  1.00  0.00     0.062 A 
ATOM     11  C   UNL     1      13.770  -2.487  11.860  1.00  0.00     0.022 A 
ENDROOT
BRANCH   9  12
ATOM     12  O   UNL     1      10.761  -4.124  10.450  1.00  0.00    -0.504 OA
ATOM     13  H   UNL     1      10.786  -5.069  10.813  1.00  0.00     0.293 HD
ENDBRANCH   9  12
BRANCH   8  14
ATOM     14  O   UNL     1       9.944  -1.421  10.488  1.00  0.00    -0.504 OA
ATOM     15  H   UNL     1       9.298  -0.896  11.065  1.00  0.00     0.293 HD
ENDBRANCH   8  14
TORSDOF 2
ENDMDL
MODEL 3
REMARK VINA RESULT:    -1.707      1.092      4.563
REMARK INTER + INTRA:          -1.807
REMARK INTER:                  -1.807
REMARK INTRA:                   0.000
REMARK UNBOUND:                 0.000
REMARK SMILES O=c1ccc2cc(O)c(O)cc2o1
REMARK SMILES IDX 4 1 3 2 2 3 1 4 13 5 12 6 11 7 9 8 7 9 6 10 5 11 8 12 10 14
REMARK H PARENT 8 13 10 15
REMARK Flexibility Score: inf
ROOT
ATOM      1  C   UNL     1      13.733  -0.912  12.248  1.00  0.00     0.019 A 
ATOM      2  C   UNL     1      14.908  -1.524  12.685  1.00  0.00     0.094 A 
ATOM      3  C   UNL     1      15.072  -2.898  12.486  1.00  0.00     0.336 A 
ATOM      4  O   UNL     1      16.125  -3.468  12.873  1.00  0.00    -0.246 OA
ATOM      5  O   UNL     1      14.121  -3.610  11.887  1.00  0.00    -0.423 OA
ATOM      6  C   UNL     1      12.985  -3.067  11.455  1.00  0.00     0.142 A 
ATOM      7  C   UNL     1      12.020  -3.866  10.834  1.00  0.00     0.098 A 
ATOM      8  C   UNL     1      10.823  -3.303  10.377  1.00  0.00     0.161 A 
ATOM      9  C   UNL     1      10.586  -1.925  10.542  1.00  0.00     0.158 A 
ATOM     10  C   UNL     1      11.551  -1.120  11.165  1.00  0.00     0.062 A 
ATOM     11  C   UNL     1      12.749  -1.685  11.623  1.00  0.00     0.022 A 
ENDROOT
BRANCH   9  12
ATOM     12  O   UNL     1       9.394  -1.362  10.088  1.00  0.00    -0.504 OA
ATOM     13  H   UNL     1       8.799  -0.816  10.697  1.00  0.00     0.293 HD
ENDBRANCH   9  12
BRANCH   8  14
ATOM     14  O   UNL     1       9.880  -4.125   9.761  1.00  0.00    -0.504 OA
ATOM     15  H   UNL     1       9.922  -5.135   9.825  1.00  0.00     0.293 HD
ENDBRANCH   8  14
TORSDOF 2
ENDMDL
