MODEL 1
REMARK VINA RESULT:    -6.648      0.000      0.000
REMARK INTER + INTRA:         -13.886
REMARK INTER:                 -10.923
REMARK INTRA:                  -2.962
REMARK UNBOUND:                -2.962
REMARK SMILES C[C@@H]1O[C@@H](OC[C@H]2O[C@H](Oc3c(-c4ccc(O)c(O)c4)oc4cc(O)cc(O)c4c3=O)[C@@H](O)[C@H](O)[C@@H]2O)[C@@H](O)[C@@H](O)[C@@H]1O
REMARK SMILES IDX 7 1 36 2 34 3 32 4 9 5 8 6 6 7 5 8 4 9 1 10 2 11 42 12 3 13
REMARK SMILES IDX 40 14 38 15 43 16 41 18 39 20 37 22 35 24 10 26 11 27 12 28
REMARK SMILES IDX 30 29 21 30 29 31 31 32 22 33 27 34 23 35 26 36 24 37 13 38
REMARK SMILES IDX 20 39 14 40 18 41 15 42 16 43 19 44 17 46 28 48 25 50 33 52
REMARK H PARENT 43 17 41 19 39 21 37 23 35 25 19 45 17 47 28 49 25 51 33 53
REMARK Flexibility Score: inf
ROOT
ATOM      1  C   UNL     1       7.578  28.499  22.190  1.00  0.00     0.180 C 
ATOM      2  C   UNL     1       6.470  29.497  22.597  1.00  0.00     0.177 C 
ATOM      3  C   UNL     1       6.991  30.943  22.475  1.00  0.00     0.180 C 
ATOM      4  C   UNL     1       7.630  31.164  21.097  1.00  0.00     0.214 C 
ATOM      5  C   UNL     1       8.639  30.043  20.773  1.00  0.00     0.339 C 
ATOM      6  O   UNL     1       8.032  28.767  20.873  1.00  0.00    -0.332 OA
ENDROOT
BRANCH   1   7
ATOM      7  C   UNL     1       7.060  27.058  22.215  1.00  0.00     0.198 C 
BRANCH   7   8
ATOM      8  O   UNL     1       8.141  26.155  22.359  1.00  0.00    -0.347 OA
BRANCH   8   9
ATOM      9  C   UNL     1       8.158  25.146  21.351  1.00  0.00     0.281 C 
ATOM     10  C   UNL     1       9.544  22.441  23.431  1.00  0.00     0.041 C 
ATOM     11  C   UNL     1       9.523  23.775  22.687  1.00  0.00     0.150 C 
ATOM     12  C   UNL     1      10.760  23.925  21.762  1.00  0.00     0.174 C 
ATOM     13  O   UNL     1       8.310  23.868  21.953  1.00  0.00    -0.344 OA
ATOM     14  C   UNL     1      10.670  25.221  20.926  1.00  0.00     0.179 C 
ATOM     15  C   UNL     1       9.269  25.364  20.291  1.00  0.00     0.202 C 
BRANCH  12  16
ATOM     16  O   UNL     1      10.932  22.802  20.928  1.00  0.00    -0.388 OA
ATOM     17  H   UNL     1      10.367  22.919  20.121  1.00  0.00     0.211 HD
ENDBRANCH  12  16
BRANCH  14  18
ATOM     18  O   UNL     1      10.942  26.336  21.740  1.00  0.00    -0.387 OA
ATOM     19  H   UNL     1      11.544  26.930  21.221  1.00  0.00     0.211 HD
ENDBRANCH  14  18
BRANCH  15  20
ATOM     20  O   UNL     1       9.101  26.603  19.647  1.00  0.00    -0.385 OA
ATOM     21  H   UNL     1       9.825  27.213  19.953  1.00  0.00     0.211 HD
ENDBRANCH  15  20
ENDBRANCH   8   9
ENDBRANCH   7   8
ENDBRANCH   1   7
BRANCH   2  22
ATOM     22  O   UNL     1       6.056  29.248  23.915  1.00  0.00    -0.387 OA
ATOM     23  H   UNL     1       5.569  30.056  24.223  1.00  0.00     0.211 HD
ENDBRANCH   2  22
BRANCH   3  24
ATOM     24  O   UNL     1       7.940  31.208  23.476  1.00  0.00    -0.387 OA
ATOM     25  H   UNL     1       8.804  31.384  23.016  1.00  0.00     0.211 HD
ENDBRANCH   3  24
BRANCH   5  26
ATOM     26  O   UNL     1       9.798  30.144  21.606  1.00  0.00    -0.454 OA
BRANCH  26  27
ATOM     27  C   UNL     1      11.056  30.526  21.125  1.00  0.00     0.214 A 
ATOM     28  C   UNL     1      11.634  31.735  21.556  1.00  0.00     0.180 A 
ATOM     29  C   UNL     1      11.761  29.727  20.213  1.00  0.00     0.239 A 
ATOM     30  O   UNL     1      12.806  32.124  21.063  1.00  0.00    -0.452 OA
ATOM     31  C   UNL     1      13.007  30.166  19.719  1.00  0.00     0.111 A 
ATOM     32  O   UNL     1      11.285  28.616  19.859  1.00  0.00    -0.285 OA
ATOM     33  C   UNL     1      13.500  31.407  20.184  1.00  0.00     0.146 A 
ATOM     34  C   UNL     1      13.774  29.425  18.789  1.00  0.00     0.134 A 
ATOM     35  C   UNL     1      14.727  31.894  19.727  1.00  0.00     0.094 A 
ATOM     36  C   UNL     1      15.006  29.928  18.346  1.00  0.00     0.093 A 
ATOM     37  C   UNL     1      15.484  31.155  18.808  1.00  0.00     0.123 A 
BRANCH  28  38
ATOM     38  C   UNL     1      10.956  32.618  22.531  1.00  0.00     0.025 A 
ATOM     39  C   UNL     1      11.129  32.391  23.906  1.00  0.00     0.062 A 
ATOM     40  C   UNL     1      10.098  33.650  22.109  1.00  0.00     0.016 A 
ATOM     41  C   UNL     1      10.485  33.197  24.851  1.00  0.00     0.158 A 
ATOM     42  C   UNL     1       9.454  34.458  23.050  1.00  0.00     0.051 A 
ATOM     43  C   UNL     1       9.641  34.237  24.422  1.00  0.00     0.157 A 
BRANCH  41  44
ATOM     44  O   UNL     1      10.696  32.950  26.208  1.00  0.00    -0.504 OA
ATOM     45  H   UNL     1      11.569  33.180  26.666  1.00  0.00     0.293 HD
ENDBRANCH  41  44
BRANCH  43  46
ATOM     46  O   UNL     1       8.980  35.034  25.358  1.00  0.00    -0.504 OA
ATOM     47  H   UNL     1       9.457  35.404  26.172  1.00  0.00     0.293 HD
ENDBRANCH  43  46
ENDBRANCH  28  38
BRANCH  34  48
ATOM     48  O   UNL     1      13.324  28.195  18.304  1.00  0.00    -0.507 OA
ATOM     49  H   UNL     1      13.243  27.382  18.901  1.00  0.00     0.293 HD
ENDBRANCH  34  48
BRANCH  37  50
ATOM     50  O   UNL     1      16.712  31.629  18.356  1.00  0.00    -0.508 OA
ATOM     51  H   UNL     1      17.524  31.662  18.963  1.00  0.00     0.293 HD
ENDBRANCH  37  50
ENDBRANCH  26  27
ENDBRANCH   5  26
BRANCH   4  52
ATOM     52  O   UNL     1       6.622  31.187  20.118  1.00  0.00    -0.384 OA
ATOM     53  H   UNL     1       6.239  30.269  20.077  1.00  0.00     0.211 HD
ENDBRANCH   4  52
TORSDOF 16
ENDMDL
MODEL 2
REMARK VINA RESULT:    -6.274      1.946      5.799
REMARK INTER + INTRA:         -13.271
REMARK INTER:                 -10.745
REMARK INTRA:                  -2.526
REMARK UNBOUND:                -2.962
REMARK SMILES C[C@@H]1O[C@@H](OC[C@H]2O[C@H](Oc3c(-c4ccc(O)c(O)c4)oc4cc(O)cc(O)c4c3=O)[C@@H](O)[C@H](O)[C@@H]2O)[C@@H](O)[C@@H](O)[C@@H]1O
REMARK SMILES IDX 7 1 36 2 34 3 32 4 9 5 8 6 6 7 5 8 4 9 1 10 2 11 42 12 3 13
REMARK SMILES IDX 40 14 38 15 43 16 41 18 39 20 37 22 35 24 10 26 11 27 12 28
REMARK SMILES IDX 30 29 21 30 29 31 31 32 22 33 27 34 23 35 26 36 24 37 13 38
REMARK SMILES IDX 20 39 14 40 18 41 15 42 16 43 19 44 17 46 28 48 25 50 33 52
REMARK H PARENT 43 17 41 19 39 21 37 23 35 25 19 45 17 47 28 49 25 51 33 53
REMARK Flexibility Score: inf
ROOT
ATOM      1  C   UNL     1      11.919  27.459  20.675  1.00  0.00     0.180 C 
ATOM      2  C   UNL     1      12.495  26.894  19.357  1.00  0.00     0.177 C 
ATOM      3  C   UNL     1      12.653  28.026  18.322  1.00  0.00     0.180 C 
ATOM      4  C   UNL     1      13.411  29.210  18.942  1.00  0.00     0.214 C 
ATOM      5  C   UNL     1      12.797  29.604  20.300  1.00  0.00     0.339 C 
ATOM      6  O   UNL     1      12.748  28.494  21.179  1.00  0.00    -0.332 OA
ENDROOT
BRANCH   1   7
ATOM      7  C   UNL     1      11.835  26.372  21.752  1.00  0.00     0.198 C 
BRANCH   7   8
ATOM      8  O   UNL     1      10.500  26.236  22.203  1.00  0.00    -0.347 OA
BRANCH   8   9
ATOM      9  C   UNL     1       9.928  24.972  21.873  1.00  0.00     0.281 C 
ATOM     10  C   UNL     1       8.048  26.077  18.906  1.00  0.00     0.041 C 
ATOM     11  C   UNL     1       8.423  25.994  20.385  1.00  0.00     0.150 C 
ATOM     12  C   UNL     1       7.182  25.690  21.265  1.00  0.00     0.174 C 
ATOM     13  O   UNL     1       9.429  25.004  20.544  1.00  0.00    -0.344 OA
ATOM     14  C   UNL     1       7.589  25.490  22.742  1.00  0.00     0.179 C 
ATOM     15  C   UNL     1       8.803  24.540  22.849  1.00  0.00     0.202 C 
BRANCH  12  16
ATOM     16  O   UNL     1       6.459  24.578  20.790  1.00  0.00    -0.388 OA
ATOM     17  H   UNL     1       6.448  24.610  19.799  1.00  0.00     0.211 HD
ENDBRANCH  12  16
BRANCH  14  18
ATOM     18  O   UNL     1       7.901  26.731  23.326  1.00  0.00    -0.387 OA
ATOM     19  H   UNL     1       7.051  27.240  23.388  1.00  0.00     0.211 HD
ENDBRANCH  14  18
BRANCH  15  20
ATOM     20  O   UNL     1       9.295  24.452  24.163  1.00  0.00    -0.385 OA
ATOM     21  H   UNL     1       8.768  25.074  24.735  1.00  0.00     0.211 HD
ENDBRANCH  15  20
ENDBRANCH   8   9
ENDBRANCH   7   8
ENDBRANCH   1   7
BRANCH   2  22
ATOM     22  O   UNL     1      11.646  25.898  18.848  1.00  0.00    -0.387 OA
ATOM     23  H   UNL     1      10.787  26.339  18.620  1.00  0.00     0.211 HD
ENDBRANCH   2  22
BRANCH   3  24
ATOM     24  O   UNL     1      11.395  28.462  17.875  1.00  0.00    -0.387 OA
ATOM     25  H   UNL     1      10.905  27.656  17.561  1.00  0.00     0.211 HD
ENDBRANCH   3  24
BRANCH   5  26
ATOM     26  O   UNL     1      11.507  30.197  20.124  1.00  0.00    -0.454 OA
BRANCH  26  27
ATOM     27  C   UNL     1      10.803  30.822  21.161  1.00  0.00     0.214 A 
ATOM     28  C   UNL     1      11.326  31.981  21.764  1.00  0.00     0.180 A 
ATOM     29  C   UNL     1       9.578  30.315  21.619  1.00  0.00     0.239 A 
ATOM     30  O   UNL     1      10.684  32.548  22.781  1.00  0.00    -0.452 OA
ATOM     31  C   UNL     1       8.920  30.949  22.694  1.00  0.00     0.111 A 
ATOM     32  O   UNL     1       9.068  29.311  21.055  1.00  0.00    -0.285 OA
ATOM     33  C   UNL     1       9.531  32.091  23.259  1.00  0.00     0.146 A 
ATOM     34  C   UNL     1       7.688  30.493  23.222  1.00  0.00     0.134 A 
ATOM     35  C   UNL     1       8.926  32.758  24.328  1.00  0.00     0.094 A 
ATOM     36  C   UNL     1       7.094  31.179  24.292  1.00  0.00     0.093 A 
ATOM     37  C   UNL     1       7.706  32.305  24.845  1.00  0.00     0.123 A 
BRANCH  28  38
ATOM     38  C   UNL     1      12.603  32.582  21.318  1.00  0.00     0.025 A 
ATOM     39  C   UNL     1      13.794  32.251  21.985  1.00  0.00     0.062 A 
ATOM     40  C   UNL     1      12.643  33.520  20.270  1.00  0.00     0.016 A 
ATOM     41  C   UNL     1      15.012  32.818  21.599  1.00  0.00     0.158 A 
ATOM     42  C   UNL     1      13.859  34.087  19.881  1.00  0.00     0.051 A 
ATOM     43  C   UNL     1      15.047  33.743  20.540  1.00  0.00     0.157 A 
BRANCH  41  44
ATOM     44  O   UNL     1      16.175  32.450  22.276  1.00  0.00    -0.504 OA
ATOM     45  H   UNL     1      17.037  32.242  21.789  1.00  0.00     0.293 HD
ENDBRANCH  41  44
BRANCH  43  46
ATOM     46  O   UNL     1      16.256  34.328  20.161  1.00  0.00    -0.504 OA
ATOM     47  H   UNL     1      16.861  33.898  19.471  1.00  0.00     0.293 HD
ENDBRANCH  43  46
ENDBRANCH  28  38
BRANCH  34  48
ATOM     48  O   UNL     1       7.052  29.369  22.693  1.00  0.00    -0.507 OA
ATOM     49  H   UNL     1       6.981  28.501  23.209  1.00  0.00     0.293 HD
ENDBRANCH  34  48
BRANCH  37  50
ATOM     50  O   UNL     1       7.092  32.969  25.903  1.00  0.00    -0.508 OA
ATOM     51  H   UNL     1       6.569  33.826  25.759  1.00  0.00     0.293 HD
ENDBRANCH  37  50
ENDBRANCH  26  27
ENDBRANCH   5  26
BRANCH   4  52
ATOM     52  O   UNL     1      14.758  28.854  19.119  1.00  0.00    -0.384 OA
ATOM     53  H   UNL     1      15.276  29.703  19.175  1.00  0.00     0.211 HD
ENDBRANCH   4  52
TORSDOF 16
ENDMDL
MODEL 3
REMARK VINA RESULT:    -6.258      2.777      6.944
REMARK INTER + INTRA:         -13.245
REMARK INTER:                 -11.238
REMARK INTRA:                  -2.007
REMARK UNBOUND:                -2.962
REMARK SMILES C[C@@H]1O[C@@H](OC[C@H]2O[C@H](Oc3c(-c4ccc(O)c(O)c4)oc4cc(O)cc(O)c4c3=O)[C@@H](O)[C@H](O)[C@@H]2O)[C@@H](O)[C@@H](O)[C@@H]1O
REMARK SMILES IDX 7 1 36 2 34 3 32 4 9 5 8 6 6 7 5 8 4 9 1 10 2 11 42 12 3 13
REMARK SMILES IDX 40 14 38 15 43 16 41 18 39 20 37 22 35 24 10 26 11 27 12 28
REMARK SMILES IDX 30 29 21 30 29 31 31 32 22 33 27 34 23 35 26 36 24 37 13 38
REMARK SMILES IDX 20 39 14 40 18 41 15 42 16 43 19 44 17 46 28 48 25 50 33 52
REMARK H PARENT 43 17 41 19 39 21 37 23 35 25 19 45 17 47 28 49 25 51 33 53
REMARK Flexibility Score: inf
ROOT
ATOM      1  C   UNL     1      10.605  32.235  20.574  1.00  0.00     0.180 C 
ATOM      2  C   UNL     1       9.606  32.213  19.394  1.00  0.00     0.177 C 
ATOM      3  C   UNL     1       9.777  30.914  18.581  1.00  0.00     0.180 C 
ATOM      4  C   UNL     1       9.751  29.695  19.515  1.00  0.00     0.214 C 
ATOM      5  C   UNL     1      10.715  29.892  20.703  1.00  0.00     0.339 C 
ATOM      6  O   UNL     1      10.429  31.093  21.397  1.00  0.00    -0.332 OA
ENDROOT
BRANCH   1   7
ATOM      7  C   UNL     1      10.396  33.473  21.452  1.00  0.00     0.198 C 
BRANCH   7   8
ATOM      8  O   UNL     1      10.275  33.091  22.810  1.00  0.00    -0.347 OA
BRANCH   8   9
ATOM      9  C   UNL     1       9.308  33.863  23.519  1.00  0.00     0.281 C 
ATOM     10  C   UNL     1       9.918  32.416  26.850  1.00  0.00     0.041 C 
ATOM     11  C   UNL     1       9.484  32.445  25.386  1.00  0.00     0.150 C 
ATOM     12  C   UNL     1       8.057  31.860  25.209  1.00  0.00     0.174 C 
ATOM     13  O   UNL     1       9.560  33.783  24.915  1.00  0.00    -0.344 OA
ATOM     14  C   UNL     1       7.580  32.002  23.746  1.00  0.00     0.179 C 
ATOM     15  C   UNL     1       7.849  33.430  23.222  1.00  0.00     0.202 C 
BRANCH  12  16
ATOM     16  O   UNL     1       7.134  32.449  26.096  1.00  0.00    -0.388 OA
ATOM     17  H   UNL     1       6.226  32.368  25.705  1.00  0.00     0.211 HD
ENDBRANCH  12  16
BRANCH  14  18
ATOM     18  O   UNL     1       8.242  31.063  22.933  1.00  0.00    -0.387 OA
ATOM     19  H   UNL     1       7.681  30.938  22.125  1.00  0.00     0.211 HD
ENDBRANCH  14  18
BRANCH  15  20
ATOM     20  O   UNL     1       7.567  33.555  21.850  1.00  0.00    -0.385 OA
ATOM     21  H   UNL     1       8.118  32.889  21.357  1.00  0.00     0.211 HD
ENDBRANCH  15  20
ENDBRANCH   8   9
ENDBRANCH   7   8
ENDBRANCH   1   7
BRANCH   2  22
ATOM     22  O   UNL     1       9.815  33.326  18.565  1.00  0.00    -0.387 OA
ATOM     23  H   UNL     1      10.034  34.091  19.158  1.00  0.00     0.211 HD
ENDBRANCH   2  22
BRANCH   3  24
ATOM     24  O   UNL     1      10.991  30.934  17.876  1.00  0.00    -0.387 OA
ATOM     25  H   UNL     1      10.873  31.562  17.114  1.00  0.00     0.211 HD
ENDBRANCH   3  24
BRANCH   5  26
ATOM     26  O   UNL     1      12.077  29.845  20.266  1.00  0.00    -0.454 OA
BRANCH  26  27
ATOM     27  C   UNL     1      13.160  29.737  21.148  1.00  0.00     0.214 A 
ATOM     28  C   UNL     1      13.479  28.490  21.718  1.00  0.00     0.180 A 
ATOM     29  C   UNL     1      13.942  30.853  21.482  1.00  0.00     0.239 A 
ATOM     30  O   UNL     1      14.476  28.395  22.592  1.00  0.00    -0.452 OA
ATOM     31  C   UNL     1      14.998  30.712  22.405  1.00  0.00     0.111 A 
ATOM     32  O   UNL     1      13.707  31.965  20.938  1.00  0.00    -0.285 OA
ATOM     33  C   UNL     1      15.231  29.429  22.951  1.00  0.00     0.146 A 
ATOM     34  C   UNL     1      15.826  31.790  22.803  1.00  0.00     0.134 A 
ATOM     35  C   UNL     1      16.262  29.231  23.873  1.00  0.00     0.094 A 
ATOM     36  C   UNL     1      16.858  31.570  23.726  1.00  0.00     0.093 A 
ATOM     37  C   UNL     1      17.079  30.300  24.261  1.00  0.00     0.123 A 
BRANCH  28  38
ATOM     38  C   UNL     1      12.710  27.268  21.395  1.00  0.00     0.025 A 
ATOM     39  C   UNL     1      11.714  26.823  22.281  1.00  0.00     0.062 A 
ATOM     40  C   UNL     1      12.989  26.511  20.243  1.00  0.00     0.016 A 
ATOM     41  C   UNL     1      10.984  25.661  22.012  1.00  0.00     0.158 A 
ATOM     42  C   UNL     1      12.261  25.350  19.972  1.00  0.00     0.051 A 
ATOM     43  C   UNL     1      11.258  24.917  20.851  1.00  0.00     0.157 A 
BRANCH  41  44
ATOM     44  O   UNL     1       9.993  25.262  22.909  1.00  0.00    -0.504 OA
ATOM     45  H   UNL     1       9.943  24.317  23.269  1.00  0.00     0.293 HD
ENDBRANCH  41  44
BRANCH  43  46
ATOM     46  O   UNL     1      10.548  23.746  20.585  1.00  0.00    -0.504 OA
ATOM     47  H   UNL     1      10.619  23.272  19.692  1.00  0.00     0.293 HD
ENDBRANCH  43  46
ENDBRANCH  28  38
BRANCH  34  48
ATOM     48  O   UNL     1      15.631  33.073  22.289  1.00  0.00    -0.507 OA
ATOM     49  H   UNL     1      15.327  33.843  22.871  1.00  0.00     0.293 HD
ENDBRANCH  34  48
BRANCH  37  50
ATOM     50  O   UNL     1      18.114  30.109  25.172  1.00  0.00    -0.508 OA
ATOM     51  H   UNL     1      18.398  29.180  25.464  1.00  0.00     0.293 HD
ENDBRANCH  37  50
ENDBRANCH  26  27
ENDBRANCH   5  26
BRANCH   4  52
ATOM     52  O   UNL     1       8.444  29.509  19.996  1.00  0.00    -0.384 OA
ATOM     53  H   UNL     1       7.923  30.317  19.734  1.00  0.00     0.211 HD
ENDBRANCH   4  52
TORSDOF 16
ENDMDL
MODEL 4
REMARK VINA RESULT:    -6.136      1.935      5.760
REMARK INTER + INTRA:         -13.044
REMARK INTER:                 -10.380
REMARK INTRA:                  -2.664
REMARK UNBOUND:                -2.962
REMARK SMILES C[C@@H]1O[C@@H](OC[C@H]2O[C@H](Oc3c(-c4ccc(O)c(O)c4)oc4cc(O)cc(O)c4c3=O)[C@@H](O)[C@H](O)[C@@H]2O)[C@@H](O)[C@@H](O)[C@@H]1O
REMARK SMILES IDX 7 1 36 2 34 3 32 4 9 5 8 6 6 7 5 8 4 9 1 10 2 11 42 12 3 13
REMARK SMILES IDX 40 14 38 15 43 16 41 18 39 20 37 22 35 24 10 26 11 27 12 28
REMARK SMILES IDX 30 29 21 30 29 31 31 32 22 33 27 34 23 35 26 36 24 37 13 38
REMARK SMILES IDX 20 39 14 40 18 41 15 42 16 43 19 44 17 46 28 48 25 50 33 52
REMARK H PARENT 43 17 41 19 39 21 37 23 35 25 19 45 17 47 28 49 25 51 33 53
REMARK Flexibility Score: inf
ROOT
ATOM      1  C   UNL     1      12.261  27.790  20.785  1.00  0.00     0.180 C 
ATOM      2  C   UNL     1      12.885  27.092  19.555  1.00  0.00     0.177 C 
ATOM      3  C   UNL     1      13.042  28.099  18.399  1.00  0.00     0.180 C 
ATOM      4  C   UNL     1      13.753  29.368  18.892  1.00  0.00     0.214 C 
ATOM      5  C   UNL     1      13.094  29.901  20.181  1.00  0.00     0.339 C 
ATOM      6  O   UNL     1      13.050  28.901  21.182  1.00  0.00    -0.332 OA
ENDROOT
BRANCH   1   7
ATOM      7  C   UNL     1      12.176  26.834  21.979  1.00  0.00     0.198 C 
BRANCH   7   8
ATOM      8  O   UNL     1      11.254  25.795  21.706  1.00  0.00    -0.347 OA
BRANCH   8   9
ATOM      9  C   UNL     1       9.918  26.126  22.080  1.00  0.00     0.281 C 
ATOM     10  C   UNL     1       9.347  23.263  24.325  1.00  0.00     0.041 C 
ATOM     11  C   UNL     1       9.603  23.988  23.005  1.00  0.00     0.150 C 
ATOM     12  C   UNL     1       8.588  23.551  21.915  1.00  0.00     0.174 C 
ATOM     13  O   UNL     1       9.547  25.388  23.236  1.00  0.00    -0.344 OA
ATOM     14  C   UNL     1       8.779  24.373  20.621  1.00  0.00     0.179 C 
ATOM     15  C   UNL     1       8.891  25.880  20.945  1.00  0.00     0.202 C 
BRANCH  12  16
ATOM     16  O   UNL     1       7.258  23.636  22.371  1.00  0.00    -0.388 OA
ATOM     17  H   UNL     1       7.269  23.895  23.328  1.00  0.00     0.211 HD
ENDBRANCH  12  16
BRANCH  14  18
ATOM     18  O   UNL     1       9.937  23.943  19.947  1.00  0.00    -0.387 OA
ATOM     19  H   UNL     1       9.796  24.138  18.984  1.00  0.00     0.211 HD
ENDBRANCH  14  18
BRANCH  15  20
ATOM     20  O   UNL     1       9.215  26.645  19.811  1.00  0.00    -0.385 OA
ATOM     21  H   UNL     1       9.297  27.596  20.091  1.00  0.00     0.211 HD
ENDBRANCH  15  20
ENDBRANCH   8   9
ENDBRANCH   7   8
ENDBRANCH   1   7
BRANCH   2  22
ATOM     22  O   UNL     1      12.075  26.019  19.148  1.00  0.00    -0.387 OA
ATOM     23  H   UNL     1      11.841  25.507  19.965  1.00  0.00     0.211 HD
ENDBRANCH   2  22
BRANCH   3  24
ATOM     24  O   UNL     1      11.785  28.444  17.875  1.00  0.00    -0.387 OA
ATOM     25  H   UNL     1      11.225  27.623  17.903  1.00  0.00     0.211 HD
ENDBRANCH   3  24
BRANCH   5  26
ATOM     26  O   UNL     1      11.795  30.433  19.906  1.00  0.00    -0.454 OA
BRANCH  26  27
ATOM     27  C   UNL     1      11.026  31.108  20.863  1.00  0.00     0.214 A 
ATOM     28  C   UNL     1      11.415  32.390  21.297  1.00  0.00     0.180 A 
ATOM     29  C   UNL     1       9.867  30.534  21.405  1.00  0.00     0.239 A 
ATOM     30  O   UNL     1      10.715  33.012  22.240  1.00  0.00    -0.452 OA
ATOM     31  C   UNL     1       9.144  31.228  22.396  1.00  0.00     0.111 A 
ATOM     32  O   UNL     1       9.473  29.412  20.988  1.00  0.00    -0.285 OA
ATOM     33  C   UNL     1       9.622  32.498  22.794  1.00  0.00     0.146 A 
ATOM     34  C   UNL     1       7.972  30.713  23.001  1.00  0.00     0.134 A 
ATOM     35  C   UNL     1       8.947  33.230  23.775  1.00  0.00     0.094 A 
ATOM     36  C   UNL     1       7.306  31.465  23.980  1.00  0.00     0.093 A 
ATOM     37  C   UNL     1       7.787  32.717  24.368  1.00  0.00     0.123 A 
BRANCH  28  38
ATOM     38  C   UNL     1      12.615  33.064  20.753  1.00  0.00     0.025 A 
ATOM     39  C   UNL     1      12.507  33.829  19.580  1.00  0.00     0.062 A 
ATOM     40  C   UNL     1      13.876  32.914  21.360  1.00  0.00     0.016 A 
ATOM     41  C   UNL     1      13.627  34.462  19.033  1.00  0.00     0.158 A 
ATOM     42  C   UNL     1      14.997  33.547  20.816  1.00  0.00     0.051 A 
ATOM     43  C   UNL     1      14.881  34.321  19.652  1.00  0.00     0.157 A 
BRANCH  41  44
ATOM     44  O   UNL     1      13.475  35.226  17.875  1.00  0.00    -0.504 OA
ATOM     45  H   UNL     1      13.760  34.885  16.966  1.00  0.00     0.293 HD
ENDBRANCH  41  44
BRANCH  43  46
ATOM     46  O   UNL     1      16.008  34.933  19.102  1.00  0.00    -0.504 OA
ATOM     47  H   UNL     1      16.661  34.421  18.521  1.00  0.00     0.293 HD
ENDBRANCH  43  46
ENDBRANCH  28  38
BRANCH  34  48
ATOM     48  O   UNL     1       7.466  29.463  22.638  1.00  0.00    -0.507 OA
ATOM     49  H   UNL     1       7.671  28.627  23.170  1.00  0.00     0.293 HD
ENDBRANCH  34  48
BRANCH  37  50
ATOM     50  O   UNL     1       7.103  33.444  25.338  1.00  0.00    -0.508 OA
ATOM     51  H   UNL     1       6.179  33.823  25.163  1.00  0.00     0.293 HD
ENDBRANCH  37  50
ENDBRANCH  26  27
ENDBRANCH   5  26
BRANCH   4  52
ATOM     52  O   UNL     1      15.104  29.073  19.141  1.00  0.00    -0.384 OA
ATOM     53  H   UNL     1      15.214  28.092  19.009  1.00  0.00     0.211 HD
ENDBRANCH   4  52
TORSDOF 16
ENDMDL
MODEL 5
REMARK VINA RESULT:    -6.119      1.975      7.351
REMARK INTER + INTRA:         -13.016
REMARK INTER:                 -11.038
REMARK INTRA:                  -1.978
REMARK UNBOUND:                -2.962
REMARK SMILES C[C@@H]1O[C@@H](OC[C@H]2O[C@H](Oc3c(-c4ccc(O)c(O)c4)oc4cc(O)cc(O)c4c3=O)[C@@H](O)[C@H](O)[C@@H]2O)[C@@H](O)[C@@H](O)[C@@H]1O
REMARK SMILES IDX 7 1 36 2 34 3 32 4 9 5 8 6 6 7 5 8 4 9 1 10 2 11 42 12 3 13
REMARK SMILES IDX 40 14 38 15 43 16 41 18 39 20 37 22 35 24 10 26 11 27 12 28
REMARK SMILES IDX 30 29 21 30 29 31 31 32 22 33 27 34 23 35 26 36 24 37 13 38
REMARK SMILES IDX 20 39 14 40 18 41 15 42 16 43 19 44 17 46 28 48 25 50 33 52
REMARK H PARENT 43 17 41 19 39 21 37 23 35 25 19 45 17 47 28 49 25 51 33 53
REMARK Flexibility Score: inf
ROOT
ATOM      1  C   UNL     1      11.692  32.728  20.805  1.00  0.00     0.180 C 
ATOM      2  C   UNL     1      12.005  33.938  19.897  1.00  0.00     0.177 C 
ATOM      3  C   UNL     1      11.576  33.636  18.447  1.00  0.00     0.180 C 
ATOM      4  C   UNL     1      10.129  33.122  18.418  1.00  0.00     0.214 C 
ATOM      5  C   UNL     1       9.928  31.988  19.442  1.00  0.00     0.339 C 
ATOM      6  O   UNL     1      10.313  32.400  20.741  1.00  0.00    -0.332 OA
ENDROOT
BRANCH   1   7
ATOM      7  C   UNL     1      12.026  33.034  22.268  1.00  0.00     0.198 C 
BRANCH   7   8
ATOM      8  O   UNL     1      10.844  33.353  22.981  1.00  0.00    -0.347 OA
BRANCH   8   9
ATOM      9  C   UNL     1      10.582  32.450  24.053  1.00  0.00     0.281 C 
ATOM     10  C   UNL     1       7.242  31.370  22.940  1.00  0.00     0.041 C 
ATOM     11  C   UNL     1       8.312  32.332  23.455  1.00  0.00     0.150 C 
ATOM     12  C   UNL     1       7.830  33.087  24.722  1.00  0.00     0.174 C 
ATOM     13  O   UNL     1       9.500  31.597  23.709  1.00  0.00    -0.344 OA
ATOM     14  C   UNL     1       8.959  33.967  25.303  1.00  0.00     0.179 C 
ATOM     15  C   UNL     1      10.279  33.169  25.393  1.00  0.00     0.202 C 
BRANCH  12  16
ATOM     16  O   UNL     1       7.327  32.206  25.700  1.00  0.00    -0.388 OA
ATOM     17  H   UNL     1       6.527  31.751  25.332  1.00  0.00     0.211 HD
ENDBRANCH  12  16
BRANCH  14  18
ATOM     18  O   UNL     1       9.143  35.105  24.496  1.00  0.00    -0.387 OA
ATOM     19  H   UNL     1       9.735  35.721  25.001  1.00  0.00     0.211 HD
ENDBRANCH  14  18
BRANCH  15  20
ATOM     20  O   UNL     1      11.364  33.978  25.776  1.00  0.00    -0.385 OA
ATOM     21  H   UNL     1      11.376  34.780  25.187  1.00  0.00     0.211 HD
ENDBRANCH  15  20
ENDBRANCH   8   9
ENDBRANCH   7   8
ENDBRANCH   1   7
BRANCH   2  22
ATOM     22  O   UNL     1      13.379  34.228  19.937  1.00  0.00    -0.387 OA
ATOM     23  H   UNL     1      13.749  33.763  20.732  1.00  0.00     0.211 HD
ENDBRANCH   2  22
BRANCH   3  24
ATOM     24  O   UNL     1      12.423  32.673  17.875  1.00  0.00    -0.387 OA
ATOM     25  H   UNL     1      13.015  33.152  17.235  1.00  0.00     0.211 HD
ENDBRANCH   3  24
BRANCH   5  26
ATOM     26  O   UNL     1      10.623  30.805  19.035  1.00  0.00    -0.454 OA
BRANCH  26  27
ATOM     27  C   UNL     1      10.711  29.656  19.832  1.00  0.00     0.214 A 
ATOM     28  C   UNL     1      11.971  29.103  20.128  1.00  0.00     0.180 A 
ATOM     29  C   UNL     1       9.562  29.037  20.348  1.00  0.00     0.239 A 
ATOM     30  O   UNL     1      12.054  27.985  20.844  1.00  0.00    -0.452 OA
ATOM     31  C   UNL     1       9.690  27.858  21.111  1.00  0.00     0.111 A 
ATOM     32  O   UNL     1       8.430  29.549  20.140  1.00  0.00    -0.285 OA
ATOM     33  C   UNL     1      10.991  27.356  21.336  1.00  0.00     0.146 A 
ATOM     34  C   UNL     1       8.580  27.167  21.656  1.00  0.00     0.134 A 
ATOM     35  C   UNL     1      11.178  26.189  22.083  1.00  0.00     0.094 A 
ATOM     36  C   UNL     1       8.788  26.001  22.407  1.00  0.00     0.093 A 
ATOM     37  C   UNL     1      10.078  25.511  22.622  1.00  0.00     0.123 A 
BRANCH  28  38
ATOM     38  C   UNL     1      13.224  29.715  19.635  1.00  0.00     0.025 A 
ATOM     39  C   UNL     1      13.911  30.635  20.446  1.00  0.00     0.062 A 
ATOM     40  C   UNL     1      13.718  29.434  18.348  1.00  0.00     0.016 A 
ATOM     41  C   UNL     1      15.088  31.243  19.999  1.00  0.00     0.158 A 
ATOM     42  C   UNL     1      14.894  30.040  17.899  1.00  0.00     0.051 A 
ATOM     43  C   UNL     1      15.584  30.946  18.717  1.00  0.00     0.157 A 
BRANCH  41  44
ATOM     44  O   UNL     1      15.748  32.139  20.840  1.00  0.00    -0.504 OA
ATOM     45  H   UNL     1      15.452  32.296  21.795  1.00  0.00     0.293 HD
ENDBRANCH  41  44
BRANCH  43  46
ATOM     46  O   UNL     1      16.748  31.564  18.256  1.00  0.00    -0.504 OA
ATOM     47  H   UNL     1      16.821  32.572  18.184  1.00  0.00     0.293 HD
ENDBRANCH  43  46
ENDBRANCH  28  38
BRANCH  34  48
ATOM     48  O   UNL     1       7.278  27.629  21.458  1.00  0.00    -0.507 OA
ATOM     49  H   UNL     1       6.787  27.488  20.584  1.00  0.00     0.293 HD
ENDBRANCH  34  48
BRANCH  37  50
ATOM     50  O   UNL     1      10.256  24.355  23.375  1.00  0.00    -0.508 OA
ATOM     51  H   UNL     1       9.656  23.545  23.255  1.00  0.00     0.293 HD
ENDBRANCH  37  50
ENDBRANCH  26  27
ENDBRANCH   5  26
BRANCH   4  52
ATOM     52  O   UNL     1       9.256  34.183  18.712  1.00  0.00    -0.384 OA
ATOM     53  H   UNL     1       8.369  33.941  18.329  1.00  0.00     0.211 HD
ENDBRANCH   4  52
TORSDOF 16
ENDMDL
MODEL 6
REMARK VINA RESULT:    -5.975      2.445      7.044
REMARK INTER + INTRA:         -12.780
REMARK INTER:                 -11.148
REMARK INTRA:                  -1.631
REMARK UNBOUND:                -2.962
REMARK SMILES C[C@@H]1O[C@@H](OC[C@H]2O[C@H](Oc3c(-c4ccc(O)c(O)c4)oc4cc(O)cc(O)c4c3=O)[C@@H](O)[C@H](O)[C@@H]2O)[C@@H](O)[C@@H](O)[C@@H]1O
REMARK SMILES IDX 7 1 36 2 34 3 32 4 9 5 8 6 6 7 5 8 4 9 1 10 2 11 42 12 3 13
REMARK SMILES IDX 40 14 38 15 43 16 41 18 39 20 37 22 35 24 10 26 11 27 12 28
REMARK SMILES IDX 30 29 21 30 29 31 31 32 22 33 27 34 23 35 26 36 24 37 13 38
REMARK SMILES IDX 20 39 14 40 18 41 15 42 16 43 19 44 17 46 28 48 25 50 33 52
REMARK H PARENT 43 17 41 19 39 21 37 23 35 25 19 45 17 47 28 49 25 51 33 53
REMARK Flexibility Score: inf
ROOT
ATOM      1  C   UNL     1      12.317  32.858  20.578  1.00  0.00     0.180 C 
ATOM      2  C   UNL     1      12.466  33.930  19.475  1.00  0.00     0.177 C 
ATOM      3  C   UNL     1      12.444  33.263  18.085  1.00  0.00     0.180 C 
ATOM      4  C   UNL     1      11.232  32.328  17.963  1.00  0.00     0.214 C 
ATOM      5  C   UNL     1      11.144  31.382  19.178  1.00  0.00     0.339 C 
ATOM      6  O   UNL     1      11.125  32.112  20.392  1.00  0.00    -0.332 OA
ENDROOT
BRANCH   1   7
ATOM      7  C   UNL     1      12.245  33.501  21.967  1.00  0.00     0.198 C 
BRANCH   7   8
ATOM      8  O   UNL     1      11.172  32.946  22.706  1.00  0.00    -0.347 OA
BRANCH   8   9
ATOM      9  C   UNL     1      10.272  33.934  23.204  1.00  0.00     0.281 C 
ATOM     10  C   UNL     1       9.677  32.395  26.496  1.00  0.00     0.041 C 
ATOM     11  C   UNL     1       9.638  32.523  24.974  1.00  0.00     0.150 C 
ATOM     12  C   UNL     1       8.203  32.305  24.426  1.00  0.00     0.174 C 
ATOM     13  O   UNL     1      10.144  33.800  24.612  1.00  0.00    -0.344 OA
ATOM     14  C   UNL     1       8.150  32.553  22.902  1.00  0.00     0.179 C 
ATOM     15  C   UNL     1       8.872  33.870  22.540  1.00  0.00     0.202 C 
BRANCH  12  16
ATOM     16  O   UNL     1       7.256  33.104  25.096  1.00  0.00    -0.388 OA
ATOM     17  H   UNL     1       6.400  32.606  25.145  1.00  0.00     0.211 HD
ENDBRANCH  12  16
BRANCH  14  18
ATOM     18  O   UNL     1       8.750  31.478  22.220  1.00  0.00    -0.387 OA
ATOM     19  H   UNL     1       8.584  30.665  22.765  1.00  0.00     0.211 HD
ENDBRANCH  14  18
BRANCH  15  20
ATOM     20  O   UNL     1       8.976  34.055  21.150  1.00  0.00    -0.385 OA
ATOM     21  H   UNL     1       9.799  34.584  20.967  1.00  0.00     0.211 HD
ENDBRANCH  15  20
ENDBRANCH   8   9
ENDBRANCH   7   8
ENDBRANCH   1   7
BRANCH   2  22
ATOM     22  O   UNL     1      13.668  34.635  19.647  1.00  0.00    -0.387 OA
ATOM     23  H   UNL     1      14.247  34.413  18.872  1.00  0.00     0.211 HD
ENDBRANCH   2  22
BRANCH   3  24
ATOM     24  O   UNL     1      13.622  32.528  17.875  1.00  0.00    -0.387 OA
ATOM     25  H   UNL     1      14.060  32.907  17.067  1.00  0.00     0.211 HD
ENDBRANCH   3  24
BRANCH   5  26
ATOM     26  O   UNL     1      12.205  30.422  19.155  1.00  0.00    -0.454 OA
BRANCH  26  27
ATOM     27  C   UNL     1      12.060  29.110  19.622  1.00  0.00     0.214 A 
ATOM     28  C   UNL     1      12.894  28.636  20.652  1.00  0.00     0.180 A 
ATOM     29  C   UNL     1      11.095  28.246  19.082  1.00  0.00     0.239 A 
ATOM     30  O   UNL     1      12.791  27.375  21.063  1.00  0.00    -0.452 OA
ATOM     31  C   UNL     1      11.009  26.919  19.549  1.00  0.00     0.111 A 
ATOM     32  O   UNL     1      10.304  28.670  18.198  1.00  0.00    -0.285 OA
ATOM     33  C   UNL     1      11.905  26.518  20.566  1.00  0.00     0.146 A 
ATOM     34  C   UNL     1      10.072  25.983  19.048  1.00  0.00     0.134 A 
ATOM     35  C   UNL     1      11.866  25.213  21.067  1.00  0.00     0.094 A 
ATOM     36  C   UNL     1      10.045  24.680  19.566  1.00  0.00     0.093 A 
ATOM     37  C   UNL     1      10.936  24.292  20.569  1.00  0.00     0.123 A 
BRANCH  28  38
ATOM     38  C   UNL     1      13.919  29.497  21.282  1.00  0.00     0.025 A 
ATOM     39  C   UNL     1      14.355  29.213  22.586  1.00  0.00     0.062 A 
ATOM     40  C   UNL     1      14.431  30.628  20.619  1.00  0.00     0.016 A 
ATOM     41  C   UNL     1      15.309  30.021  23.214  1.00  0.00     0.158 A 
ATOM     42  C   UNL     1      15.385  31.436  21.243  1.00  0.00     0.051 A 
ATOM     43  C   UNL     1      15.828  31.140  22.540  1.00  0.00     0.157 A 
BRANCH  41  44
ATOM     44  O   UNL     1      15.728  29.695  24.504  1.00  0.00    -0.504 OA
ATOM     45  H   UNL     1      15.932  30.404  25.197  1.00  0.00     0.293 HD
ENDBRANCH  41  44
BRANCH  43  46
ATOM     46  O   UNL     1      16.766  31.963  23.167  1.00  0.00    -0.504 OA
ATOM     47  H   UNL     1      16.780  32.964  23.013  1.00  0.00     0.293 HD
ENDBRANCH  43  46
ENDBRANCH  28  38
BRANCH  34  48
ATOM     48  O   UNL     1       9.169  26.337  18.044  1.00  0.00    -0.507 OA
ATOM     49  H   UNL     1       9.232  27.221  17.555  1.00  0.00     0.293 HD
ENDBRANCH  34  48
BRANCH  37  50
ATOM     50  O   UNL     1      10.885  22.995  21.069  1.00  0.00    -0.508 OA
ATOM     51  H   UNL     1      11.623  22.325  20.881  1.00  0.00     0.293 HD
ENDBRANCH  37  50
ENDBRANCH  26  27
ENDBRANCH   5  26
BRANCH   4  52
ATOM     52  O   UNL     1      10.061  33.098  17.880  1.00  0.00    -0.384 OA
ATOM     53  H   UNL     1      10.117  33.617  17.032  1.00  0.00     0.211 HD
ENDBRANCH   4  52
TORSDOF 16
ENDMDL
MODEL 7
REMARK VINA RESULT:    -5.822      1.611      2.168
REMARK INTER + INTRA:         -12.528
REMARK INTER:                 -10.293
REMARK INTRA:                  -2.234
REMARK UNBOUND:                -2.962
REMARK SMILES C[C@@H]1O[C@@H](OC[C@H]2O[C@H](Oc3c(-c4ccc(O)c(O)c4)oc4cc(O)cc(O)c4c3=O)[C@@H](O)[C@H](O)[C@@H]2O)[C@@H](O)[C@@H](O)[C@@H]1O
REMARK SMILES IDX 7 1 36 2 34 3 32 4 9 5 8 6 6 7 5 8 4 9 1 10 2 11 42 12 3 13
REMARK SMILES IDX 40 14 38 15 43 16 41 18 39 20 37 22 35 24 10 26 11 27 12 28
REMARK SMILES IDX 30 29 21 30 29 31 31 32 22 33 27 34 23 35 26 36 24 37 13 38
REMARK SMILES IDX 20 39 14 40 18 41 15 42 16 43 19 44 17 46 28 48 25 50 33 52
REMARK H PARENT 43 17 41 19 39 21 37 23 35 25 19 45 17 47 28 49 25 51 33 53
REMARK Flexibility Score: inf
ROOT
ATOM      1  C   UNL     1       7.947  28.051  20.487  1.00  0.00     0.180 C 
ATOM      2  C   UNL     1       6.553  28.347  21.086  1.00  0.00     0.177 C 
ATOM      3  C   UNL     1       6.571  29.702  21.820  1.00  0.00     0.180 C 
ATOM      4  C   UNL     1       7.165  30.790  20.913  1.00  0.00     0.214 C 
ATOM      5  C   UNL     1       8.502  30.326  20.301  1.00  0.00     0.339 C 
ATOM      6  O   UNL     1       8.348  29.096  19.615  1.00  0.00    -0.332 OA
ENDROOT
BRANCH   1   7
ATOM      7  C   UNL     1       7.935  26.752  19.675  1.00  0.00     0.198 C 
BRANCH   7   8
ATOM      8  O   UNL     1       8.035  25.636  20.541  1.00  0.00    -0.347 OA
BRANCH   8   9
ATOM      9  C   UNL     1       9.241  25.631  21.302  1.00  0.00     0.281 C 
ATOM     10  C   UNL     1      10.771  22.678  19.720  1.00  0.00     0.041 C 
ATOM     11  C   UNL     1       9.757  23.465  20.549  1.00  0.00     0.150 C 
ATOM     12  C   UNL     1       9.541  22.815  21.942  1.00  0.00     0.174 C 
ATOM     13  O   UNL     1      10.207  24.807  20.665  1.00  0.00    -0.344 OA
ATOM     14  C   UNL     1       8.606  23.681  22.816  1.00  0.00     0.179 C 
ATOM     15  C   UNL     1       9.034  25.164  22.766  1.00  0.00     0.202 C 
BRANCH  12  16
ATOM     16  O   UNL     1      10.761  22.571  22.603  1.00  0.00    -0.388 OA
ATOM     17  H   UNL     1      11.502  22.712  21.959  1.00  0.00     0.211 HD
ENDBRANCH  12  16
BRANCH  14  18
ATOM     18  O   UNL     1       7.278  23.552  22.369  1.00  0.00    -0.387 OA
ATOM     19  H   UNL     1       6.738  23.273  23.154  1.00  0.00     0.211 HD
ENDBRANCH  14  18
BRANCH  15  20
ATOM     20  O   UNL     1       8.119  26.004  23.427  1.00  0.00    -0.385 OA
ATOM     21  H   UNL     1       7.710  25.490  24.175  1.00  0.00     0.211 HD
ENDBRANCH  15  20
ENDBRANCH   8   9
ENDBRANCH   7   8
ENDBRANCH   1   7
BRANCH   2  22
ATOM     22  O   UNL     1       6.184  27.326  21.977  1.00  0.00    -0.387 OA
ATOM     23  H   UNL     1       6.712  27.462  22.806  1.00  0.00     0.211 HD
ENDBRANCH   2  22
BRANCH   3  24
ATOM     24  O   UNL     1       7.330  29.613  22.998  1.00  0.00    -0.387 OA
ATOM     25  H   UNL     1       8.187  29.169  22.756  1.00  0.00     0.211 HD
ENDBRANCH   3  24
BRANCH   5  26
ATOM     26  O   UNL     1       9.521  30.249  21.302  1.00  0.00    -0.454 OA
BRANCH  26  27
ATOM     27  C   UNL     1      10.690  31.019  21.265  1.00  0.00     0.214 A 
ATOM     28  C   UNL     1      10.865  32.074  22.181  1.00  0.00     0.180 A 
ATOM     29  C   UNL     1      11.702  30.764  20.327  1.00  0.00     0.239 A 
ATOM     30  O   UNL     1      11.952  32.837  22.116  1.00  0.00    -0.452 OA
ATOM     31  C   UNL     1      12.845  31.588  20.295  1.00  0.00     0.111 A 
ATOM     32  O   UNL     1      11.588  29.790  19.537  1.00  0.00    -0.285 OA
ATOM     33  C   UNL     1      12.926  32.643  21.232  1.00  0.00     0.146 A 
ATOM     34  C   UNL     1      13.904  31.405  19.372  1.00  0.00     0.134 A 
ATOM     35  C   UNL     1      14.035  33.494  21.245  1.00  0.00     0.094 A 
ATOM     36  C   UNL     1      15.011  32.265  19.403  1.00  0.00     0.093 A 
ATOM     37  C   UNL     1      15.080  33.306  20.332  1.00  0.00     0.123 A 
BRANCH  28  38
ATOM     38  C   UNL     1       9.848  32.387  23.210  1.00  0.00     0.025 A 
ATOM     39  C   UNL     1      10.132  32.134  24.562  1.00  0.00     0.062 A 
ATOM     40  C   UNL     1       8.581  32.885  22.858  1.00  0.00     0.016 A 
ATOM     41  C   UNL     1       9.184  32.402  25.555  1.00  0.00     0.158 A 
ATOM     42  C   UNL     1       7.632  33.154  23.847  1.00  0.00     0.051 A 
ATOM     43  C   UNL     1       7.925  32.915  25.197  1.00  0.00     0.157 A 
BRANCH  41  44
ATOM     44  O   UNL     1       9.511  32.153  26.888  1.00  0.00    -0.504 OA
ATOM     45  H   UNL     1       9.328  32.827  27.620  1.00  0.00     0.293 HD
ENDBRANCH  41  44
BRANCH  43  46
ATOM     46  O   UNL     1       6.966  33.167  26.179  1.00  0.00    -0.504 OA
ATOM     47  H   UNL     1       6.777  34.106  26.509  1.00  0.00     0.293 HD
ENDBRANCH  43  46
ENDBRANCH  28  38
BRANCH  34  48
ATOM     48  O   UNL     1      13.865  30.376  18.429  1.00  0.00    -0.507 OA
ATOM     49  H   UNL     1      13.442  30.500  17.518  1.00  0.00     0.293 HD
ENDBRANCH  34  48
BRANCH  37  50
ATOM     50  O   UNL     1      16.192  34.142  20.344  1.00  0.00    -0.508 OA
ATOM     51  H   UNL     1      16.210  34.992  20.898  1.00  0.00     0.293 HD
ENDBRANCH  37  50
ENDBRANCH  26  27
ENDBRANCH   5  26
BRANCH   4  52
ATOM     52  O   UNL     1       6.253  31.084  19.886  1.00  0.00    -0.384 OA
ATOM     53  H   UNL     1       5.385  30.668  20.143  1.00  0.00     0.211 HD
ENDBRANCH   4  52
TORSDOF 16
ENDMDL
MODEL 8
REMARK VINA RESULT:    -5.646      2.255      8.433
REMARK INTER + INTRA:         -12.239
REMARK INTER:                  -9.858
REMARK INTRA:                  -2.381
REMARK UNBOUND:                -2.962
REMARK SMILES C[C@@H]1O[C@@H](OC[C@H]2O[C@H](Oc3c(-c4ccc(O)c(O)c4)oc4cc(O)cc(O)c4c3=O)[C@@H](O)[C@H](O)[C@@H]2O)[C@@H](O)[C@@H](O)[C@@H]1O
REMARK SMILES IDX 7 1 36 2 34 3 32 4 9 5 8 6 6 7 5 8 4 9 1 10 2 11 42 12 3 13
REMARK SMILES IDX 40 14 38 15 43 16 41 18 39 20 37 22 35 24 10 26 11 27 12 28
REMARK SMILES IDX 30 29 21 30 29 31 31 32 22 33 27 34 23 35 26 36 24 37 13 38
REMARK SMILES IDX 20 39 14 40 18 41 15 42 16 43 19 44 17 46 28 48 25 50 33 52
REMARK H PARENT 43 17 41 19 39 21 37 23 35 25 19 45 17 47 28 49 25 51 33 53
REMARK Flexibility Score: inf
ROOT
ATOM      1  C   UNL     1      12.112  30.031  20.847  1.00  0.00     0.180 C 
ATOM      2  C   UNL     1      13.400  29.424  20.245  1.00  0.00     0.177 C 
ATOM      3  C   UNL     1      13.244  27.898  20.092  1.00  0.00     0.180 C 
ATOM      4  C   UNL     1      11.933  27.569  19.362  1.00  0.00     0.214 C 
ATOM      5  C   UNL     1      10.745  28.319  19.999  1.00  0.00     0.339 C 
ATOM      6  O   UNL     1      10.987  29.713  20.042  1.00  0.00    -0.332 OA
ENDROOT
BRANCH   1   7
ATOM      7  C   UNL     1      12.205  31.558  20.927  1.00  0.00     0.198 C 
BRANCH   7   8
ATOM      8  O   UNL     1      13.395  32.006  20.304  1.00  0.00    -0.347 OA
BRANCH   8   9
ATOM      9  C   UNL     1      13.845  33.262  20.807  1.00  0.00     0.281 C 
ATOM     10  C   UNL     1      12.918  35.289  17.875  1.00  0.00     0.041 C 
ATOM     11  C   UNL     1      13.675  34.226  18.669  1.00  0.00     0.150 C 
ATOM     12  C   UNL     1      15.210  34.382  18.502  1.00  0.00     0.174 C 
ATOM     13  O   UNL     1      13.289  34.316  20.033  1.00  0.00    -0.344 OA
ATOM     14  C   UNL     1      15.968  33.380  19.401  1.00  0.00     0.179 C 
ATOM     15  C   UNL     1      15.390  33.388  20.833  1.00  0.00     0.202 C 
BRANCH  12  16
ATOM     16  O   UNL     1      15.635  35.702  18.755  1.00  0.00    -0.388 OA
ATOM     17  H   UNL     1      15.234  36.298  18.071  1.00  0.00     0.211 HD
ENDBRANCH  12  16
BRANCH  14  18
ATOM     18  O   UNL     1      15.877  32.085  18.857  1.00  0.00    -0.387 OA
ATOM     19  H   UNL     1      16.404  31.488  19.448  1.00  0.00     0.211 HD
ENDBRANCH  14  18
BRANCH  15  20
ATOM     20  O   UNL     1      15.954  32.383  21.640  1.00  0.00    -0.385 OA
ATOM     21  H   UNL     1      16.433  32.822  22.393  1.00  0.00     0.211 HD
ENDBRANCH  15  20
ENDBRANCH   8   9
ENDBRANCH   7   8
ENDBRANCH   1   7
BRANCH   2  22
ATOM     22  O   UNL     1      14.499  29.711  21.071  1.00  0.00    -0.387 OA
ATOM     23  H   UNL     1      14.189  30.367  21.748  1.00  0.00     0.211 HD
ENDBRANCH   2  22
BRANCH   3  24
ATOM     24  O   UNL     1      13.244  27.276  21.351  1.00  0.00    -0.387 OA
ATOM     25  H   UNL     1      13.587  27.943  22.003  1.00  0.00     0.211 HD
ENDBRANCH   3  24
BRANCH   5  26
ATOM     26  O   UNL     1      10.449  27.793  21.297  1.00  0.00    -0.454 OA
BRANCH  26  27
ATOM     27  C   UNL     1       9.567  26.727  21.508  1.00  0.00     0.214 A 
ATOM     28  C   UNL     1       8.179  26.962  21.552  1.00  0.00     0.180 A 
ATOM     29  C   UNL     1      10.035  25.415  21.679  1.00  0.00     0.239 A 
ATOM     30  O   UNL     1       7.343  25.959  21.800  1.00  0.00    -0.452 OA
ATOM     31  C   UNL     1       9.118  24.375  21.930  1.00  0.00     0.111 A 
ATOM     32  O   UNL     1      11.269  25.177  21.586  1.00  0.00    -0.285 OA
ATOM     33  C   UNL     1       7.745  24.706  21.986  1.00  0.00     0.146 A 
ATOM     34  C   UNL     1       9.511  23.029  22.125  1.00  0.00     0.134 A 
ATOM     35  C   UNL     1       6.790  23.715  22.235  1.00  0.00     0.094 A 
ATOM     36  C   UNL     1       8.538  22.049  22.369  1.00  0.00     0.093 A 
ATOM     37  C   UNL     1       7.184  22.385  22.425  1.00  0.00     0.123 A 
BRANCH  28  38
ATOM     38  C   UNL     1       7.614  28.316  21.360  1.00  0.00     0.025 A 
ATOM     39  C   UNL     1       7.701  29.256  22.400  1.00  0.00     0.062 A 
ATOM     40  C   UNL     1       6.942  28.667  20.174  1.00  0.00     0.016 A 
ATOM     41  C   UNL     1       7.158  30.537  22.254  1.00  0.00     0.158 A 
ATOM     42  C   UNL     1       6.400  29.946  20.025  1.00  0.00     0.051 A 
ATOM     43  C   UNL     1       6.503  30.886  21.060  1.00  0.00     0.157 A 
BRANCH  41  44
ATOM     44  O   UNL     1       7.281  31.447  23.304  1.00  0.00    -0.504 OA
ATOM     45  H   UNL     1       7.499  31.152  24.247  1.00  0.00     0.293 HD
ENDBRANCH  41  44
BRANCH  43  46
ATOM     46  O   UNL     1       5.941  32.155  20.914  1.00  0.00    -0.504 OA
ATOM     47  H   UNL     1       5.160  32.322  20.291  1.00  0.00     0.293 HD
ENDBRANCH  43  46
ENDBRANCH  28  38
BRANCH  34  48
ATOM     48  O   UNL     1      10.856  22.659  22.078  1.00  0.00    -0.507 OA
ATOM     49  H   UNL     1      11.245  22.154  21.292  1.00  0.00     0.293 HD
ENDBRANCH  34  48
BRANCH  37  50
ATOM     50  O   UNL     1       6.239  21.392  22.663  1.00  0.00    -0.508 OA
ATOM     51  H   UNL     1       6.099  21.004  23.590  1.00  0.00     0.293 HD
ENDBRANCH  37  50
ENDBRANCH  26  27
ENDBRANCH   5  26
BRANCH   4  52
ATOM     52  O   UNL     1      12.051  27.937  18.011  1.00  0.00    -0.384 OA
ATOM     53  H   UNL     1      11.556  28.794  17.901  1.00  0.00     0.211 HD
ENDBRANCH   4  52
TORSDOF 16
ENDMDL
MODEL 9
REMARK VINA RESULT:    -5.540      1.784      8.107
REMARK INTER + INTRA:         -12.065
REMARK INTER:                  -9.353
REMARK INTRA:                  -2.712
REMARK UNBOUND:                -2.962
REMARK SMILES C[C@@H]1O[C@@H](OC[C@H]2O[C@H](Oc3c(-c4ccc(O)c(O)c4)oc4cc(O)cc(O)c4c3=O)[C@@H](O)[C@H](O)[C@@H]2O)[C@@H](O)[C@@H](O)[C@@H]1O
REMARK SMILES IDX 7 1 36 2 34 3 32 4 9 5 8 6 6 7 5 8 4 9 1 10 2 11 42 12 3 13
REMARK SMILES IDX 40 14 38 15 43 16 41 18 39 20 37 22 35 24 10 26 11 27 12 28
REMARK SMILES IDX 30 29 21 30 29 31 31 32 22 33 27 34 23 35 26 36 24 37 13 38
REMARK SMILES IDX 20 39 14 40 18 41 15 42 16 43 19 44 17 46 28 48 25 50 33 52
REMARK H PARENT 43 17 41 19 39 21 37 23 35 25 19 45 17 47 28 49 25 51 33 53
REMARK Flexibility Score: inf
ROOT
ATOM      1  C   UNL     1      10.949  29.479  20.827  1.00  0.00     0.180 C 
ATOM      2  C   UNL     1      12.437  29.443  20.413  1.00  0.00     0.177 C 
ATOM      3  C   UNL     1      12.947  27.988  20.402  1.00  0.00     0.180 C 
ATOM      4  C   UNL     1      11.995  27.097  19.590  1.00  0.00     0.214 C 
ATOM      5  C   UNL     1      10.533  27.307  20.034  1.00  0.00     0.339 C 
ATOM      6  O   UNL     1      10.169  28.674  19.957  1.00  0.00    -0.332 OA
ENDROOT
BRANCH   1   7
ATOM      7  C   UNL     1      10.391  30.904  20.759  1.00  0.00     0.198 C 
BRANCH   7   8
ATOM      8  O   UNL     1      10.069  31.363  22.060  1.00  0.00    -0.347 OA
BRANCH   8   9
ATOM      9  C   UNL     1      10.765  32.556  22.414  1.00  0.00     0.281 C 
ATOM     10  C   UNL     1      10.183  32.365  26.046  1.00  0.00     0.041 C 
ATOM     11  C   UNL     1       9.824  32.514  24.568  1.00  0.00     0.150 C 
ATOM     12  C   UNL     1       8.947  33.771  24.324  1.00  0.00     0.174 C 
ATOM     13  O   UNL     1      11.024  32.563  23.811  1.00  0.00    -0.344 OA
ATOM     14  C   UNL     1       8.688  33.979  22.815  1.00  0.00     0.179 C 
ATOM     15  C   UNL     1      10.002  33.846  22.014  1.00  0.00     0.202 C 
BRANCH  12  16
ATOM     16  O   UNL     1       9.512  34.927  24.900  1.00  0.00    -0.388 OA
ATOM     17  H   UNL     1      10.145  35.325  24.249  1.00  0.00     0.211 HD
ENDBRANCH  12  16
BRANCH  14  18
ATOM     18  O   UNL     1       7.751  33.036  22.355  1.00  0.00    -0.387 OA
ATOM     19  H   UNL     1       8.037  32.769  21.444  1.00  0.00     0.211 HD
ENDBRANCH  14  18
BRANCH  15  20
ATOM     20  O   UNL     1       9.784  33.880  20.626  1.00  0.00    -0.385 OA
ATOM     21  H   UNL     1       9.075  33.218  20.406  1.00  0.00     0.211 HD
ENDBRANCH  15  20
ENDBRANCH   8   9
ENDBRANCH   7   8
ENDBRANCH   1   7
BRANCH   2  22
ATOM     22  O   UNL     1      13.204  30.211  21.304  1.00  0.00    -0.387 OA
ATOM     23  H   UNL     1      13.096  29.804  22.202  1.00  0.00     0.211 HD
ENDBRANCH   2  22
BRANCH   3  24
ATOM     24  O   UNL     1      13.044  27.492  21.712  1.00  0.00    -0.387 OA
ATOM     25  H   UNL     1      12.853  26.518  21.667  1.00  0.00     0.211 HD
ENDBRANCH   3  24
BRANCH   5  26
ATOM     26  O   UNL     1      10.318  26.776  21.345  1.00  0.00    -0.454 OA
BRANCH  26  27
ATOM     27  C   UNL     1       9.427  25.728  21.610  1.00  0.00     0.214 A 
ATOM     28  C   UNL     1       8.048  25.990  21.715  1.00  0.00     0.180 A 
ATOM     29  C   UNL     1       9.879  24.411  21.775  1.00  0.00     0.239 A 
ATOM     30  O   UNL     1       7.206  25.006  22.015  1.00  0.00    -0.452 OA
ATOM     31  C   UNL     1       8.956  23.390  22.081  1.00  0.00     0.111 A 
ATOM     32  O   UNL     1      11.103  24.148  21.628  1.00  0.00    -0.285 OA
ATOM     33  C   UNL     1       7.593  23.747  22.197  1.00  0.00     0.146 A 
ATOM     34  C   UNL     1       9.333  22.039  22.275  1.00  0.00     0.134 A 
ATOM     35  C   UNL     1       6.633  22.778  22.502  1.00  0.00     0.094 A 
ATOM     36  C   UNL     1       8.355  21.080  22.575  1.00  0.00     0.093 A 
ATOM     37  C   UNL     1       7.012  21.442  22.690  1.00  0.00     0.123 A 
BRANCH  28  38
ATOM     38  C   UNL     1       7.498  27.352  21.533  1.00  0.00     0.025 A 
ATOM     39  C   UNL     1       7.649  28.302  22.557  1.00  0.00     0.062 A 
ATOM     40  C   UNL     1       6.781  27.702  20.375  1.00  0.00     0.016 A 
ATOM     41  C   UNL     1       7.124  29.591  22.421  1.00  0.00     0.158 A 
ATOM     42  C   UNL     1       6.255  28.989  20.236  1.00  0.00     0.051 A 
ATOM     43  C   UNL     1       6.421  29.938  21.254  1.00  0.00     0.157 A 
BRANCH  41  44
ATOM     44  O   UNL     1       7.310  30.510  23.454  1.00  0.00    -0.504 OA
ATOM     45  H   UNL     1       6.815  31.392  23.483  1.00  0.00     0.293 HD
ENDBRANCH  41  44
BRANCH  43  46
ATOM     46  O   UNL     1       5.877  31.216  21.118  1.00  0.00    -0.504 OA
ATOM     47  H   UNL     1       5.026  31.485  21.598  1.00  0.00     0.293 HD
ENDBRANCH  43  46
ENDBRANCH  28  38
BRANCH  34  48
ATOM     48  O   UNL     1      10.668  21.644  22.169  1.00  0.00    -0.507 OA
ATOM     49  H   UNL     1      11.080  20.973  22.806  1.00  0.00     0.293 HD
ENDBRANCH  34  48
BRANCH  37  50
ATOM     50  O   UNL     1       6.061  20.470  22.984  1.00  0.00    -0.508 OA
ATOM     51  H   UNL     1       6.064  19.568  22.520  1.00  0.00     0.293 HD
ENDBRANCH  37  50
ENDBRANCH  26  27
ENDBRANCH   5  26
BRANCH   4  52
ATOM     52  O   UNL     1      12.122  27.408  18.226  1.00  0.00    -0.384 OA
ATOM     53  H   UNL     1      12.671  26.685  17.816  1.00  0.00     0.211 HD
ENDBRANCH   4  52
TORSDOF 16
ENDMDL
