MODEL 1
REMARK VINA RESULT:    -2.915      0.000      0.000
REMARK INTER + INTRA:          -5.580
REMARK INTER:                  -4.960
REMARK INTRA:                  -0.620
REMARK UNBOUND:                -0.620
REMARK SMILES CCCCCCCCCCCCCC(=O)[O-]
REMARK SMILES IDX 8 1 9 2 10 3 11 4 12 5 13 6 14 7 15 8 16 9 7 10 6 11 5 12
REMARK SMILES IDX 4 13 3 14 2 15 1 16
REMARK H PARENT
REMARK Flexibility Score: inf
ROOT
ATOM      1  C   UNL     1      -1.831  30.420  25.366  1.00  0.00     0.000 C 
ENDROOT
BRANCH   1   2
ATOM      2  C   UNL     1      -3.278  30.695  25.813  1.00  0.00     0.000 C 
BRANCH   2   3
ATOM      3  C   UNL     1      -3.861  31.981  25.209  1.00  0.00     0.000 C 
BRANCH   3   4
ATOM      4  C   UNL     1      -3.845  33.124  26.234  1.00  0.00     0.000 C 
BRANCH   4   5
ATOM      5  C   UNL     1      -4.999  33.030  27.244  1.00  0.00     0.006 C 
BRANCH   5   6
ATOM      6  C   UNL     1      -4.519  33.109  28.700  1.00  0.00     0.053 C 
BRANCH   6   7
ATOM      7  C   UNL     1      -3.496  32.051  28.969  1.00  0.00     0.041 C 
ATOM      8  O   UNL     1      -3.848  30.851  29.118  1.00  0.00    -0.550 OA
ATOM      9  O   UNL     1      -2.157  32.396  29.105  1.00  0.00    -0.550 OA
ENDBRANCH   6   7
ENDBRANCH   5   6
ENDBRANCH   4   5
ENDBRANCH   3   4
ENDBRANCH   2   3
ENDBRANCH   1   2
BRANCH   1  10
ATOM     10  C   UNL     1      -0.786  31.423  25.887  1.00  0.00     0.000 C 
BRANCH  10  11
ATOM     11  C   UNL     1       0.657  30.901  25.766  1.00  0.00    -0.000 C 
BRANCH  11  12
ATOM     12  C   UNL     1       1.555  31.380  26.919  1.00  0.00    -0.000 C 
BRANCH  12  13
ATOM     13  C   UNL     1       2.258  30.217  27.640  1.00  0.00    -0.000 C 
BRANCH  13  14
ATOM     14  C   UNL     1       3.352  30.697  28.608  1.00  0.00    -0.000 C 
BRANCH  14  15
ATOM     15  C   UNL     1       3.376  32.224  28.765  1.00  0.00    -0.003 C 
ATOM     16  C   UNL     1       4.802  32.735  28.954  1.00  0.00     0.004 C 
ENDBRANCH  14  15
ENDBRANCH  13  14
ENDBRANCH  12  13
ENDBRANCH  11  12
ENDBRANCH  10  11
ENDBRANCH   1  10
TORSDOF 12
ENDMDL
MODEL 2
REMARK VINA RESULT:    -2.671      2.485      6.160
REMARK INTER + INTRA:          -5.164
REMARK INTER:                  -4.344
REMARK INTRA:                  -0.820
REMARK UNBOUND:                -0.620
REMARK SMILES CCCCCCCCCCCCCC(=O)[O-]
REMARK SMILES IDX 8 1 9 2 10 3 11 4 12 5 13 6 14 7 15 8 16 9 7 10 6 11 5 12
REMARK SMILES IDX 4 13 3 14 2 15 1 16
REMARK H PARENT
REMARK Flexibility Score: inf
ROOT
ATOM      1  C   UNL     1      -2.025  31.281  25.098  1.00  0.00     0.000 C 
ENDROOT
BRANCH   1   2
ATOM      2  C   UNL     1      -1.100  31.502  26.309  1.00  0.00     0.000 C 
BRANCH   2   3
ATOM      3  C   UNL     1      -1.455  32.761  27.114  1.00  0.00     0.000 C 
BRANCH   3   4
ATOM      4  C   UNL     1      -0.739  32.762  28.473  1.00  0.00     0.000 C 
BRANCH   4   5
ATOM      5  C   UNL     1       0.779  32.965  28.343  1.00  0.00     0.006 C 
BRANCH   5   6
ATOM      6  C   UNL     1       1.584  31.810  28.953  1.00  0.00     0.053 C 
BRANCH   6   7
ATOM      7  C   UNL     1       2.530  31.243  27.942  1.00  0.00     0.041 C 
ATOM      8  O   UNL     1       3.622  31.823  27.700  1.00  0.00    -0.550 OA
ATOM      9  O   UNL     1       2.187  30.100  27.230  1.00  0.00    -0.550 OA
ENDBRANCH   6   7
ENDBRANCH   5   6
ENDBRANCH   4   5
ENDBRANCH   3   4
ENDBRANCH   2   3
ENDBRANCH   1   2
BRANCH   1  10
ATOM     10  C   UNL     1      -2.850  32.510  24.674  1.00  0.00     0.000 C 
BRANCH  10  11
ATOM     11  C   UNL     1      -4.367  32.286  24.801  1.00  0.00    -0.000 C 
BRANCH  11  12
ATOM     12  C   UNL     1      -4.993  33.125  25.928  1.00  0.00    -0.000 C 
BRANCH  12  13
ATOM     13  C   UNL     1      -4.420  32.773  27.312  1.00  0.00    -0.000 C 
BRANCH  13  14
ATOM     14  C   UNL     1      -5.517  32.575  28.371  1.00  0.00    -0.000 C 
BRANCH  14  15
ATOM     15  C   UNL     1      -5.407  31.224  29.092  1.00  0.00    -0.003 C 
ATOM     16  C   UNL     1      -4.096  30.522  28.747  1.00  0.00     0.004 C 
ENDBRANCH  14  15
ENDBRANCH  13  14
ENDBRANCH  12  13
ENDBRANCH  11  12
ENDBRANCH  10  11
ENDBRANCH   1  10
TORSDOF 12
ENDMDL
MODEL 3
REMARK VINA RESULT:    -2.643      1.465      2.245
REMARK INTER + INTRA:          -5.117
REMARK INTER:                  -3.838
REMARK INTRA:                  -1.279
REMARK UNBOUND:                -0.620
REMARK SMILES CCCCCCCCCCCCCC(=O)[O-]
REMARK SMILES IDX 8 1 9 2 10 3 11 4 12 5 13 6 14 7 15 8 16 9 7 10 6 11 5 12
REMARK SMILES IDX 4 13 3 14 2 15 1 16
REMARK H PARENT
REMARK Flexibility Score: inf
ROOT
ATOM      1  C   UNL     1      -0.187  30.880  25.989  1.00  0.00     0.000 C 
ENDROOT
BRANCH   1   2
ATOM      2  C   UNL     1      -1.396  30.883  25.037  1.00  0.00     0.000 C 
BRANCH   2   3
ATOM      3  C   UNL     1      -2.736  30.703  25.766  1.00  0.00     0.000 C 
BRANCH   3   4
ATOM      4  C   UNL     1      -3.761  31.745  25.293  1.00  0.00     0.000 C 
BRANCH   4   5
ATOM      5  C   UNL     1      -4.209  32.689  26.420  1.00  0.00     0.006 C 
BRANCH   5   6
ATOM      6  C   UNL     1      -3.822  32.173  27.812  1.00  0.00     0.053 C 
BRANCH   6   7
ATOM      7  C   UNL     1      -5.009  31.567  28.492  1.00  0.00     0.041 C 
ATOM      8  O   UNL     1      -5.124  30.315  28.572  1.00  0.00    -0.550 OA
ATOM      9  O   UNL     1      -6.015  32.382  28.995  1.00  0.00    -0.550 OA
ENDBRANCH   6   7
ENDBRANCH   5   6
ENDBRANCH   4   5
ENDBRANCH   3   4
ENDBRANCH   2   3
ENDBRANCH   1   2
BRANCH   1  10
ATOM     10  C   UNL     1       0.073  32.210  26.719  1.00  0.00     0.000 C 
BRANCH  10  11
ATOM     11  C   UNL     1      -0.347  32.173  28.199  1.00  0.00    -0.000 C 
BRANCH  11  12
ATOM     12  C   UNL     1       0.697  32.822  29.123  1.00  0.00    -0.000 C 
BRANCH  12  13
ATOM     13  C   UNL     1       2.056  33.019  28.431  1.00  0.00    -0.000 C 
BRANCH  13  14
ATOM     14  C   UNL     1       3.189  32.245  29.125  1.00  0.00    -0.000 C 
BRANCH  14  15
ATOM     15  C   UNL     1       2.964  30.727  29.115  1.00  0.00    -0.003 C 
ATOM     16  C   UNL     1       2.893  30.192  27.686  1.00  0.00     0.004 C 
ENDBRANCH  14  15
ENDBRANCH  13  14
ENDBRANCH  12  13
ENDBRANCH  11  12
ENDBRANCH  10  11
ENDBRANCH   1  10
TORSDOF 12
ENDMDL
MODEL 4
REMARK VINA RESULT:    -1.839     16.722     18.813
REMARK INTER + INTRA:          -3.749
REMARK INTER:                  -2.986
REMARK INTRA:                  -0.763
REMARK UNBOUND:                -0.620
REMARK SMILES CCCCCCCCCCCCCC(=O)[O-]
REMARK SMILES IDX 8 1 9 2 10 3 11 4 12 5 13 6 14 7 15 8 16 9 7 10 6 11 5 12
REMARK SMILES IDX 4 13 3 14 2 15 1 16
REMARK H PARENT
REMARK Flexibility Score: inf
ROOT
ATOM      1  C   UNL     1       4.560  16.639  21.738  1.00  0.00     0.000 C 
ENDROOT
BRANCH   1   2
ATOM      2  C   UNL     1       4.441  17.541  22.980  1.00  0.00     0.000 C 
BRANCH   2   3
ATOM      3  C   UNL     1       5.105  18.913  22.792  1.00  0.00     0.000 C 
BRANCH   3   4
ATOM      4  C   UNL     1       6.110  19.194  23.919  1.00  0.00     0.000 C 
BRANCH   4   5
ATOM      5  C   UNL     1       7.546  18.794  23.545  1.00  0.00     0.006 C 
BRANCH   5   6
ATOM      6  C   UNL     1       7.794  17.286  23.682  1.00  0.00     0.053 C 
BRANCH   6   7
ATOM      7  C   UNL     1       7.742  16.877  25.120  1.00  0.00     0.041 C 
ATOM      8  O   UNL     1       7.078  15.865  25.469  1.00  0.00    -0.550 OA
ATOM      9  O   UNL     1       8.388  17.640  26.085  1.00  0.00    -0.550 OA
ENDBRANCH   6   7
ENDBRANCH   5   6
ENDBRANCH   4   5
ENDBRANCH   3   4
ENDBRANCH   2   3
ENDBRANCH   1   2
BRANCH   1  10
ATOM     10  C   UNL     1       5.638  17.063  20.724  1.00  0.00     0.000 C 
BRANCH  10  11
ATOM     11  C   UNL     1       5.519  16.325  19.379  1.00  0.00    -0.000 C 
BRANCH  11  12
ATOM     12  C   UNL     1       5.741  14.809  19.517  1.00  0.00    -0.000 C 
BRANCH  12  13
ATOM     13  C   UNL     1       5.467  14.052  18.207  1.00  0.00    -0.000 C 
BRANCH  13  14
ATOM     14  C   UNL     1       6.758  13.625  17.490  1.00  0.00    -0.000 C 
BRANCH  14  15
ATOM     15  C   UNL     1       6.617  13.628  15.962  1.00  0.00    -0.003 C 
ATOM     16  C   UNL     1       7.950  13.940  15.287  1.00  0.00     0.004 C 
ENDBRANCH  14  15
ENDBRANCH  13  14
ENDBRANCH  12  13
ENDBRANCH  11  12
ENDBRANCH  10  11
ENDBRANCH   1  10
TORSDOF 12
ENDMDL
MODEL 5
REMARK VINA RESULT:    -1.589     17.157     19.203
REMARK INTER + INTRA:          -3.324
REMARK INTER:                  -2.744
REMARK INTRA:                  -0.580
REMARK UNBOUND:                -0.620
REMARK SMILES CCCCCCCCCCCCCC(=O)[O-]
REMARK SMILES IDX 8 1 9 2 10 3 11 4 12 5 13 6 14 7 15 8 16 9 7 10 6 11 5 12
REMARK SMILES IDX 4 13 3 14 2 15 1 16
REMARK H PARENT
REMARK Flexibility Score: inf
ROOT
ATOM      1  C   UNL     1       6.347  16.998  21.865  1.00  0.00     0.000 C 
ENDROOT
BRANCH   1   2
ATOM      2  C   UNL     1       6.481  16.980  20.332  1.00  0.00     0.000 C 
BRANCH   2   3
ATOM      3  C   UNL     1       5.325  16.246  19.636  1.00  0.00     0.000 C 
BRANCH   3   4
ATOM      4  C   UNL     1       5.678  14.771  19.395  1.00  0.00     0.000 C 
BRANCH   4   5
ATOM      5  C   UNL     1       5.515  14.356  17.924  1.00  0.00     0.006 C 
BRANCH   5   6
ATOM      6  C   UNL     1       6.658  13.457  17.433  1.00  0.00     0.053 C 
BRANCH   6   7
ATOM      7  C   UNL     1       6.927  13.703  15.982  1.00  0.00     0.041 C 
ATOM      8  O   UNL     1       8.112  13.758  15.557  1.00  0.00    -0.550 OA
ATOM      9  O   UNL     1       5.873  13.921  15.105  1.00  0.00    -0.550 OA
ENDBRANCH   6   7
ENDBRANCH   5   6
ENDBRANCH   4   5
ENDBRANCH   3   4
ENDBRANCH   2   3
ENDBRANCH   1   2
BRANCH   1  10
ATOM     10  C   UNL     1       5.108  17.736  22.404  1.00  0.00     0.000 C 
BRANCH  10  11
ATOM     11  C   UNL     1       5.397  19.202  22.773  1.00  0.00    -0.000 C 
BRANCH  11  12
ATOM     12  C   UNL     1       5.258  19.468  24.281  1.00  0.00    -0.000 C 
BRANCH  12  13
ATOM     13  C   UNL     1       6.099  18.500  25.131  1.00  0.00    -0.000 C 
BRANCH  13  14
ATOM     14  C   UNL     1       7.569  18.446  24.682  1.00  0.00    -0.000 C 
BRANCH  14  15
ATOM     15  C   UNL     1       8.322  17.241  25.263  1.00  0.00    -0.003 C 
ATOM     16  C   UNL     1       7.500  15.962  25.126  1.00  0.00     0.004 C 
ENDBRANCH  14  15
ENDBRANCH  13  14
ENDBRANCH  12  13
ENDBRANCH  11  12
ENDBRANCH  10  11
ENDBRANCH   1  10
TORSDOF 12
ENDMDL
MODEL 6
REMARK VINA RESULT:    -1.524     17.421     19.304
REMARK INTER + INTRA:          -3.213
REMARK INTER:                  -2.543
REMARK INTRA:                  -0.670
REMARK UNBOUND:                -0.620
REMARK SMILES CCCCCCCCCCCCCC(=O)[O-]
REMARK SMILES IDX 8 1 9 2 10 3 11 4 12 5 13 6 14 7 15 8 16 9 7 10 6 11 5 12
REMARK SMILES IDX 4 13 3 14 2 15 1 16
REMARK H PARENT
REMARK Flexibility Score: inf
ROOT
ATOM      1  C   UNL     1       5.818  16.655  20.067  1.00  0.00     0.000 C 
ENDROOT
BRANCH   1   2
ATOM      2  C   UNL     1       5.464  15.173  19.844  1.00  0.00     0.000 C 
BRANCH   2   3
ATOM      3  C   UNL     1       5.829  14.673  18.439  1.00  0.00     0.000 C 
BRANCH   3   4
ATOM      4  C   UNL     1       4.721  13.772  17.873  1.00  0.00     0.000 C 
BRANCH   4   5
ATOM      5  C   UNL     1       4.181  14.275  16.525  1.00  0.00     0.006 C 
BRANCH   5   6
ATOM      6  C   UNL     1       2.699  13.934  16.317  1.00  0.00     0.053 C 
BRANCH   6   7
ATOM      7  C   UNL     1       2.397  13.789  14.859  1.00  0.00     0.041 C 
ATOM      8  O   UNL     1       1.383  13.143  14.482  1.00  0.00    -0.550 OA
ATOM      9  O   UNL     1       3.260  14.325  13.912  1.00  0.00    -0.550 OA
ENDBRANCH   6   7
ENDBRANCH   5   6
ENDBRANCH   4   5
ENDBRANCH   3   4
ENDBRANCH   2   3
ENDBRANCH   1   2
BRANCH   1  10
ATOM     10  C   UNL     1       6.312  17.002  21.483  1.00  0.00     0.000 C 
BRANCH  10  11
ATOM     11  C   UNL     1       5.175  17.439  22.424  1.00  0.00    -0.000 C 
BRANCH  11  12
ATOM     12  C   UNL     1       5.245  18.934  22.777  1.00  0.00    -0.000 C 
BRANCH  12  13
ATOM     13  C   UNL     1       6.423  19.264  23.709  1.00  0.00    -0.000 C 
BRANCH  13  14
ATOM     14  C   UNL     1       6.428  18.403  24.983  1.00  0.00    -0.000 C 
BRANCH  14  15
ATOM     15  C   UNL     1       7.774  17.705  25.222  1.00  0.00    -0.003 C 
ATOM     16  C   UNL     1       7.695  16.223  24.865  1.00  0.00     0.004 C 
ENDBRANCH  14  15
ENDBRANCH  13  14
ENDBRANCH  12  13
ENDBRANCH  11  12
ENDBRANCH  10  11
ENDBRANCH   1  10
TORSDOF 12
ENDMDL
MODEL 7
REMARK VINA RESULT:    -1.502     17.175     19.414
REMARK INTER + INTRA:          -3.175
REMARK INTER:                  -2.705
REMARK INTRA:                  -0.471
REMARK UNBOUND:                -0.620
REMARK SMILES CCCCCCCCCCCCCC(=O)[O-]
REMARK SMILES IDX 8 1 9 2 10 3 11 4 12 5 13 6 14 7 15 8 16 9 7 10 6 11 5 12
REMARK SMILES IDX 4 13 3 14 2 15 1 16
REMARK H PARENT
REMARK Flexibility Score: inf
ROOT
ATOM      1  C   UNL     1       5.502  16.451  19.857  1.00  0.00     0.000 C 
ENDROOT
BRANCH   1   2
ATOM      2  C   UNL     1       6.208  16.985  21.116  1.00  0.00     0.000 C 
BRANCH   2   3
ATOM      3  C   UNL     1       5.235  17.319  22.256  1.00  0.00     0.000 C 
BRANCH   3   4
ATOM      4  C   UNL     1       5.447  18.756  22.755  1.00  0.00     0.000 C 
BRANCH   4   5
ATOM      5  C   UNL     1       6.130  18.810  24.130  1.00  0.00     0.006 C 
BRANCH   5   6
ATOM      6  C   UNL     1       7.614  18.423  24.069  1.00  0.00     0.053 C 
BRANCH   6   7
ATOM      7  C   UNL     1       7.920  17.369  25.087  1.00  0.00     0.041 C 
ATOM      8  O   UNL     1       8.535  17.669  26.144  1.00  0.00    -0.550 OA
ATOM      9  O   UNL     1       7.570  16.047  24.846  1.00  0.00    -0.550 OA
ENDBRANCH   6   7
ENDBRANCH   5   6
ENDBRANCH   4   5
ENDBRANCH   3   4
ENDBRANCH   2   3
ENDBRANCH   1   2
BRANCH   1  10
ATOM     10  C   UNL     1       5.551  14.922  19.680  1.00  0.00     0.000 C 
BRANCH  10  11
ATOM     11  C   UNL     1       5.767  14.495  18.218  1.00  0.00    -0.000 C 
BRANCH  11  12
ATOM     12  C   UNL     1       4.578  13.698  17.656  1.00  0.00    -0.000 C 
BRANCH  12  13
ATOM     13  C   UNL     1       3.980  14.344  16.394  1.00  0.00    -0.000 C 
BRANCH  13  14
ATOM     14  C   UNL     1       2.527  13.911  16.140  1.00  0.00    -0.000 C 
BRANCH  14  15
ATOM     15  C   UNL     1       2.218  13.716  14.649  1.00  0.00    -0.003 C 
ATOM     16  C   UNL     1       3.282  14.377  13.777  1.00  0.00     0.004 C 
ENDBRANCH  14  15
ENDBRANCH  13  14
ENDBRANCH  12  13
ENDBRANCH  11  12
ENDBRANCH  10  11
ENDBRANCH   1  10
TORSDOF 12
ENDMDL
MODEL 8
REMARK VINA RESULT:    -1.289     16.103     18.053
REMARK INTER + INTRA:          -2.814
REMARK INTER:                  -1.700
REMARK INTRA:                  -1.114
REMARK UNBOUND:                -0.620
REMARK SMILES CCCCCCCCCCCCCC(=O)[O-]
REMARK SMILES IDX 8 1 9 2 10 3 11 4 12 5 13 6 14 7 15 8 16 9 7 10 6 11 5 12
REMARK SMILES IDX 4 13 3 14 2 15 1 16
REMARK H PARENT
REMARK Flexibility Score: inf
ROOT
ATOM      1  C   UNL     1       4.778  18.766  22.791  1.00  0.00     0.000 C 
ENDROOT
BRANCH   1   2
ATOM      2  C   UNL     1       4.215  17.333  22.821  1.00  0.00     0.000 C 
BRANCH   2   3
ATOM      3  C   UNL     1       4.499  16.548  21.532  1.00  0.00     0.000 C 
BRANCH   3   4
ATOM      4  C   UNL     1       5.679  17.164  20.764  1.00  0.00     0.000 C 
BRANCH   4   5
ATOM      5  C   UNL     1       6.371  16.155  19.834  1.00  0.00     0.006 C 
BRANCH   5   6
ATOM      6  C   UNL     1       5.604  14.830  19.723  1.00  0.00     0.053 C 
BRANCH   6   7
ATOM      7  C   UNL     1       5.691  14.292  18.330  1.00  0.00     0.041 C 
ATOM      8  O   UNL     1       6.760  13.765  17.919  1.00  0.00    -0.550 OA
ATOM      9  O   UNL     1       4.610  14.414  17.467  1.00  0.00    -0.550 OA
ENDBRANCH   6   7
ENDBRANCH   5   6
ENDBRANCH   4   5
ENDBRANCH   3   4
ENDBRANCH   2   3
ENDBRANCH   1   2
BRANCH   1  10
ATOM     10  C   UNL     1       5.881  19.056  23.825  1.00  0.00     0.000 C 
BRANCH  10  11
ATOM     11  C   UNL     1       7.268  19.241  23.185  1.00  0.00    -0.000 C 
BRANCH  11  12
ATOM     12  C   UNL     1       8.196  18.040  23.432  1.00  0.00    -0.000 C 
BRANCH  12  13
ATOM     13  C   UNL     1       7.431  16.794  23.912  1.00  0.00    -0.000 C 
BRANCH  13  14
ATOM     14  C   UNL     1       7.627  16.523  25.413  1.00  0.00    -0.000 C 
BRANCH  14  15
ATOM     15  C   UNL     1       8.669  17.452  26.052  1.00  0.00    -0.003 C 
ATOM     16  C   UNL     1       8.130  18.083  27.334  1.00  0.00     0.004 C 
ENDBRANCH  14  15
ENDBRANCH  13  14
ENDBRANCH  12  13
ENDBRANCH  11  12
ENDBRANCH  10  11
ENDBRANCH   1  10
TORSDOF 12
ENDMDL
