MODEL 1
REMARK VINA RESULT:    -2.745      0.000      0.000
REMARK INTER + INTRA:          -2.825
REMARK INTER:                  -2.825
REMARK INTRA:                   0.000
REMARK UNBOUND:                 0.000
REMARK SMILES O=c1ccc2ccc(O)cc2o1
REMARK SMILES IDX 6 1 7 2 8 3 10 4 11 5 5 6 4 7 3 8 2 9 1 10 12 11 9 12
REMARK H PARENT 9 13
REMARK Flexibility Score: inf
ROOT
ATOM      1  C   UNL     1      22.177  13.875   3.394  1.00  0.00     0.016 A 
ATOM      2  C   UNL     1      23.530  13.981   3.055  1.00  0.00     0.047 A 
ATOM      3  C   UNL     1      23.911  14.562   1.839  1.00  0.00     0.119 A 
ATOM      4  C   UNL     1      22.932  15.041   0.954  1.00  0.00     0.094 A 
ATOM      5  C   UNL     1      21.577  14.939   1.285  1.00  0.00     0.142 A 
ATOM      6  C   UNL     1      21.196  14.353   2.513  1.00  0.00     0.018 A 
ATOM      7  C   UNL     1      19.834  14.265   2.816  1.00  0.00     0.019 A 
ATOM      8  C   UNL     1      18.897  14.754   1.906  1.00  0.00     0.094 A 
ATOM      9  C   UNL     1      19.347  15.323   0.709  1.00  0.00     0.336 A 
ATOM     10  O   UNL     1      18.518  15.770  -0.125  1.00  0.00    -0.246 OA
ATOM     11  O   UNL     1      20.651  15.393   0.446  1.00  0.00    -0.423 OA
ENDROOT
BRANCH   3  12
ATOM     12  O   UNL     1      25.263  14.659   1.518  1.00  0.00    -0.508 OA
ATOM     13  H   UNL     1      25.919  15.131   2.129  1.00  0.00     0.293 HD
ENDBRANCH   3  12
TORSDOF 1
ENDMDL
MODEL 2
REMARK VINA RESULT:    -2.140      0.785      4.239
REMARK INTER + INTRA:          -2.202
REMARK INTER:                  -2.202
REMARK INTRA:                   0.000
REMARK UNBOUND:                 0.000
REMARK SMILES O=c1ccc2ccc(O)cc2o1
REMARK SMILES IDX 6 1 7 2 8 3 10 4 11 5 5 6 4 7 3 8 2 9 1 10 12 11 9 12
REMARK H PARENT 9 13
REMARK Flexibility Score: inf
ROOT
ATOM      1  C   UNL     1      20.246  14.140   2.938  1.00  0.00     0.016 A 
ATOM      2  C   UNL     1      19.248  14.519   2.034  1.00  0.00     0.047 A 
ATOM      3  C   UNL     1      19.590  15.001   0.764  1.00  0.00     0.119 A 
ATOM      4  C   UNL     1      20.939  15.106   0.394  1.00  0.00     0.094 A 
ATOM      5  C   UNL     1      21.944  14.730   1.292  1.00  0.00     0.142 A 
ATOM      6  C   UNL     1      21.596  14.244   2.572  1.00  0.00     0.018 A 
ATOM      7  C   UNL     1      22.622  13.875   3.447  1.00  0.00     0.019 A 
ATOM      8  C   UNL     1      23.949  13.997   3.036  1.00  0.00     0.094 A 
ATOM      9  C   UNL     1      24.219  14.486   1.753  1.00  0.00     0.336 A 
ATOM     10  O   UNL     1      25.410  14.604   1.364  1.00  0.00    -0.246 OA
ATOM     11  O   UNL     1      23.223  14.830   0.940  1.00  0.00    -0.423 OA
ENDROOT
BRANCH   3  12
ATOM     12  O   UNL     1      18.581  15.373  -0.123  1.00  0.00    -0.508 OA
ATOM     13  H   UNL     1      17.695  15.738   0.206  1.00  0.00     0.293 HD
ENDBRANCH   3  12
TORSDOF 1
ENDMDL
MODEL 3
REMARK VINA RESULT:    -1.296     13.847     14.772
REMARK INTER + INTRA:          -1.334
REMARK INTER:                  -1.334
REMARK INTRA:                   0.000
REMARK UNBOUND:                 0.000
REMARK SMILES O=c1ccc2ccc(O)cc2o1
REMARK SMILES IDX 6 1 7 2 8 3 10 4 11 5 5 6 4 7 3 8 2 9 1 10 12 11 9 12
REMARK H PARENT 9 13
REMARK Flexibility Score: inf
ROOT
ATOM      1  C   UNL     1      26.377  27.307   3.362  1.00  0.00     0.016 A 
ATOM      2  C   UNL     1      26.109  26.028   2.860  1.00  0.00     0.047 A 
ATOM      3  C   UNL     1      26.269  25.756   1.495  1.00  0.00     0.119 A 
ATOM      4  C   UNL     1      26.700  26.769   0.626  1.00  0.00     0.094 A 
ATOM      5  C   UNL     1      26.970  28.050   1.119  1.00  0.00     0.142 A 
ATOM      6  C   UNL     1      26.807  28.321   2.495  1.00  0.00     0.018 A 
ATOM      7  C   UNL     1      27.085  29.611   2.959  1.00  0.00     0.019 A 
ATOM      8  C   UNL     1      27.511  30.585   2.056  1.00  0.00     0.094 A 
ATOM      9  C   UNL     1      27.650  30.245   0.706  1.00  0.00     0.336 A 
ATOM     10  O   UNL     1      28.033  31.110  -0.124  1.00  0.00    -0.246 OA
ATOM     11  O   UNL     1      27.378  29.009   0.292  1.00  0.00    -0.423 OA
ENDROOT
BRANCH   3  12
ATOM     12  O   UNL     1      25.998  24.477   1.015  1.00  0.00    -0.508 OA
ATOM     13  H   UNL     1      26.722  23.901   0.603  1.00  0.00     0.293 HD
ENDBRANCH   3  12
TORSDOF 1
ENDMDL
