MODEL 1
REMARK VINA RESULT:    -8.116      0.000      0.000
REMARK INTER + INTRA:         -13.168
REMARK INTER:                 -11.199
REMARK INTRA:                  -1.969
REMARK UNBOUND:                -1.969
REMARK SMILES CC[C@H](CC[C@@H](C)[C@H]1CC[C@H]2[C@H]3CC=C4C[C@@H](O)CC[C@@]4(C)[C@@H]3CC[C@@]12C)C(C)C
REMARK SMILES IDX 5 1 4 2 3 3 2 4 1 5 28 6 29 7 30 8 6 9 7 10 8 11 9 12 26 13
REMARK SMILES IDX 10 14 11 15 25 16 27 17 12 18 24 19 23 20 13 21 21 22 14 23
REMARK SMILES IDX 15 24 20 25 22 26 16 27 19 28 17 29 18 30
REMARK H PARENT 18 31
REMARK Flexibility Score: inf
ROOT
ATOM      1  C   UNL     1     132.573 133.426 138.242  1.00  0.00     0.004 C 
ENDROOT
BRANCH   1   2
ATOM      2  C   UNL     1     131.475 133.743 139.290  1.00  0.00     0.004 C 
BRANCH   2   3
ATOM      3  C   UNL     1     130.207 132.864 139.100  1.00  0.00    -0.009 C 
BRANCH   3   4
ATOM      4  C   UNL     1     129.971 131.944 140.330  1.00  0.00     0.000 C 
ATOM      5  C   UNL     1     129.360 130.592 139.954  1.00  0.00     0.004 C 
ENDBRANCH   3   4
BRANCH   3   6
ATOM      6  C   UNL     1     128.954 133.744 138.763  1.00  0.00    -0.014 C 
ATOM      7  C   UNL     1     128.391 133.508 137.350  1.00  0.00     0.007 C 
ATOM      8  C   UNL     1     129.241 135.240 138.973  1.00  0.00     0.007 C 
ENDBRANCH   3   6
ENDBRANCH   2   3
ENDBRANCH   1   2
BRANCH   1   9
ATOM      9  C   UNL     1     132.067 132.927 136.859  1.00  0.00    -0.011 C 
ATOM     10  C   UNL     1     131.876 134.098 135.875  1.00  0.00     0.008 C 
BRANCH   9  11
ATOM     11  C   UNL     1     132.845 131.731 136.182  1.00  0.00    -0.002 C 
ATOM     12  C   UNL     1     134.379 131.732 136.247  1.00  0.00     0.005 C 
ATOM     13  C   UNL     1     132.440 130.303 136.648  1.00  0.00    -0.026 C 
ATOM     14  C   UNL     1     134.814 130.278 136.051  1.00  0.00     0.005 C 
ATOM     15  C   UNL     1     133.527 129.436 135.970  1.00  0.00    -0.001 C 
ATOM     16  C   UNL     1     132.521 130.156 138.202  1.00  0.00     0.007 C 
ATOM     17  C   UNL     1     131.028 129.938 136.131  1.00  0.00     0.012 C 
ATOM     18  C   UNL     1     133.636 127.976 136.510  1.00  0.00     0.000 C 
ATOM     19  C   UNL     1     132.527 128.699 138.667  1.00  0.00     0.005 C 
ATOM     20  C   UNL     1     133.701 127.898 138.055  1.00  0.00     0.003 C 
ATOM     21  C   UNL     1     134.832 127.246 135.876  1.00  0.00     0.031 C 
ATOM     22  C   UNL     1     133.769 126.404 138.573  1.00  0.00    -0.008 C 
ATOM     23  C   UNL     1     135.091 125.897 136.477  1.00  0.00    -0.027 C 
ATOM     24  C   UNL     1     134.760 125.571 137.742  1.00  0.00    -0.065 C 
ATOM     25  C   UNL     1     134.249 126.412 140.060  1.00  0.00     0.014 C 
ATOM     26  C   UNL     1     132.381 125.708 138.488  1.00  0.00     0.016 C 
ATOM     27  C   UNL     1     135.226 124.230 138.284  1.00  0.00     0.063 C 
ATOM     28  C   UNL     1     134.626 125.023 140.601  1.00  0.00     0.033 C 
ATOM     29  C   UNL     1     135.702 124.354 139.734  1.00  0.00     0.118 C 
BRANCH  29  30
ATOM     30  O   UNL     1     136.896 125.093 139.774  1.00  0.00    -0.393 OA
ATOM     31  H   UNL     1     137.246 125.023 140.700  1.00  0.00     0.210 HD
ENDBRANCH  29  30
ENDBRANCH   9  11
ENDBRANCH   1   9
TORSDOF 7
ENDMDL
MODEL 2
REMARK VINA RESULT:    -7.840      3.409     10.040
REMARK INTER + INTRA:         -12.789
REMARK INTER:                 -11.595
REMARK INTRA:                  -1.193
REMARK UNBOUND:                -1.969
REMARK SMILES CC[C@H](CC[C@@H](C)[C@H]1CC[C@H]2[C@H]3CC=C4C[C@@H](O)CC[C@@]4(C)[C@@H]3CC[C@@]12C)C(C)C
REMARK SMILES IDX 5 1 4 2 3 3 2 4 1 5 28 6 29 7 30 8 6 9 7 10 8 11 9 12 26 13
REMARK SMILES IDX 10 14 11 15 25 16 27 17 12 18 24 19 23 20 13 21 21 22 14 23
REMARK SMILES IDX 15 24 20 25 22 26 16 27 19 28 17 29 18 30
REMARK H PARENT 18 31
REMARK Flexibility Score: inf
ROOT
ATOM      1  C   UNL     1     135.757 121.788 139.322  1.00  0.00     0.004 C 
ENDROOT
BRANCH   1   2
ATOM      2  C   UNL     1     136.002 120.664 138.283  1.00  0.00     0.004 C 
BRANCH   2   3
ATOM      3  C   UNL     1     136.992 119.584 138.805  1.00  0.00    -0.009 C 
BRANCH   3   4
ATOM      4  C   UNL     1     137.106 119.627 140.354  1.00  0.00     0.000 C 
ATOM      5  C   UNL     1     138.555 119.594 140.846  1.00  0.00     0.004 C 
ENDBRANCH   3   4
BRANCH   3   6
ATOM      6  C   UNL     1     136.609 118.160 138.273  1.00  0.00    -0.014 C 
ATOM      7  C   UNL     1     135.633 117.397 139.187  1.00  0.00     0.007 C 
ATOM      8  C   UNL     1     137.856 117.304 138.001  1.00  0.00     0.007 C 
ENDBRANCH   3   6
ENDBRANCH   2   3
ENDBRANCH   1   2
BRANCH   1   9
ATOM      9  C   UNL     1     134.271 122.067 139.684  1.00  0.00    -0.011 C 
ATOM     10  C   UNL     1     133.654 120.890 140.467  1.00  0.00     0.008 C 
BRANCH   9  11
ATOM     11  C   UNL     1     133.930 123.449 140.365  1.00  0.00    -0.002 C 
ATOM     12  C   UNL     1     135.079 124.260 140.982  1.00  0.00     0.005 C 
ATOM     13  C   UNL     1     133.165 124.475 139.480  1.00  0.00    -0.026 C 
ATOM     14  C   UNL     1     134.594 125.710 141.038  1.00  0.00     0.005 C 
ATOM     15  C   UNL     1     133.207 125.742 140.367  1.00  0.00    -0.001 C 
ATOM     16  C   UNL     1     133.903 124.736 138.127  1.00  0.00     0.007 C 
ATOM     17  C   UNL     1     131.710 124.010 139.236  1.00  0.00     0.012 C 
ATOM     18  C   UNL     1     132.838 127.070 139.636  1.00  0.00     0.000 C 
ATOM     19  C   UNL     1     133.422 126.003 137.417  1.00  0.00     0.005 C 
ATOM     20  C   UNL     1     133.592 127.263 138.298  1.00  0.00     0.003 C 
ATOM     21  C   UNL     1     133.048 128.281 140.561  1.00  0.00     0.031 C 
ATOM     22  C   UNL     1     133.165 128.598 137.561  1.00  0.00    -0.008 C 
ATOM     23  C   UNL     1     132.870 129.597 139.865  1.00  0.00    -0.027 C 
ATOM     24  C   UNL     1     133.081 129.775 138.547  1.00  0.00    -0.065 C 
ATOM     25  C   UNL     1     134.237 128.932 136.475  1.00  0.00     0.014 C 
ATOM     26  C   UNL     1     131.775 128.451 136.880  1.00  0.00     0.016 C 
ATOM     27  C   UNL     1     133.029 131.190 137.995  1.00  0.00     0.063 C 
ATOM     28  C   UNL     1     134.097 130.341 135.875  1.00  0.00     0.033 C 
ATOM     29  C   UNL     1     134.137 131.423 136.963  1.00  0.00     0.118 C 
BRANCH  29  30
ATOM     30  O   UNL     1     135.385 131.428 137.608  1.00  0.00    -0.393 OA
ATOM     31  H   UNL     1     135.245 131.029 138.506  1.00  0.00     0.210 HD
ENDBRANCH  29  30
ENDBRANCH   9  11
ENDBRANCH   1   9
TORSDOF 7
ENDMDL
MODEL 3
REMARK VINA RESULT:    -7.601      3.524      9.460
REMARK INTER + INTRA:         -12.458
REMARK INTER:                 -11.706
REMARK INTRA:                  -0.752
REMARK UNBOUND:                -1.969
REMARK SMILES CC[C@H](CC[C@@H](C)[C@H]1CC[C@H]2[C@H]3CC=C4C[C@@H](O)CC[C@@]4(C)[C@@H]3CC[C@@]12C)C(C)C
REMARK SMILES IDX 5 1 4 2 3 3 2 4 1 5 28 6 29 7 30 8 6 9 7 10 8 11 9 12 26 13
REMARK SMILES IDX 10 14 11 15 25 16 27 17 12 18 24 19 23 20 13 21 21 22 14 23
REMARK SMILES IDX 15 24 20 25 22 26 16 27 19 28 17 29 18 30
REMARK H PARENT 18 31
REMARK Flexibility Score: inf
ROOT
ATOM      1  C   UNL     1     135.987 123.565 139.943  1.00  0.00     0.004 C 
ENDROOT
BRANCH   1   2
ATOM      2  C   UNL     1     135.897 122.172 139.268  1.00  0.00     0.004 C 
BRANCH   2   3
ATOM      3  C   UNL     1     136.252 121.019 140.248  1.00  0.00    -0.009 C 
BRANCH   3   4
ATOM      4  C   UNL     1     135.052 120.678 141.175  1.00  0.00     0.000 C 
ATOM      5  C   UNL     1     133.707 120.717 140.447  1.00  0.00     0.004 C 
ENDBRANCH   3   4
BRANCH   3   6
ATOM      6  C   UNL     1     136.785 119.763 139.474  1.00  0.00    -0.014 C 
ATOM      7  C   UNL     1     138.292 119.509 139.664  1.00  0.00     0.007 C 
ATOM      8  C   UNL     1     136.448 119.837 137.976  1.00  0.00     0.007 C 
ENDBRANCH   3   6
ENDBRANCH   2   3
ENDBRANCH   1   2
BRANCH   1   9
ATOM      9  C   UNL     1     135.249 124.722 139.213  1.00  0.00    -0.011 C 
ATOM     10  C   UNL     1     135.720 124.856 137.751  1.00  0.00     0.008 C 
BRANCH   9  11
ATOM     11  C   UNL     1     133.674 124.765 139.313  1.00  0.00    -0.002 C 
ATOM     12  C   UNL     1     133.014 124.295 140.618  1.00  0.00     0.005 C 
ATOM     13  C   UNL     1     133.008 126.141 139.019  1.00  0.00    -0.026 C 
ATOM     14  C   UNL     1     131.632 124.950 140.656  1.00  0.00     0.005 C 
ATOM     15  C   UNL     1     131.540 125.867 139.422  1.00  0.00    -0.001 C 
ATOM     16  C   UNL     1     133.612 127.277 139.905  1.00  0.00     0.007 C 
ATOM     17  C   UNL     1     133.121 126.493 137.516  1.00  0.00     0.012 C 
ATOM     18  C   UNL     1     130.655 127.142 139.589  1.00  0.00     0.000 C 
ATOM     19  C   UNL     1     132.739 128.533 139.946  1.00  0.00     0.005 C 
ATOM     20  C   UNL     1     131.314 128.234 140.467  1.00  0.00     0.003 C 
ATOM     21  C   UNL     1     129.262 126.775 140.127  1.00  0.00     0.031 C 
ATOM     22  C   UNL     1     130.410 129.529 140.583  1.00  0.00    -0.008 C 
ATOM     23  C   UNL     1     128.423 127.970 140.466  1.00  0.00    -0.027 C 
ATOM     24  C   UNL     1     128.938 129.161 140.829  1.00  0.00    -0.065 C 
ATOM     25  C   UNL     1     130.919 130.386 141.786  1.00  0.00     0.014 C 
ATOM     26  C   UNL     1     130.472 130.383 139.285  1.00  0.00     0.016 C 
ATOM     27  C   UNL     1     127.983 130.240 141.310  1.00  0.00     0.063 C 
ATOM     28  C   UNL     1     129.967 131.525 142.185  1.00  0.00     0.033 C 
ATOM     29  C   UNL     1     128.561 130.999 142.508  1.00  0.00     0.118 C 
BRANCH  29  30
ATOM     30  O   UNL     1     128.597 130.150 143.627  1.00  0.00    -0.393 OA
ATOM     31  H   UNL     1     128.724 129.228 143.283  1.00  0.00     0.210 HD
ENDBRANCH  29  30
ENDBRANCH   9  11
ENDBRANCH   1   9
TORSDOF 7
ENDMDL
MODEL 4
REMARK VINA RESULT:    -7.577      0.512      1.514
REMARK INTER + INTRA:         -12.425
REMARK INTER:                 -11.197
REMARK INTRA:                  -1.228
REMARK UNBOUND:                -1.969
REMARK SMILES CC[C@H](CC[C@@H](C)[C@H]1CC[C@H]2[C@H]3CC=C4C[C@@H](O)CC[C@@]4(C)[C@@H]3CC[C@@]12C)C(C)C
REMARK SMILES IDX 5 1 4 2 3 3 2 4 1 5 28 6 29 7 30 8 6 9 7 10 8 11 9 12 26 13
REMARK SMILES IDX 10 14 11 15 25 16 27 17 12 18 24 19 23 20 13 21 21 22 14 23
REMARK SMILES IDX 15 24 20 25 22 26 16 27 19 28 17 29 18 30
REMARK H PARENT 18 31
REMARK Flexibility Score: inf
ROOT
ATOM      1  C   UNL     1     132.188 133.029 138.204  1.00  0.00     0.004 C 
ENDROOT
BRANCH   1   2
ATOM      2  C   UNL     1     131.186 134.032 138.834  1.00  0.00     0.004 C 
BRANCH   2   3
ATOM      3  C   UNL     1     129.950 133.320 139.452  1.00  0.00    -0.009 C 
BRANCH   3   4
ATOM      4  C   UNL     1     128.911 132.946 138.359  1.00  0.00     0.000 C 
ATOM      5  C   UNL     1     128.665 134.077 137.358  1.00  0.00     0.004 C 
ENDBRANCH   3   4
BRANCH   3   6
ATOM      6  C   UNL     1     130.382 132.084 140.315  1.00  0.00    -0.014 C 
ATOM      7  C   UNL     1     129.260 131.051 140.525  1.00  0.00     0.007 C 
ATOM      8  C   UNL     1     130.960 132.517 141.672  1.00  0.00     0.007 C 
ENDBRANCH   3   6
ENDBRANCH   2   3
ENDBRANCH   1   2
BRANCH   1   9
ATOM      9  C   UNL     1     132.034 132.784 136.677  1.00  0.00    -0.011 C 
ATOM     10  C   UNL     1     132.245 134.083 135.875  1.00  0.00     0.008 C 
BRANCH   9  11
ATOM     11  C   UNL     1     132.838 131.582 136.043  1.00  0.00    -0.002 C 
ATOM     12  C   UNL     1     134.371 131.603 136.137  1.00  0.00     0.005 C 
ATOM     13  C   UNL     1     132.441 130.160 136.534  1.00  0.00    -0.026 C 
ATOM     14  C   UNL     1     134.826 130.150 135.983  1.00  0.00     0.005 C 
ATOM     15  C   UNL     1     133.550 129.291 135.897  1.00  0.00    -0.001 C 
ATOM     16  C   UNL     1     132.493 130.050 138.092  1.00  0.00     0.007 C 
ATOM     17  C   UNL     1     131.043 129.767 135.998  1.00  0.00     0.012 C 
ATOM     18  C   UNL     1     133.666 127.845 136.473  1.00  0.00     0.000 C 
ATOM     19  C   UNL     1     132.506 128.604 138.590  1.00  0.00     0.005 C 
ATOM     20  C   UNL     1     133.701 127.803 138.020  1.00  0.00     0.003 C 
ATOM     21  C   UNL     1     134.882 127.115 135.879  1.00  0.00     0.031 C 
ATOM     22  C   UNL     1     133.776 126.322 138.573  1.00  0.00    -0.008 C 
ATOM     23  C   UNL     1     135.144 125.783 136.515  1.00  0.00    -0.027 C 
ATOM     24  C   UNL     1     134.792 125.482 137.781  1.00  0.00    -0.065 C 
ATOM     25  C   UNL     1     134.227 126.370 140.068  1.00  0.00     0.014 C 
ATOM     26  C   UNL     1     132.398 125.608 138.478  1.00  0.00     0.016 C 
ATOM     27  C   UNL     1     135.263 124.160 138.362  1.00  0.00     0.063 C 
ATOM     28  C   UNL     1     134.609 124.999 140.648  1.00  0.00     0.033 C 
ATOM     29  C   UNL     1     135.710 124.323 139.818  1.00  0.00     0.118 C 
BRANCH  29  30
ATOM     30  O   UNL     1     136.894 125.076 139.864  1.00  0.00    -0.393 OA
ATOM     31  H   UNL     1     136.743 125.810 140.515  1.00  0.00     0.210 HD
ENDBRANCH  29  30
ENDBRANCH   9  11
ENDBRANCH   1   9
TORSDOF 7
ENDMDL
MODEL 5
REMARK VINA RESULT:    -7.531      2.653      8.526
REMARK INTER + INTRA:         -12.361
REMARK INTER:                 -10.757
REMARK INTRA:                  -1.605
REMARK UNBOUND:                -1.969
REMARK SMILES CC[C@H](CC[C@@H](C)[C@H]1CC[C@H]2[C@H]3CC=C4C[C@@H](O)CC[C@@]4(C)[C@@H]3CC[C@@]12C)C(C)C
REMARK SMILES IDX 5 1 4 2 3 3 2 4 1 5 28 6 29 7 30 8 6 9 7 10 8 11 9 12 26 13
REMARK SMILES IDX 10 14 11 15 25 16 27 17 12 18 24 19 23 20 13 21 21 22 14 23
REMARK SMILES IDX 15 24 20 25 22 26 16 27 19 28 17 29 18 30
REMARK H PARENT 18 31
REMARK Flexibility Score: inf
ROOT
ATOM      1  C   UNL     1     133.722 125.294 141.351  1.00  0.00     0.004 C 
ENDROOT
BRANCH   1   2
ATOM      2  C   UNL     1     134.923 125.325 140.370  1.00  0.00     0.004 C 
BRANCH   2   3
ATOM      3  C   UNL     1     134.777 124.281 139.228  1.00  0.00    -0.009 C 
BRANCH   3   4
ATOM      4  C   UNL     1     135.318 124.839 137.882  1.00  0.00     0.000 C 
ATOM      5  C   UNL     1     134.235 125.516 137.040  1.00  0.00     0.004 C 
ENDBRANCH   3   4
BRANCH   3   6
ATOM      6  C   UNL     1     135.444 122.916 139.620  1.00  0.00    -0.014 C 
ATOM      7  C   UNL     1     134.434 121.818 140.002  1.00  0.00     0.007 C 
ATOM      8  C   UNL     1     136.477 123.095 140.743  1.00  0.00     0.007 C 
ENDBRANCH   3   6
ENDBRANCH   2   3
ENDBRANCH   1   2
BRANCH   1   9
ATOM      9  C   UNL     1     132.311 125.336 140.700  1.00  0.00    -0.011 C 
ATOM     10  C   UNL     1     131.524 124.040 140.979  1.00  0.00     0.008 C 
BRANCH   9  11
ATOM     11  C   UNL     1     131.422 126.614 140.961  1.00  0.00    -0.002 C 
ATOM     12  C   UNL     1     131.995 127.731 141.846  1.00  0.00     0.005 C 
ATOM     13  C   UNL     1     130.902 127.355 139.695  1.00  0.00    -0.026 C 
ATOM     14  C   UNL     1     131.230 129.003 141.475  1.00  0.00     0.005 C 
ATOM     15  C   UNL     1     130.288 128.633 140.313  1.00  0.00    -0.001 C 
ATOM     16  C   UNL     1     132.067 127.728 138.723  1.00  0.00     0.007 C 
ATOM     17  C   UNL     1     129.827 126.510 138.971  1.00  0.00     0.012 C 
ATOM     18  C   UNL     1     129.985 129.776 139.295  1.00  0.00     0.000 C 
ATOM     19  C   UNL     1     131.671 128.784 137.690  1.00  0.00     0.005 C 
ATOM     20  C   UNL     1     131.173 130.089 138.354  1.00  0.00     0.003 C 
ATOM     21  C   UNL     1     129.514 131.047 140.023  1.00  0.00     0.031 C 
ATOM     22  C   UNL     1     130.821 131.223 137.308  1.00  0.00    -0.008 C 
ATOM     23  C   UNL     1     129.367 132.230 139.115  1.00  0.00    -0.027 C 
ATOM     24  C   UNL     1     130.073 132.388 137.978  1.00  0.00    -0.065 C 
ATOM     25  C   UNL     1     132.150 131.770 136.697  1.00  0.00     0.014 C 
ATOM     26  C   UNL     1     129.918 130.680 136.163  1.00  0.00     0.016 C 
ATOM     27  C   UNL     1     129.954 133.708 137.236  1.00  0.00     0.063 C 
ATOM     28  C   UNL     1     131.976 133.058 135.876  1.00  0.00     0.033 C 
ATOM     29  C   UNL     1     131.315 134.169 136.705  1.00  0.00     0.118 C 
BRANCH  29  30
ATOM     30  O   UNL     1     132.138 134.537 137.782  1.00  0.00    -0.393 OA
ATOM     31  H   UNL     1     131.576 134.496 138.600  1.00  0.00     0.210 HD
ENDBRANCH  29  30
ENDBRANCH   9  11
ENDBRANCH   1   9
TORSDOF 7
ENDMDL
MODEL 6
REMARK VINA RESULT:    -7.504      4.405     10.206
REMARK INTER + INTRA:         -12.325
REMARK INTER:                 -11.943
REMARK INTRA:                  -0.382
REMARK UNBOUND:                -1.969
REMARK SMILES CC[C@H](CC[C@@H](C)[C@H]1CC[C@H]2[C@H]3CC=C4C[C@@H](O)CC[C@@]4(C)[C@@H]3CC[C@@]12C)C(C)C
REMARK SMILES IDX 5 1 4 2 3 3 2 4 1 5 28 6 29 7 30 8 6 9 7 10 8 11 9 12 26 13
REMARK SMILES IDX 10 14 11 15 25 16 27 17 12 18 24 19 23 20 13 21 21 22 14 23
REMARK SMILES IDX 15 24 20 25 22 26 16 27 19 28 17 29 18 30
REMARK H PARENT 18 31
REMARK Flexibility Score: inf
ROOT
ATOM      1  C   UNL     1     135.506 121.172 140.903  1.00  0.00     0.004 C 
ENDROOT
BRANCH   1   2
ATOM      2  C   UNL     1     135.246 120.362 139.607  1.00  0.00     0.004 C 
BRANCH   2   3
ATOM      3  C   UNL     1     136.556 119.795 138.993  1.00  0.00    -0.009 C 
BRANCH   3   4
ATOM      4  C   UNL     1     137.284 118.851 139.990  1.00  0.00     0.000 C 
ATOM      5  C   UNL     1     138.751 119.229 140.205  1.00  0.00     0.004 C 
ENDBRANCH   3   4
BRANCH   3   6
ATOM      6  C   UNL     1     136.282 119.108 137.610  1.00  0.00    -0.014 C 
ATOM      7  C   UNL     1     135.311 117.916 137.691  1.00  0.00     0.007 C 
ATOM      8  C   UNL     1     137.588 118.679 136.923  1.00  0.00     0.007 C 
ENDBRANCH   3   6
ENDBRANCH   2   3
ENDBRANCH   1   2
BRANCH   1   9
ATOM      9  C   UNL     1     135.501 122.719 140.750  1.00  0.00    -0.011 C 
ATOM     10  C   UNL     1     136.896 123.249 140.362  1.00  0.00     0.008 C 
BRANCH   9  11
ATOM     11  C   UNL     1     134.373 123.363 139.853  1.00  0.00    -0.002 C 
ATOM     12  C   UNL     1     132.979 122.719 139.864  1.00  0.00     0.005 C 
ATOM     13  C   UNL     1     134.100 124.878 140.083  1.00  0.00    -0.026 C 
ATOM     14  C   UNL     1     132.004 123.807 139.408  1.00  0.00     0.005 C 
ATOM     15  C   UNL     1     132.829 125.096 139.230  1.00  0.00    -0.001 C 
ATOM     16  C   UNL     1     133.806 125.192 141.586  1.00  0.00     0.007 C 
ATOM     17  C   UNL     1     135.280 125.732 139.561  1.00  0.00     0.012 C 
ATOM     18  C   UNL     1     132.070 126.431 139.510  1.00  0.00     0.000 C 
ATOM     19  C   UNL     1     133.150 126.557 141.795  1.00  0.00     0.005 C 
ATOM     20  C   UNL     1     131.820 126.689 141.015  1.00  0.00     0.003 C 
ATOM     21  C   UNL     1     130.751 126.487 138.719  1.00  0.00     0.031 C 
ATOM     22  C   UNL     1     131.086 128.069 141.269  1.00  0.00    -0.008 C 
ATOM     23  C   UNL     1     129.898 127.668 139.073  1.00  0.00    -0.027 C 
ATOM     24  C   UNL     1     129.931 128.276 140.274  1.00  0.00    -0.065 C 
ATOM     25  C   UNL     1     130.502 128.065 142.718  1.00  0.00     0.014 C 
ATOM     26  C   UNL     1     132.062 129.269 141.115  1.00  0.00     0.016 C 
ATOM     27  C   UNL     1     128.899 129.353 140.564  1.00  0.00     0.063 C 
ATOM     28  C   UNL     1     129.530 129.222 143.001  1.00  0.00     0.033 C 
ATOM     29  C   UNL     1     128.370 129.242 141.996  1.00  0.00     0.118 C 
BRANCH  29  30
ATOM     30  O   UNL     1     127.591 128.079 142.120  1.00  0.00    -0.393 OA
ATOM     31  H   UNL     1     126.642 128.371 142.145  1.00  0.00     0.210 HD
ENDBRANCH  29  30
ENDBRANCH   9  11
ENDBRANCH   1   9
TORSDOF 7
ENDMDL
MODEL 7
REMARK VINA RESULT:    -7.442      3.168      8.161
REMARK INTER + INTRA:         -12.238
REMARK INTER:                 -10.236
REMARK INTRA:                  -2.002
REMARK UNBOUND:                -1.969
REMARK SMILES CC[C@H](CC[C@@H](C)[C@H]1CC[C@H]2[C@H]3CC=C4C[C@@H](O)CC[C@@]4(C)[C@@H]3CC[C@@]12C)C(C)C
REMARK SMILES IDX 5 1 4 2 3 3 2 4 1 5 28 6 29 7 30 8 6 9 7 10 8 11 9 12 26 13
REMARK SMILES IDX 10 14 11 15 25 16 27 17 12 18 24 19 23 20 13 21 21 22 14 23
REMARK SMILES IDX 15 24 20 25 22 26 16 27 19 28 17 29 18 30
REMARK H PARENT 18 31
REMARK Flexibility Score: inf
ROOT
ATOM      1  C   UNL     1     133.870 124.452 138.599  1.00  0.00     0.004 C 
ENDROOT
BRANCH   1   2
ATOM      2  C   UNL     1     133.440 125.247 137.339  1.00  0.00     0.004 C 
BRANCH   2   3
ATOM      3  C   UNL     1     134.173 126.613 137.226  1.00  0.00    -0.009 C 
BRANCH   3   4
ATOM      4  C   UNL     1     135.103 126.652 135.981  1.00  0.00     0.000 C 
ATOM      5  C   UNL     1     136.528 127.098 136.316  1.00  0.00     0.004 C 
ENDBRANCH   3   4
BRANCH   3   6
ATOM      6  C   UNL     1     133.154 127.805 137.248  1.00  0.00    -0.014 C 
ATOM      7  C   UNL     1     132.945 128.470 135.875  1.00  0.00     0.007 C 
ATOM      8  C   UNL     1     133.544 128.863 138.292  1.00  0.00     0.007 C 
ENDBRANCH   3   6
ENDBRANCH   2   3
ENDBRANCH   1   2
BRANCH   1   9
ATOM      9  C   UNL     1     132.735 124.105 139.603  1.00  0.00    -0.011 C 
ATOM     10  C   UNL     1     132.777 122.617 140.005  1.00  0.00     0.008 C 
BRANCH   9  11
ATOM     11  C   UNL     1     132.566 125.035 140.868  1.00  0.00    -0.002 C 
ATOM     12  C   UNL     1     133.631 126.111 141.127  1.00  0.00     0.005 C 
ATOM     13  C   UNL     1     131.214 125.796 140.979  1.00  0.00    -0.026 C 
ATOM     14  C   UNL     1     132.961 127.169 142.006  1.00  0.00     0.005 C 
ATOM     15  C   UNL     1     131.489 126.745 142.169  1.00  0.00    -0.001 C 
ATOM     16  C   UNL     1     130.905 126.621 139.688  1.00  0.00     0.007 C 
ATOM     17  C   UNL     1     130.059 124.816 141.298  1.00  0.00     0.012 C 
ATOM     18  C   UNL     1     130.461 127.908 142.334  1.00  0.00     0.000 C 
ATOM     19  C   UNL     1     129.820 127.678 139.897  1.00  0.00     0.005 C 
ATOM     20  C   UNL     1     130.190 128.677 141.019  1.00  0.00     0.003 C 
ATOM     21  C   UNL     1     130.900 128.872 143.450  1.00  0.00     0.031 C 
ATOM     22  C   UNL     1     129.115 129.823 141.210  1.00  0.00    -0.008 C 
ATOM     23  C   UNL     1     130.044 130.098 143.546  1.00  0.00    -0.027 C 
ATOM     24  C   UNL     1     129.372 130.619 142.500  1.00  0.00    -0.065 C 
ATOM     25  C   UNL     1     129.205 130.800 139.995  1.00  0.00     0.014 C 
ATOM     26  C   UNL     1     127.675 129.242 141.293  1.00  0.00     0.016 C 
ATOM     27  C   UNL     1     128.677 131.957 142.687  1.00  0.00     0.063 C 
ATOM     28  C   UNL     1     128.414 132.105 140.184  1.00  0.00     0.033 C 
ATOM     29  C   UNL     1     128.851 132.849 141.454  1.00  0.00     0.118 C 
BRANCH  29  30
ATOM     30  O   UNL     1     130.193 133.252 141.353  1.00  0.00    -0.393 OA
ATOM     31  H   UNL     1     130.730 132.428 141.216  1.00  0.00     0.210 HD
ENDBRANCH  29  30
ENDBRANCH   9  11
ENDBRANCH   1   9
TORSDOF 7
ENDMDL
MODEL 8
REMARK VINA RESULT:    -7.223      3.437      5.889
REMARK INTER + INTRA:         -11.937
REMARK INTER:                 -10.545
REMARK INTRA:                  -1.392
REMARK UNBOUND:                -1.969
REMARK SMILES CC[C@H](CC[C@@H](C)[C@H]1CC[C@H]2[C@H]3CC=C4C[C@@H](O)CC[C@@]4(C)[C@@H]3CC[C@@]12C)C(C)C
REMARK SMILES IDX 5 1 4 2 3 3 2 4 1 5 28 6 29 7 30 8 6 9 7 10 8 11 9 12 26 13
REMARK SMILES IDX 10 14 11 15 25 16 27 17 12 18 24 19 23 20 13 21 21 22 14 23
REMARK SMILES IDX 15 24 20 25 22 26 16 27 19 28 17 29 18 30
REMARK H PARENT 18 31
REMARK Flexibility Score: inf
ROOT
ATOM      1  C   UNL     1     129.983 134.405 140.549  1.00  0.00     0.004 C 
ENDROOT
BRANCH   1   2
ATOM      2  C   UNL     1     131.114 133.899 139.617  1.00  0.00     0.004 C 
BRANCH   2   3
ATOM      3  C   UNL     1     130.686 133.888 138.123  1.00  0.00    -0.009 C 
BRANCH   3   4
ATOM      4  C   UNL     1     129.274 134.511 137.937  1.00  0.00     0.000 C 
ATOM      5  C   UNL     1     128.255 133.520 137.371  1.00  0.00     0.004 C 
ENDBRANCH   3   4
BRANCH   3   6
ATOM      6  C   UNL     1     131.767 134.575 137.219  1.00  0.00    -0.014 C 
ATOM      7  C   UNL     1     132.003 133.858 135.877  1.00  0.00     0.007 C 
ATOM      8  C   UNL     1     133.099 134.749 137.965  1.00  0.00     0.007 C 
ENDBRANCH   3   6
ENDBRANCH   2   3
ENDBRANCH   1   2
BRANCH   1   9
ATOM      9  C   UNL     1     129.907 133.735 141.950  1.00  0.00    -0.011 C 
ATOM     10  C   UNL     1     129.631 134.774 143.055  1.00  0.00     0.008 C 
BRANCH   9  11
ATOM     11  C   UNL     1     128.976 132.469 142.107  1.00  0.00    -0.002 C 
ATOM     12  C   UNL     1     128.201 131.979 140.876  1.00  0.00     0.005 C 
ATOM     13  C   UNL     1     129.656 131.188 142.671  1.00  0.00    -0.026 C 
ATOM     14  C   UNL     1     127.872 130.508 141.138  1.00  0.00     0.005 C 
ATOM     15  C   UNL     1     128.540 130.134 142.475  1.00  0.00    -0.001 C 
ATOM     16  C   UNL     1     130.924 130.795 141.847  1.00  0.00     0.007 C 
ATOM     17  C   UNL     1     130.002 131.366 144.168  1.00  0.00     0.012 C 
ATOM     18  C   UNL     1     129.006 128.650 142.609  1.00  0.00     0.000 C 
ATOM     19  C   UNL     1     131.382 129.358 142.100  1.00  0.00     0.005 C 
ATOM     20  C   UNL     1     130.272 128.329 141.779  1.00  0.00     0.003 C 
ATOM     21  C   UNL     1     127.862 127.684 142.258  1.00  0.00     0.031 C 
ATOM     22  C   UNL     1     130.743 126.829 141.969  1.00  0.00    -0.008 C 
ATOM     23  C   UNL     1     128.293 126.249 142.206  1.00  0.00    -0.027 C 
ATOM     24  C   UNL     1     129.550 125.860 141.916  1.00  0.00    -0.065 C 
ATOM     25  C   UNL     1     131.732 126.466 140.815  1.00  0.00     0.014 C 
ATOM     26  C   UNL     1     131.456 126.625 143.336  1.00  0.00     0.016 C 
ATOM     27  C   UNL     1     129.818 124.376 141.730  1.00  0.00     0.063 C 
ATOM     28  C   UNL     1     132.050 124.966 140.716  1.00  0.00     0.033 C 
ATOM     29  C   UNL     1     130.772 124.129 140.558  1.00  0.00     0.118 C 
BRANCH  29  30
ATOM     30  O   UNL     1     130.124 124.440 139.351  1.00  0.00    -0.393 OA
ATOM     31  H   UNL     1     130.174 125.426 139.246  1.00  0.00     0.210 HD
ENDBRANCH  29  30
ENDBRANCH   9  11
ENDBRANCH   1   9
TORSDOF 7
ENDMDL
