MODEL 1
REMARK VINA RESULT:    -5.213      0.000      0.000
REMARK INTER + INTRA:          -8.932
REMARK INTER:                  -8.260
REMARK INTRA:                  -0.672
REMARK UNBOUND:                -0.672
REMARK SMILES CCCCCCCCCCCC(=O)[O-]
REMARK SMILES IDX 7 1 8 2 9 3 10 4 11 5 12 6 13 7 14 8 6 9 5 10 4 11 3 12 2 13
REMARK SMILES IDX 1 14
REMARK H PARENT
REMARK Flexibility Score: inf
ROOT
ATOM      1  C   UNL     1      10.627 -18.565 -25.621  1.00  0.00     0.000 C 
ENDROOT
BRANCH   1   2
ATOM      2  C   UNL     1      10.354 -17.473 -26.669  1.00  0.00     0.000 C 
BRANCH   2   3
ATOM      3  C   UNL     1       8.867 -17.373 -27.041  1.00  0.00     0.000 C 
BRANCH   3   4
ATOM      4  C   UNL     1       8.591 -17.774 -28.502  1.00  0.00     0.006 C 
BRANCH   4   5
ATOM      5  C   UNL     1       8.192 -16.573 -29.367  1.00  0.00     0.053 C 
BRANCH   5   6
ATOM      6  C   UNL     1       8.758 -16.672 -30.751  1.00  0.00     0.041 C 
ATOM      7  O   UNL     1       8.006 -16.555 -31.754  1.00  0.00    -0.550 OA
ATOM      8  O   UNL     1      10.111 -16.931 -30.930  1.00  0.00    -0.550 OA
ENDBRANCH   5   6
ENDBRANCH   4   5
ENDBRANCH   3   4
ENDBRANCH   2   3
ENDBRANCH   1   2
BRANCH   1   9
ATOM      9  C   UNL     1      11.814 -19.467 -26.002  1.00  0.00     0.000 C 
BRANCH   9  10
ATOM     10  C   UNL     1      12.066 -19.502 -27.520  1.00  0.00    -0.000 C 
BRANCH  10  11
ATOM     11  C   UNL     1      12.098 -20.934 -28.081  1.00  0.00    -0.000 C 
BRANCH  11  12
ATOM     12  C   UNL     1      13.125 -21.827 -27.363  1.00  0.00    -0.000 C 
BRANCH  12  13
ATOM     13  C   UNL     1      12.465 -22.999 -26.617  1.00  0.00    -0.003 C 
ATOM     14  C   UNL     1      11.219 -23.527 -27.327  1.00  0.00     0.004 C 
ENDBRANCH  12  13
ENDBRANCH  11  12
ENDBRANCH  10  11
ENDBRANCH   9  10
ENDBRANCH   1   9
TORSDOF 10
ENDMDL
MODEL 2
REMARK VINA RESULT:    -5.126      1.523      2.787
REMARK INTER + INTRA:          -8.794
REMARK INTER:                  -7.922
REMARK INTRA:                  -0.872
REMARK UNBOUND:                -0.672
REMARK SMILES CCCCCCCCCCCC(=O)[O-]
REMARK SMILES IDX 7 1 8 2 9 3 10 4 11 5 12 6 13 7 14 8 6 9 5 10 4 11 3 12 2 13
REMARK SMILES IDX 1 14
REMARK H PARENT
REMARK Flexibility Score: inf
ROOT
ATOM      1  C   UNL     1      12.369 -20.410 -27.028  1.00  0.00     0.000 C 
ENDROOT
BRANCH   1   2
ATOM      2  C   UNL     1      12.424 -19.042 -26.327  1.00  0.00     0.000 C 
BRANCH   2   3
ATOM      3  C   UNL     1      11.065 -18.624 -25.744  1.00  0.00     0.000 C 
BRANCH   3   4
ATOM      4  C   UNL     1      10.445 -17.423 -26.480  1.00  0.00     0.006 C 
BRANCH   4   5
ATOM      5  C   UNL     1       9.112 -17.779 -27.148  1.00  0.00     0.053 C 
BRANCH   5   6
ATOM      6  C   UNL     1       9.250 -17.897 -28.636  1.00  0.00     0.041 C 
ATOM      7  O   UNL     1       8.226 -17.942 -29.367  1.00  0.00    -0.550 OA
ATOM      8  O   UNL     1      10.512 -17.993 -29.210  1.00  0.00    -0.550 OA
ENDBRANCH   5   6
ENDBRANCH   4   5
ENDBRANCH   3   4
ENDBRANCH   2   3
ENDBRANCH   1   2
BRANCH   1   9
ATOM      9  C   UNL     1      11.710 -21.494 -26.158  1.00  0.00     0.000 C 
BRANCH   9  10
ATOM     10  C   UNL     1      12.283 -22.897 -26.426  1.00  0.00    -0.000 C 
BRANCH  10  11
ATOM     11  C   UNL     1      11.429 -23.704 -27.419  1.00  0.00    -0.000 C 
BRANCH  11  12
ATOM     12  C   UNL     1      12.257 -24.276 -28.582  1.00  0.00    -0.000 C 
BRANCH  12  13
ATOM     13  C   UNL     1      13.215 -23.238 -29.190  1.00  0.00    -0.003 C 
ATOM     14  C   UNL     1      12.532 -22.328 -30.211  1.00  0.00     0.004 C 
ENDBRANCH  12  13
ENDBRANCH  11  12
ENDBRANCH  10  11
ENDBRANCH   9  10
ENDBRANCH   1   9
TORSDOF 10
ENDMDL
MODEL 3
REMARK VINA RESULT:    -5.122      1.083      1.654
REMARK INTER + INTRA:          -8.788
REMARK INTER:                  -8.114
REMARK INTRA:                  -0.675
REMARK UNBOUND:                -0.672
REMARK SMILES CCCCCCCCCCCC(=O)[O-]
REMARK SMILES IDX 7 1 8 2 9 3 10 4 11 5 12 6 13 7 14 8 6 9 5 10 4 11 3 12 2 13
REMARK SMILES IDX 1 14
REMARK H PARENT
REMARK Flexibility Score: inf
ROOT
ATOM      1  C   UNL     1      11.846 -18.131 -26.997  1.00  0.00     0.000 C 
ENDROOT
BRANCH   1   2
ATOM      2  C   UNL     1      10.487 -18.211 -26.281  1.00  0.00     0.000 C 
BRANCH   2   3
ATOM      3  C   UNL     1       9.375 -17.475 -27.044  1.00  0.00     0.000 C 
BRANCH   3   4
ATOM      4  C   UNL     1       9.438 -17.713 -28.564  1.00  0.00     0.006 C 
BRANCH   4   5
ATOM      5  C   UNL     1       8.310 -16.991 -29.310  1.00  0.00     0.053 C 
BRANCH   5   6
ATOM      6  C   UNL     1       8.679 -16.705 -30.734  1.00  0.00     0.041 C 
ATOM      7  O   UNL     1       9.852 -16.918 -31.139  1.00  0.00    -0.550 OA
ATOM      8  O   UNL     1       7.736 -16.169 -31.602  1.00  0.00    -0.550 OA
ENDBRANCH   5   6
ENDBRANCH   4   5
ENDBRANCH   3   4
ENDBRANCH   2   3
ENDBRANCH   1   2
BRANCH   1   9
ATOM      9  C   UNL     1      12.812 -19.246 -26.559  1.00  0.00     0.000 C 
BRANCH   9  10
ATOM     10  C   UNL     1      12.214 -20.652 -26.745  1.00  0.00    -0.000 C 
BRANCH  10  11
ATOM     11  C   UNL     1      12.155 -21.079 -28.221  1.00  0.00    -0.000 C 
BRANCH  11  12
ATOM     12  C   UNL     1      12.639 -22.522 -28.440  1.00  0.00    -0.000 C 
BRANCH  12  13
ATOM     13  C   UNL     1      13.598 -22.995 -27.335  1.00  0.00    -0.003 C 
ATOM     14  C   UNL     1      15.057 -23.026 -27.790  1.00  0.00     0.004 C 
ENDBRANCH  12  13
ENDBRANCH  11  12
ENDBRANCH  10  11
ENDBRANCH   9  10
ENDBRANCH   1   9
TORSDOF 10
ENDMDL
MODEL 4
REMARK VINA RESULT:    -4.917      2.649      5.745
REMARK INTER + INTRA:          -8.463
REMARK INTER:                  -7.788
REMARK INTRA:                  -0.675
REMARK UNBOUND:                -0.672
REMARK SMILES CCCCCCCCCCCC(=O)[O-]
REMARK SMILES IDX 7 1 8 2 9 3 10 4 11 5 12 6 13 7 14 8 6 9 5 10 4 11 3 12 2 13
REMARK SMILES IDX 1 14
REMARK H PARENT
REMARK Flexibility Score: inf
ROOT
ATOM      1  C   UNL     1      12.811 -19.047 -26.964  1.00  0.00     0.000 C 
ENDROOT
BRANCH   1   2
ATOM      2  C   UNL     1      12.011 -19.977 -26.037  1.00  0.00     0.000 C 
BRANCH   2   3
ATOM      3  C   UNL     1      11.842 -21.389 -26.621  1.00  0.00     0.000 C 
BRANCH   3   4
ATOM      4  C   UNL     1      13.073 -21.852 -27.421  1.00  0.00     0.006 C 
BRANCH   4   5
ATOM      5  C   UNL     1      12.719 -22.925 -28.458  1.00  0.00     0.053 C 
BRANCH   5   6
ATOM      6  C   UNL     1      11.877 -22.370 -29.566  1.00  0.00     0.041 C 
ATOM      7  O   UNL     1      10.666 -22.695 -29.668  1.00  0.00    -0.550 OA
ATOM      8  O   UNL     1      12.444 -21.521 -30.509  1.00  0.00    -0.550 OA
ENDBRANCH   5   6
ENDBRANCH   4   5
ENDBRANCH   3   4
ENDBRANCH   2   3
ENDBRANCH   1   2
BRANCH   1   9
ATOM      9  C   UNL     1      11.921 -18.332 -27.996  1.00  0.00     0.000 C 
BRANCH   9  10
ATOM     10  C   UNL     1      10.506 -18.050 -27.461  1.00  0.00    -0.000 C 
BRANCH  10  11
ATOM     11  C   UNL     1       9.528 -17.630 -28.571  1.00  0.00    -0.000 C 
BRANCH  11  12
ATOM     12  C   UNL     1       8.057 -17.851 -28.177  1.00  0.00    -0.000 C 
BRANCH  12  13
ATOM     13  C   UNL     1       7.706 -17.206 -26.826  1.00  0.00    -0.003 C 
ATOM     14  C   UNL     1       7.406 -15.711 -26.944  1.00  0.00     0.004 C 
ENDBRANCH  12  13
ENDBRANCH  11  12
ENDBRANCH  10  11
ENDBRANCH   9  10
ENDBRANCH   1   9
TORSDOF 10
ENDMDL
MODEL 5
REMARK VINA RESULT:    -4.892      1.774      3.023
REMARK INTER + INTRA:          -8.423
REMARK INTER:                  -7.710
REMARK INTRA:                  -0.713
REMARK UNBOUND:                -0.672
REMARK SMILES CCCCCCCCCCCC(=O)[O-]
REMARK SMILES IDX 7 1 8 2 9 3 10 4 11 5 12 6 13 7 14 8 6 9 5 10 4 11 3 12 2 13
REMARK SMILES IDX 1 14
REMARK H PARENT
REMARK Flexibility Score: inf
ROOT
ATOM      1  C   UNL     1      13.027 -19.938 -26.788  1.00  0.00     0.000 C 
ENDROOT
BRANCH   1   2
ATOM      2  C   UNL     1      12.422 -18.812 -25.930  1.00  0.00     0.000 C 
BRANCH   2   3
ATOM      3  C   UNL     1      10.886 -18.808 -25.962  1.00  0.00     0.000 C 
BRANCH   3   4
ATOM      4  C   UNL     1      10.307 -17.524 -26.583  1.00  0.00     0.006 C 
BRANCH   4   5
ATOM      5  C   UNL     1       9.105 -17.812 -27.491  1.00  0.00     0.053 C 
BRANCH   5   6
ATOM      6  C   UNL     1       9.482 -17.774 -28.940  1.00  0.00     0.041 C 
ATOM      7  O   UNL     1      10.694 -17.741 -29.280  1.00  0.00    -0.550 OA
ATOM      8  O   UNL     1       8.492 -17.740 -29.914  1.00  0.00    -0.550 OA
ENDBRANCH   5   6
ENDBRANCH   4   5
ENDBRANCH   3   4
ENDBRANCH   2   3
ENDBRANCH   1   2
BRANCH   1   9
ATOM      9  C   UNL     1      11.982 -20.622 -27.687  1.00  0.00     0.000 C 
BRANCH   9  10
ATOM     10  C   UNL     1      12.343 -22.083 -28.005  1.00  0.00    -0.000 C 
BRANCH  10  11
ATOM     11  C   UNL     1      13.462 -22.626 -27.099  1.00  0.00    -0.000 C 
BRANCH  11  12
ATOM     12  C   UNL     1      14.740 -22.974 -27.881  1.00  0.00    -0.000 C 
BRANCH  12  13
ATOM     13  C   UNL     1      15.918 -23.324 -26.958  1.00  0.00    -0.003 C 
ATOM     14  C   UNL     1      16.990 -22.234 -26.926  1.00  0.00     0.004 C 
ENDBRANCH  12  13
ENDBRANCH  11  12
ENDBRANCH  10  11
ENDBRANCH   9  10
ENDBRANCH   1   9
TORSDOF 10
ENDMDL
MODEL 6
REMARK VINA RESULT:    -4.728      2.550      4.187
REMARK INTER + INTRA:          -8.164
REMARK INTER:                  -7.514
REMARK INTRA:                  -0.649
REMARK UNBOUND:                -0.672
REMARK SMILES CCCCCCCCCCCC(=O)[O-]
REMARK SMILES IDX 7 1 8 2 9 3 10 4 11 5 12 6 13 7 14 8 6 9 5 10 4 11 3 12 2 13
REMARK SMILES IDX 1 14
REMARK H PARENT
REMARK Flexibility Score: inf
ROOT
ATOM      1  C   UNL     1      12.117 -21.128 -28.421  1.00  0.00     0.000 C 
ENDROOT
BRANCH   1   2
ATOM      2  C   UNL     1      12.105 -20.807 -26.916  1.00  0.00     0.000 C 
BRANCH   2   3
ATOM      3  C   UNL     1      12.768 -19.457 -26.598  1.00  0.00     0.000 C 
BRANCH   3   4
ATOM      4  C   UNL     1      12.087 -18.276 -27.312  1.00  0.00     0.006 C 
BRANCH   4   5
ATOM      5  C   UNL     1      10.723 -17.937 -26.700  1.00  0.00     0.053 C 
BRANCH   5   6
ATOM      6  C   UNL     1       9.680 -17.719 -27.754  1.00  0.00     0.041 C 
ATOM      7  O   UNL     1       8.745 -16.899 -27.561  1.00  0.00    -0.550 OA
ATOM      8  O   UNL     1       9.723 -18.450 -28.934  1.00  0.00    -0.550 OA
ENDBRANCH   5   6
ENDBRANCH   4   5
ENDBRANCH   3   4
ENDBRANCH   2   3
ENDBRANCH   1   2
BRANCH   1   9
ATOM      9  C   UNL     1      12.948 -22.380 -28.752  1.00  0.00     0.000 C 
BRANCH   9  10
ATOM     10  C   UNL     1      13.760 -22.886 -27.547  1.00  0.00    -0.000 C 
BRANCH  10  11
ATOM     11  C   UNL     1      15.261 -23.013 -27.857  1.00  0.00    -0.000 C 
BRANCH  11  12
ATOM     12  C   UNL     1      16.103 -23.290 -26.600  1.00  0.00    -0.000 C 
BRANCH  12  13
ATOM     13  C   UNL     1      17.484 -22.616 -26.656  1.00  0.00    -0.003 C 
ATOM     14  C   UNL     1      17.911 -22.259 -28.080  1.00  0.00     0.004 C 
ENDBRANCH  12  13
ENDBRANCH  11  12
ENDBRANCH  10  11
ENDBRANCH   9  10
ENDBRANCH   1   9
TORSDOF 10
ENDMDL
MODEL 7
REMARK VINA RESULT:    -4.705      3.787      5.816
REMARK INTER + INTRA:          -8.127
REMARK INTER:                  -7.438
REMARK INTRA:                  -0.689
REMARK UNBOUND:                -0.672
REMARK SMILES CCCCCCCCCCCC(=O)[O-]
REMARK SMILES IDX 7 1 8 2 9 3 10 4 11 5 12 6 13 7 14 8 6 9 5 10 4 11 3 12 2 13
REMARK SMILES IDX 1 14
REMARK H PARENT
REMARK Flexibility Score: inf
ROOT
ATOM      1  C   UNL     1      12.913 -22.992 -26.942  1.00  0.00     0.000 C 
ENDROOT
BRANCH   1   2
ATOM      2  C   UNL     1      12.070 -21.740 -26.645  1.00  0.00     0.000 C 
BRANCH   2   3
ATOM      3  C   UNL     1      12.103 -20.722 -27.795  1.00  0.00     0.000 C 
BRANCH   3   4
ATOM      4  C   UNL     1      12.002 -19.266 -27.304  1.00  0.00     0.006 C 
BRANCH   4   5
ATOM      5  C   UNL     1      13.026 -18.953 -26.207  1.00  0.00     0.053 C 
BRANCH   5   6
ATOM      6  C   UNL     1      12.373 -18.382 -24.985  1.00  0.00     0.041 C 
ATOM      7  O   UNL     1      13.063 -18.096 -23.972  1.00  0.00    -0.550 OA
ATOM      8  O   UNL     1      10.996 -18.200 -24.955  1.00  0.00    -0.550 OA
ENDBRANCH   5   6
ENDBRANCH   4   5
ENDBRANCH   3   4
ENDBRANCH   2   3
ENDBRANCH   1   2
BRANCH   1   9
ATOM      9  C   UNL     1      13.544 -22.962 -28.345  1.00  0.00     0.000 C 
BRANCH   9  10
ATOM     10  C   UNL     1      15.054 -23.255 -28.321  1.00  0.00    -0.000 C 
BRANCH  10  11
ATOM     11  C   UNL     1      15.714 -22.846 -26.993  1.00  0.00    -0.000 C 
BRANCH  11  12
ATOM     12  C   UNL     1      17.153 -23.373 -26.861  1.00  0.00    -0.000 C 
BRANCH  12  13
ATOM     13  C   UNL     1      18.119 -22.315 -26.302  1.00  0.00    -0.003 C 
ATOM     14  C   UNL     1      18.471 -22.551 -24.834  1.00  0.00     0.004 C 
ENDBRANCH  12  13
ENDBRANCH  11  12
ENDBRANCH  10  11
ENDBRANCH   9  10
ENDBRANCH   1   9
TORSDOF 10
ENDMDL
MODEL 8
REMARK VINA RESULT:    -4.672      2.774      4.452
REMARK INTER + INTRA:          -8.075
REMARK INTER:                  -7.482
REMARK INTRA:                  -0.593
REMARK UNBOUND:                -0.672
REMARK SMILES CCCCCCCCCCCC(=O)[O-]
REMARK SMILES IDX 7 1 8 2 9 3 10 4 11 5 12 6 13 7 14 8 6 9 5 10 4 11 3 12 2 13
REMARK SMILES IDX 1 14
REMARK H PARENT
REMARK Flexibility Score: inf
ROOT
ATOM      1  C   UNL     1      12.597 -22.858 -27.623  1.00  0.00     0.000 C 
ENDROOT
BRANCH   1   2
ATOM      2  C   UNL     1      12.091 -21.432 -27.901  1.00  0.00     0.000 C 
BRANCH   2   3
ATOM      3  C   UNL     1      12.108 -20.546 -26.645  1.00  0.00     0.000 C 
BRANCH   3   4
ATOM      4  C   UNL     1      12.390 -19.066 -26.965  1.00  0.00     0.006 C 
BRANCH   4   5
ATOM      5  C   UNL     1      11.099 -18.255 -27.134  1.00  0.00     0.053 C 
BRANCH   5   6
ATOM      6  C   UNL     1      10.694 -18.152 -28.573  1.00  0.00     0.041 C 
ATOM      7  O   UNL     1       9.495 -18.334 -28.909  1.00  0.00    -0.550 OA
ATOM      8  O   UNL     1      11.650 -17.888 -29.546  1.00  0.00    -0.550 OA
ENDBRANCH   5   6
ENDBRANCH   4   5
ENDBRANCH   3   4
ENDBRANCH   2   3
ENDBRANCH   1   2
BRANCH   1   9
ATOM      9  C   UNL     1      14.093 -22.897 -27.268  1.00  0.00     0.000 C 
BRANCH   9  10
ATOM     10  C   UNL     1      14.980 -23.219 -28.483  1.00  0.00    -0.000 C 
BRANCH  10  11
ATOM     11  C   UNL     1      16.478 -23.241 -28.132  1.00  0.00    -0.000 C 
BRANCH  11  12
ATOM     12  C   UNL     1      16.749 -22.839 -26.673  1.00  0.00    -0.000 C 
BRANCH  12  13
ATOM     13  C   UNL     1      17.449 -23.952 -25.875  1.00  0.00    -0.003 C 
ATOM     14  C   UNL     1      16.760 -24.249 -24.543  1.00  0.00     0.004 C 
ENDBRANCH  12  13
ENDBRANCH  11  12
ENDBRANCH  10  11
ENDBRANCH   9  10
ENDBRANCH   1   9
TORSDOF 10
ENDMDL
MODEL 9
REMARK VINA RESULT:    -4.670      2.664      5.789
REMARK INTER + INTRA:          -8.071
REMARK INTER:                  -7.369
REMARK INTRA:                  -0.702
REMARK UNBOUND:                -0.672
REMARK SMILES CCCCCCCCCCCC(=O)[O-]
REMARK SMILES IDX 7 1 8 2 9 3 10 4 11 5 12 6 13 7 14 8 6 9 5 10 4 11 3 12 2 13
REMARK SMILES IDX 1 14
REMARK H PARENT
REMARK Flexibility Score: inf
ROOT
ATOM      1  C   UNL     1      11.770 -21.232 -26.312  1.00  0.00     0.000 C 
ENDROOT
BRANCH   1   2
ATOM      2  C   UNL     1      12.509 -22.567 -26.509  1.00  0.00     0.000 C 
BRANCH   2   3
ATOM      3  C   UNL     1      13.776 -22.419 -27.366  1.00  0.00     0.000 C 
BRANCH   3   4
ATOM      4  C   UNL     1      13.807 -23.395 -28.556  1.00  0.00     0.006 C 
BRANCH   4   5
ATOM      5  C   UNL     1      12.401 -23.832 -28.983  1.00  0.00     0.053 C 
BRANCH   5   6
ATOM      6  C   UNL     1      11.721 -22.785 -29.812  1.00  0.00     0.041 C 
ATOM      7  O   UNL     1      10.505 -22.521 -29.628  1.00  0.00    -0.550 OA
ATOM      8  O   UNL     1      12.425 -22.128 -30.813  1.00  0.00    -0.550 OA
ENDBRANCH   5   6
ENDBRANCH   4   5
ENDBRANCH   3   4
ENDBRANCH   2   3
ENDBRANCH   1   2
BRANCH   1   9
ATOM      9  C   UNL     1      12.492 -20.052 -26.985  1.00  0.00     0.000 C 
BRANCH   9  10
ATOM     10  C   UNL     1      12.175 -18.705 -26.313  1.00  0.00    -0.000 C 
BRANCH  10  11
ATOM     11  C   UNL     1      10.739 -18.230 -26.589  1.00  0.00    -0.000 C 
BRANCH  11  12
ATOM     12  C   UNL     1      10.428 -18.131 -28.093  1.00  0.00    -0.000 C 
BRANCH  12  13
ATOM     13  C   UNL     1       8.943 -17.844 -28.369  1.00  0.00    -0.003 C 
ATOM     14  C   UNL     1       8.168 -17.466 -27.106  1.00  0.00     0.004 C 
ENDBRANCH  12  13
ENDBRANCH  11  12
ENDBRANCH  10  11
ENDBRANCH   9  10
ENDBRANCH   1   9
TORSDOF 10
ENDMDL
