MODEL 1
REMARK VINA RESULT:    -4.155      0.000      0.000
REMARK INTER + INTRA:          -7.875
REMARK INTER:                  -7.070
REMARK INTRA:                  -0.805
REMARK UNBOUND:                -0.805
REMARK SMILES CCCCCCCCCCCCCC(=O)[O-]
REMARK SMILES IDX 8 1 9 2 10 3 11 4 12 5 13 6 14 7 15 8 16 9 7 10 6 11 5 12
REMARK SMILES IDX 4 13 3 14 2 15 1 16
REMARK H PARENT
REMARK Flexibility Score: inf
ROOT
ATOM      1  C   UNL     1      -7.817  -9.058  -0.238  1.00  0.00     0.000 C 
ENDROOT
BRANCH   1   2
ATOM      2  C   UNL     1      -7.286  -7.630  -0.007  1.00  0.00     0.000 C 
BRANCH   2   3
ATOM      3  C   UNL     1      -7.408  -7.111   1.438  1.00  0.00     0.000 C 
BRANCH   3   4
ATOM      4  C   UNL     1      -7.855  -5.641   1.508  1.00  0.00     0.000 C 
BRANCH   4   5
ATOM      5  C   UNL     1      -8.932  -5.397   2.581  1.00  0.00     0.006 C 
BRANCH   5   6
ATOM      6  C   UNL     1      -9.730  -4.095   2.398  1.00  0.00     0.053 C 
BRANCH   6   7
ATOM      7  C   UNL     1     -11.109  -4.350   1.869  1.00  0.00     0.041 C 
ATOM      8  O   UNL     1     -11.270  -4.751   0.687  1.00  0.00    -0.550 OA
ATOM      9  O   UNL     1     -12.212  -4.176   2.695  1.00  0.00    -0.550 OA
ENDBRANCH   6   7
ENDBRANCH   5   6
ENDBRANCH   4   5
ENDBRANCH   3   4
ENDBRANCH   2   3
ENDBRANCH   1   2
BRANCH   1  10
ATOM     10  C   UNL     1      -6.734 -10.151  -0.353  1.00  0.00     0.000 C 
BRANCH  10  11
ATOM     11  C   UNL     1      -5.804 -10.272   0.868  1.00  0.00    -0.000 C 
BRANCH  11  12
ATOM     12  C   UNL     1      -6.560 -10.604   2.162  1.00  0.00    -0.000 C 
BRANCH  12  13
ATOM     13  C   UNL     1      -5.905 -11.783   2.893  1.00  0.00    -0.000 C 
BRANCH  13  14
ATOM     14  C   UNL     1      -6.739 -13.060   2.736  1.00  0.00    -0.000 C 
BRANCH  14  15
ATOM     15  C   UNL     1      -5.961 -14.133   1.964  1.00  0.00    -0.003 C 
ATOM     16  C   UNL     1      -6.175 -13.993   0.459  1.00  0.00     0.004 C 
ENDBRANCH  14  15
ENDBRANCH  13  14
ENDBRANCH  12  13
ENDBRANCH  11  12
ENDBRANCH  10  11
ENDBRANCH   1  10
TORSDOF 12
ENDMDL
MODEL 2
REMARK VINA RESULT:    -4.031      3.964      7.718
REMARK INTER + INTRA:          -7.664
REMARK INTER:                  -6.674
REMARK INTRA:                  -0.989
REMARK UNBOUND:                -0.805
REMARK SMILES CCCCCCCCCCCCCC(=O)[O-]
REMARK SMILES IDX 8 1 9 2 10 3 11 4 12 5 13 6 14 7 15 8 16 9 7 10 6 11 5 12
REMARK SMILES IDX 4 13 3 14 2 15 1 16
REMARK H PARENT
REMARK Flexibility Score: inf
ROOT
ATOM      1  C   UNL     1      -7.649  -8.957  -0.362  1.00  0.00     0.000 C 
ENDROOT
BRANCH   1   2
ATOM      2  C   UNL     1      -6.800 -10.237  -0.228  1.00  0.00     0.000 C 
BRANCH   2   3
ATOM      3  C   UNL     1      -5.751 -10.212   0.899  1.00  0.00     0.000 C 
BRANCH   3   4
ATOM      4  C   UNL     1      -6.359 -10.487   2.286  1.00  0.00     0.000 C 
BRANCH   4   5
ATOM      5  C   UNL     1      -5.835 -11.791   2.916  1.00  0.00     0.006 C 
BRANCH   5   6
ATOM      6  C   UNL     1      -6.817 -12.971   2.844  1.00  0.00     0.053 C 
BRANCH   6   7
ATOM      7  C   UNL     1      -6.341 -14.044   1.912  1.00  0.00     0.041 C 
ATOM      8  O   UNL     1      -6.090 -15.197   2.350  1.00  0.00    -0.550 OA
ATOM      9  O   UNL     1      -6.207 -13.777   0.556  1.00  0.00    -0.550 OA
ENDBRANCH   6   7
ENDBRANCH   5   6
ENDBRANCH   4   5
ENDBRANCH   3   4
ENDBRANCH   2   3
ENDBRANCH   1   2
BRANCH   1  10
ATOM     10  C   UNL     1      -6.862  -7.634  -0.260  1.00  0.00     0.000 C 
BRANCH  10  11
ATOM     11  C   UNL     1      -7.488  -6.577   0.669  1.00  0.00    -0.000 C 
BRANCH  11  12
ATOM     12  C   UNL     1      -7.266  -6.886   2.157  1.00  0.00    -0.000 C 
BRANCH  12  13
ATOM     13  C   UNL     1      -8.382  -6.280   3.016  1.00  0.00    -0.000 C 
BRANCH  13  14
ATOM     14  C   UNL     1      -9.119  -5.169   2.257  1.00  0.00    -0.000 C 
BRANCH  14  15
ATOM     15  C   UNL     1     -10.542  -4.986   2.797  1.00  0.00    -0.003 C 
ATOM     16  C   UNL     1     -11.197  -3.738   2.209  1.00  0.00     0.004 C 
ENDBRANCH  14  15
ENDBRANCH  13  14
ENDBRANCH  12  13
ENDBRANCH  11  12
ENDBRANCH  10  11
ENDBRANCH   1  10
TORSDOF 12
ENDMDL
MODEL 3
REMARK VINA RESULT:    -3.910     19.439     21.466
REMARK INTER + INTRA:          -7.457
REMARK INTER:                  -5.729
REMARK INTRA:                  -1.728
REMARK UNBOUND:                -0.805
REMARK SMILES CCCCCCCCCCCCCC(=O)[O-]
REMARK SMILES IDX 8 1 9 2 10 3 11 4 12 5 13 6 14 7 15 8 16 9 7 10 6 11 5 12
REMARK SMILES IDX 4 13 3 14 2 15 1 16
REMARK H PARENT
REMARK Flexibility Score: inf
ROOT
ATOM      1  C   UNL     1     -21.390  -2.894 -16.415  1.00  0.00     0.000 C 
ENDROOT
BRANCH   1   2
ATOM      2  C   UNL     1     -22.774  -3.511 -16.697  1.00  0.00     0.000 C 
BRANCH   2   3
ATOM      3  C   UNL     1     -22.820  -5.050 -16.682  1.00  0.00     0.000 C 
BRANCH   3   4
ATOM      4  C   UNL     1     -23.437  -5.615 -15.391  1.00  0.00     0.000 C 
BRANCH   4   5
ATOM      5  C   UNL     1     -24.077  -4.525 -14.511  1.00  0.00     0.006 C 
BRANCH   5   6
ATOM      6  C   UNL     1     -23.477  -4.414 -13.099  1.00  0.00     0.053 C 
BRANCH   6   7
ATOM      7  C   UNL     1     -23.183  -2.994 -12.722  1.00  0.00     0.041 C 
ATOM      8  O   UNL     1     -24.087  -2.267 -12.235  1.00  0.00    -0.550 OA
ATOM      9  O   UNL     1     -21.900  -2.485 -12.879  1.00  0.00    -0.550 OA
ENDBRANCH   6   7
ENDBRANCH   5   6
ENDBRANCH   4   5
ENDBRANCH   3   4
ENDBRANCH   2   3
ENDBRANCH   1   2
BRANCH   1  10
ATOM     10  C   UNL     1     -20.220  -3.897 -16.373  1.00  0.00     0.000 C 
BRANCH  10  11
ATOM     11  C   UNL     1     -19.639  -4.158 -14.971  1.00  0.00    -0.000 C 
BRANCH  11  12
ATOM     12  C   UNL     1     -19.812  -5.614 -14.516  1.00  0.00    -0.000 C 
BRANCH  12  13
ATOM     13  C   UNL     1     -20.203  -5.683 -13.034  1.00  0.00    -0.000 C 
BRANCH  13  14
ATOM     14  C   UNL     1     -20.623  -7.104 -12.641  1.00  0.00    -0.000 C 
BRANCH  14  15
ATOM     15  C   UNL     1     -20.029  -8.139 -13.604  1.00  0.00    -0.003 C 
ATOM     16  C   UNL     1     -20.067  -9.540 -12.999  1.00  0.00     0.004 C 
ENDBRANCH  14  15
ENDBRANCH  13  14
ENDBRANCH  12  13
ENDBRANCH  11  12
ENDBRANCH  10  11
ENDBRANCH   1  10
TORSDOF 12
ENDMDL
MODEL 4
REMARK VINA RESULT:    -3.765     19.537     21.474
REMARK INTER + INTRA:          -7.211
REMARK INTER:                  -5.596
REMARK INTRA:                  -1.615
REMARK UNBOUND:                -0.805
REMARK SMILES CCCCCCCCCCCCCC(=O)[O-]
REMARK SMILES IDX 8 1 9 2 10 3 11 4 12 5 13 6 14 7 15 8 16 9 7 10 6 11 5 12
REMARK SMILES IDX 4 13 3 14 2 15 1 16
REMARK H PARENT
REMARK Flexibility Score: inf
ROOT
ATOM      1  C   UNL     1     -24.017  -5.545 -15.725  1.00  0.00     0.000 C 
ENDROOT
BRANCH   1   2
ATOM      2  C   UNL     1     -23.994  -4.056 -16.122  1.00  0.00     0.000 C 
BRANCH   2   3
ATOM      3  C   UNL     1     -22.592  -3.456 -16.336  1.00  0.00     0.000 C 
BRANCH   3   4
ATOM      4  C   UNL     1     -22.114  -2.616 -15.139  1.00  0.00     0.000 C 
BRANCH   4   5
ATOM      5  C   UNL     1     -21.144  -3.385 -14.223  1.00  0.00     0.006 C 
BRANCH   5   6
ATOM      6  C   UNL     1     -21.473  -3.289 -12.724  1.00  0.00     0.053 C 
BRANCH   6   7
ATOM      7  C   UNL     1     -22.923  -3.551 -12.449  1.00  0.00     0.041 C 
ATOM      8  O   UNL     1     -23.372  -4.727 -12.484  1.00  0.00    -0.550 OA
ATOM      9  O   UNL     1     -23.769  -2.500 -12.120  1.00  0.00    -0.550 OA
ENDBRANCH   6   7
ENDBRANCH   5   6
ENDBRANCH   4   5
ENDBRANCH   3   4
ENDBRANCH   2   3
ENDBRANCH   1   2
BRANCH   1  10
ATOM     10  C   UNL     1     -22.993  -6.436 -16.458  1.00  0.00     0.000 C 
BRANCH  10  11
ATOM     11  C   UNL     1     -22.024  -7.202 -15.539  1.00  0.00    -0.000 C 
BRANCH  11  12
ATOM     12  C   UNL     1     -20.653  -6.520 -15.419  1.00  0.00    -0.000 C 
BRANCH  12  13
ATOM     13  C   UNL     1     -19.855  -7.096 -14.243  1.00  0.00    -0.000 C 
BRANCH  13  14
ATOM     14  C   UNL     1     -20.653  -6.997 -12.936  1.00  0.00    -0.000 C 
BRANCH  14  15
ATOM     15  C   UNL     1     -20.640  -8.332 -12.183  1.00  0.00    -0.003 C 
ATOM     16  C   UNL     1     -20.167  -9.469 -13.085  1.00  0.00     0.004 C 
ENDBRANCH  14  15
ENDBRANCH  13  14
ENDBRANCH  12  13
ENDBRANCH  11  12
ENDBRANCH  10  11
ENDBRANCH   1  10
TORSDOF 12
ENDMDL
MODEL 5
REMARK VINA RESULT:    -3.702     19.970     22.080
REMARK INTER + INTRA:          -7.104
REMARK INTER:                  -5.520
REMARK INTRA:                  -1.584
REMARK UNBOUND:                -0.805
REMARK SMILES CCCCCCCCCCCCCC(=O)[O-]
REMARK SMILES IDX 8 1 9 2 10 3 11 4 12 5 13 6 14 7 15 8 16 9 7 10 6 11 5 12
REMARK SMILES IDX 4 13 3 14 2 15 1 16
REMARK H PARENT
REMARK Flexibility Score: inf
ROOT
ATOM      1  C   UNL     1     -22.864  -4.424 -12.620  1.00  0.00     0.000 C 
ENDROOT
BRANCH   1   2
ATOM      2  C   UNL     1     -23.796  -4.070 -13.796  1.00  0.00     0.000 C 
BRANCH   2   3
ATOM      3  C   UNL     1     -23.185  -3.135 -14.857  1.00  0.00     0.000 C 
BRANCH   3   4
ATOM      4  C   UNL     1     -22.799  -3.872 -16.151  1.00  0.00     0.000 C 
BRANCH   4   5
ATOM      5  C   UNL     1     -23.704  -5.085 -16.436  1.00  0.00     0.006 C 
BRANCH   5   6
ATOM      6  C   UNL     1     -22.953  -6.342 -16.906  1.00  0.00     0.053 C 
BRANCH   6   7
ATOM      7  C   UNL     1     -23.715  -7.597 -16.610  1.00  0.00     0.041 C 
ATOM      8  O   UNL     1     -23.120  -8.707 -16.577  1.00  0.00    -0.550 OA
ATOM      9  O   UNL     1     -25.075  -7.537 -16.338  1.00  0.00    -0.550 OA
ENDBRANCH   6   7
ENDBRANCH   5   6
ENDBRANCH   4   5
ENDBRANCH   3   4
ENDBRANCH   2   3
ENDBRANCH   1   2
BRANCH   1  10
ATOM     10  C   UNL     1     -21.480  -3.746 -12.652  1.00  0.00     0.000 C 
BRANCH  10  11
ATOM     11  C   UNL     1     -20.290  -4.707 -12.829  1.00  0.00    -0.000 C 
BRANCH  11  12
ATOM     12  C   UNL     1     -19.826  -4.818 -14.288  1.00  0.00    -0.000 C 
BRANCH  12  13
ATOM     13  C   UNL     1     -20.082  -6.226 -14.840  1.00  0.00    -0.000 C 
BRANCH  13  14
ATOM     14  C   UNL     1     -20.529  -7.181 -13.726  1.00  0.00    -0.000 C 
BRANCH  14  15
ATOM     15  C   UNL     1     -19.577  -8.377 -13.613  1.00  0.00    -0.003 C 
ATOM     16  C   UNL     1     -20.256  -9.558 -12.923  1.00  0.00     0.004 C 
ENDBRANCH  14  15
ENDBRANCH  13  14
ENDBRANCH  12  13
ENDBRANCH  11  12
ENDBRANCH  10  11
ENDBRANCH   1  10
TORSDOF 12
ENDMDL
MODEL 6
REMARK VINA RESULT:    -3.663     19.454     21.457
REMARK INTER + INTRA:          -7.037
REMARK INTER:                  -5.300
REMARK INTRA:                  -1.738
REMARK UNBOUND:                -0.805
REMARK SMILES CCCCCCCCCCCCCC(=O)[O-]
REMARK SMILES IDX 8 1 9 2 10 3 11 4 12 5 13 6 14 7 15 8 16 9 7 10 6 11 5 12
REMARK SMILES IDX 4 13 3 14 2 15 1 16
REMARK H PARENT
REMARK Flexibility Score: inf
ROOT
ATOM      1  C   UNL     1     -20.813  -3.479 -15.822  1.00  0.00     0.000 C 
ENDROOT
BRANCH   1   2
ATOM      2  C   UNL     1     -20.790  -2.801 -14.437  1.00  0.00     0.000 C 
BRANCH   2   3
ATOM      3  C   UNL     1     -20.768  -3.764 -13.236  1.00  0.00     0.000 C 
BRANCH   3   4
ATOM      4  C   UNL     1     -22.010  -3.627 -12.339  1.00  0.00     0.000 C 
BRANCH   4   5
ATOM      5  C   UNL     1     -23.095  -4.671 -12.662  1.00  0.00     0.006 C 
BRANCH   5   6
ATOM      6  C   UNL     1     -24.382  -4.085 -13.265  1.00  0.00     0.053 C 
BRANCH   6   7
ATOM      7  C   UNL     1     -24.446  -2.596 -13.116  1.00  0.00     0.041 C 
ATOM      8  O   UNL     1     -24.831  -2.084 -12.031  1.00  0.00    -0.550 OA
ATOM      9  O   UNL     1     -24.050  -1.775 -14.163  1.00  0.00    -0.550 OA
ENDBRANCH   6   7
ENDBRANCH   5   6
ENDBRANCH   4   5
ENDBRANCH   3   4
ENDBRANCH   2   3
ENDBRANCH   1   2
BRANCH   1  10
ATOM     10  C   UNL     1     -22.205  -3.931 -16.308  1.00  0.00     0.000 C 
BRANCH  10  11
ATOM     11  C   UNL     1     -22.349  -5.446 -16.547  1.00  0.00    -0.000 C 
BRANCH  11  12
ATOM     12  C   UNL     1     -21.102  -6.236 -16.123  1.00  0.00    -0.000 C 
BRANCH  12  13
ATOM     13  C   UNL     1     -21.390  -7.089 -14.881  1.00  0.00    -0.000 C 
BRANCH  13  14
ATOM     14  C   UNL     1     -20.122  -7.282 -14.040  1.00  0.00    -0.000 C 
BRANCH  14  15
ATOM     15  C   UNL     1     -20.427  -8.069 -12.760  1.00  0.00    -0.003 C 
ATOM     16  C   UNL     1     -20.138  -9.556 -12.946  1.00  0.00     0.004 C 
ENDBRANCH  14  15
ENDBRANCH  13  14
ENDBRANCH  12  13
ENDBRANCH  11  12
ENDBRANCH  10  11
ENDBRANCH   1  10
TORSDOF 12
ENDMDL
MODEL 7
REMARK VINA RESULT:    -3.653     19.577     21.379
REMARK INTER + INTRA:          -7.020
REMARK INTER:                  -5.650
REMARK INTRA:                  -1.371
REMARK UNBOUND:                -0.805
REMARK SMILES CCCCCCCCCCCCCC(=O)[O-]
REMARK SMILES IDX 8 1 9 2 10 3 11 4 12 5 13 6 14 7 15 8 16 9 7 10 6 11 5 12
REMARK SMILES IDX 4 13 3 14 2 15 1 16
REMARK H PARENT
REMARK Flexibility Score: inf
ROOT
ATOM      1  C   UNL     1     -21.937  -3.527 -12.368  1.00  0.00     0.000 C 
ENDROOT
BRANCH   1   2
ATOM      2  C   UNL     1     -22.556  -2.125 -12.199  1.00  0.00     0.000 C 
BRANCH   2   3
ATOM      3  C   UNL     1     -22.091  -1.075 -13.225  1.00  0.00     0.000 C 
BRANCH   3   4
ATOM      4  C   UNL     1     -22.677  -1.312 -14.628  1.00  0.00     0.000 C 
BRANCH   4   5
ATOM      5  C   UNL     1     -21.601  -1.673 -15.669  1.00  0.00     0.006 C 
BRANCH   5   6
ATOM      6  C   UNL     1     -20.155  -1.492 -15.178  1.00  0.00     0.053 C 
BRANCH   6   7
ATOM      7  C   UNL     1     -19.162  -2.119 -16.108  1.00  0.00     0.041 C 
ATOM      8  O   UNL     1     -19.139  -3.368 -16.262  1.00  0.00    -0.550 OA
ATOM      9  O   UNL     1     -18.285  -1.320 -16.829  1.00  0.00    -0.550 OA
ENDBRANCH   6   7
ENDBRANCH   5   6
ENDBRANCH   4   5
ENDBRANCH   3   4
ENDBRANCH   2   3
ENDBRANCH   1   2
BRANCH   1  10
ATOM     10  C   UNL     1     -22.931  -4.641 -12.755  1.00  0.00     0.000 C 
BRANCH  10  11
ATOM     11  C   UNL     1     -22.894  -5.058 -14.236  1.00  0.00    -0.000 C 
BRANCH  11  12
ATOM     12  C   UNL     1     -21.468  -5.312 -14.747  1.00  0.00    -0.000 C 
BRANCH  12  13
ATOM     13  C   UNL     1     -21.185  -6.815 -14.858  1.00  0.00    -0.000 C 
BRANCH  13  14
ATOM     14  C   UNL     1     -20.040  -7.230 -13.925  1.00  0.00    -0.000 C 
BRANCH  14  15
ATOM     15  C   UNL     1     -20.553  -8.126 -12.792  1.00  0.00    -0.003 C 
ATOM     16  C   UNL     1     -20.175  -9.586 -13.031  1.00  0.00     0.004 C 
ENDBRANCH  14  15
ENDBRANCH  13  14
ENDBRANCH  12  13
ENDBRANCH  11  12
ENDBRANCH  10  11
ENDBRANCH   1  10
TORSDOF 12
ENDMDL
MODEL 8
REMARK VINA RESULT:    -3.637     19.551     21.462
REMARK INTER + INTRA:          -6.993
REMARK INTER:                  -5.498
REMARK INTRA:                  -1.495
REMARK UNBOUND:                -0.805
REMARK SMILES CCCCCCCCCCCCCC(=O)[O-]
REMARK SMILES IDX 8 1 9 2 10 3 11 4 12 5 13 6 14 7 15 8 16 9 7 10 6 11 5 12
REMARK SMILES IDX 4 13 3 14 2 15 1 16
REMARK H PARENT
REMARK Flexibility Score: inf
ROOT
ATOM      1  C   UNL     1     -19.499  -3.063 -15.748  1.00  0.00     0.000 C 
ENDROOT
BRANCH   1   2
ATOM      2  C   UNL     1     -20.215  -1.781 -15.277  1.00  0.00     0.000 C 
BRANCH   2   3
ATOM      3  C   UNL     1     -21.670  -1.975 -14.813  1.00  0.00     0.000 C 
BRANCH   3   4
ATOM      4  C   UNL     1     -21.769  -2.558 -13.392  1.00  0.00     0.000 C 
BRANCH   4   5
ATOM      5  C   UNL     1     -23.133  -3.218 -13.114  1.00  0.00     0.006 C 
BRANCH   5   6
ATOM      6  C   UNL     1     -23.298  -4.619 -13.727  1.00  0.00     0.053 C 
BRANCH   6   7
ATOM      7  C   UNL     1     -24.223  -4.612 -14.905  1.00  0.00     0.041 C 
ATOM      8  O   UNL     1     -24.912  -3.591 -15.165  1.00  0.00    -0.550 OA
ATOM      9  O   UNL     1     -24.298  -5.723 -15.736  1.00  0.00    -0.550 OA
ENDBRANCH   6   7
ENDBRANCH   5   6
ENDBRANCH   4   5
ENDBRANCH   3   4
ENDBRANCH   2   3
ENDBRANCH   1   2
BRANCH   1  10
ATOM     10  C   UNL     1     -20.358  -4.019 -16.600  1.00  0.00     0.000 C 
BRANCH  10  11
ATOM     11  C   UNL     1     -20.567  -5.418 -15.994  1.00  0.00    -0.000 C 
BRANCH  11  12
ATOM     12  C   UNL     1     -19.848  -5.598 -14.649  1.00  0.00    -0.000 C 
BRANCH  12  13
ATOM     13  C   UNL     1     -19.979  -7.041 -14.145  1.00  0.00    -0.000 C 
BRANCH  13  14
ATOM     14  C   UNL     1     -20.749  -7.094 -12.820  1.00  0.00    -0.000 C 
BRANCH  14  15
ATOM     15  C   UNL     1     -20.545  -8.443 -12.120  1.00  0.00    -0.003 C 
ATOM     16  C   UNL     1     -20.176  -9.533 -13.123  1.00  0.00     0.004 C 
ENDBRANCH  14  15
ENDBRANCH  13  14
ENDBRANCH  12  13
ENDBRANCH  11  12
ENDBRANCH  10  11
ENDBRANCH   1  10
TORSDOF 12
ENDMDL
MODEL 9
REMARK VINA RESULT:    -3.585     19.875     22.072
REMARK INTER + INTRA:          -6.904
REMARK INTER:                  -4.844
REMARK INTRA:                  -2.060
REMARK UNBOUND:                -0.805
REMARK SMILES CCCCCCCCCCCCCC(=O)[O-]
REMARK SMILES IDX 8 1 9 2 10 3 11 4 12 5 13 6 14 7 15 8 16 9 7 10 6 11 5 12
REMARK SMILES IDX 4 13 3 14 2 15 1 16
REMARK H PARENT
REMARK Flexibility Score: inf
ROOT
ATOM      1  C   UNL     1     -22.770  -4.631 -12.655  1.00  0.00     0.000 C 
ENDROOT
BRANCH   1   2
ATOM      2  C   UNL     1     -23.860  -3.881 -13.446  1.00  0.00     0.000 C 
BRANCH   2   3
ATOM      3  C   UNL     1     -24.224  -4.499 -14.809  1.00  0.00     0.000 C 
BRANCH   3   4
ATOM      4  C   UNL     1     -24.015  -3.525 -15.981  1.00  0.00     0.000 C 
BRANCH   4   5
ATOM      5  C   UNL     1     -22.784  -2.619 -15.789  1.00  0.00     0.006 C 
BRANCH   5   6
ATOM      6  C   UNL     1     -21.539  -3.063 -16.574  1.00  0.00     0.053 C 
BRANCH   6   7
ATOM      7  C   UNL     1     -20.269  -2.624 -15.911  1.00  0.00     0.041 C 
ATOM      8  O   UNL     1     -20.258  -1.602 -15.177  1.00  0.00    -0.550 OA
ATOM      9  O   UNL     1     -19.106  -3.364 -16.078  1.00  0.00    -0.550 OA
ENDBRANCH   6   7
ENDBRANCH   5   6
ENDBRANCH   4   5
ENDBRANCH   3   4
ENDBRANCH   2   3
ENDBRANCH   1   2
BRANCH   1  10
ATOM     10  C   UNL     1     -21.391  -3.941 -12.622  1.00  0.00     0.000 C 
BRANCH  10  11
ATOM     11  C   UNL     1     -20.197  -4.862 -12.931  1.00  0.00    -0.000 C 
BRANCH  11  12
ATOM     12  C   UNL     1     -20.588  -6.346 -12.986  1.00  0.00    -0.000 C 
BRANCH  12  13
ATOM     13  C   UNL     1     -20.055  -7.007 -14.263  1.00  0.00    -0.000 C 
BRANCH  13  14
ATOM     14  C   UNL     1     -20.775  -6.466 -15.504  1.00  0.00    -0.000 C 
BRANCH  14  15
ATOM     15  C   UNL     1     -22.027  -7.293 -15.817  1.00  0.00    -0.003 C 
ATOM     16  C   UNL     1     -22.680  -6.834 -17.118  1.00  0.00     0.004 C 
ENDBRANCH  14  15
ENDBRANCH  13  14
ENDBRANCH  12  13
ENDBRANCH  11  12
ENDBRANCH  10  11
ENDBRANCH   1  10
TORSDOF 12
ENDMDL
