MODEL 1
REMARK VINA RESULT:    -4.250      0.000      0.000
REMARK INTER + INTRA:         -15.157
REMARK INTER:                 -11.208
REMARK INTRA:                  -3.949
REMARK UNBOUND:                -3.949
REMARK SMILES CCCCCCCCCCCCCCCCCCCCCCCCCCCCCC(=O)[O-]
REMARK SMILES IDX 16 1 17 2 18 3 19 4 20 5 21 6 22 7 23 8 24 9 25 10 26 11
REMARK SMILES IDX 27 12 28 13 29 14 30 15 31 16 32 17 15 18 14 19 13 20 12 21
REMARK SMILES IDX 11 22 10 23 9 24 8 25 7 26 6 27 5 28 4 29 3 30 2 31 1 32
REMARK H PARENT
REMARK Flexibility Score: inf
ROOT
ATOM      1  C   UNL     1      10.156  12.839 161.930  1.00  0.00     0.000 C 
ENDROOT
BRANCH   1   2
ATOM      2  C   UNL     1      11.475  12.689 162.704  1.00  0.00     0.000 C 
BRANCH   2   3
ATOM      3  C   UNL     1      11.232  12.747 164.218  1.00  0.00     0.000 C 
BRANCH   3   4
ATOM      4  C   UNL     1      11.775  14.057 164.809  1.00  0.00     0.000 C 
BRANCH   4   5
ATOM      5  C   UNL     1      10.854  14.644 165.891  1.00  0.00     0.000 C 
BRANCH   5   6
ATOM      6  C   UNL     1      10.776  16.181 165.833  1.00  0.00     0.000 C 
BRANCH   6   7
ATOM      7  C   UNL     1       9.553  16.669 165.027  1.00  0.00     0.000 C 
BRANCH   7   8
ATOM      8  C   UNL     1       9.528  18.190 164.798  1.00  0.00     0.000 C 
BRANCH   8   9
ATOM      9  C   UNL     1       8.207  18.838 165.234  1.00  0.00     0.000 C 
BRANCH   9  10
ATOM     10  C   UNL     1       8.063  18.839 166.764  1.00  0.00     0.000 C 
BRANCH  10  11
ATOM     11  C   UNL     1       6.588  18.754 167.213  1.00  0.00     0.000 C 
BRANCH  11  12
ATOM     12  C   UNL     1       5.697  17.913 166.281  1.00  0.00     0.000 C 
BRANCH  12  13
ATOM     13  C   UNL     1       6.030  16.415 166.323  1.00  0.00     0.006 C 
BRANCH  13  14
ATOM     14  C   UNL     1       5.721  15.811 167.698  1.00  0.00     0.053 C 
BRANCH  14  15
ATOM     15  C   UNL     1       6.975  15.671 168.504  1.00  0.00     0.041 C 
ATOM     16  O   UNL     1       8.083  15.491 167.928  1.00  0.00    -0.550 OA
ATOM     17  O   UNL     1       6.928  15.781 169.888  1.00  0.00    -0.550 OA
ENDBRANCH  14  15
ENDBRANCH  13  14
ENDBRANCH  12  13
ENDBRANCH  11  12
ENDBRANCH  10  11
ENDBRANCH   9  10
ENDBRANCH   8   9
ENDBRANCH   7   8
ENDBRANCH   6   7
ENDBRANCH   5   6
ENDBRANCH   4   5
ENDBRANCH   3   4
ENDBRANCH   2   3
ENDBRANCH   1   2
BRANCH   1  18
ATOM     18  C   UNL     1       9.735  14.307 161.770  1.00  0.00     0.000 C 
BRANCH  18  19
ATOM     19  C   UNL     1      10.901  15.210 161.330  1.00  0.00     0.000 C 
BRANCH  19  20
ATOM     20  C   UNL     1      10.502  16.149 160.172  1.00  0.00     0.000 C 
BRANCH  20  21
ATOM     21  C   UNL     1      11.516  17.276 159.907  1.00  0.00     0.000 C 
BRANCH  21  22
ATOM     22  C   UNL     1      10.962  18.670 160.245  1.00  0.00     0.000 C 
BRANCH  22  23
ATOM     23  C   UNL     1      11.089  19.016 161.736  1.00  0.00     0.000 C 
BRANCH  23  24
ATOM     24  C   UNL     1      12.549  19.124 162.197  1.00  0.00    -0.000 C 
BRANCH  24  25
ATOM     25  C   UNL     1      12.763  18.375 163.520  1.00  0.00    -0.000 C 
BRANCH  25  26
ATOM     26  C   UNL     1      12.919  16.856 163.326  1.00  0.00    -0.000 C 
BRANCH  26  27
ATOM     27  C   UNL     1      14.316  16.400 162.860  1.00  0.00    -0.000 C 
BRANCH  27  28
ATOM     28  C   UNL     1      14.366  15.016 162.178  1.00  0.00    -0.000 C 
BRANCH  28  29
ATOM     29  C   UNL     1      14.753  13.846 163.101  1.00  0.00    -0.000 C 
BRANCH  29  30
ATOM     30  C   UNL     1      16.250  13.837 163.457  1.00  0.00    -0.000 C 
BRANCH  30  31
ATOM     31  C   UNL     1      17.127  14.371 162.316  1.00  0.00    -0.003 C 
ATOM     32  C   UNL     1      18.593  13.957 162.449  1.00  0.00     0.004 C 
ENDBRANCH  30  31
ENDBRANCH  29  30
ENDBRANCH  28  29
ENDBRANCH  27  28
ENDBRANCH  26  27
ENDBRANCH  25  26
ENDBRANCH  24  25
ENDBRANCH  23  24
ENDBRANCH  22  23
ENDBRANCH  21  22
ENDBRANCH  20  21
ENDBRANCH  19  20
ENDBRANCH  18  19
ENDBRANCH   1  18
TORSDOF 28
ENDMDL
MODEL 2
REMARK VINA RESULT:    -3.659      3.257      8.114
REMARK INTER + INTRA:         -13.598
REMARK INTER:                  -9.644
REMARK INTRA:                  -3.954
REMARK UNBOUND:                -3.949
REMARK SMILES CCCCCCCCCCCCCCCCCCCCCCCCCCCCCC(=O)[O-]
REMARK SMILES IDX 16 1 17 2 18 3 19 4 20 5 21 6 22 7 23 8 24 9 25 10 26 11
REMARK SMILES IDX 27 12 28 13 29 14 30 15 31 16 32 17 15 18 14 19 13 20 12 21
REMARK SMILES IDX 11 22 10 23 9 24 8 25 7 26 6 27 5 28 4 29 3 30 2 31 1 32
REMARK H PARENT
REMARK Flexibility Score: inf
ROOT
ATOM      1  C   UNL     1      10.967  12.947 161.363  1.00  0.00     0.000 C 
ENDROOT
BRANCH   1   2
ATOM      2  C   UNL     1       9.758  13.785 161.808  1.00  0.00     0.000 C 
BRANCH   2   3
ATOM      3  C   UNL     1      10.127  15.271 161.906  1.00  0.00     0.000 C 
BRANCH   3   4
ATOM      4  C   UNL     1      10.363  15.870 160.512  1.00  0.00     0.000 C 
BRANCH   4   5
ATOM      5  C   UNL     1      11.049  17.245 160.567  1.00  0.00     0.000 C 
BRANCH   5   6
ATOM      6  C   UNL     1      10.852  17.951 161.921  1.00  0.00     0.000 C 
BRANCH   6   7
ATOM      7  C   UNL     1      11.856  19.107 162.123  1.00  0.00     0.000 C 
BRANCH   7   8
ATOM      8  C   UNL     1      13.070  18.730 162.988  1.00  0.00     0.000 C 
BRANCH   8   9
ATOM      9  C   UNL     1      13.011  17.285 163.501  1.00  0.00     0.000 C 
BRANCH   9  10
ATOM     10  C   UNL     1      14.248  16.485 163.063  1.00  0.00     0.000 C 
BRANCH  10  11
ATOM     11  C   UNL     1      13.896  15.362 162.063  1.00  0.00     0.000 C 
BRANCH  11  12
ATOM     12  C   UNL     1      14.590  14.021 162.359  1.00  0.00     0.000 C 
BRANCH  12  13
ATOM     13  C   UNL     1      15.579  14.101 163.530  1.00  0.00     0.006 C 
BRANCH  13  14
ATOM     14  C   UNL     1      16.855  13.301 163.241  1.00  0.00     0.053 C 
BRANCH  14  15
ATOM     15  C   UNL     1      17.735  14.043 162.285  1.00  0.00     0.041 C 
ATOM     16  O   UNL     1      18.902  14.383 162.627  1.00  0.00    -0.550 OA
ATOM     17  O   UNL     1      17.285  14.325 161.000  1.00  0.00    -0.550 OA
ENDBRANCH  14  15
ENDBRANCH  13  14
ENDBRANCH  12  13
ENDBRANCH  11  12
ENDBRANCH  10  11
ENDBRANCH   9  10
ENDBRANCH   8   9
ENDBRANCH   7   8
ENDBRANCH   6   7
ENDBRANCH   5   6
ENDBRANCH   4   5
ENDBRANCH   3   4
ENDBRANCH   2   3
ENDBRANCH   1   2
BRANCH   1  18
ATOM     18  C   UNL     1      11.807  12.456 162.551  1.00  0.00     0.000 C 
BRANCH  18  19
ATOM     19  C   UNL     1      10.940  12.019 163.745  1.00  0.00     0.000 C 
BRANCH  19  20
ATOM     20  C   UNL     1      11.268  12.821 165.024  1.00  0.00     0.000 C 
BRANCH  20  21
ATOM     21  C   UNL     1      12.222  14.005 164.788  1.00  0.00     0.000 C 
BRANCH  21  22
ATOM     22  C   UNL     1      11.690  15.326 165.368  1.00  0.00     0.000 C 
BRANCH  22  23
ATOM     23  C   UNL     1      10.575  15.116 166.404  1.00  0.00     0.000 C 
BRANCH  23  24
ATOM     24  C   UNL     1       9.578  16.283 166.445  1.00  0.00    -0.000 C 
BRANCH  24  25
ATOM     25  C   UNL     1       9.546  17.024 165.102  1.00  0.00    -0.000 C 
BRANCH  25  26
ATOM     26  C   UNL     1       8.762  18.347 165.169  1.00  0.00    -0.000 C 
BRANCH  26  27
ATOM     27  C   UNL     1       8.188  18.693 166.557  1.00  0.00    -0.000 C 
BRANCH  27  28
ATOM     28  C   UNL     1       6.668  18.480 166.716  1.00  0.00    -0.000 C 
BRANCH  28  29
ATOM     29  C   UNL     1       6.123  17.177 166.103  1.00  0.00    -0.000 C 
BRANCH  29  30
ATOM     30  C   UNL     1       5.654  16.168 167.166  1.00  0.00    -0.000 C 
BRANCH  30  31
ATOM     31  C   UNL     1       6.349  16.376 168.519  1.00  0.00    -0.003 C 
ATOM     32  C   UNL     1       7.467  15.365 168.776  1.00  0.00     0.004 C 
ENDBRANCH  30  31
ENDBRANCH  29  30
ENDBRANCH  28  29
ENDBRANCH  27  28
ENDBRANCH  26  27
ENDBRANCH  25  26
ENDBRANCH  24  25
ENDBRANCH  23  24
ENDBRANCH  22  23
ENDBRANCH  21  22
ENDBRANCH  20  21
ENDBRANCH  19  20
ENDBRANCH  18  19
ENDBRANCH   1  18
TORSDOF 28
ENDMDL
MODEL 3
REMARK VINA RESULT:    -3.588      1.523      3.169
REMARK INTER + INTRA:         -13.409
REMARK INTER:                  -9.598
REMARK INTRA:                  -3.811
REMARK UNBOUND:                -3.949
REMARK SMILES CCCCCCCCCCCCCCCCCCCCCCCCCCCCCC(=O)[O-]
REMARK SMILES IDX 16 1 17 2 18 3 19 4 20 5 21 6 22 7 23 8 24 9 25 10 26 11
REMARK SMILES IDX 27 12 28 13 29 14 30 15 31 16 32 17 15 18 14 19 13 20 12 21
REMARK SMILES IDX 11 22 10 23 9 24 8 25 7 26 6 27 5 28 4 29 3 30 2 31 1 32
REMARK H PARENT
REMARK Flexibility Score: inf
ROOT
ATOM      1  C   UNL     1      12.157  12.357 161.870  1.00  0.00     0.000 C 
ENDROOT
BRANCH   1   2
ATOM      2  C   UNL     1      10.638  12.296 162.095  1.00  0.00     0.000 C 
BRANCH   2   3
ATOM      3  C   UNL     1       9.928  13.445 161.367  1.00  0.00     0.000 C 
BRANCH   3   4
ATOM      4  C   UNL     1       9.331  14.442 162.371  1.00  0.00     0.000 C 
BRANCH   4   5
ATOM      5  C   UNL     1      10.397  15.347 163.010  1.00  0.00     0.000 C 
BRANCH   5   6
ATOM      6  C   UNL     1      10.482  15.175 164.538  1.00  0.00     0.000 C 
BRANCH   6   7
ATOM      7  C   UNL     1      10.269  16.510 165.284  1.00  0.00     0.000 C 
BRANCH   7   8
ATOM      8  C   UNL     1       9.021  17.284 164.828  1.00  0.00     0.000 C 
BRANCH   8   9
ATOM      9  C   UNL     1       9.053  18.763 165.238  1.00  0.00     0.000 C 
BRANCH   9  10
ATOM     10  C   UNL     1       7.927  19.093 166.230  1.00  0.00     0.000 C 
BRANCH  10  11
ATOM     11  C   UNL     1       6.526  18.939 165.600  1.00  0.00     0.000 C 
BRANCH  11  12
ATOM     12  C   UNL     1       5.586  18.007 166.385  1.00  0.00     0.000 C 
BRANCH  12  13
ATOM     13  C   UNL     1       5.918  16.521 166.197  1.00  0.00     0.006 C 
BRANCH  13  14
ATOM     14  C   UNL     1       5.697  15.729 167.491  1.00  0.00     0.053 C 
BRANCH  14  15
ATOM     15  C   UNL     1       6.914  15.798 168.362  1.00  0.00     0.041 C 
ATOM     16  O   UNL     1       6.794  15.902 169.614  1.00  0.00    -0.550 OA
ATOM     17  O   UNL     1       8.180  15.706 167.797  1.00  0.00    -0.550 OA
ENDBRANCH  14  15
ENDBRANCH  13  14
ENDBRANCH  12  13
ENDBRANCH  11  12
ENDBRANCH  10  11
ENDBRANCH   9  10
ENDBRANCH   8   9
ENDBRANCH   7   8
ENDBRANCH   6   7
ENDBRANCH   5   6
ENDBRANCH   4   5
ENDBRANCH   3   4
ENDBRANCH   2   3
ENDBRANCH   1   2
BRANCH   1  18
ATOM     18  C   UNL     1      12.910  12.874 163.104  1.00  0.00     0.000 C 
BRANCH  18  19
ATOM     19  C   UNL     1      14.346  13.321 162.772  1.00  0.00     0.000 C 
BRANCH  19  20
ATOM     20  C   UNL     1      14.796  14.517 163.640  1.00  0.00     0.000 C 
BRANCH  20  21
ATOM     21  C   UNL     1      14.494  15.889 163.013  1.00  0.00     0.000 C 
BRANCH  21  22
ATOM     22  C   UNL     1      13.515  16.727 163.852  1.00  0.00     0.000 C 
BRANCH  22  23
ATOM     23  C   UNL     1      13.118  18.043 163.166  1.00  0.00     0.000 C 
BRANCH  23  24
ATOM     24  C   UNL     1      11.698  18.002 162.582  1.00  0.00    -0.000 C 
BRANCH  24  25
ATOM     25  C   UNL     1      11.496  19.125 161.556  1.00  0.00    -0.000 C 
BRANCH  25  26
ATOM     26  C   UNL     1      11.338  18.597 160.118  1.00  0.00    -0.000 C 
BRANCH  26  27
ATOM     27  C   UNL     1      11.066  17.084 160.007  1.00  0.00    -0.000 C 
BRANCH  27  28
ATOM     28  C   UNL     1      12.152  16.270 159.272  1.00  0.00    -0.000 C 
BRANCH  28  29
ATOM     29  C   UNL     1      12.827  15.171 160.114  1.00  0.00    -0.000 C 
BRANCH  29  30
ATOM     30  C   UNL     1      14.230  14.804 159.601  1.00  0.00    -0.000 C 
BRANCH  30  31
ATOM     31  C   UNL     1      14.375  15.016 158.087  1.00  0.00    -0.003 C 
ATOM     32  C   UNL     1      15.832  15.004 157.622  1.00  0.00     0.004 C 
ENDBRANCH  30  31
ENDBRANCH  29  30
ENDBRANCH  28  29
ENDBRANCH  27  28
ENDBRANCH  26  27
ENDBRANCH  25  26
ENDBRANCH  24  25
ENDBRANCH  23  24
ENDBRANCH  22  23
ENDBRANCH  21  22
ENDBRANCH  20  21
ENDBRANCH  19  20
ENDBRANCH  18  19
ENDBRANCH   1  18
TORSDOF 28
ENDMDL
MODEL 4
REMARK VINA RESULT:    -3.450      1.300      4.201
REMARK INTER + INTRA:         -13.045
REMARK INTER:                  -9.560
REMARK INTRA:                  -3.486
REMARK UNBOUND:                -3.949
REMARK SMILES CCCCCCCCCCCCCCCCCCCCCCCCCCCCCC(=O)[O-]
REMARK SMILES IDX 16 1 17 2 18 3 19 4 20 5 21 6 22 7 23 8 24 9 25 10 26 11
REMARK SMILES IDX 27 12 28 13 29 14 30 15 31 16 32 17 15 18 14 19 13 20 12 21
REMARK SMILES IDX 11 22 10 23 9 24 8 25 7 26 6 27 5 28 4 29 3 30 2 31 1 32
REMARK H PARENT
REMARK Flexibility Score: inf
ROOT
ATOM      1  C   UNL     1      14.423  15.437 162.289  1.00  0.00     0.000 C 
ENDROOT
BRANCH   1   2
ATOM      2  C   UNL     1      14.981  14.480 163.354  1.00  0.00     0.000 C 
BRANCH   2   3
ATOM      3  C   UNL     1      14.295  13.110 163.274  1.00  0.00     0.000 C 
BRANCH   3   4
ATOM      4  C   UNL     1      12.771  13.266 163.160  1.00  0.00     0.000 C 
BRANCH   4   5
ATOM      5  C   UNL     1      12.073  13.267 164.530  1.00  0.00     0.000 C 
BRANCH   5   6
ATOM      6  C   UNL     1      11.165  14.494 164.732  1.00  0.00     0.000 C 
BRANCH   6   7
ATOM      7  C   UNL     1      11.150  14.970 166.201  1.00  0.00     0.000 C 
BRANCH   7   8
ATOM      8  C   UNL     1      10.119  16.076 166.484  1.00  0.00     0.000 C 
BRANCH   8   9
ATOM      9  C   UNL     1       9.342  16.502 165.231  1.00  0.00     0.000 C 
BRANCH   9  10
ATOM     10  C   UNL     1       9.165  18.028 165.175  1.00  0.00     0.000 C 
BRANCH  10  11
ATOM     11  C   UNL     1       7.830  18.486 165.799  1.00  0.00     0.000 C 
BRANCH  11  12
ATOM     12  C   UNL     1       7.765  18.322 167.328  1.00  0.00     0.000 C 
BRANCH  12  13
ATOM     13  C   UNL     1       6.403  17.815 167.820  1.00  0.00     0.006 C 
BRANCH  13  14
ATOM     14  C   UNL     1       6.293  16.291 167.692  1.00  0.00     0.053 C 
BRANCH  14  15
ATOM     15  C   UNL     1       7.071  15.615 168.778  1.00  0.00     0.041 C 
ATOM     16  O   UNL     1       8.186  15.082 168.524  1.00  0.00    -0.550 OA
ATOM     17  O   UNL     1       6.586  15.608 170.080  1.00  0.00    -0.550 OA
ENDBRANCH  14  15
ENDBRANCH  13  14
ENDBRANCH  12  13
ENDBRANCH  11  12
ENDBRANCH  10  11
ENDBRANCH   9  10
ENDBRANCH   8   9
ENDBRANCH   7   8
ENDBRANCH   6   7
ENDBRANCH   5   6
ENDBRANCH   4   5
ENDBRANCH   3   4
ENDBRANCH   2   3
ENDBRANCH   1   2
BRANCH   1  18
ATOM     18  C   UNL     1      14.216  16.858 162.831  1.00  0.00     0.000 C 
BRANCH  18  19
ATOM     19  C   UNL     1      13.174  16.912 163.962  1.00  0.00     0.000 C 
BRANCH  19  20
ATOM     20  C   UNL     1      11.984  17.831 163.611  1.00  0.00     0.000 C 
BRANCH  20  21
ATOM     21  C   UNL     1      12.355  19.002 162.684  1.00  0.00     0.000 C 
BRANCH  21  22
ATOM     22  C   UNL     1      11.623  18.948 161.333  1.00  0.00     0.000 C 
BRANCH  22  23
ATOM     23  C   UNL     1      10.726  17.709 161.189  1.00  0.00     0.000 C 
BRANCH  23  24
ATOM     24  C   UNL     1      11.260  16.706 160.157  1.00  0.00    -0.000 C 
BRANCH  24  25
ATOM     25  C   UNL     1      11.141  15.268 160.680  1.00  0.00    -0.000 C 
BRANCH  25  26
ATOM     26  C   UNL     1       9.933  15.071 161.613  1.00  0.00    -0.000 C 
BRANCH  26  27
ATOM     27  C   UNL     1       9.474  13.608 161.782  1.00  0.00    -0.000 C 
BRANCH  27  28
ATOM     28  C   UNL     1      10.082  12.604 160.780  1.00  0.00    -0.000 C 
BRANCH  28  29
ATOM     29  C   UNL     1      11.105  11.621 161.378  1.00  0.00    -0.000 C 
BRANCH  29  30
ATOM     30  C   UNL     1      10.442  10.452 162.127  1.00  0.00    -0.000 C 
BRANCH  30  31
ATOM     31  C   UNL     1       8.983  10.235 161.700  1.00  0.00    -0.003 C 
ATOM     32  C   UNL     1       8.651   8.764 161.443  1.00  0.00     0.004 C 
ENDBRANCH  30  31
ENDBRANCH  29  30
ENDBRANCH  28  29
ENDBRANCH  27  28
ENDBRANCH  26  27
ENDBRANCH  25  26
ENDBRANCH  24  25
ENDBRANCH  23  24
ENDBRANCH  22  23
ENDBRANCH  21  22
ENDBRANCH  20  21
ENDBRANCH  19  20
ENDBRANCH  18  19
ENDBRANCH   1  18
TORSDOF 28
ENDMDL
MODEL 5
REMARK VINA RESULT:    -3.346      2.677      7.800
REMARK INTER + INTRA:         -12.772
REMARK INTER:                 -10.003
REMARK INTRA:                  -2.768
REMARK UNBOUND:                -3.949
REMARK SMILES CCCCCCCCCCCCCCCCCCCCCCCCCCCCCC(=O)[O-]
REMARK SMILES IDX 16 1 17 2 18 3 19 4 20 5 21 6 22 7 23 8 24 9 25 10 26 11
REMARK SMILES IDX 27 12 28 13 29 14 30 15 31 16 32 17 15 18 14 19 13 20 12 21
REMARK SMILES IDX 11 22 10 23 9 24 8 25 7 26 6 27 5 28 4 29 3 30 2 31 1 32
REMARK H PARENT
REMARK Flexibility Score: inf
ROOT
ATOM      1  C   UNL     1      11.427  12.623 164.302  1.00  0.00     0.000 C 
ENDROOT
BRANCH   1   2
ATOM      2  C   UNL     1      11.964  13.266 163.014  1.00  0.00     0.000 C 
BRANCH   2   3
ATOM      3  C   UNL     1      11.652  12.392 161.792  1.00  0.00     0.000 C 
BRANCH   3   4
ATOM      4  C   UNL     1      10.537  13.019 160.942  1.00  0.00     0.000 C 
BRANCH   4   5
ATOM      5  C   UNL     1       9.525  13.811 161.786  1.00  0.00     0.000 C 
BRANCH   5   6
ATOM      6  C   UNL     1       9.674  15.333 161.615  1.00  0.00     0.000 C 
BRANCH   6   7
ATOM      7  C   UNL     1      10.630  15.697 160.458  1.00  0.00     0.000 C 
BRANCH   7   8
ATOM      8  C   UNL     1      11.211  17.117 160.558  1.00  0.00     0.000 C 
BRANCH   8   9
ATOM      9  C   UNL     1      10.726  17.876 161.800  1.00  0.00     0.000 C 
BRANCH   9  10
ATOM     10  C   UNL     1      11.905  18.429 162.614  1.00  0.00     0.000 C 
BRANCH  10  11
ATOM     11  C   UNL     1      12.677  17.317 163.357  1.00  0.00     0.000 C 
BRANCH  11  12
ATOM     12  C   UNL     1      13.527  16.423 162.436  1.00  0.00     0.000 C 
BRANCH  12  13
ATOM     13  C   UNL     1      14.335  15.368 163.202  1.00  0.00     0.006 C 
BRANCH  13  14
ATOM     14  C   UNL     1      15.316  14.634 162.279  1.00  0.00     0.053 C 
BRANCH  14  15
ATOM     15  C   UNL     1      16.387  13.961 163.080  1.00  0.00     0.041 C 
ATOM     16  O   UNL     1      17.543  13.812 162.597  1.00  0.00    -0.550 OA
ATOM     17  O   UNL     1      16.122  13.534 164.376  1.00  0.00    -0.550 OA
ENDBRANCH  14  15
ENDBRANCH  13  14
ENDBRANCH  12  13
ENDBRANCH  11  12
ENDBRANCH  10  11
ENDBRANCH   9  10
ENDBRANCH   8   9
ENDBRANCH   7   8
ENDBRANCH   6   7
ENDBRANCH   5   6
ENDBRANCH   4   5
ENDBRANCH   3   4
ENDBRANCH   2   3
ENDBRANCH   1   2
BRANCH   1  18
ATOM     18  C   UNL     1      11.629  13.520 165.532  1.00  0.00     0.000 C 
BRANCH  18  19
ATOM     19  C   UNL     1      10.965  14.899 165.370  1.00  0.00     0.000 C 
BRANCH  19  20
ATOM     20  C   UNL     1      10.328  15.394 166.687  1.00  0.00     0.000 C 
BRANCH  20  21
ATOM     21  C   UNL     1       9.542  16.710 166.541  1.00  0.00     0.000 C 
BRANCH  21  22
ATOM     22  C   UNL     1       9.312  17.109 165.075  1.00  0.00     0.000 C 
BRANCH  22  23
ATOM     23  C   UNL     1       9.097  18.619 164.895  1.00  0.00     0.000 C 
BRANCH  23  24
ATOM     24  C   UNL     1       7.701  19.077 165.340  1.00  0.00    -0.000 C 
BRANCH  24  25
ATOM     25  C   UNL     1       7.602  19.125 166.870  1.00  0.00    -0.000 C 
BRANCH  25  26
ATOM     26  C   UNL     1       6.164  18.931 167.382  1.00  0.00    -0.000 C 
BRANCH  26  27
ATOM     27  C   UNL     1       5.141  18.515 166.306  1.00  0.00    -0.000 C 
BRANCH  27  28
ATOM     28  C   UNL     1       4.920  16.995 166.156  1.00  0.00    -0.000 C 
BRANCH  28  29
ATOM     29  C   UNL     1       5.266  16.159 167.402  1.00  0.00    -0.000 C 
BRANCH  29  30
ATOM     30  C   UNL     1       6.756  15.783 167.473  1.00  0.00    -0.000 C 
BRANCH  30  31
ATOM     31  C   UNL     1       7.107  15.018 168.758  1.00  0.00    -0.003 C 
ATOM     32  C   UNL     1       6.763  15.799 170.027  1.00  0.00     0.004 C 
ENDBRANCH  30  31
ENDBRANCH  29  30
ENDBRANCH  28  29
ENDBRANCH  27  28
ENDBRANCH  26  27
ENDBRANCH  25  26
ENDBRANCH  24  25
ENDBRANCH  23  24
ENDBRANCH  22  23
ENDBRANCH  21  22
ENDBRANCH  20  21
ENDBRANCH  19  20
ENDBRANCH  18  19
ENDBRANCH   1  18
TORSDOF 28
ENDMDL
MODEL 6
REMARK VINA RESULT:    -3.322      2.874      7.481
REMARK INTER + INTRA:         -12.710
REMARK INTER:                  -9.197
REMARK INTRA:                  -3.513
REMARK UNBOUND:                -3.949
REMARK SMILES CCCCCCCCCCCCCCCCCCCCCCCCCCCCCC(=O)[O-]
REMARK SMILES IDX 16 1 17 2 18 3 19 4 20 5 21 6 22 7 23 8 24 9 25 10 26 11
REMARK SMILES IDX 27 12 28 13 29 14 30 15 31 16 32 17 15 18 14 19 13 20 12 21
REMARK SMILES IDX 11 22 10 23 9 24 8 25 7 26 6 27 5 28 4 29 3 30 2 31 1 32
REMARK H PARENT
REMARK Flexibility Score: inf
ROOT
ATOM      1  C   UNL     1      13.019  14.074 163.862  1.00  0.00     0.000 C 
ENDROOT
BRANCH   1   2
ATOM      2  C   UNL     1      14.513  14.032 164.222  1.00  0.00     0.000 C 
BRANCH   2   3
ATOM      3  C   UNL     1      15.384  14.137 162.964  1.00  0.00     0.000 C 
BRANCH   3   4
ATOM      4  C   UNL     1      14.813  15.176 161.988  1.00  0.00     0.000 C 
BRANCH   4   5
ATOM      5  C   UNL     1      14.591  14.603 160.578  1.00  0.00     0.000 C 
BRANCH   5   6
ATOM      6  C   UNL     1      13.102  14.537 160.193  1.00  0.00     0.000 C 
BRANCH   6   7
ATOM      7  C   UNL     1      12.626  15.829 159.493  1.00  0.00     0.000 C 
BRANCH   7   8
ATOM      8  C   UNL     1      11.434  16.508 160.188  1.00  0.00     0.000 C 
BRANCH   8   9
ATOM      9  C   UNL     1      10.217  15.584 160.325  1.00  0.00     0.000 C 
BRANCH   9  10
ATOM     10  C   UNL     1       9.858  15.346 161.800  1.00  0.00     0.000 C 
BRANCH  10  11
ATOM     11  C   UNL     1       9.577  13.858 162.102  1.00  0.00     0.000 C 
BRANCH  11  12
ATOM     12  C   UNL     1      10.694  12.904 161.642  1.00  0.00     0.000 C 
BRANCH  12  13
ATOM     13  C   UNL     1      10.158  11.631 160.974  1.00  0.00     0.006 C 
BRANCH  13  14
ATOM     14  C   UNL     1       9.440  10.728 161.984  1.00  0.00     0.053 C 
BRANCH  14  15
ATOM     15  C   UNL     1       9.350   9.326 161.465  1.00  0.00     0.041 C 
ATOM     16  O   UNL     1       8.226   8.768 161.334  1.00  0.00    -0.550 OA
ATOM     17  O   UNL     1      10.503   8.650 161.085  1.00  0.00    -0.550 OA
ENDBRANCH  14  15
ENDBRANCH  13  14
ENDBRANCH  12  13
ENDBRANCH  11  12
ENDBRANCH  10  11
ENDBRANCH   9  10
ENDBRANCH   8   9
ENDBRANCH   7   8
ENDBRANCH   6   7
ENDBRANCH   5   6
ENDBRANCH   4   5
ENDBRANCH   3   4
ENDBRANCH   2   3
ENDBRANCH   1   2
BRANCH   1  18
ATOM     18  C   UNL     1      12.219  14.997 164.792  1.00  0.00     0.000 C 
BRANCH  18  19
ATOM     19  C   UNL     1      12.726  16.450 164.759  1.00  0.00     0.000 C 
BRANCH  19  20
ATOM     20  C   UNL     1      12.724  17.033 163.329  1.00  0.00     0.000 C 
BRANCH  20  21
ATOM     21  C   UNL     1      12.359  18.527 163.266  1.00  0.00     0.000 C 
BRANCH  21  22
ATOM     22  C   UNL     1      10.899  18.769 162.850  1.00  0.00     0.000 C 
BRANCH  22  23
ATOM     23  C   UNL     1       9.950  18.892 164.051  1.00  0.00     0.000 C 
BRANCH  23  24
ATOM     24  C   UNL     1       9.462  17.529 164.563  1.00  0.00    -0.000 C 
BRANCH  24  25
ATOM     25  C   UNL     1       8.907  17.647 165.989  1.00  0.00    -0.000 C 
BRANCH  25  26
ATOM     26  C   UNL     1       8.130  18.956 166.220  1.00  0.00    -0.000 C 
BRANCH  26  27
ATOM     27  C   UNL     1       6.941  18.843 167.195  1.00  0.00    -0.000 C 
BRANCH  27  28
ATOM     28  C   UNL     1       5.756  17.989 166.696  1.00  0.00    -0.000 C 
BRANCH  28  29
ATOM     29  C   UNL     1       5.489  16.706 167.505  1.00  0.00    -0.000 C 
BRANCH  29  30
ATOM     30  C   UNL     1       6.687  15.741 167.504  1.00  0.00    -0.000 C 
BRANCH  30  31
ATOM     31  C   UNL     1       7.485  15.795 168.815  1.00  0.00    -0.003 C 
ATOM     32  C   UNL     1       6.608  15.596 170.053  1.00  0.00     0.004 C 
ENDBRANCH  30  31
ENDBRANCH  29  30
ENDBRANCH  28  29
ENDBRANCH  27  28
ENDBRANCH  26  27
ENDBRANCH  25  26
ENDBRANCH  24  25
ENDBRANCH  23  24
ENDBRANCH  22  23
ENDBRANCH  21  22
ENDBRANCH  20  21
ENDBRANCH  19  20
ENDBRANCH  18  19
ENDBRANCH   1  18
TORSDOF 28
ENDMDL
MODEL 7
REMARK VINA RESULT:    -3.260      3.356      7.754
REMARK INTER + INTRA:         -12.545
REMARK INTER:                  -8.723
REMARK INTRA:                  -3.822
REMARK UNBOUND:                -3.949
REMARK SMILES CCCCCCCCCCCCCCCCCCCCCCCCCCCCCC(=O)[O-]
REMARK SMILES IDX 16 1 17 2 18 3 19 4 20 5 21 6 22 7 23 8 24 9 25 10 26 11
REMARK SMILES IDX 27 12 28 13 29 14 30 15 31 16 32 17 15 18 14 19 13 20 12 21
REMARK SMILES IDX 11 22 10 23 9 24 8 25 7 26 6 27 5 28 4 29 3 30 2 31 1 32
REMARK H PARENT
REMARK Flexibility Score: inf
ROOT
ATOM      1  C   UNL     1      10.672  15.108 161.093  1.00  0.00     0.000 C 
ENDROOT
BRANCH   1   2
ATOM      2  C   UNL     1       9.452  14.408 161.710  1.00  0.00     0.000 C 
BRANCH   2   3
ATOM      3  C   UNL     1       9.810  12.992 162.179  1.00  0.00     0.000 C 
BRANCH   3   4
ATOM      4  C   UNL     1      11.269  12.654 161.835  1.00  0.00     0.000 C 
BRANCH   4   5
ATOM      5  C   UNL     1      12.191  12.698 163.065  1.00  0.00     0.000 C 
BRANCH   5   6
ATOM      6  C   UNL     1      11.417  12.910 164.379  1.00  0.00     0.000 C 
BRANCH   6   7
ATOM      7  C   UNL     1      11.310  14.404 164.755  1.00  0.00     0.000 C 
BRANCH   7   8
ATOM      8  C   UNL     1      12.666  15.069 165.043  1.00  0.00     0.000 C 
BRANCH   8   9
ATOM      9  C   UNL     1      12.708  16.545 164.623  1.00  0.00     0.000 C 
BRANCH   9  10
ATOM     10  C   UNL     1      13.641  16.758 163.421  1.00  0.00     0.000 C 
BRANCH  10  11
ATOM     11  C   UNL     1      13.410  15.715 162.307  1.00  0.00     0.000 C 
BRANCH  11  12
ATOM     12  C   UNL     1      14.682  14.958 161.885  1.00  0.00     0.000 C 
BRANCH  12  13
ATOM     13  C   UNL     1      15.738  14.890 162.998  1.00  0.00     0.006 C 
BRANCH  13  14
ATOM     14  C   UNL     1      16.362  13.493 163.093  1.00  0.00     0.053 C 
BRANCH  14  15
ATOM     15  C   UNL     1      17.764  13.508 162.564  1.00  0.00     0.041 C 
ATOM     16  O   UNL     1      18.294  12.444 162.141  1.00  0.00    -0.550 OA
ATOM     17  O   UNL     1      18.470  14.703 162.500  1.00  0.00    -0.550 OA
ENDBRANCH  14  15
ENDBRANCH  13  14
ENDBRANCH  12  13
ENDBRANCH  11  12
ENDBRANCH  10  11
ENDBRANCH   9  10
ENDBRANCH   8   9
ENDBRANCH   7   8
ENDBRANCH   6   7
ENDBRANCH   5   6
ENDBRANCH   4   5
ENDBRANCH   3   4
ENDBRANCH   2   3
ENDBRANCH   1   2
BRANCH   1  18
ATOM     18  C   UNL     1      10.278  16.145 160.031  1.00  0.00     0.000 C 
BRANCH  18  19
ATOM     19  C   UNL     1      11.498  16.863 159.427  1.00  0.00     0.000 C 
BRANCH  19  20
ATOM     20  C   UNL     1      11.741  18.241 160.079  1.00  0.00     0.000 C 
BRANCH  20  21
ATOM     21  C   UNL     1      10.651  18.654 161.085  1.00  0.00     0.000 C 
BRANCH  21  22
ATOM     22  C   UNL     1      11.227  19.125 162.430  1.00  0.00     0.000 C 
BRANCH  22  23
ATOM     23  C   UNL     1      10.190  19.102 163.563  1.00  0.00     0.000 C 
BRANCH  23  24
ATOM     24  C   UNL     1       9.743  17.679 163.929  1.00  0.00    -0.000 C 
BRANCH  24  25
ATOM     25  C   UNL     1       9.271  17.612 165.388  1.00  0.00    -0.000 C 
BRANCH  25  26
ATOM     26  C   UNL     1       8.519  18.880 165.830  1.00  0.00    -0.000 C 
BRANCH  26  27
ATOM     27  C   UNL     1       7.767  18.756 167.171  1.00  0.00    -0.000 C 
BRANCH  27  28
ATOM     28  C   UNL     1       7.895  17.389 167.876  1.00  0.00    -0.000 C 
BRANCH  28  29
ATOM     29  C   UNL     1       6.615  16.890 168.571  1.00  0.00    -0.000 C 
BRANCH  29  30
ATOM     30  C   UNL     1       6.068  15.591 167.953  1.00  0.00    -0.000 C 
BRANCH  30  31
ATOM     31  C   UNL     1       4.876  15.844 167.018  1.00  0.00    -0.003 C 
ATOM     32  C   UNL     1       5.190  15.527 165.555  1.00  0.00     0.004 C 
ENDBRANCH  30  31
ENDBRANCH  29  30
ENDBRANCH  28  29
ENDBRANCH  27  28
ENDBRANCH  26  27
ENDBRANCH  25  26
ENDBRANCH  24  25
ENDBRANCH  23  24
ENDBRANCH  22  23
ENDBRANCH  21  22
ENDBRANCH  20  21
ENDBRANCH  19  20
ENDBRANCH  18  19
ENDBRANCH   1  18
TORSDOF 28
ENDMDL
MODEL 8
REMARK VINA RESULT:    -3.259      2.649      7.742
REMARK INTER + INTRA:         -12.543
REMARK INTER:                  -9.299
REMARK INTRA:                  -3.244
REMARK UNBOUND:                -3.949
REMARK SMILES CCCCCCCCCCCCCCCCCCCCCCCCCCCCCC(=O)[O-]
REMARK SMILES IDX 16 1 17 2 18 3 19 4 20 5 21 6 22 7 23 8 24 9 25 10 26 11
REMARK SMILES IDX 27 12 28 13 29 14 30 15 31 16 32 17 15 18 14 19 13 20 12 21
REMARK SMILES IDX 11 22 10 23 9 24 8 25 7 26 6 27 5 28 4 29 3 30 2 31 1 32
REMARK H PARENT
REMARK Flexibility Score: inf
ROOT
ATOM      1  C   UNL     1      12.438  14.924 165.313  1.00  0.00     0.000 C 
ENDROOT
BRANCH   1   2
ATOM      2  C   UNL     1      11.980  14.181 164.048  1.00  0.00     0.000 C 
BRANCH   2   3
ATOM      3  C   UNL     1      11.684  12.707 164.354  1.00  0.00     0.000 C 
BRANCH   3   4
ATOM      4  C   UNL     1      10.658  12.138 163.363  1.00  0.00     0.000 C 
BRANCH   4   5
ATOM      5  C   UNL     1      11.184  12.110 161.919  1.00  0.00     0.000 C 
BRANCH   5   6
ATOM      6  C   UNL     1      10.323  12.949 160.957  1.00  0.00     0.000 C 
BRANCH   6   7
ATOM      7  C   UNL     1       9.403  13.934 161.711  1.00  0.00     0.000 C 
BRANCH   7   8
ATOM      8  C   UNL     1       9.795  15.410 161.531  1.00  0.00     0.000 C 
BRANCH   8   9
ATOM      9  C   UNL     1      10.192  15.750 160.088  1.00  0.00     0.000 C 
BRANCH   9  10
ATOM     10  C   UNL     1      11.547  16.473 160.036  1.00  0.00     0.000 C 
BRANCH  10  11
ATOM     11  C   UNL     1      12.717  15.506 159.753  1.00  0.00     0.000 C 
BRANCH  11  12
ATOM     12  C   UNL     1      13.219  14.750 160.996  1.00  0.00     0.000 C 
BRANCH  12  13
ATOM     13  C   UNL     1      14.742  14.562 161.010  1.00  0.00     0.006 C 
BRANCH  13  14
ATOM     14  C   UNL     1      15.366  15.137 162.288  1.00  0.00     0.053 C 
BRANCH  14  15
ATOM     15  C   UNL     1      16.098  14.070 163.040  1.00  0.00     0.041 C 
ATOM     16  O   UNL     1      17.285  13.774 162.729  1.00  0.00    -0.550 OA
ATOM     17  O   UNL     1      15.487  13.430 164.112  1.00  0.00    -0.550 OA
ENDBRANCH  14  15
ENDBRANCH  13  14
ENDBRANCH  12  13
ENDBRANCH  11  12
ENDBRANCH  10  11
ENDBRANCH   9  10
ENDBRANCH   8   9
ENDBRANCH   7   8
ENDBRANCH   6   7
ENDBRANCH   5   6
ENDBRANCH   4   5
ENDBRANCH   3   4
ENDBRANCH   2   3
ENDBRANCH   1   2
BRANCH   1  18
ATOM     18  C   UNL     1      12.867  16.369 165.021  1.00  0.00     0.000 C 
BRANCH  18  19
ATOM     19  C   UNL     1      12.834  16.700 163.518  1.00  0.00     0.000 C 
BRANCH  19  20
ATOM     20  C   UNL     1      13.338  18.131 163.228  1.00  0.00     0.000 C 
BRANCH  20  21
ATOM     21  C   UNL     1      12.223  19.114 162.830  1.00  0.00     0.000 C 
BRANCH  21  22
ATOM     22  C   UNL     1      10.838  18.450 162.757  1.00  0.00     0.000 C 
BRANCH  22  23
ATOM     23  C   UNL     1       9.993  18.693 164.016  1.00  0.00     0.000 C 
BRANCH  23  24
ATOM     24  C   UNL     1       9.782  17.417 164.844  1.00  0.00    -0.000 C 
BRANCH  24  25
ATOM     25  C   UNL     1       8.349  17.350 165.391  1.00  0.00    -0.000 C 
BRANCH  25  26
ATOM     26  C   UNL     1       7.771  18.739 165.717  1.00  0.00    -0.000 C 
BRANCH  26  27
ATOM     27  C   UNL     1       7.606  19.037 167.221  1.00  0.00    -0.000 C 
BRANCH  27  28
ATOM     28  C   UNL     1       6.296  18.526 167.857  1.00  0.00    -0.000 C 
BRANCH  28  29
ATOM     29  C   UNL     1       5.495  17.533 166.995  1.00  0.00    -0.000 C 
BRANCH  29  30
ATOM     30  C   UNL     1       5.671  16.073 167.447  1.00  0.00    -0.000 C 
BRANCH  30  31
ATOM     31  C   UNL     1       7.015  15.835 168.149  1.00  0.00    -0.003 C 
ATOM     32  C   UNL     1       6.865  15.586 169.651  1.00  0.00     0.004 C 
ENDBRANCH  30  31
ENDBRANCH  29  30
ENDBRANCH  28  29
ENDBRANCH  27  28
ENDBRANCH  26  27
ENDBRANCH  25  26
ENDBRANCH  24  25
ENDBRANCH  23  24
ENDBRANCH  22  23
ENDBRANCH  21  22
ENDBRANCH  20  21
ENDBRANCH  19  20
ENDBRANCH  18  19
ENDBRANCH   1  18
TORSDOF 28
ENDMDL
MODEL 9
REMARK VINA RESULT:    -3.060      3.437      8.283
REMARK INTER + INTRA:         -12.019
REMARK INTER:                  -8.411
REMARK INTRA:                  -3.607
REMARK UNBOUND:                -3.949
REMARK SMILES CCCCCCCCCCCCCCCCCCCCCCCCCCCCCC(=O)[O-]
REMARK SMILES IDX 16 1 17 2 18 3 19 4 20 5 21 6 22 7 23 8 24 9 25 10 26 11
REMARK SMILES IDX 27 12 28 13 29 14 30 15 31 16 32 17 15 18 14 19 13 20 12 21
REMARK SMILES IDX 11 22 10 23 9 24 8 25 7 26 6 27 5 28 4 29 3 30 2 31 1 32
REMARK H PARENT
REMARK Flexibility Score: inf
ROOT
ATOM      1  C   UNL     1      11.165  11.990 162.379  1.00  0.00     0.000 C 
ENDROOT
BRANCH   1   2
ATOM      2  C   UNL     1      10.430  12.919 161.400  1.00  0.00     0.000 C 
BRANCH   2   3
ATOM      3  C   UNL     1       9.301  13.679 162.108  1.00  0.00     0.000 C 
BRANCH   3   4
ATOM      4  C   UNL     1       9.042  15.031 161.427  1.00  0.00     0.000 C 
BRANCH   4   5
ATOM      5  C   UNL     1      10.040  15.325 160.296  1.00  0.00     0.000 C 
BRANCH   5   6
ATOM      6  C   UNL     1      10.438  16.811 160.228  1.00  0.00     0.000 C 
BRANCH   6   7
ATOM      7  C   UNL     1      11.970  17.001 160.219  1.00  0.00     0.000 C 
BRANCH   7   8
ATOM      8  C   UNL     1      12.687  16.214 159.110  1.00  0.00     0.000 C 
BRANCH   8   9
ATOM      9  C   UNL     1      13.464  15.003 159.644  1.00  0.00     0.000 C 
BRANCH   9  10
ATOM     10  C   UNL     1      13.462  14.970 161.180  1.00  0.00     0.000 C 
BRANCH  10  11
ATOM     11  C   UNL     1      14.227  13.752 161.741  1.00  0.00     0.000 C 
BRANCH  11  12
ATOM     12  C   UNL     1      14.435  13.791 163.266  1.00  0.00     0.000 C 
BRANCH  12  13
ATOM     13  C   UNL     1      15.889  14.073 163.667  1.00  0.00     0.006 C 
BRANCH  13  14
ATOM     14  C   UNL     1      16.721  14.538 162.466  1.00  0.00     0.053 C 
BRANCH  14  15
ATOM     15  C   UNL     1      18.048  13.844 162.446  1.00  0.00     0.041 C 
ATOM     16  O   UNL     1      18.108  12.593 162.298  1.00  0.00    -0.550 OA
ATOM     17  O   UNL     1      19.220  14.583 162.550  1.00  0.00    -0.550 OA
ENDBRANCH  14  15
ENDBRANCH  13  14
ENDBRANCH  12  13
ENDBRANCH  11  12
ENDBRANCH  10  11
ENDBRANCH   9  10
ENDBRANCH   8   9
ENDBRANCH   7   8
ENDBRANCH   6   7
ENDBRANCH   5   6
ENDBRANCH   4   5
ENDBRANCH   3   4
ENDBRANCH   2   3
ENDBRANCH   1   2
BRANCH   1  18
ATOM     18  C   UNL     1      10.865  12.330 163.846  1.00  0.00     0.000 C 
BRANCH  18  19
ATOM     19  C   UNL     1      11.970  13.187 164.490  1.00  0.00     0.000 C 
BRANCH  19  20
ATOM     20  C   UNL     1      11.411  14.494 165.094  1.00  0.00     0.000 C 
BRANCH  20  21
ATOM     21  C   UNL     1      12.490  15.548 165.400  1.00  0.00     0.000 C 
BRANCH  21  22
ATOM     22  C   UNL     1      12.457  16.737 164.425  1.00  0.00     0.000 C 
BRANCH  22  23
ATOM     23  C   UNL     1      11.146  16.817 163.627  1.00  0.00     0.000 C 
BRANCH  23  24
ATOM     24  C   UNL     1      10.299  18.042 164.000  1.00  0.00    -0.000 C 
BRANCH  24  25
ATOM     25  C   UNL     1       9.328  17.710 165.140  1.00  0.00    -0.000 C 
BRANCH  25  26
ATOM     26  C   UNL     1       8.252  18.792 165.342  1.00  0.00    -0.000 C 
BRANCH  26  27
ATOM     27  C   UNL     1       7.862  19.057 166.810  1.00  0.00    -0.000 C 
BRANCH  27  28
ATOM     28  C   UNL     1       6.355  18.944 167.124  1.00  0.00    -0.000 C 
BRANCH  28  29
ATOM     29  C   UNL     1       5.554  18.040 166.170  1.00  0.00    -0.000 C 
BRANCH  29  30
ATOM     30  C   UNL     1       5.950  16.557 166.280  1.00  0.00    -0.000 C 
BRANCH  30  31
ATOM     31  C   UNL     1       6.044  16.082 167.738  1.00  0.00    -0.003 C 
ATOM     32  C   UNL     1       7.465  15.690 168.145  1.00  0.00     0.004 C 
ENDBRANCH  30  31
ENDBRANCH  29  30
ENDBRANCH  28  29
ENDBRANCH  27  28
ENDBRANCH  26  27
ENDBRANCH  25  26
ENDBRANCH  24  25
ENDBRANCH  23  24
ENDBRANCH  22  23
ENDBRANCH  21  22
ENDBRANCH  20  21
ENDBRANCH  19  20
ENDBRANCH  18  19
ENDBRANCH   1  18
TORSDOF 28
ENDMDL
