MODEL 1
REMARK VINA RESULT:    10.475      0.000      0.000
REMARK INTER + INTRA:          18.302
REMARK INTER:                  19.048
REMARK INTRA:                  -0.746
REMARK UNBOUND:                -0.746
REMARK SMILES CCCCCCCCCCCCCCCC(=O)[O-]
REMARK SMILES IDX 9 1 10 2 11 3 12 4 13 5 14 6 15 7 16 8 17 9 18 10 8 11 7 12
REMARK SMILES IDX 6 13 5 14 4 15 3 16 2 17 1 18
REMARK H PARENT
REMARK Flexibility Score: inf
ROOT
ATOM      1  C   UNL     1      13.874  13.422  16.654  1.00  0.00     0.000 C 
ENDROOT
BRANCH   1   2
ATOM      2  C   UNL     1      14.615  14.703  17.070  1.00  0.00     0.000 C 
BRANCH   2   3
ATOM      3  C   UNL     1      13.722  15.953  16.992  1.00  0.00     0.000 C 
BRANCH   3   4
ATOM      4  C   UNL     1      14.460  17.235  17.414  1.00  0.00     0.000 C 
BRANCH   4   5
ATOM      5  C   UNL     1      15.710  16.933  18.269  1.00  0.00     0.000 C 
BRANCH   5   6
ATOM      6  C   UNL     1      16.650  18.142  18.432  1.00  0.00     0.006 C 
BRANCH   6   7
ATOM      7  C   UNL     1      16.462  18.908  19.749  1.00  0.00     0.053 C 
BRANCH   7   8
ATOM      8  C   UNL     1      16.597  20.388  19.557  1.00  0.00     0.041 C 
ATOM      9  O   UNL     1      17.660  20.876  19.091  1.00  0.00    -0.550 OA
ATOM     10  O   UNL     1      15.553  21.232  19.915  1.00  0.00    -0.550 OA
ENDBRANCH   7   8
ENDBRANCH   6   7
ENDBRANCH   5   6
ENDBRANCH   4   5
ENDBRANCH   3   4
ENDBRANCH   2   3
ENDBRANCH   1   2
BRANCH   1  11
ATOM     11  C   UNL     1      13.613  12.522  17.870  1.00  0.00     0.000 C 
BRANCH  11  12
ATOM     12  C   UNL     1      12.173  11.983  17.911  1.00  0.00    -0.000 C 
BRANCH  12  13
ATOM     13  C   UNL     1      11.313  12.505  16.751  1.00  0.00    -0.000 C 
BRANCH  13  14
ATOM     14  C   UNL     1      10.181  11.523  16.422  1.00  0.00    -0.000 C 
BRANCH  14  15
ATOM     15  C   UNL     1       9.315  12.048  15.267  1.00  0.00    -0.000 C 
BRANCH  15  16
ATOM     16  C   UNL     1       8.049  12.778  15.751  1.00  0.00    -0.000 C 
BRANCH  16  17
ATOM     17  C   UNL     1       7.972  13.002  17.272  1.00  0.00    -0.003 C 
ATOM     18  C   UNL     1       7.891  14.480  17.655  1.00  0.00     0.004 C 
ENDBRANCH  16  17
ENDBRANCH  15  16
ENDBRANCH  14  15
ENDBRANCH  13  14
ENDBRANCH  12  13
ENDBRANCH  11  12
ENDBRANCH   1  11
TORSDOF 14
ENDMDL
MODEL 2
REMARK VINA RESULT:    10.525      0.950      1.774
REMARK INTER + INTRA:          18.393
REMARK INTER:                  19.162
REMARK INTRA:                  -0.769
REMARK UNBOUND:                -0.746
REMARK SMILES CCCCCCCCCCCCCCCC(=O)[O-]
REMARK SMILES IDX 9 1 10 2 11 3 12 4 13 5 14 6 15 7 16 8 17 9 18 10 8 11 7 12
REMARK SMILES IDX 6 13 5 14 4 15 3 16 2 17 1 18
REMARK H PARENT
REMARK Flexibility Score: inf
ROOT
ATOM      1  C   UNL     1      14.637  14.064  17.469  1.00  0.00     0.000 C 
ENDROOT
BRANCH   1   2
ATOM      2  C   UNL     1      13.878  15.354  17.119  1.00  0.00     0.000 C 
BRANCH   2   3
ATOM      3  C   UNL     1      14.620  16.619  17.580  1.00  0.00     0.000 C 
BRANCH   3   4
ATOM      4  C   UNL     1      16.096  16.350  17.921  1.00  0.00     0.000 C 
BRANCH   4   5
ATOM      5  C   UNL     1      16.837  17.634  18.357  1.00  0.00     0.000 C 
BRANCH   5   6
ATOM      6  C   UNL     1      15.980  18.572  19.228  1.00  0.00     0.006 C 
BRANCH   6   7
ATOM      7  C   UNL     1      16.798  19.546  20.089  1.00  0.00     0.053 C 
BRANCH   7   8
ATOM      8  C   UNL     1      16.709  20.951  19.576  1.00  0.00     0.041 C 
ATOM      9  O   UNL     1      17.621  21.422  18.848  1.00  0.00    -0.550 OA
ATOM     10  O   UNL     1      15.626  21.749  19.923  1.00  0.00    -0.550 OA
ENDBRANCH   7   8
ENDBRANCH   6   7
ENDBRANCH   5   6
ENDBRANCH   4   5
ENDBRANCH   3   4
ENDBRANCH   2   3
ENDBRANCH   1   2
BRANCH   1  11
ATOM     11  C   UNL     1      14.247  12.924  16.518  1.00  0.00     0.000 C 
BRANCH  11  12
ATOM     12  C   UNL     1      13.512  11.779  17.234  1.00  0.00    -0.000 C 
BRANCH  12  13
ATOM     13  C   UNL     1      12.138  12.204  17.773  1.00  0.00    -0.000 C 
BRANCH  13  14
ATOM     14  C   UNL     1      11.192  12.582  16.625  1.00  0.00    -0.000 C 
BRANCH  14  15
ATOM     15  C   UNL     1       9.920  11.722  16.653  1.00  0.00    -0.000 C 
BRANCH  15  16
ATOM     16  C   UNL     1       8.671  12.482  16.171  1.00  0.00    -0.000 C 
BRANCH  16  17
ATOM     17  C   UNL     1       8.560  12.641  14.644  1.00  0.00    -0.003 C 
ATOM     18  C   UNL     1       8.919  11.365  13.883  1.00  0.00     0.004 C 
ENDBRANCH  16  17
ENDBRANCH  15  16
ENDBRANCH  14  15
ENDBRANCH  13  14
ENDBRANCH  12  13
ENDBRANCH  11  12
ENDBRANCH   1  11
TORSDOF 14
ENDMDL
MODEL 3
REMARK VINA RESULT:    10.853      3.719      8.702
REMARK INTER + INTRA:          18.990
REMARK INTER:                  18.642
REMARK INTRA:                   0.348
REMARK UNBOUND:                -0.746
REMARK SMILES CCCCCCCCCCCCCCCC(=O)[O-]
REMARK SMILES IDX 9 1 10 2 11 3 12 4 13 5 14 6 15 7 16 8 17 9 18 10 8 11 7 12
REMARK SMILES IDX 6 13 5 14 4 15 3 16 2 17 1 18
REMARK H PARENT
REMARK Flexibility Score: inf
ROOT
ATOM      1  C   UNL     1      14.466  12.953  16.698  1.00  0.00     0.000 C 
ENDROOT
BRANCH   1   2
ATOM      2  C   UNL     1      13.698  11.687  17.108  1.00  0.00     0.000 C 
BRANCH   2   3
ATOM      3  C   UNL     1      12.276  11.994  17.608  1.00  0.00     0.000 C 
BRANCH   3   4
ATOM      4  C   UNL     1      11.358  12.527  16.495  1.00  0.00     0.000 C 
BRANCH   4   5
ATOM      5  C   UNL     1      10.088  11.665  16.325  1.00  0.00     0.000 C 
BRANCH   5   6
ATOM      6  C   UNL     1       9.131  12.187  15.237  1.00  0.00     0.006 C 
BRANCH   6   7
ATOM      7  C   UNL     1       7.875  12.877  15.787  1.00  0.00     0.053 C 
BRANCH   7   8
ATOM      8  C   UNL     1       8.100  13.429  17.161  1.00  0.00     0.041 C 
ATOM      9  O   UNL     1       8.441  12.670  18.106  1.00  0.00    -0.550 OA
ATOM     10  O   UNL     1       7.911  14.785  17.404  1.00  0.00    -0.550 OA
ENDBRANCH   7   8
ENDBRANCH   6   7
ENDBRANCH   5   6
ENDBRANCH   4   5
ENDBRANCH   3   4
ENDBRANCH   2   3
ENDBRANCH   1   2
BRANCH   1  11
ATOM     11  C   UNL     1      14.333  14.045  17.769  1.00  0.00     0.000 C 
BRANCH  11  12
ATOM     12  C   UNL     1      14.499  15.462  17.195  1.00  0.00    -0.000 C 
BRANCH  12  13
ATOM     13  C   UNL     1      14.701  16.522  18.288  1.00  0.00    -0.000 C 
BRANCH  13  14
ATOM     14  C   UNL     1      16.146  17.037  18.292  1.00  0.00    -0.000 C 
BRANCH  14  15
ATOM     15  C   UNL     1      16.185  18.567  18.425  1.00  0.00    -0.000 C 
BRANCH  15  16
ATOM     16  C   UNL     1      16.788  19.037  19.760  1.00  0.00    -0.000 C 
BRANCH  16  17
ATOM     17  C   UNL     1      16.458  20.492  20.143  1.00  0.00    -0.003 C 
ATOM     18  C   UNL     1      17.100  21.516  19.208  1.00  0.00     0.004 C 
ENDBRANCH  16  17
ENDBRANCH  15  16
ENDBRANCH  14  15
ENDBRANCH  13  14
ENDBRANCH  12  13
ENDBRANCH  11  12
ENDBRANCH   1  11
TORSDOF 14
ENDMDL
MODEL 4
REMARK VINA RESULT:    10.879      4.338      8.965
REMARK INTER + INTRA:          19.037
REMARK INTER:                  19.846
REMARK INTRA:                  -0.810
REMARK UNBOUND:                -0.746
REMARK SMILES CCCCCCCCCCCCCCCC(=O)[O-]
REMARK SMILES IDX 9 1 10 2 11 3 12 4 13 5 14 6 15 7 16 8 17 9 18 10 8 11 7 12
REMARK SMILES IDX 6 13 5 14 4 15 3 16 2 17 1 18
REMARK H PARENT
REMARK Flexibility Score: inf
ROOT
ATOM      1  C   UNL     1      14.568  13.913  16.817  1.00  0.00     0.000 C 
ENDROOT
BRANCH   1   2
ATOM      2  C   UNL     1      13.924  12.517  16.786  1.00  0.00     0.000 C 
BRANCH   2   3
ATOM      3  C   UNL     1      13.054  12.241  18.024  1.00  0.00     0.000 C 
BRANCH   3   4
ATOM      4  C   UNL     1      11.773  11.460  17.686  1.00  0.00     0.000 C 
BRANCH   4   5
ATOM      5  C   UNL     1      10.883  12.210  16.670  1.00  0.00     0.000 C 
BRANCH   5   6
ATOM      6  C   UNL     1       9.375  12.004  16.905  1.00  0.00     0.006 C 
BRANCH   6   7
ATOM      7  C   UNL     1       8.481  12.696  15.866  1.00  0.00     0.053 C 
BRANCH   7   8
ATOM      8  C   UNL     1       8.811  12.263  14.470  1.00  0.00     0.041 C 
ATOM      9  O   UNL     1       8.576  11.084  14.096  1.00  0.00    -0.550 OA
ATOM     10  O   UNL     1       9.401  13.159  13.587  1.00  0.00    -0.550 OA
ENDBRANCH   7   8
ENDBRANCH   6   7
ENDBRANCH   5   6
ENDBRANCH   4   5
ENDBRANCH   3   4
ENDBRANCH   2   3
ENDBRANCH   1   2
BRANCH   1  11
ATOM     11  C   UNL     1      13.528  15.002  16.518  1.00  0.00     0.000 C 
BRANCH  11  12
ATOM     12  C   UNL     1      14.000  16.404  16.939  1.00  0.00    -0.000 C 
BRANCH  12  13
ATOM     13  C   UNL     1      14.706  16.405  18.303  1.00  0.00    -0.000 C 
BRANCH  13  14
ATOM     14  C   UNL     1      16.134  16.950  18.180  1.00  0.00    -0.000 C 
BRANCH  14  15
ATOM     15  C   UNL     1      16.165  18.470  18.403  1.00  0.00    -0.000 C 
BRANCH  15  16
ATOM     16  C   UNL     1      16.924  18.874  19.680  1.00  0.00    -0.000 C 
BRANCH  16  17
ATOM     17  C   UNL     1      16.607  20.287  20.200  1.00  0.00    -0.003 C 
ATOM     18  C   UNL     1      16.987  21.388  19.210  1.00  0.00     0.004 C 
ENDBRANCH  16  17
ENDBRANCH  15  16
ENDBRANCH  14  15
ENDBRANCH  13  14
ENDBRANCH  12  13
ENDBRANCH  11  12
ENDBRANCH   1  11
TORSDOF 14
ENDMDL
MODEL 5
REMARK VINA RESULT:    11.206      2.190      2.968
REMARK INTER + INTRA:          19.631
REMARK INTER:                  20.290
REMARK INTRA:                  -0.659
REMARK UNBOUND:                -0.746
REMARK SMILES CCCCCCCCCCCCCCCC(=O)[O-]
REMARK SMILES IDX 9 1 10 2 11 3 12 4 13 5 14 6 15 7 16 8 17 9 18 10 8 11 7 12
REMARK SMILES IDX 6 13 5 14 4 15 3 16 2 17 1 18
REMARK H PARENT
REMARK Flexibility Score: inf
ROOT
ATOM      1  C   UNL     1      13.902  14.047  16.735  1.00  0.00     0.000 C 
ENDROOT
BRANCH   1   2
ATOM      2  C   UNL     1      14.654  14.999  17.678  1.00  0.00     0.000 C 
BRANCH   2   3
ATOM      3  C   UNL     1      14.302  16.475  17.429  1.00  0.00     0.000 C 
BRANCH   3   4
ATOM      4  C   UNL     1      13.516  16.686  16.124  1.00  0.00     0.000 C 
BRANCH   4   5
ATOM      5  C   UNL     1      13.187  18.174  15.876  1.00  0.00     0.000 C 
BRANCH   5   6
ATOM      6  C   UNL     1      14.430  19.043  15.606  1.00  0.00     0.006 C 
BRANCH   6   7
ATOM      7  C   UNL     1      14.119  20.529  15.385  1.00  0.00     0.053 C 
BRANCH   7   8
ATOM      8  C   UNL     1      15.304  21.397  15.681  1.00  0.00     0.041 C 
ATOM      9  O   UNL     1      15.376  22.030  16.766  1.00  0.00    -0.550 OA
ATOM     10  O   UNL     1      16.322  21.523  14.743  1.00  0.00    -0.550 OA
ENDBRANCH   7   8
ENDBRANCH   6   7
ENDBRANCH   5   6
ENDBRANCH   4   5
ENDBRANCH   3   4
ENDBRANCH   2   3
ENDBRANCH   1   2
BRANCH   1  11
ATOM     11  C   UNL     1      14.054  12.589  17.194  1.00  0.00     0.000 C 
BRANCH  11  12
ATOM     12  C   UNL     1      12.705  11.926  17.519  1.00  0.00    -0.000 C 
BRANCH  12  13
ATOM     13  C   UNL     1      11.525  12.610  16.813  1.00  0.00    -0.000 C 
BRANCH  13  14
ATOM     14  C   UNL     1      10.224  11.828  17.038  1.00  0.00    -0.000 C 
BRANCH  14  15
ATOM     15  C   UNL     1       9.006  12.764  17.001  1.00  0.00    -0.000 C 
BRANCH  15  16
ATOM     16  C   UNL     1       8.217  12.669  15.683  1.00  0.00    -0.000 C 
BRANCH  16  17
ATOM     17  C   UNL     1       9.074  12.395  14.434  1.00  0.00    -0.003 C 
ATOM     18  C   UNL     1       8.629  11.151  13.665  1.00  0.00     0.004 C 
ENDBRANCH  16  17
ENDBRANCH  15  16
ENDBRANCH  14  15
ENDBRANCH  13  14
ENDBRANCH  12  13
ENDBRANCH  11  12
ENDBRANCH   1  11
TORSDOF 14
ENDMDL
MODEL 6
REMARK VINA RESULT:    11.498      4.722      8.782
REMARK INTER + INTRA:          20.163
REMARK INTER:                  20.705
REMARK INTRA:                  -0.542
REMARK UNBOUND:                -0.746
REMARK SMILES CCCCCCCCCCCCCCCC(=O)[O-]
REMARK SMILES IDX 9 1 10 2 11 3 12 4 13 5 14 6 15 7 16 8 17 9 18 10 8 11 7 12
REMARK SMILES IDX 6 13 5 14 4 15 3 16 2 17 1 18
REMARK H PARENT
REMARK Flexibility Score: inf
ROOT
ATOM      1  C   UNL     1      13.734  14.236  16.841  1.00  0.00     0.000 C 
ENDROOT
BRANCH   1   2
ATOM      2  C   UNL     1      13.942  12.781  17.290  1.00  0.00     0.000 C 
BRANCH   2   3
ATOM      3  C   UNL     1      12.615  12.034  17.504  1.00  0.00     0.000 C 
BRANCH   3   4
ATOM      4  C   UNL     1      11.509  12.502  16.543  1.00  0.00     0.000 C 
BRANCH   4   5
ATOM      5  C   UNL     1      10.171  11.772  16.794  1.00  0.00     0.000 C 
BRANCH   5   6
ATOM      6  C   UNL     1       8.959  12.719  16.874  1.00  0.00     0.006 C 
BRANCH   6   7
ATOM      7  C   UNL     1       8.001  12.611  15.680  1.00  0.00     0.053 C 
BRANCH   7   8
ATOM      8  C   UNL     1       8.710  12.171  14.436  1.00  0.00     0.041 C 
ATOM      9  O   UNL     1       8.639  10.974  14.051  1.00  0.00    -0.550 OA
ATOM     10  O   UNL     1       9.470  13.081  13.711  1.00  0.00    -0.550 OA
ENDBRANCH   7   8
ENDBRANCH   6   7
ENDBRANCH   5   6
ENDBRANCH   4   5
ENDBRANCH   3   4
ENDBRANCH   2   3
ENDBRANCH   1   2
BRANCH   1  11
ATOM     11  C   UNL     1      14.660  15.185  17.615  1.00  0.00     0.000 C 
BRANCH  11  12
ATOM     12  C   UNL     1      14.336  16.667  17.362  1.00  0.00    -0.000 C 
BRANCH  12  13
ATOM     13  C   UNL     1      13.542  16.886  16.066  1.00  0.00    -0.000 C 
BRANCH  13  14
ATOM     14  C   UNL     1      13.156  18.361  15.901  1.00  0.00    -0.000 C 
BRANCH  14  15
ATOM     15  C   UNL     1      14.366  19.201  15.466  1.00  0.00    -0.000 C 
BRANCH  15  16
ATOM     16  C   UNL     1      14.176  20.707  15.726  1.00  0.00    -0.000 C 
BRANCH  16  17
ATOM     17  C   UNL     1      15.456  21.461  16.128  1.00  0.00    -0.003 C 
ATOM     18  C   UNL     1      16.392  21.722  14.948  1.00  0.00     0.004 C 
ENDBRANCH  16  17
ENDBRANCH  15  16
ENDBRANCH  14  15
ENDBRANCH  13  14
ENDBRANCH  12  13
ENDBRANCH  11  12
ENDBRANCH   1  11
TORSDOF 14
ENDMDL
MODEL 7
REMARK VINA RESULT:    11.830      4.261      9.260
REMARK INTER + INTRA:          20.766
REMARK INTER:                  21.392
REMARK INTRA:                  -0.626
REMARK UNBOUND:                -0.746
REMARK SMILES CCCCCCCCCCCCCCCC(=O)[O-]
REMARK SMILES IDX 9 1 10 2 11 3 12 4 13 5 14 6 15 7 16 8 17 9 18 10 8 11 7 12
REMARK SMILES IDX 6 13 5 14 4 15 3 16 2 17 1 18
REMARK H PARENT
REMARK Flexibility Score: inf
ROOT
ATOM      1  C   UNL     1      15.015  15.320  17.865  1.00  0.00     0.000 C 
ENDROOT
BRANCH   1   2
ATOM      2  C   UNL     1      14.042  14.666  16.871  1.00  0.00     0.000 C 
BRANCH   2   3
ATOM      3  C   UNL     1      14.202  13.138  16.808  1.00  0.00     0.000 C 
BRANCH   3   4
ATOM      4  C   UNL     1      13.030  12.391  17.468  1.00  0.00     0.000 C 
BRANCH   4   5
ATOM      5  C   UNL     1      11.700  12.614  16.715  1.00  0.00     0.000 C 
BRANCH   5   6
ATOM      6  C   UNL     1      10.525  11.798  17.287  1.00  0.00     0.006 C 
BRANCH   6   7
ATOM      7  C   UNL     1       9.591  11.214  16.218  1.00  0.00     0.053 C 
BRANCH   7   8
ATOM      8  C   UNL     1       8.784  12.279  15.541  1.00  0.00     0.041 C 
ATOM      9  O   UNL     1       8.182  13.152  16.220  1.00  0.00    -0.550 OA
ATOM     10  O   UNL     1       8.678  12.293  14.156  1.00  0.00    -0.550 OA
ENDBRANCH   7   8
ENDBRANCH   6   7
ENDBRANCH   5   6
ENDBRANCH   4   5
ENDBRANCH   3   4
ENDBRANCH   2   3
ENDBRANCH   1   2
BRANCH   1  11
ATOM     11  C   UNL     1      15.091  16.837  17.638  1.00  0.00     0.000 C 
BRANCH  11  12
ATOM     12  C   UNL     1      15.435  17.612  18.921  1.00  0.00    -0.000 C 
BRANCH  12  13
ATOM     13  C   UNL     1      16.531  18.665  18.699  1.00  0.00    -0.000 C 
BRANCH  13  14
ATOM     14  C   UNL     1      16.743  19.509  19.962  1.00  0.00    -0.000 C 
BRANCH  14  15
ATOM     15  C   UNL     1      16.441  20.991  19.692  1.00  0.00    -0.000 C 
BRANCH  15  16
ATOM     16  C   UNL     1      16.733  21.408  18.239  1.00  0.00    -0.000 C 
BRANCH  16  17
ATOM     17  C   UNL     1      15.501  21.861  17.436  1.00  0.00    -0.003 C 
ATOM     18  C   UNL     1      15.618  21.560  15.942  1.00  0.00     0.004 C 
ENDBRANCH  16  17
ENDBRANCH  15  16
ENDBRANCH  14  15
ENDBRANCH  13  14
ENDBRANCH  12  13
ENDBRANCH  11  12
ENDBRANCH   1  11
TORSDOF 14
ENDMDL
