MODEL 1
REMARK VINA RESULT:    -3.021      0.000      0.000
REMARK INTER + INTRA:          -6.542
REMARK INTER:                  -5.141
REMARK INTRA:                  -1.402
REMARK UNBOUND:                -1.402
REMARK SMILES CCCCCCCCCCCCCC(=O)[O-]
REMARK SMILES IDX 8 1 9 2 10 3 11 4 12 5 13 6 14 7 15 8 16 9 7 10 6 11 5 12
REMARK SMILES IDX 4 13 3 14 2 15 1 16
REMARK H PARENT
REMARK Flexibility Score: inf
ROOT
ATOM      1  C   UNL     1       7.863  -4.344  -6.932  1.00  0.00     0.000 C 
ENDROOT
BRANCH   1   2
ATOM      2  C   UNL     1       8.658  -5.113  -5.856  1.00  0.00     0.000 C 
BRANCH   2   3
ATOM      3  C   UNL     1       8.659  -6.643  -6.014  1.00  0.00     0.000 C 
BRANCH   3   4
ATOM      4  C   UNL     1       7.709  -7.130  -7.119  1.00  0.00     0.000 C 
BRANCH   4   5
ATOM      5  C   UNL     1       6.453  -7.777  -6.515  1.00  0.00     0.006 C 
BRANCH   5   6
ATOM      6  C   UNL     1       5.179  -6.985  -6.842  1.00  0.00     0.053 C 
BRANCH   6   7
ATOM      7  C   UNL     1       4.708  -6.181  -5.668  1.00  0.00     0.041 C 
ATOM      8  O   UNL     1       4.983  -4.955  -5.588  1.00  0.00    -0.550 OA
ATOM      9  O   UNL     1       3.937  -6.780  -4.681  1.00  0.00    -0.550 OA
ENDBRANCH   6   7
ENDBRANCH   5   6
ENDBRANCH   4   5
ENDBRANCH   3   4
ENDBRANCH   2   3
ENDBRANCH   1   2
BRANCH   1  10
ATOM     10  C   UNL     1       8.710  -3.758  -8.075  1.00  0.00     0.000 C 
BRANCH  10  11
ATOM     11  C   UNL     1       8.490  -4.480  -9.412  1.00  0.00    -0.000 C 
BRANCH  11  12
ATOM     12  C   UNL     1       7.225  -3.963 -10.112  1.00  0.00    -0.000 C 
BRANCH  12  13
ATOM     13  C   UNL     1       5.982  -4.811  -9.795  1.00  0.00    -0.000 C 
BRANCH  13  14
ATOM     14  C   UNL     1       4.863  -3.995  -9.130  1.00  0.00    -0.000 C 
BRANCH  14  15
ATOM     15  C   UNL     1       4.788  -2.583  -9.722  1.00  0.00    -0.003 C 
ATOM     16  C   UNL     1       3.496  -1.882  -9.313  1.00  0.00     0.004 C 
ENDBRANCH  14  15
ENDBRANCH  13  14
ENDBRANCH  12  13
ENDBRANCH  11  12
ENDBRANCH  10  11
ENDBRANCH   1  10
TORSDOF 12
ENDMDL
MODEL 2
REMARK VINA RESULT:    -2.998     11.915     13.831
REMARK INTER + INTRA:          -6.504
REMARK INTER:                  -5.494
REMARK INTRA:                  -1.010
REMARK UNBOUND:                -1.402
REMARK SMILES CCCCCCCCCCCCCC(=O)[O-]
REMARK SMILES IDX 8 1 9 2 10 3 11 4 12 5 13 6 14 7 15 8 16 9 7 10 6 11 5 12
REMARK SMILES IDX 4 13 3 14 2 15 1 16
REMARK H PARENT
REMARK Flexibility Score: inf
ROOT
ATOM      1  C   UNL     1       8.127  -5.719   4.735  1.00  0.00     0.000 C 
ENDROOT
BRANCH   1   2
ATOM      2  C   UNL     1       8.900  -5.520   6.055  1.00  0.00     0.000 C 
BRANCH   2   3
ATOM      3  C   UNL     1       8.745  -6.658   7.079  1.00  0.00     0.000 C 
BRANCH   3   4
ATOM      4  C   UNL     1       7.291  -6.860   7.533  1.00  0.00     0.000 C 
BRANCH   4   5
ATOM      5  C   UNL     1       7.231  -7.282   9.008  1.00  0.00     0.006 C 
BRANCH   5   6
ATOM      6  C   UNL     1       6.491  -6.255   9.876  1.00  0.00     0.053 C 
BRANCH   6   7
ATOM      7  C   UNL     1       5.018  -6.255   9.601  1.00  0.00     0.041 C 
ATOM      8  O   UNL     1       4.381  -5.169   9.556  1.00  0.00    -0.550 OA
ATOM      9  O   UNL     1       4.355  -7.451   9.362  1.00  0.00    -0.550 OA
ENDBRANCH   6   7
ENDBRANCH   5   6
ENDBRANCH   4   5
ENDBRANCH   3   4
ENDBRANCH   2   3
ENDBRANCH   1   2
BRANCH   1  10
ATOM     10  C   UNL     1       8.424  -7.036   3.997  1.00  0.00     0.000 C 
BRANCH  10  11
ATOM     11  C   UNL     1       7.162  -7.700   3.429  1.00  0.00    -0.000 C 
BRANCH  11  12
ATOM     12  C   UNL     1       5.902  -7.177   4.135  1.00  0.00    -0.000 C 
BRANCH  12  13
ATOM     13  C   UNL     1       4.734  -6.937   3.164  1.00  0.00    -0.000 C 
BRANCH  13  14
ATOM     14  C   UNL     1       3.735  -8.103   3.141  1.00  0.00    -0.000 C 
BRANCH  14  15
ATOM     15  C   UNL     1       3.363  -8.477   1.701  1.00  0.00    -0.003 C 
ATOM     16  C   UNL     1       4.609  -8.715   0.854  1.00  0.00     0.004 C 
ENDBRANCH  14  15
ENDBRANCH  13  14
ENDBRANCH  12  13
ENDBRANCH  11  12
ENDBRANCH  10  11
ENDBRANCH   1  10
TORSDOF 12
ENDMDL
MODEL 3
REMARK VINA RESULT:    -2.880     20.261     22.342
REMARK INTER + INTRA:          -6.301
REMARK INTER:                  -4.367
REMARK INTRA:                  -1.935
REMARK UNBOUND:                -1.402
REMARK SMILES CCCCCCCCCCCCCC(=O)[O-]
REMARK SMILES IDX 8 1 9 2 10 3 11 4 12 5 13 6 14 7 15 8 16 9 7 10 6 11 5 12
REMARK SMILES IDX 4 13 3 14 2 15 1 16
REMARK H PARENT
REMARK Flexibility Score: inf
ROOT
ATOM      1  C   UNL     1      -7.854  -6.775   9.341  1.00  0.00     0.000 C 
ENDROOT
BRANCH   1   2
ATOM      2  C   UNL     1      -9.101  -6.195  10.040  1.00  0.00     0.000 C 
BRANCH   2   3
ATOM      3  C   UNL     1      -9.170  -4.658  10.082  1.00  0.00     0.000 C 
BRANCH   3   4
ATOM      4  C   UNL     1     -10.568  -4.114   9.748  1.00  0.00     0.000 C 
BRANCH   4   5
ATOM      5  C   UNL     1     -10.640  -3.651   8.286  1.00  0.00     0.006 C 
BRANCH   5   6
ATOM      6  C   UNL     1      -9.355  -2.941   7.838  1.00  0.00     0.053 C 
BRANCH   6   7
ATOM      7  C   UNL     1      -9.155  -3.038   6.356  1.00  0.00     0.041 C 
ATOM      8  O   UNL     1      -9.978  -3.673   5.644  1.00  0.00    -0.550 OA
ATOM      9  O   UNL     1      -8.078  -2.398   5.757  1.00  0.00    -0.550 OA
ENDBRANCH   6   7
ENDBRANCH   5   6
ENDBRANCH   4   5
ENDBRANCH   3   4
ENDBRANCH   2   3
ENDBRANCH   1   2
BRANCH   1  10
ATOM     10  C   UNL     1      -7.107  -5.793   8.421  1.00  0.00     0.000 C 
BRANCH  10  11
ATOM     11  C   UNL     1      -7.462  -5.976   6.938  1.00  0.00    -0.000 C 
BRANCH  11  12
ATOM     12  C   UNL     1      -8.226  -7.288   6.715  1.00  0.00    -0.000 C 
BRANCH  12  13
ATOM     13  C   UNL     1      -9.568  -7.079   5.994  1.00  0.00    -0.000 C 
BRANCH  13  14
ATOM     14  C   UNL     1     -10.777  -7.364   6.898  1.00  0.00    -0.000 C 
BRANCH  14  15
ATOM     15  C   UNL     1     -10.895  -8.863   7.198  1.00  0.00    -0.003 C 
ATOM     16  C   UNL     1     -10.910  -9.125   8.701  1.00  0.00     0.004 C 
ENDBRANCH  14  15
ENDBRANCH  13  14
ENDBRANCH  12  13
ENDBRANCH  11  12
ENDBRANCH  10  11
ENDBRANCH   1  10
TORSDOF 12
ENDMDL
MODEL 4
REMARK VINA RESULT:    -2.802     20.319     22.525
REMARK INTER + INTRA:          -6.169
REMARK INTER:                  -4.426
REMARK INTRA:                  -1.743
REMARK UNBOUND:                -1.402
REMARK SMILES CCCCCCCCCCCCCC(=O)[O-]
REMARK SMILES IDX 8 1 9 2 10 3 11 4 12 5 13 6 14 7 15 8 16 9 7 10 6 11 5 12
REMARK SMILES IDX 4 13 3 14 2 15 1 16
REMARK H PARENT
REMARK Flexibility Score: inf
ROOT
ATOM      1  C   UNL     1      -8.328  -4.945   7.019  1.00  0.00     0.000 C 
ENDROOT
BRANCH   1   2
ATOM      2  C   UNL     1      -9.822  -4.729   6.706  1.00  0.00     0.000 C 
BRANCH   2   3
ATOM      3  C   UNL     1     -10.743  -4.655   7.937  1.00  0.00     0.000 C 
BRANCH   3   4
ATOM      4  C   UNL     1     -11.002  -3.215   8.404  1.00  0.00     0.000 C 
BRANCH   4   5
ATOM      5  C   UNL     1      -9.929  -2.763   9.406  1.00  0.00     0.006 C 
BRANCH   5   6
ATOM      6  C   UNL     1      -9.206  -1.490   8.946  1.00  0.00     0.053 C 
BRANCH   6   7
ATOM      7  C   UNL     1      -7.755  -1.743   8.674  1.00  0.00     0.041 C 
ATOM      8  O   UNL     1      -7.153  -1.092   7.780  1.00  0.00    -0.550 OA
ATOM      9  O   UNL     1      -7.058  -2.675   9.433  1.00  0.00    -0.550 OA
ENDBRANCH   6   7
ENDBRANCH   5   6
ENDBRANCH   4   5
ENDBRANCH   3   4
ENDBRANCH   2   3
ENDBRANCH   1   2
BRANCH   1  10
ATOM     10  C   UNL     1      -7.750  -6.291   6.548  1.00  0.00     0.000 C 
BRANCH  10  11
ATOM     11  C   UNL     1      -8.837  -7.323   6.214  1.00  0.00    -0.000 C 
BRANCH  11  12
ATOM     12  C   UNL     1      -8.836  -8.469   7.236  1.00  0.00    -0.000 C 
BRANCH  12  13
ATOM     13  C   UNL     1      -9.797  -8.219   8.409  1.00  0.00    -0.000 C 
BRANCH  13  14
ATOM     14  C   UNL     1      -9.080  -8.200   9.767  1.00  0.00    -0.000 C 
BRANCH  14  15
ATOM     15  C   UNL     1      -8.618  -6.781  10.123  1.00  0.00    -0.003 C 
ATOM     16  C   UNL     1      -7.096  -6.682  10.122  1.00  0.00     0.004 C 
ENDBRANCH  14  15
ENDBRANCH  13  14
ENDBRANCH  12  13
ENDBRANCH  11  12
ENDBRANCH  10  11
ENDBRANCH   1  10
TORSDOF 12
ENDMDL
MODEL 5
REMARK VINA RESULT:    -2.640      3.049      5.296
REMARK INTER + INTRA:          -5.893
REMARK INTER:                  -4.141
REMARK INTRA:                  -1.752
REMARK UNBOUND:                -1.402
REMARK SMILES CCCCCCCCCCCCCC(=O)[O-]
REMARK SMILES IDX 8 1 9 2 10 3 11 4 12 5 13 6 14 7 15 8 16 9 7 10 6 11 5 12
REMARK SMILES IDX 4 13 3 14 2 15 1 16
REMARK H PARENT
REMARK Flexibility Score: inf
ROOT
ATOM      1  C   UNL     1       5.054  -6.247  -6.330  1.00  0.00     0.000 C 
ENDROOT
BRANCH   1   2
ATOM      2  C   UNL     1       5.685  -4.999  -6.979  1.00  0.00     0.000 C 
BRANCH   2   3
ATOM      3  C   UNL     1       5.108  -4.615  -8.353  1.00  0.00     0.000 C 
BRANCH   3   4
ATOM      4  C   UNL     1       6.191  -4.208  -9.364  1.00  0.00     0.000 C 
BRANCH   4   5
ATOM      5  C   UNL     1       7.561  -4.090  -8.681  1.00  0.00     0.006 C 
BRANCH   5   6
ATOM      6  C   UNL     1       8.560  -3.281  -9.520  1.00  0.00     0.053 C 
BRANCH   6   7
ATOM      7  C   UNL     1       8.446  -1.811  -9.254  1.00  0.00     0.041 C 
ATOM      8  O   UNL     1       9.026  -1.299  -8.261  1.00  0.00    -0.550 OA
ATOM      9  O   UNL     1       7.726  -1.002 -10.124  1.00  0.00    -0.550 OA
ENDBRANCH   6   7
ENDBRANCH   5   6
ENDBRANCH   4   5
ENDBRANCH   3   4
ENDBRANCH   2   3
ENDBRANCH   1   2
BRANCH   1  10
ATOM     10  C   UNL     1       6.051  -7.207  -5.657  1.00  0.00     0.000 C 
BRANCH  10  11
ATOM     11  C   UNL     1       7.023  -7.854  -6.654  1.00  0.00    -0.000 C 
BRANCH  11  12
ATOM     12  C   UNL     1       6.260  -8.583  -7.769  1.00  0.00    -0.000 C 
BRANCH  12  13
ATOM     13  C   UNL     1       6.671  -8.113  -9.175  1.00  0.00    -0.000 C 
BRANCH  13  14
ATOM     14  C   UNL     1       5.467  -7.906 -10.105  1.00  0.00    -0.000 C 
BRANCH  14  15
ATOM     15  C   UNL     1       4.255  -8.711  -9.620  1.00  0.00    -0.003 C 
ATOM     16  C   UNL     1       2.968  -7.903  -9.756  1.00  0.00     0.004 C 
ENDBRANCH  14  15
ENDBRANCH  13  14
ENDBRANCH  12  13
ENDBRANCH  11  12
ENDBRANCH  10  11
ENDBRANCH   1  10
TORSDOF 12
ENDMDL
MODEL 6
REMARK VINA RESULT:    -2.422     20.867     22.507
REMARK INTER + INTRA:          -5.523
REMARK INTER:                  -3.348
REMARK INTRA:                  -2.175
REMARK UNBOUND:                -1.402
REMARK SMILES CCCCCCCCCCCCCC(=O)[O-]
REMARK SMILES IDX 8 1 9 2 10 3 11 4 12 5 13 6 14 7 15 8 16 9 7 10 6 11 5 12
REMARK SMILES IDX 4 13 3 14 2 15 1 16
REMARK H PARENT
REMARK Flexibility Score: inf
ROOT
ATOM      1  C   UNL     1      -8.004  -5.457   7.124  1.00  0.00     0.000 C 
ENDROOT
BRANCH   1   2
ATOM      2  C   UNL     1      -7.370  -5.377   8.529  1.00  0.00     0.000 C 
BRANCH   2   3
ATOM      3  C   UNL     1      -7.698  -6.558   9.460  1.00  0.00     0.000 C 
BRANCH   3   4
ATOM      4  C   UNL     1      -9.169  -6.582   9.900  1.00  0.00     0.000 C 
BRANCH   4   5
ATOM      5  C   UNL     1      -9.799  -7.957   9.631  1.00  0.00     0.006 C 
BRANCH   5   6
ATOM      6  C   UNL     1     -10.825  -7.912   8.490  1.00  0.00     0.053 C 
BRANCH   6   7
ATOM      7  C   UNL     1     -10.208  -8.276   7.175  1.00  0.00     0.041 C 
ATOM      8  O   UNL     1      -9.140  -8.943   7.137  1.00  0.00    -0.550 OA
ATOM      9  O   UNL     1     -10.831  -7.909   5.989  1.00  0.00    -0.550 OA
ENDBRANCH   6   7
ENDBRANCH   5   6
ENDBRANCH   4   5
ENDBRANCH   3   4
ENDBRANCH   2   3
ENDBRANCH   1   2
BRANCH   1  10
ATOM     10  C   UNL     1      -8.884  -4.256   6.737  1.00  0.00     0.000 C 
BRANCH  10  11
ATOM     11  C   UNL     1     -10.384  -4.534   6.910  1.00  0.00    -0.000 C 
BRANCH  11  12
ATOM     12  C   UNL     1     -10.923  -3.866   8.183  1.00  0.00    -0.000 C 
BRANCH  12  13
ATOM     13  C   UNL     1     -10.203  -2.547   8.511  1.00  0.00    -0.000 C 
BRANCH  13  14
ATOM     14  C   UNL     1      -9.548  -2.561   9.900  1.00  0.00    -0.000 C 
BRANCH  14  15
ATOM     15  C   UNL     1      -8.124  -1.994   9.840  1.00  0.00    -0.003 C 
ATOM     16  C   UNL     1      -7.899  -1.205   8.554  1.00  0.00     0.004 C 
ENDBRANCH  14  15
ENDBRANCH  13  14
ENDBRANCH  12  13
ENDBRANCH  11  12
ENDBRANCH  10  11
ENDBRANCH   1  10
TORSDOF 12
ENDMDL
MODEL 7
REMARK VINA RESULT:    -2.379      2.021      2.162
REMARK INTER + INTRA:          -5.449
REMARK INTER:                  -4.125
REMARK INTRA:                  -1.325
REMARK UNBOUND:                -1.402
REMARK SMILES CCCCCCCCCCCCCC(=O)[O-]
REMARK SMILES IDX 8 1 9 2 10 3 11 4 12 5 13 6 14 7 15 8 16 9 7 10 6 11 5 12
REMARK SMILES IDX 4 13 3 14 2 15 1 16
REMARK H PARENT
REMARK Flexibility Score: inf
ROOT
ATOM      1  C   UNL     1       7.615  -4.757  -6.492  1.00  0.00     0.000 C 
ENDROOT
BRANCH   1   2
ATOM      2  C   UNL     1       8.427  -5.703  -5.584  1.00  0.00     0.000 C 
BRANCH   2   3
ATOM      3  C   UNL     1       7.917  -7.154  -5.531  1.00  0.00     0.000 C 
BRANCH   3   4
ATOM      4  C   UNL     1       7.357  -7.640  -6.877  1.00  0.00     0.000 C 
BRANCH   4   5
ATOM      5  C   UNL     1       5.864  -7.980  -6.758  1.00  0.00     0.006 C 
BRANCH   5   6
ATOM      6  C   UNL     1       5.005  -7.167  -7.736  1.00  0.00     0.053 C 
BRANCH   6   7
ATOM      7  C   UNL     1       4.561  -7.992  -8.905  1.00  0.00     0.041 C 
ATOM      8  O   UNL     1       5.410  -8.588  -9.620  1.00  0.00    -0.550 OA
ATOM      9  O   UNL     1       3.208  -8.132  -9.183  1.00  0.00    -0.550 OA
ENDBRANCH   6   7
ENDBRANCH   5   6
ENDBRANCH   4   5
ENDBRANCH   3   4
ENDBRANCH   2   3
ENDBRANCH   1   2
BRANCH   1  10
ATOM     10  C   UNL     1       8.446  -3.968  -7.520  1.00  0.00     0.000 C 
BRANCH  10  11
ATOM     11  C   UNL     1       8.649  -4.731  -8.836  1.00  0.00    -0.000 C 
BRANCH  11  12
ATOM     12  C   UNL     1       7.303  -5.015  -9.518  1.00  0.00    -0.000 C 
BRANCH  12  13
ATOM     13  C   UNL     1       6.665  -3.754 -10.123  1.00  0.00    -0.000 C 
BRANCH  13  14
ATOM     14  C   UNL     1       5.302  -3.422  -9.498  1.00  0.00    -0.000 C 
BRANCH  14  15
ATOM     15  C   UNL     1       4.724  -2.134 -10.097  1.00  0.00    -0.003 C 
ATOM     16  C   UNL     1       3.483  -1.681  -9.335  1.00  0.00     0.004 C 
ENDBRANCH  14  15
ENDBRANCH  13  14
ENDBRANCH  12  13
ENDBRANCH  11  12
ENDBRANCH  10  11
ENDBRANCH   1  10
TORSDOF 12
ENDMDL
MODEL 8
REMARK VINA RESULT:    -2.307      2.112      4.377
REMARK INTER + INTRA:          -5.327
REMARK INTER:                  -4.549
REMARK INTRA:                  -0.778
REMARK UNBOUND:                -1.402
REMARK SMILES CCCCCCCCCCCCCC(=O)[O-]
REMARK SMILES IDX 8 1 9 2 10 3 11 4 12 5 13 6 14 7 15 8 16 9 7 10 6 11 5 12
REMARK SMILES IDX 4 13 3 14 2 15 1 16
REMARK H PARENT
REMARK Flexibility Score: inf
ROOT
ATOM      1  C   UNL     1       6.443  -3.288 -10.125  1.00  0.00     0.000 C 
ENDROOT
BRANCH   1   2
ATOM      2  C   UNL     1       7.491  -2.166  -9.972  1.00  0.00     0.000 C 
BRANCH   2   3
ATOM      3  C   UNL     1       8.893  -2.637  -9.546  1.00  0.00     0.000 C 
BRANCH   3   4
ATOM      4  C   UNL     1       9.093  -2.614  -8.023  1.00  0.00     0.000 C 
BRANCH   4   5
ATOM      5  C   UNL     1       9.086  -4.038  -7.448  1.00  0.00     0.006 C 
BRANCH   5   6
ATOM      6  C   UNL     1       7.665  -4.604  -7.322  1.00  0.00     0.053 C 
BRANCH   6   7
ATOM      7  C   UNL     1       7.244  -4.735  -5.890  1.00  0.00     0.041 C 
ATOM      8  O   UNL     1       6.050  -4.512  -5.556  1.00  0.00    -0.550 OA
ATOM      9  O   UNL     1       8.164  -5.136  -4.929  1.00  0.00    -0.550 OA
ENDBRANCH   6   7
ENDBRANCH   5   6
ENDBRANCH   4   5
ENDBRANCH   3   4
ENDBRANCH   2   3
ENDBRANCH   1   2
BRANCH   1  10
ATOM     10  C   UNL     1       5.075  -2.995  -9.484  1.00  0.00     0.000 C 
BRANCH  10  11
ATOM     11  C   UNL     1       4.011  -4.043  -9.841  1.00  0.00    -0.000 C 
BRANCH  11  12
ATOM     12  C   UNL     1       4.657  -5.408 -10.119  1.00  0.00    -0.000 C 
BRANCH  12  13
ATOM     13  C   UNL     1       4.245  -6.479  -9.096  1.00  0.00    -0.000 C 
BRANCH  13  14
ATOM     14  C   UNL     1       4.941  -7.827  -9.339  1.00  0.00    -0.000 C 
BRANCH  14  15
ATOM     15  C   UNL     1       3.914  -8.933  -9.609  1.00  0.00    -0.003 C 
ATOM     16  C   UNL     1       2.514  -8.354  -9.787  1.00  0.00     0.004 C 
ENDBRANCH  14  15
ENDBRANCH  13  14
ENDBRANCH  12  13
ENDBRANCH  11  12
ENDBRANCH  10  11
ENDBRANCH   1  10
TORSDOF 12
ENDMDL
MODEL 9
REMARK VINA RESULT:    -2.186      1.819      4.467
REMARK INTER + INTRA:          -5.121
REMARK INTER:                  -3.735
REMARK INTRA:                  -1.386
REMARK UNBOUND:                -1.402
REMARK SMILES CCCCCCCCCCCCCC(=O)[O-]
REMARK SMILES IDX 8 1 9 2 10 3 11 4 12 5 13 6 14 7 15 8 16 9 7 10 6 11 5 12
REMARK SMILES IDX 4 13 3 14 2 15 1 16
REMARK H PARENT
REMARK Flexibility Score: inf
ROOT
ATOM      1  C   UNL     1       4.960  -2.920  -9.306  1.00  0.00     0.000 C 
ENDROOT
BRANCH   1   2
ATOM      2  C   UNL     1       6.275  -3.345  -9.991  1.00  0.00     0.000 C 
BRANCH   2   3
ATOM      3  C   UNL     1       7.537  -2.622  -9.488  1.00  0.00     0.000 C 
BRANCH   3   4
ATOM      4  C   UNL     1       8.566  -3.578  -8.866  1.00  0.00     0.000 C 
BRANCH   4   5
ATOM      5  C   UNL     1       7.868  -4.753  -8.165  1.00  0.00     0.006 C 
BRANCH   5   6
ATOM      6  C   UNL     1       7.806  -4.567  -6.643  1.00  0.00     0.053 C 
BRANCH   6   7
ATOM      7  C   UNL     1       6.588  -5.209  -6.053  1.00  0.00     0.041 C 
ATOM      8  O   UNL     1       5.496  -4.583  -6.013  1.00  0.00    -0.550 OA
ATOM      9  O   UNL     1       6.651  -6.513  -5.580  1.00  0.00    -0.550 OA
ENDBRANCH   6   7
ENDBRANCH   5   6
ENDBRANCH   4   5
ENDBRANCH   3   4
ENDBRANCH   2   3
ENDBRANCH   1   2
BRANCH   1  10
ATOM     10  C   UNL     1       3.757  -3.840  -9.576  1.00  0.00     0.000 C 
BRANCH  10  11
ATOM     11  C   UNL     1       4.167  -5.214 -10.125  1.00  0.00    -0.000 C 
BRANCH  11  12
ATOM     12  C   UNL     1       4.527  -6.175  -8.983  1.00  0.00    -0.000 C 
BRANCH  12  13
ATOM     13  C   UNL     1       5.016  -7.542  -9.489  1.00  0.00    -0.000 C 
BRANCH  13  14
ATOM     14  C   UNL     1       5.858  -8.293  -8.446  1.00  0.00    -0.000 C 
BRANCH  14  15
ATOM     15  C   UNL     1       7.069  -8.968  -9.102  1.00  0.00    -0.003 C 
ATOM     16  C   UNL     1       7.813  -7.998 -10.014  1.00  0.00     0.004 C 
ENDBRANCH  14  15
ENDBRANCH  13  14
ENDBRANCH  12  13
ENDBRANCH  11  12
ENDBRANCH  10  11
ENDBRANCH   1  10
TORSDOF 12
ENDMDL
