MODEL 1
REMARK VINA RESULT:    -5.681      0.000      0.000
REMARK INTER + INTRA:         -10.389
REMARK INTER:                  -9.667
REMARK INTRA:                  -0.723
REMARK UNBOUND:                -0.723
REMARK SMILES CCCCCCCCCCCCCC(=O)[O-]
REMARK SMILES IDX 8 1 9 2 10 3 11 4 12 5 13 6 14 7 15 8 16 9 7 10 6 11 5 12
REMARK SMILES IDX 4 13 3 14 2 15 1 16
REMARK H PARENT
REMARK Flexibility Score: inf
ROOT
ATOM      1  C   UNL     1     -10.618  -0.650  -9.302  1.00  0.00     0.000 C 
ENDROOT
BRANCH   1   2
ATOM      2  C   UNL     1     -10.326  -2.149  -9.109  1.00  0.00     0.000 C 
BRANCH   2   3
ATOM      3  C   UNL     1      -9.553  -2.446  -7.815  1.00  0.00     0.000 C 
BRANCH   3   4
ATOM      4  C   UNL     1      -8.600  -3.636  -8.007  1.00  0.00     0.000 C 
BRANCH   4   5
ATOM      5  C   UNL     1      -9.282  -4.994  -7.758  1.00  0.00     0.006 C 
BRANCH   5   6
ATOM      6  C   UNL     1     -10.347  -4.973  -6.651  1.00  0.00     0.053 C 
BRANCH   6   7
ATOM      7  C   UNL     1     -10.603  -6.338  -6.089  1.00  0.00     0.041 C 
ATOM      8  O   UNL     1     -11.330  -6.477  -5.071  1.00  0.00    -0.550 OA
ATOM      9  O   UNL     1     -10.010  -7.452  -6.670  1.00  0.00    -0.550 OA
ENDBRANCH   6   7
ENDBRANCH   5   6
ENDBRANCH   4   5
ENDBRANCH   3   4
ENDBRANCH   2   3
ENDBRANCH   1   2
BRANCH   1  10
ATOM     10  C   UNL     1     -11.449  -0.307 -10.551  1.00  0.00     0.000 C 
BRANCH  10  11
ATOM     11  C   UNL     1     -12.775  -1.085 -10.620  1.00  0.00    -0.000 C 
BRANCH  11  12
ATOM     12  C   UNL     1     -13.999  -0.148 -10.667  1.00  0.00    -0.000 C 
BRANCH  12  13
ATOM     13  C   UNL     1     -14.180   0.692  -9.391  1.00  0.00    -0.000 C 
BRANCH  13  14
ATOM     14  C   UNL     1     -14.138   2.203  -9.658  1.00  0.00    -0.000 C 
BRANCH  14  15
ATOM     15  C   UNL     1     -12.772   2.789  -9.284  1.00  0.00    -0.003 C 
ATOM     16  C   UNL     1     -12.926   4.109  -8.534  1.00  0.00     0.004 C 
ENDBRANCH  14  15
ENDBRANCH  13  14
ENDBRANCH  12  13
ENDBRANCH  11  12
ENDBRANCH  10  11
ENDBRANCH   1  10
TORSDOF 12
ENDMDL
MODEL 2
REMARK VINA RESULT:    -5.670      4.099      7.918
REMARK INTER + INTRA:         -10.371
REMARK INTER:                  -9.715
REMARK INTRA:                  -0.655
REMARK UNBOUND:                -0.723
REMARK SMILES CCCCCCCCCCCCCC(=O)[O-]
REMARK SMILES IDX 8 1 9 2 10 3 11 4 12 5 13 6 14 7 15 8 16 9 7 10 6 11 5 12
REMARK SMILES IDX 4 13 3 14 2 15 1 16
REMARK H PARENT
REMARK Flexibility Score: inf
ROOT
ATOM      1  C   UNL     1     -11.994  -2.500 -10.013  1.00  0.00     0.000 C 
ENDROOT
BRANCH   1   2
ATOM      2  C   UNL     1     -12.816  -1.408 -10.721  1.00  0.00     0.000 C 
BRANCH   2   3
ATOM      3  C   UNL     1     -12.628  -0.018 -10.096  1.00  0.00     0.000 C 
BRANCH   3   4
ATOM      4  C   UNL     1     -13.986   0.640  -9.804  1.00  0.00     0.000 C 
BRANCH   4   5
ATOM      5  C   UNL     1     -13.862   2.132  -9.444  1.00  0.00     0.006 C 
BRANCH   5   6
ATOM      6  C   UNL     1     -12.440   2.699  -9.579  1.00  0.00     0.053 C 
BRANCH   6   7
ATOM      7  C   UNL     1     -12.190   3.825  -8.623  1.00  0.00     0.041 C 
ATOM      8  O   UNL     1     -11.088   3.910  -8.020  1.00  0.00    -0.550 OA
ATOM      9  O   UNL     1     -13.187   4.760  -8.372  1.00  0.00    -0.550 OA
ENDBRANCH   6   7
ENDBRANCH   5   6
ENDBRANCH   4   5
ENDBRANCH   3   4
ENDBRANCH   2   3
ENDBRANCH   1   2
BRANCH   1  10
ATOM     10  C   UNL     1     -10.616  -2.044  -9.501  1.00  0.00     0.000 C 
BRANCH  10  11
ATOM     11  C   UNL     1      -9.498  -3.056  -9.808  1.00  0.00    -0.000 C 
BRANCH  11  12
ATOM     12  C   UNL     1      -8.641  -3.373  -8.565  1.00  0.00    -0.000 C 
BRANCH  12  13
ATOM     13  C   UNL     1      -9.074  -4.652  -7.829  1.00  0.00    -0.000 C 
BRANCH  13  14
ATOM     14  C   UNL     1     -10.104  -4.386  -6.723  1.00  0.00    -0.000 C 
BRANCH  14  15
ATOM     15  C   UNL     1     -11.165  -5.491  -6.682  1.00  0.00    -0.003 C 
ATOM     16  C   UNL     1     -11.510  -5.872  -5.245  1.00  0.00     0.004 C 
ENDBRANCH  14  15
ENDBRANCH  13  14
ENDBRANCH  12  13
ENDBRANCH  11  12
ENDBRANCH  10  11
ENDBRANCH   1  10
TORSDOF 12
ENDMDL
MODEL 3
REMARK VINA RESULT:    -5.175      1.544      2.561
REMARK INTER + INTRA:          -9.527
REMARK INTER:                  -8.696
REMARK INTRA:                  -0.832
REMARK UNBOUND:                -0.723
REMARK SMILES CCCCCCCCCCCCCC(=O)[O-]
REMARK SMILES IDX 8 1 9 2 10 3 11 4 12 5 13 6 14 7 15 8 16 9 7 10 6 11 5 12
REMARK SMILES IDX 4 13 3 14 2 15 1 16
REMARK H PARENT
REMARK Flexibility Score: inf
ROOT
ATOM      1  C   UNL     1     -14.023  -2.187 -10.309  1.00  0.00     0.000 C 
ENDROOT
BRANCH   1   2
ATOM      2  C   UNL     1     -12.601  -2.732 -10.079  1.00  0.00     0.000 C 
BRANCH   2   3
ATOM      3  C   UNL     1     -11.545  -1.621  -9.974  1.00  0.00     0.000 C 
BRANCH   3   4
ATOM      4  C   UNL     1     -10.255  -2.151  -9.330  1.00  0.00     0.000 C 
BRANCH   4   5
ATOM      5  C   UNL     1      -9.845  -3.535  -9.865  1.00  0.00     0.006 C 
BRANCH   5   6
ATOM      6  C   UNL     1      -9.353  -4.510  -8.784  1.00  0.00     0.053 C 
BRANCH   6   7
ATOM      7  C   UNL     1     -10.301  -4.592  -7.626  1.00  0.00     0.041 C 
ATOM      8  O   UNL     1     -10.018  -4.030  -6.537  1.00  0.00    -0.550 OA
ATOM      9  O   UNL     1     -11.478  -5.321  -7.741  1.00  0.00    -0.550 OA
ENDBRANCH   6   7
ENDBRANCH   5   6
ENDBRANCH   4   5
ENDBRANCH   3   4
ENDBRANCH   2   3
ENDBRANCH   1   2
BRANCH   1  10
ATOM     10  C   UNL     1     -14.090  -0.711 -10.740  1.00  0.00     0.000 C 
BRANCH  10  11
ATOM     11  C   UNL     1     -14.449   0.236  -9.582  1.00  0.00    -0.000 C 
BRANCH  11  12
ATOM     12  C   UNL     1     -13.957   1.676  -9.832  1.00  0.00    -0.000 C 
BRANCH  12  13
ATOM     13  C   UNL     1     -12.518   1.927  -9.351  1.00  0.00    -0.000 C 
BRANCH  13  14
ATOM     14  C   UNL     1     -12.064   3.379  -9.553  1.00  0.00    -0.000 C 
BRANCH  14  15
ATOM     15  C   UNL     1     -11.813   4.068  -8.207  1.00  0.00    -0.003 C 
ATOM     16  C   UNL     1     -13.120   4.543  -7.578  1.00  0.00     0.004 C 
ENDBRANCH  14  15
ENDBRANCH  13  14
ENDBRANCH  12  13
ENDBRANCH  11  12
ENDBRANCH  10  11
ENDBRANCH   1  10
TORSDOF 12
ENDMDL
MODEL 4
REMARK VINA RESULT:    -5.142      1.996      3.476
REMARK INTER + INTRA:          -9.472
REMARK INTER:                  -8.261
REMARK INTRA:                  -1.211
REMARK UNBOUND:                -0.723
REMARK SMILES CCCCCCCCCCCCCC(=O)[O-]
REMARK SMILES IDX 8 1 9 2 10 3 11 4 12 5 13 6 14 7 15 8 16 9 7 10 6 11 5 12
REMARK SMILES IDX 4 13 3 14 2 15 1 16
REMARK H PARENT
REMARK Flexibility Score: inf
ROOT
ATOM      1  C   UNL     1      -9.055  -3.965  -8.344  1.00  0.00     0.000 C 
ENDROOT
BRANCH   1   2
ATOM      2  C   UNL     1      -9.867  -3.608  -7.086  1.00  0.00     0.000 C 
BRANCH   2   3
ATOM      3  C   UNL     1     -10.313  -4.845  -6.290  1.00  0.00     0.000 C 
BRANCH   3   4
ATOM      4  C   UNL     1      -9.874  -6.138  -6.996  1.00  0.00     0.000 C 
BRANCH   4   5
ATOM      5  C   UNL     1     -11.034  -7.128  -7.204  1.00  0.00     0.006 C 
BRANCH   5   6
ATOM      6  C   UNL     1     -12.370  -6.468  -7.580  1.00  0.00     0.053 C 
BRANCH   6   7
ATOM      7  C   UNL     1     -12.408  -6.054  -9.019  1.00  0.00     0.041 C 
ATOM      8  O   UNL     1     -11.643  -6.602  -9.855  1.00  0.00    -0.550 OA
ATOM      9  O   UNL     1     -13.263  -5.038  -9.429  1.00  0.00    -0.550 OA
ENDBRANCH   6   7
ENDBRANCH   5   6
ENDBRANCH   4   5
ENDBRANCH   3   4
ENDBRANCH   2   3
ENDBRANCH   1   2
BRANCH   1  10
ATOM     10  C   UNL     1      -9.633  -3.424  -9.664  1.00  0.00     0.000 C 
BRANCH  10  11
ATOM     11  C   UNL     1     -10.886  -2.554  -9.457  1.00  0.00    -0.000 C 
BRANCH  11  12
ATOM     12  C   UNL     1     -10.567  -1.047  -9.536  1.00  0.00    -0.000 C 
BRANCH  12  13
ATOM     13  C   UNL     1     -11.542  -0.257 -10.426  1.00  0.00    -0.000 C 
BRANCH  13  14
ATOM     14  C   UNL     1     -12.809  -1.050 -10.775  1.00  0.00    -0.000 C 
BRANCH  14  15
ATOM     15  C   UNL     1     -14.068  -0.288 -10.347  1.00  0.00    -0.003 C 
ATOM     16  C   UNL     1     -13.711   1.032  -9.670  1.00  0.00     0.004 C 
ENDBRANCH  14  15
ENDBRANCH  13  14
ENDBRANCH  12  13
ENDBRANCH  11  12
ENDBRANCH  10  11
ENDBRANCH   1  10
TORSDOF 12
ENDMDL
MODEL 5
REMARK VINA RESULT:    -5.137      1.457      2.621
REMARK INTER + INTRA:          -9.463
REMARK INTER:                  -8.801
REMARK INTRA:                  -0.661
REMARK UNBOUND:                -0.723
REMARK SMILES CCCCCCCCCCCCCC(=O)[O-]
REMARK SMILES IDX 8 1 9 2 10 3 11 4 12 5 13 6 14 7 15 8 16 9 7 10 6 11 5 12
REMARK SMILES IDX 4 13 3 14 2 15 1 16
REMARK H PARENT
REMARK Flexibility Score: inf
ROOT
ATOM      1  C   UNL     1      -9.867  -2.788  -8.077  1.00  0.00     0.000 C 
ENDROOT
BRANCH   1   2
ATOM      2  C   UNL     1      -9.409  -4.258  -8.067  1.00  0.00     0.000 C 
BRANCH   2   3
ATOM      3  C   UNL     1     -10.579  -5.250  -8.145  1.00  0.00     0.000 C 
BRANCH   3   4
ATOM      4  C   UNL     1     -10.093  -6.637  -8.591  1.00  0.00     0.000 C 
BRANCH   4   5
ATOM      5  C   UNL     1     -10.406  -7.740  -7.563  1.00  0.00     0.006 C 
BRANCH   5   6
ATOM      6  C   UNL     1     -10.240  -7.304  -6.099  1.00  0.00     0.053 C 
BRANCH   6   7
ATOM      7  C   UNL     1     -11.530  -7.373  -5.340  1.00  0.00     0.041 C 
ATOM      8  O   UNL     1     -11.634  -8.125  -4.336  1.00  0.00    -0.550 OA
ATOM      9  O   UNL     1     -12.628  -6.636  -5.766  1.00  0.00    -0.550 OA
ENDBRANCH   6   7
ENDBRANCH   5   6
ENDBRANCH   4   5
ENDBRANCH   3   4
ENDBRANCH   2   3
ENDBRANCH   1   2
BRANCH   1  10
ATOM     10  C   UNL     1     -10.459  -2.302  -9.412  1.00  0.00     0.000 C 
BRANCH  10  11
ATOM     11  C   UNL     1     -10.526  -0.768  -9.516  1.00  0.00    -0.000 C 
BRANCH  11  12
ATOM     12  C   UNL     1     -11.662  -0.297 -10.446  1.00  0.00    -0.000 C 
BRANCH  12  13
ATOM     13  C   UNL     1     -12.881  -1.235 -10.455  1.00  0.00    -0.000 C 
BRANCH  13  14
ATOM     14  C   UNL     1     -14.201  -0.503 -10.178  1.00  0.00    -0.000 C 
BRANCH  14  15
ATOM     15  C   UNL     1     -13.970   1.003 -10.012  1.00  0.00    -0.003 C 
ATOM     16  C   UNL     1     -14.806   1.566  -8.866  1.00  0.00     0.004 C 
ENDBRANCH  14  15
ENDBRANCH  13  14
ENDBRANCH  12  13
ENDBRANCH  11  12
ENDBRANCH  10  11
ENDBRANCH   1  10
TORSDOF 12
ENDMDL
MODEL 6
REMARK VINA RESULT:    -5.114     15.749     17.703
REMARK INTER + INTRA:          -9.424
REMARK INTER:                  -8.072
REMARK INTRA:                  -1.352
REMARK UNBOUND:                -0.723
REMARK SMILES CCCCCCCCCCCCCC(=O)[O-]
REMARK SMILES IDX 8 1 9 2 10 3 11 4 12 5 13 6 14 7 15 8 16 9 7 10 6 11 5 12
REMARK SMILES IDX 4 13 3 14 2 15 1 16
REMARK H PARENT
REMARK Flexibility Score: inf
ROOT
ATOM      1  C   UNL     1      -9.528   6.449   7.960  1.00  0.00     0.000 C 
ENDROOT
BRANCH   1   2
ATOM      2  C   UNL     1     -10.107   5.230   8.701  1.00  0.00     0.000 C 
BRANCH   2   3
ATOM      3  C   UNL     1     -10.667   4.162   7.750  1.00  0.00     0.000 C 
BRANCH   3   4
ATOM      4  C   UNL     1     -12.197   4.267   7.648  1.00  0.00     0.000 C 
BRANCH   4   5
ATOM      5  C   UNL     1     -12.657   5.356   6.661  1.00  0.00     0.006 C 
BRANCH   5   6
ATOM      6  C   UNL     1     -12.457   4.994   5.182  1.00  0.00     0.053 C 
BRANCH   6   7
ATOM      7  C   UNL     1     -13.250   5.882   4.272  1.00  0.00     0.041 C 
ATOM      8  O   UNL     1     -13.569   5.485   3.121  1.00  0.00    -0.550 OA
ATOM      9  O   UNL     1     -13.604   7.161   4.683  1.00  0.00    -0.550 OA
ENDBRANCH   6   7
ENDBRANCH   5   6
ENDBRANCH   4   5
ENDBRANCH   3   4
ENDBRANCH   2   3
ENDBRANCH   1   2
BRANCH   1  10
ATOM     10  C   UNL     1      -8.865   6.130   6.608  1.00  0.00     0.000 C 
BRANCH  10  11
ATOM     11  C   UNL     1      -9.367   7.032   5.466  1.00  0.00    -0.000 C 
BRANCH  11  12
ATOM     12  C   UNL     1     -10.085   8.291   5.993  1.00  0.00    -0.000 C 
BRANCH  12  13
ATOM     13  C   UNL     1      -9.343   9.601   5.675  1.00  0.00    -0.000 C 
BRANCH  13  14
ATOM     14  C   UNL     1      -8.016   9.372   4.939  1.00  0.00    -0.000 C 
BRANCH  14  15
ATOM     15  C   UNL     1      -7.026  10.507   5.225  1.00  0.00    -0.003 C 
ATOM     16  C   UNL     1      -6.007  10.096   6.284  1.00  0.00     0.004 C 
ENDBRANCH  14  15
ENDBRANCH  13  14
ENDBRANCH  12  13
ENDBRANCH  11  12
ENDBRANCH  10  11
ENDBRANCH   1  10
TORSDOF 12
ENDMDL
MODEL 7
REMARK VINA RESULT:    -5.081      3.752      7.387
REMARK INTER + INTRA:          -9.368
REMARK INTER:                  -8.277
REMARK INTRA:                  -1.091
REMARK UNBOUND:                -0.723
REMARK SMILES CCCCCCCCCCCCCC(=O)[O-]
REMARK SMILES IDX 8 1 9 2 10 3 11 4 12 5 13 6 14 7 15 8 16 9 7 10 6 11 5 12
REMARK SMILES IDX 4 13 3 14 2 15 1 16
REMARK H PARENT
REMARK Flexibility Score: inf
ROOT
ATOM      1  C   UNL     1     -10.063  -3.970  -7.606  1.00  0.00     0.000 C 
ENDROOT
BRANCH   1   2
ATOM      2  C   UNL     1      -9.633  -3.207  -8.872  1.00  0.00     0.000 C 
BRANCH   2   3
ATOM      3  C   UNL     1     -10.814  -2.560  -9.611  1.00  0.00     0.000 C 
BRANCH   3   4
ATOM      4  C   UNL     1     -10.645  -1.035  -9.686  1.00  0.00     0.000 C 
BRANCH   4   5
ATOM      5  C   UNL     1     -11.817  -0.338 -10.401  1.00  0.00     0.006 C 
BRANCH   5   6
ATOM      6  C   UNL     1     -12.307   0.943  -9.709  1.00  0.00     0.053 C 
BRANCH   6   7
ATOM      7  C   UNL     1     -13.801   1.062  -9.737  1.00  0.00     0.041 C 
ATOM      8  O   UNL     1     -14.344   2.197  -9.757  1.00  0.00    -0.550 OA
ATOM      9  O   UNL     1     -14.591  -0.080  -9.703  1.00  0.00    -0.550 OA
ENDBRANCH   6   7
ENDBRANCH   5   6
ENDBRANCH   4   5
ENDBRANCH   3   4
ENDBRANCH   2   3
ENDBRANCH   1   2
BRANCH   1  10
ATOM     10  C   UNL     1      -9.582  -5.431  -7.535  1.00  0.00     0.000 C 
BRANCH  10  11
ATOM     11  C   UNL     1      -9.998  -6.135  -6.232  1.00  0.00    -0.000 C 
BRANCH  11  12
ATOM     12  C   UNL     1     -11.290  -5.540  -5.634  1.00  0.00    -0.000 C 
BRANCH  12  13
ATOM     13  C   UNL     1     -12.455  -6.541  -5.566  1.00  0.00    -0.000 C 
BRANCH  13  14
ATOM     14  C   UNL     1     -12.954  -6.974  -6.952  1.00  0.00    -0.000 C 
BRANCH  14  15
ATOM     15  C   UNL     1     -13.713  -5.835  -7.643  1.00  0.00    -0.003 C 
ATOM     16  C   UNL     1     -13.085  -5.493  -8.991  1.00  0.00     0.004 C 
ENDBRANCH  14  15
ENDBRANCH  13  14
ENDBRANCH  12  13
ENDBRANCH  11  12
ENDBRANCH  10  11
ENDBRANCH   1  10
TORSDOF 12
ENDMDL
MODEL 8
REMARK VINA RESULT:    -5.058     16.317     18.299
REMARK INTER + INTRA:          -9.328
REMARK INTER:                  -8.436
REMARK INTRA:                  -0.892
REMARK UNBOUND:                -0.723
REMARK SMILES CCCCCCCCCCCCCC(=O)[O-]
REMARK SMILES IDX 8 1 9 2 10 3 11 4 12 5 13 6 14 7 15 8 16 9 7 10 6 11 5 12
REMARK SMILES IDX 4 13 3 14 2 15 1 16
REMARK H PARENT
REMARK Flexibility Score: inf
ROOT
ATOM      1  C   UNL     1      -9.976   5.220   8.625  1.00  0.00     0.000 C 
ENDROOT
BRANCH   1   2
ATOM      2  C   UNL     1      -9.649   6.545   7.911  1.00  0.00     0.000 C 
BRANCH   2   3
ATOM      3  C   UNL     1      -9.095   6.339   6.493  1.00  0.00     0.000 C 
BRANCH   3   4
ATOM      4  C   UNL     1      -8.976   7.679   5.751  1.00  0.00     0.000 C 
BRANCH   4   5
ATOM      5  C   UNL     1      -8.028   8.669   6.454  1.00  0.00     0.006 C 
BRANCH   5   6
ATOM      6  C   UNL     1      -7.217   9.555   5.497  1.00  0.00     0.053 C 
BRANCH   6   7
ATOM      7  C   UNL     1      -6.361  10.542   6.231  1.00  0.00     0.041 C 
ATOM      8  O   UNL     1      -5.159  10.270   6.486  1.00  0.00    -0.550 OA
ATOM      9  O   UNL     1      -6.903  11.746   6.665  1.00  0.00    -0.550 OA
ENDBRANCH   6   7
ENDBRANCH   5   6
ENDBRANCH   4   5
ENDBRANCH   3   4
ENDBRANCH   2   3
ENDBRANCH   1   2
BRANCH   1  10
ATOM     10  C   UNL     1     -10.576   4.128   7.722  1.00  0.00     0.000 C 
BRANCH  10  11
ATOM     11  C   UNL     1     -12.102   4.253   7.563  1.00  0.00    -0.000 C 
BRANCH  11  12
ATOM     12  C   UNL     1     -12.510   4.606   6.118  1.00  0.00    -0.000 C 
BRANCH  12  13
ATOM     13  C   UNL     1     -12.734   6.111   5.892  1.00  0.00    -0.000 C 
BRANCH  13  14
ATOM     14  C   UNL     1     -13.853   6.404   4.883  1.00  0.00    -0.000 C 
BRANCH  14  15
ATOM     15  C   UNL     1     -13.625   5.641   3.573  1.00  0.00    -0.003 C 
ATOM     16  C   UNL     1     -13.999   6.495   2.365  1.00  0.00     0.004 C 
ENDBRANCH  14  15
ENDBRANCH  13  14
ENDBRANCH  12  13
ENDBRANCH  11  12
ENDBRANCH  10  11
ENDBRANCH   1  10
TORSDOF 12
ENDMDL
MODEL 9
REMARK VINA RESULT:    -4.933      1.737      3.546
REMARK INTER + INTRA:          -9.116
REMARK INTER:                  -8.080
REMARK INTRA:                  -1.035
REMARK UNBOUND:                -0.723
REMARK SMILES CCCCCCCCCCCCCC(=O)[O-]
REMARK SMILES IDX 8 1 9 2 10 3 11 4 12 5 13 6 14 7 15 8 16 9 7 10 6 11 5 12
REMARK SMILES IDX 4 13 3 14 2 15 1 16
REMARK H PARENT
REMARK Flexibility Score: inf
ROOT
ATOM      1  C   UNL     1      -9.604  -4.798  -8.892  1.00  0.00     0.000 C 
ENDROOT
BRANCH   1   2
ATOM      2  C   UNL     1     -10.139  -6.207  -8.580  1.00  0.00     0.000 C 
BRANCH   2   3
ATOM      3  C   UNL     1     -11.415  -6.549  -9.365  1.00  0.00     0.000 C 
BRANCH   3   4
ATOM      4  C   UNL     1     -12.482  -7.154  -8.440  1.00  0.00     0.000 C 
BRANCH   4   5
ATOM      5  C   UNL     1     -13.129  -6.110  -7.511  1.00  0.00     0.006 C 
BRANCH   5   6
ATOM      6  C   UNL     1     -13.178  -6.523  -6.032  1.00  0.00     0.053 C 
BRANCH   6   7
ATOM      7  C   UNL     1     -11.815  -6.545  -5.409  1.00  0.00     0.041 C 
ATOM      8  O   UNL     1     -11.203  -5.467  -5.190  1.00  0.00    -0.550 OA
ATOM      9  O   UNL     1     -11.208  -7.756  -5.104  1.00  0.00    -0.550 OA
ENDBRANCH   6   7
ENDBRANCH   5   6
ENDBRANCH   4   5
ENDBRANCH   3   4
ENDBRANCH   2   3
ENDBRANCH   1   2
BRANCH   1  10
ATOM     10  C   UNL     1     -10.573  -3.648  -8.561  1.00  0.00     0.000 C 
BRANCH  10  11
ATOM     11  C   UNL     1     -10.909  -2.777  -9.785  1.00  0.00    -0.000 C 
BRANCH  11  12
ATOM     12  C   UNL     1     -10.611  -1.284  -9.536  1.00  0.00    -0.000 C 
BRANCH  12  13
ATOM     13  C   UNL     1     -11.554  -0.334 -10.293  1.00  0.00    -0.000 C 
BRANCH  13  14
ATOM     14  C   UNL     1     -12.842  -1.022 -10.767  1.00  0.00    -0.000 C 
BRANCH  14  15
ATOM     15  C   UNL     1     -14.057  -0.110 -10.568  1.00  0.00    -0.003 C 
ATOM     16  C   UNL     1     -13.700   1.108  -9.720  1.00  0.00     0.004 C 
ENDBRANCH  14  15
ENDBRANCH  13  14
ENDBRANCH  12  13
ENDBRANCH  11  12
ENDBRANCH  10  11
ENDBRANCH   1  10
TORSDOF 12
ENDMDL
