MODEL 1
REMARK VINA RESULT:    -1.214      0.000      0.000
REMARK INTER + INTRA:          -2.751
REMARK INTER:                  -2.350
REMARK INTRA:                  -0.401
REMARK UNBOUND:                -0.401
REMARK SMILES CCCCCCCCCCCCCCCCCC(=O)[O-]
REMARK SMILES IDX 10 1 11 2 12 3 13 4 14 5 15 6 16 7 17 8 18 9 19 10 20 11
REMARK SMILES IDX 9 12 8 13 7 14 6 15 5 16 4 17 3 18 2 19 1 20
REMARK H PARENT
REMARK Flexibility Score: inf
ROOT
ATOM      1  C   UNL     1       0.429  59.048  -6.262  1.00  0.00     0.000 C 
ENDROOT
BRANCH   1   2
ATOM      2  C   UNL     1       1.121  60.026  -5.295  1.00  0.00     0.000 C 
BRANCH   2   3
ATOM      3  C   UNL     1       0.227  60.432  -4.111  1.00  0.00     0.000 C 
BRANCH   3   4
ATOM      4  C   UNL     1      -1.269  60.169  -4.368  1.00  0.00     0.000 C 
BRANCH   4   5
ATOM      5  C   UNL     1      -2.178  60.256  -3.127  1.00  0.00     0.000 C 
BRANCH   5   6
ATOM      6  C   UNL     1      -3.619  59.793  -3.404  1.00  0.00     0.000 C 
BRANCH   6   7
ATOM      7  C   UNL     1      -3.877  59.514  -4.896  1.00  0.00     0.006 C 
BRANCH   7   8
ATOM      8  C   UNL     1      -4.490  60.695  -5.663  1.00  0.00     0.053 C 
BRANCH   8   9
ATOM      9  C   UNL     1      -4.194  60.625  -7.131  1.00  0.00     0.041 C 
ATOM     10  O   UNL     1      -4.654  61.497  -7.913  1.00  0.00    -0.550 OA
ATOM     11  O   UNL     1      -3.435  59.578  -7.637  1.00  0.00    -0.550 OA
ENDBRANCH   8   9
ENDBRANCH   7   8
ENDBRANCH   6   7
ENDBRANCH   5   6
ENDBRANCH   4   5
ENDBRANCH   3   4
ENDBRANCH   2   3
ENDBRANCH   1   2
BRANCH   1  12
ATOM     12  C   UNL     1       0.739  59.272  -7.754  1.00  0.00     0.000 C 
BRANCH  12  13
ATOM     13  C   UNL     1       2.189  58.914  -8.125  1.00  0.00    -0.000 C 
BRANCH  13  14
ATOM     14  C   UNL     1       3.200  59.958  -7.628  1.00  0.00    -0.000 C 
BRANCH  14  15
ATOM     15  C   UNL     1       4.085  59.422  -6.487  1.00  0.00    -0.000 C 
BRANCH  15  16
ATOM     16  C   UNL     1       5.473  58.981  -6.975  1.00  0.00    -0.000 C 
BRANCH  16  17
ATOM     17  C   UNL     1       6.006  59.859  -8.118  1.00  0.00    -0.000 C 
BRANCH  17  18
ATOM     18  C   UNL     1       7.512  60.112  -7.961  1.00  0.00    -0.000 C 
BRANCH  18  19
ATOM     19  C   UNL     1       8.267  58.878  -7.444  1.00  0.00    -0.003 C 
ATOM     20  C   UNL     1       9.741  58.875  -7.845  1.00  0.00     0.004 C 
ENDBRANCH  18  19
ENDBRANCH  17  18
ENDBRANCH  16  17
ENDBRANCH  15  16
ENDBRANCH  14  15
ENDBRANCH  13  14
ENDBRANCH  12  13
ENDBRANCH   1  12
TORSDOF 16
ENDMDL
MODEL 2
REMARK VINA RESULT:     0.613      3.917      8.476
REMARK INTER + INTRA:           0.786
REMARK INTER:                   1.480
REMARK INTRA:                  -0.694
REMARK UNBOUND:                -0.401
REMARK SMILES CCCCCCCCCCCCCCCCCC(=O)[O-]
REMARK SMILES IDX 10 1 11 2 12 3 13 4 14 5 15 6 16 7 17 8 18 9 19 10 20 11
REMARK SMILES IDX 9 12 8 13 7 14 6 15 5 16 4 17 3 18 2 19 1 20
REMARK H PARENT
REMARK Flexibility Score: inf
ROOT
ATOM      1  C   UNL     1      -1.288  59.745  -6.423  1.00  0.00     0.000 C 
ENDROOT
BRANCH   1   2
ATOM      2  C   UNL     1      -0.037  58.909  -6.096  1.00  0.00     0.000 C 
BRANCH   2   3
ATOM      3  C   UNL     1       1.256  59.741  -6.096  1.00  0.00     0.000 C 
BRANCH   3   4
ATOM      4  C   UNL     1       2.435  59.022  -5.411  1.00  0.00     0.000 C 
BRANCH   4   5
ATOM      5  C   UNL     1       3.712  58.889  -6.262  1.00  0.00     0.000 C 
BRANCH   5   6
ATOM      6  C   UNL     1       3.761  59.884  -7.434  1.00  0.00     0.000 C 
BRANCH   6   7
ATOM      7  C   UNL     1       5.137  59.923  -8.123  1.00  0.00     0.006 C 
BRANCH   7   8
ATOM      8  C   UNL     1       6.181  58.979  -7.506  1.00  0.00     0.053 C 
BRANCH   8   9
ATOM      9  C   UNL     1       7.562  59.557  -7.561  1.00  0.00     0.041 C 
ATOM     10  O   UNL     1       8.550  58.875  -7.185  1.00  0.00    -0.550 OA
ATOM     11  O   UNL     1       7.753  60.861  -8.001  1.00  0.00    -0.550 OA
ENDBRANCH   8   9
ENDBRANCH   7   8
ENDBRANCH   6   7
ENDBRANCH   5   6
ENDBRANCH   4   5
ENDBRANCH   3   4
ENDBRANCH   2   3
ENDBRANCH   1   2
BRANCH   1  12
ATOM     12  C   UNL     1      -2.517  58.934  -6.876  1.00  0.00     0.000 C 
BRANCH  12  13
ATOM     13  C   UNL     1      -3.808  59.770  -6.911  1.00  0.00    -0.000 C 
BRANCH  13  14
ATOM     14  C   UNL     1      -4.210  60.292  -5.524  1.00  0.00    -0.000 C 
BRANCH  14  15
ATOM     15  C   UNL     1      -3.517  59.525  -4.383  1.00  0.00    -0.000 C 
BRANCH  15  16
ATOM     16  C   UNL     1      -2.969  60.458  -3.292  1.00  0.00    -0.000 C 
BRANCH  16  17
ATOM     17  C   UNL     1      -1.511  60.872  -3.544  1.00  0.00    -0.000 C 
BRANCH  17  18
ATOM     18  C   UNL     1      -0.544  60.011  -2.718  1.00  0.00    -0.000 C 
BRANCH  18  19
ATOM     19  C   UNL     1       0.779  60.731  -2.420  1.00  0.00    -0.003 C 
ATOM     20  C   UNL     1       1.400  60.302  -1.091  1.00  0.00     0.004 C 
ENDBRANCH  18  19
ENDBRANCH  17  18
ENDBRANCH  16  17
ENDBRANCH  15  16
ENDBRANCH  14  15
ENDBRANCH  13  14
ENDBRANCH  12  13
ENDBRANCH   1  12
TORSDOF 16
ENDMDL
MODEL 3
REMARK VINA RESULT:     0.790     22.097     23.837
REMARK INTER + INTRA:           1.128
REMARK INTER:                   1.537
REMARK INTRA:                  -0.409
REMARK UNBOUND:                -0.401
REMARK SMILES CCCCCCCCCCCCCCCCCC(=O)[O-]
REMARK SMILES IDX 10 1 11 2 12 3 13 4 14 5 15 6 16 7 17 8 18 9 19 10 20 11
REMARK SMILES IDX 9 12 8 13 7 14 6 15 5 16 4 17 3 18 2 19 1 20
REMARK H PARENT
REMARK Flexibility Score: inf
ROOT
ATOM      1  C   UNL     1       7.893  77.620   5.588  1.00  0.00     0.000 C 
ENDROOT
BRANCH   1   2
ATOM      2  C   UNL     1       6.571  78.163   6.161  1.00  0.00     0.000 C 
BRANCH   2   3
ATOM      3  C   UNL     1       5.971  77.256   7.249  1.00  0.00     0.000 C 
BRANCH   3   4
ATOM      4  C   UNL     1       4.505  77.598   7.576  1.00  0.00     0.000 C 
BRANCH   4   5
ATOM      5  C   UNL     1       4.298  78.832   8.475  1.00  0.00     0.000 C 
BRANCH   5   6
ATOM      6  C   UNL     1       3.161  78.649   9.495  1.00  0.00     0.000 C 
BRANCH   6   7
ATOM      7  C   UNL     1       3.555  79.106  10.912  1.00  0.00     0.006 C 
BRANCH   7   8
ATOM      8  C   UNL     1       4.006  77.968  11.841  1.00  0.00     0.053 C 
BRANCH   8   9
ATOM      9  C   UNL     1       5.491  77.963  12.043  1.00  0.00     0.041 C 
ATOM     10  O   UNL     1       6.124  79.048  12.112  1.00  0.00    -0.550 OA
ATOM     11  O   UNL     1       6.178  76.759  12.124  1.00  0.00    -0.550 OA
ENDBRANCH   8   9
ENDBRANCH   7   8
ENDBRANCH   6   7
ENDBRANCH   5   6
ENDBRANCH   4   5
ENDBRANCH   3   4
ENDBRANCH   2   3
ENDBRANCH   1   2
BRANCH   1  12
ATOM     12  C   UNL     1       8.605  78.551   4.590  1.00  0.00     0.000 C 
BRANCH  12  13
ATOM     13  C   UNL     1       8.007  78.482   3.174  1.00  0.00    -0.000 C 
BRANCH  13  14
ATOM     14  C   UNL     1       7.080  77.272   2.984  1.00  0.00    -0.000 C 
BRANCH  14  15
ATOM     15  C   UNL     1       5.636  77.686   2.642  1.00  0.00    -0.000 C 
BRANCH  15  16
ATOM     16  C   UNL     1       4.590  76.768   3.294  1.00  0.00    -0.000 C 
BRANCH  16  17
ATOM     17  C   UNL     1       4.057  77.327   4.622  1.00  0.00    -0.000 C 
BRANCH  17  18
ATOM     18  C   UNL     1       2.534  77.160   4.716  1.00  0.00    -0.000 C 
BRANCH  18  19
ATOM     19  C   UNL     1       1.829  78.433   5.209  1.00  0.00    -0.003 C 
ATOM     20  C   UNL     1       1.135  78.242   6.556  1.00  0.00     0.004 C 
ENDBRANCH  18  19
ENDBRANCH  17  18
ENDBRANCH  16  17
ENDBRANCH  15  16
ENDBRANCH  14  15
ENDBRANCH  13  14
ENDBRANCH  12  13
ENDBRANCH   1  12
TORSDOF 16
ENDMDL
MODEL 4
REMARK VINA RESULT:     0.804     21.998     23.411
REMARK INTER + INTRA:           1.156
REMARK INTER:                   2.241
REMARK INTRA:                  -1.085
REMARK UNBOUND:                -0.401
REMARK SMILES CCCCCCCCCCCCCCCCCC(=O)[O-]
REMARK SMILES IDX 10 1 11 2 12 3 13 4 14 5 15 6 16 7 17 8 18 9 19 10 20 11
REMARK SMILES IDX 9 12 8 13 7 14 6 15 5 16 4 17 3 18 2 19 1 20
REMARK H PARENT
REMARK Flexibility Score: inf
ROOT
ATOM      1  C   UNL     1       4.035  77.822   5.442  1.00  0.00     0.000 C 
ENDROOT
BRANCH   1   2
ATOM      2  C   UNL     1       2.654  77.153   5.321  1.00  0.00     0.000 C 
BRANCH   2   3
ATOM      3  C   UNL     1       1.599  77.782   6.247  1.00  0.00     0.000 C 
BRANCH   3   4
ATOM      4  C   UNL     1       2.053  79.125   6.851  1.00  0.00     0.000 C 
BRANCH   4   5
ATOM      5  C   UNL     1       2.469  79.076   8.333  1.00  0.00     0.000 C 
BRANCH   5   6
ATOM      6  C   UNL     1       2.867  77.665   8.800  1.00  0.00     0.000 C 
BRANCH   6   7
ATOM      7  C   UNL     1       4.257  77.627   9.461  1.00  0.00     0.006 C 
BRANCH   7   8
ATOM      8  C   UNL     1       4.421  78.594  10.644  1.00  0.00     0.053 C 
BRANCH   8   9
ATOM      9  C   UNL     1       5.411  78.089  11.649  1.00  0.00     0.041 C 
ATOM     10  O   UNL     1       5.311  76.920  12.105  1.00  0.00    -0.550 OA
ATOM     11  O   UNL     1       6.427  78.920  12.103  1.00  0.00    -0.550 OA
ENDBRANCH   8   9
ENDBRANCH   7   8
ENDBRANCH   6   7
ENDBRANCH   5   6
ENDBRANCH   4   5
ENDBRANCH   3   4
ENDBRANCH   2   3
ENDBRANCH   1   2
BRANCH   1  12
ATOM     12  C   UNL     1       4.995  77.164   6.451  1.00  0.00     0.000 C 
BRANCH  12  13
ATOM     13  C   UNL     1       6.328  77.918   6.590  1.00  0.00    -0.000 C 
BRANCH  13  14
ATOM     14  C   UNL     1       7.547  77.002   6.404  1.00  0.00    -0.000 C 
BRANCH  14  15
ATOM     15  C   UNL     1       8.619  77.627   5.493  1.00  0.00    -0.000 C 
BRANCH  15  16
ATOM     16  C   UNL     1       8.048  78.711   4.567  1.00  0.00    -0.000 C 
BRANCH  16  17
ATOM     17  C   UNL     1       8.171  78.345   3.080  1.00  0.00    -0.000 C 
BRANCH  17  18
ATOM     18  C   UNL     1       7.217  77.199   2.716  1.00  0.00    -0.000 C 
BRANCH  18  19
ATOM     19  C   UNL     1       5.743  77.632   2.724  1.00  0.00    -0.003 C 
ATOM     20  C   UNL     1       5.456  78.774   1.752  1.00  0.00     0.004 C 
ENDBRANCH  18  19
ENDBRANCH  17  18
ENDBRANCH  16  17
ENDBRANCH  15  16
ENDBRANCH  14  15
ENDBRANCH  13  14
ENDBRANCH  12  13
ENDBRANCH   1  12
TORSDOF 16
ENDMDL
MODEL 5
REMARK VINA RESULT:     1.170      4.196      9.499
REMARK INTER + INTRA:           1.863
REMARK INTER:                   2.619
REMARK INTRA:                  -0.755
REMARK UNBOUND:                -0.401
REMARK SMILES CCCCCCCCCCCCCCCCCC(=O)[O-]
REMARK SMILES IDX 10 1 11 2 12 3 13 4 14 5 15 6 16 7 17 8 18 9 19 10 20 11
REMARK SMILES IDX 9 12 8 13 7 14 6 15 5 16 4 17 3 18 2 19 1 20
REMARK H PARENT
REMARK Flexibility Score: inf
ROOT
ATOM      1  C   UNL     1       0.221  59.849  -5.099  1.00  0.00     0.000 C 
ENDROOT
BRANCH   1   2
ATOM      2  C   UNL     1       1.630  59.423  -5.553  1.00  0.00     0.000 C 
BRANCH   2   3
ATOM      3  C   UNL     1       1.978  59.914  -6.968  1.00  0.00     0.000 C 
BRANCH   3   4
ATOM      4  C   UNL     1       3.153  60.910  -6.988  1.00  0.00     0.000 C 
BRANCH   4   5
ATOM      5  C   UNL     1       4.555  60.280  -6.876  1.00  0.00     0.000 C 
BRANCH   5   6
ATOM      6  C   UNL     1       4.953  59.472  -8.124  1.00  0.00     0.000 C 
BRANCH   6   7
ATOM      7  C   UNL     1       6.375  58.890  -8.026  1.00  0.00     0.006 C 
BRANCH   7   8
ATOM      8  C   UNL     1       7.489  59.947  -7.963  1.00  0.00     0.053 C 
BRANCH   8   9
ATOM      9  C   UNL     1       8.666  59.475  -7.165  1.00  0.00     0.041 C 
ATOM     10  O   UNL     1       8.498  58.971  -6.025  1.00  0.00    -0.550 OA
ATOM     11  O   UNL     1       9.952  59.622  -7.670  1.00  0.00    -0.550 OA
ENDBRANCH   8   9
ENDBRANCH   7   8
ENDBRANCH   6   7
ENDBRANCH   5   6
ENDBRANCH   4   5
ENDBRANCH   3   4
ENDBRANCH   2   3
ENDBRANCH   1   2
BRANCH   1  12
ATOM     12  C   UNL     1      -0.939  59.077  -5.756  1.00  0.00     0.000 C 
BRANCH  12  13
ATOM     13  C   UNL     1      -1.399  59.702  -7.084  1.00  0.00    -0.000 C 
BRANCH  13  14
ATOM     14  C   UNL     1      -2.533  58.907  -7.748  1.00  0.00    -0.000 C 
BRANCH  14  15
ATOM     15  C   UNL     1      -3.927  59.430  -7.353  1.00  0.00    -0.000 C 
BRANCH  15  16
ATOM     16  C   UNL     1      -4.013  60.963  -7.385  1.00  0.00    -0.000 C 
BRANCH  16  17
ATOM     17  C   UNL     1      -4.727  61.542  -6.154  1.00  0.00    -0.000 C 
BRANCH  17  18
ATOM     18  C   UNL     1      -3.791  61.565  -4.937  1.00  0.00    -0.000 C 
BRANCH  18  19
ATOM     19  C   UNL     1      -3.646  60.186  -4.277  1.00  0.00    -0.003 C 
ATOM     20  C   UNL     1      -2.905  60.244  -2.942  1.00  0.00     0.004 C 
ENDBRANCH  18  19
ENDBRANCH  17  18
ENDBRANCH  16  17
ENDBRANCH  15  16
ENDBRANCH  14  15
ENDBRANCH  13  14
ENDBRANCH  12  13
ENDBRANCH   1  12
TORSDOF 16
ENDMDL
MODEL 6
REMARK VINA RESULT:     1.221      3.455      8.980
REMARK INTER + INTRA:           1.961
REMARK INTER:                   1.335
REMARK INTRA:                   0.626
REMARK UNBOUND:                -0.401
REMARK SMILES CCCCCCCCCCCCCCCCCC(=O)[O-]
REMARK SMILES IDX 10 1 11 2 12 3 13 4 14 5 15 6 16 7 17 8 18 9 19 10 20 11
REMARK SMILES IDX 9 12 8 13 7 14 6 15 5 16 4 17 3 18 2 19 1 20
REMARK H PARENT
REMARK Flexibility Score: inf
ROOT
ATOM      1  C   UNL     1       0.434  61.044  -4.252  1.00  0.00     0.000 C 
ENDROOT
BRANCH   1   2
ATOM      2  C   UNL     1       1.356  59.895  -3.802  1.00  0.00     0.000 C 
BRANCH   2   3
ATOM      3  C   UNL     1       2.329  59.440  -4.903  1.00  0.00     0.000 C 
BRANCH   3   4
ATOM      4  C   UNL     1       1.914  59.918  -6.308  1.00  0.00     0.000 C 
BRANCH   4   5
ATOM      5  C   UNL     1       2.834  60.978  -6.943  1.00  0.00     0.000 C 
BRANCH   5   6
ATOM      6  C   UNL     1       3.785  60.392  -8.001  1.00  0.00     0.000 C 
BRANCH   6   7
ATOM      7  C   UNL     1       4.307  58.994  -7.622  1.00  0.00     0.006 C 
BRANCH   7   8
ATOM      8  C   UNL     1       5.838  58.886  -7.556  1.00  0.00     0.053 C 
BRANCH   8   9
ATOM      9  C   UNL     1       6.507  60.180  -7.909  1.00  0.00     0.041 C 
ATOM     10  O   UNL     1       5.828  61.231  -8.039  1.00  0.00    -0.550 OA
ATOM     11  O   UNL     1       7.879  60.217  -8.125  1.00  0.00    -0.550 OA
ENDBRANCH   8   9
ENDBRANCH   7   8
ENDBRANCH   6   7
ENDBRANCH   5   6
ENDBRANCH   4   5
ENDBRANCH   3   4
ENDBRANCH   2   3
ENDBRANCH   1   2
BRANCH   1  12
ATOM     12  C   UNL     1      -1.074  60.753  -4.143  1.00  0.00     0.000 C 
BRANCH  12  13
ATOM     13  C   UNL     1      -1.380  59.277  -3.837  1.00  0.00    -0.000 C 
BRANCH  13  14
ATOM     14  C   UNL     1      -2.665  59.099  -3.015  1.00  0.00    -0.000 C 
BRANCH  14  15
ATOM     15  C   UNL     1      -3.849  59.893  -3.597  1.00  0.00    -0.000 C 
BRANCH  15  16
ATOM     16  C   UNL     1      -4.892  58.989  -4.272  1.00  0.00    -0.000 C 
BRANCH  16  17
ATOM     17  C   UNL     1      -4.706  58.903  -5.794  1.00  0.00    -0.000 C 
BRANCH  17  18
ATOM     18  C   UNL     1      -3.840  60.062  -6.307  1.00  0.00    -0.000 C 
BRANCH  18  19
ATOM     19  C   UNL     1      -4.101  60.385  -7.786  1.00  0.00    -0.003 C 
ATOM     20  C   UNL     1      -4.940  61.647  -7.977  1.00  0.00     0.004 C 
ENDBRANCH  18  19
ENDBRANCH  17  18
ENDBRANCH  16  17
ENDBRANCH  15  16
ENDBRANCH  14  15
ENDBRANCH  13  14
ENDBRANCH  12  13
ENDBRANCH   1  12
TORSDOF 16
ENDMDL
