MODEL 1
REMARK VINA RESULT:    -7.157      0.000      0.000
REMARK INTER + INTRA:          -8.922
REMARK INTER:                  -8.622
REMARK INTRA:                  -0.300
REMARK UNBOUND:                -0.300
REMARK SMILES O=c1c(O)c(-c2ccc(O)c(O)c2)oc2cc(O)cc(O)c12
REMARK SMILES IDX 5 1 3 2 2 3 1 4 22 5 20 6 19 7 17 8 16 9 15 10 14 11 6 12
REMARK SMILES IDX 7 13 8 14 9 15 13 16 11 17 10 18 12 20 4 22 21 24 18 26
REMARK H PARENT 10 19 12 21 4 23 21 25 18 27
REMARK Flexibility Score: inf
ROOT
ATOM      1  C   UNL     1      -4.912  36.032  60.003  1.00  0.00     0.180 A 
ATOM      2  C   UNL     1      -6.175  35.937  59.394  1.00  0.00     0.208 A 
ATOM      3  C   UNL     1      -7.003  37.070  59.365  1.00  0.00     0.238 A 
ATOM      4  O   UNL     1      -8.161  36.959  58.885  1.00  0.00    -0.285 OA
ATOM      5  C   UNL     1      -6.536  38.299  59.893  1.00  0.00     0.111 A 
ATOM      6  C   UNL     1      -7.273  39.523  59.876  1.00  0.00     0.134 A 
ATOM      7  C   UNL     1      -6.753  40.651  60.523  1.00  0.00     0.093 A 
ATOM      8  C   UNL     1      -5.495  40.617  61.131  1.00  0.00     0.123 A 
ATOM      9  C   UNL     1      -4.746  39.444  61.105  1.00  0.00     0.094 A 
ATOM     10  C   UNL     1      -5.253  38.291  60.501  1.00  0.00     0.146 A 
ATOM     11  O   UNL     1      -4.514  37.189  60.519  1.00  0.00    -0.452 OA
ENDROOT
BRANCH   1  12
ATOM     12  C   UNL     1      -3.987  34.877  60.085  1.00  0.00     0.025 A 
ATOM     13  C   UNL     1      -3.853  34.131  61.269  1.00  0.00     0.016 A 
ATOM     14  C   UNL     1      -2.956  33.061  61.332  1.00  0.00     0.051 A 
ATOM     15  C   UNL     1      -2.171  32.731  60.219  1.00  0.00     0.157 A 
ATOM     16  C   UNL     1      -3.182  34.557  58.981  1.00  0.00     0.062 A 
ATOM     17  C   UNL     1      -2.282  33.483  59.042  1.00  0.00     0.158 A 
BRANCH  15  18
ATOM     18  O   UNL     1      -1.277  31.664  60.277  1.00  0.00    -0.504 OA
ATOM     19  H   UNL     1      -1.213  31.071  61.095  1.00  0.00     0.293 HD
ENDBRANCH  15  18
BRANCH  17  20
ATOM     20  O   UNL     1      -1.496  33.158  57.939  1.00  0.00    -0.504 OA
ATOM     21  H   UNL     1      -1.474  32.218  57.561  1.00  0.00     0.293 HD
ENDBRANCH  17  20
ENDBRANCH   1  12
BRANCH   2  22
ATOM     22  O   UNL     1      -6.586  34.737  58.810  1.00  0.00    -0.502 OA
ATOM     23  H   UNL     1      -7.027  33.995  59.342  1.00  0.00     0.293 HD
ENDBRANCH   2  22
BRANCH   6  24
ATOM     24  O   UNL     1      -8.497  39.691  59.222  1.00  0.00    -0.507 OA
ATOM     25  H   UNL     1      -9.389  39.788  59.682  1.00  0.00     0.293 HD
ENDBRANCH   6  24
BRANCH   8  26
ATOM     26  O   UNL     1      -4.979  41.748  61.759  1.00  0.00    -0.508 OA
ATOM     27  H   UNL     1      -5.424  42.152  62.575  1.00  0.00     0.293 HD
ENDBRANCH   8  26
TORSDOF 6
ENDMDL
MODEL 2
REMARK VINA RESULT:    -6.624     15.008     16.806
REMARK INTER + INTRA:          -8.279
REMARK INTER:                  -7.950
REMARK INTRA:                  -0.330
REMARK UNBOUND:                -0.300
REMARK SMILES O=c1c(O)c(-c2ccc(O)c(O)c2)oc2cc(O)cc(O)c12
REMARK SMILES IDX 5 1 3 2 2 3 1 4 22 5 20 6 19 7 17 8 16 9 15 10 14 11 6 12
REMARK SMILES IDX 7 13 8 14 9 15 13 16 11 17 10 18 12 20 4 22 21 24 18 26
REMARK H PARENT 10 19 12 21 4 23 21 25 18 27
REMARK Flexibility Score: inf
ROOT
ATOM      1  C   UNL     1     -16.265  27.918  51.907  1.00  0.00     0.180 A 
ATOM      2  C   UNL     1     -15.435  27.859  50.774  1.00  0.00     0.208 A 
ATOM      3  C   UNL     1     -15.702  28.708  49.689  1.00  0.00     0.238 A 
ATOM      4  O   UNL     1     -15.001  28.599  48.649  1.00  0.00    -0.285 OA
ATOM      5  C   UNL     1     -16.761  29.646  49.772  1.00  0.00     0.111 A 
ATOM      6  C   UNL     1     -17.094  30.587  48.749  1.00  0.00     0.134 A 
ATOM      7  C   UNL     1     -18.229  31.393  48.897  1.00  0.00     0.093 A 
ATOM      8  C   UNL     1     -19.006  31.339  50.058  1.00  0.00     0.123 A 
ATOM      9  C   UNL     1     -18.657  30.463  51.083  1.00  0.00     0.094 A 
ATOM     10  C   UNL     1     -17.553  29.619  50.949  1.00  0.00     0.146 A 
ATOM     11  O   UNL     1     -17.270  28.784  51.943  1.00  0.00    -0.452 OA
ENDROOT
BRANCH   1  12
ATOM     12  C   UNL     1     -16.055  27.046  53.085  1.00  0.00     0.025 A 
ATOM     13  C   UNL     1     -16.605  25.753  53.146  1.00  0.00     0.016 A 
ATOM     14  C   UNL     1     -16.415  24.956  54.278  1.00  0.00     0.051 A 
ATOM     15  C   UNL     1     -15.686  25.445  55.370  1.00  0.00     0.157 A 
ATOM     16  C   UNL     1     -15.344  27.538  54.191  1.00  0.00     0.062 A 
ATOM     17  C   UNL     1     -15.152  26.739  55.329  1.00  0.00     0.158 A 
BRANCH  15  18
ATOM     18  O   UNL     1     -15.492  24.653  56.501  1.00  0.00    -0.504 OA
ATOM     19  H   UNL     1     -15.954  24.860  57.378  1.00  0.00     0.293 HD
ENDBRANCH  15  18
BRANCH  17  20
ATOM     20  O   UNL     1     -14.434  27.225  56.419  1.00  0.00    -0.504 OA
ATOM     21  H   UNL     1     -13.500  27.605  56.313  1.00  0.00     0.293 HD
ENDBRANCH  17  20
ENDBRANCH   1  12
BRANCH   2  22
ATOM     22  O   UNL     1     -14.348  26.982  50.744  1.00  0.00    -0.502 OA
ATOM     23  H   UNL     1     -13.565  27.062  51.382  1.00  0.00     0.293 HD
ENDBRANCH   2  22
BRANCH   6  24
ATOM     24  O   UNL     1     -16.337  30.786  47.591  1.00  0.00    -0.507 OA
ATOM     25  H   UNL     1     -16.658  30.603  46.653  1.00  0.00     0.293 HD
ENDBRANCH   6  24
BRANCH   8  26
ATOM     26  O   UNL     1     -20.124  32.157  50.203  1.00  0.00    -0.508 OA
ATOM     27  H   UNL     1     -20.840  32.208  49.487  1.00  0.00     0.293 HD
ENDBRANCH   8  26
TORSDOF 6
ENDMDL
MODEL 3
REMARK VINA RESULT:    -6.473      1.669      7.169
REMARK INTER + INTRA:          -8.097
REMARK INTER:                  -7.785
REMARK INTRA:                  -0.313
REMARK UNBOUND:                -0.300
REMARK SMILES O=c1c(O)c(-c2ccc(O)c(O)c2)oc2cc(O)cc(O)c12
REMARK SMILES IDX 5 1 3 2 2 3 1 4 22 5 20 6 19 7 17 8 16 9 15 10 14 11 6 12
REMARK SMILES IDX 7 13 8 14 9 15 13 16 11 17 10 18 12 20 4 22 21 24 18 26
REMARK H PARENT 10 19 12 21 4 23 21 25 18 27
REMARK Flexibility Score: inf
ROOT
ATOM      1  C   UNL     1      -3.940  36.083  59.604  1.00  0.00     0.180 A 
ATOM      2  C   UNL     1      -2.744  36.255  58.887  1.00  0.00     0.208 A 
ATOM      3  C   UNL     1      -1.764  35.252  58.947  1.00  0.00     0.238 A 
ATOM      4  O   UNL     1      -0.666  35.446  58.363  1.00  0.00    -0.285 OA
ATOM      5  C   UNL     1      -2.014  34.065  59.677  1.00  0.00     0.111 A 
ATOM      6  C   UNL     1      -1.109  32.963  59.769  1.00  0.00     0.134 A 
ATOM      7  C   UNL     1      -1.418  31.884  60.608  1.00  0.00     0.093 A 
ATOM      8  C   UNL     1      -2.628  31.838  61.306  1.00  0.00     0.123 A 
ATOM      9  C   UNL     1      -3.540  32.882  61.179  1.00  0.00     0.094 A 
ATOM     10  C   UNL     1      -3.244  33.989  60.381  1.00  0.00     0.146 A 
ATOM     11  O   UNL     1      -4.133  34.973  60.306  1.00  0.00    -0.452 OA
ENDROOT
BRANCH   1  12
ATOM     12  C   UNL     1      -5.016  37.101  59.601  1.00  0.00     0.025 A 
ATOM     13  C   UNL     1      -4.952  38.235  60.430  1.00  0.00     0.016 A 
ATOM     14  C   UNL     1      -5.990  39.171  60.429  1.00  0.00     0.051 A 
ATOM     15  C   UNL     1      -7.112  38.979  59.612  1.00  0.00     0.157 A 
ATOM     16  C   UNL     1      -6.152  36.903  58.801  1.00  0.00     0.062 A 
ATOM     17  C   UNL     1      -7.195  37.841  58.799  1.00  0.00     0.158 A 
BRANCH  15  18
ATOM     18  O   UNL     1      -8.149  39.910  59.607  1.00  0.00    -0.504 OA
ATOM     19  H   UNL     1      -8.753  40.035  60.410  1.00  0.00     0.293 HD
ENDBRANCH  15  18
BRANCH  17  20
ATOM     20  O   UNL     1      -8.315  37.649  57.992  1.00  0.00    -0.504 OA
ATOM     21  H   UNL     1      -9.234  37.490  58.388  1.00  0.00     0.293 HD
ENDBRANCH  17  20
ENDBRANCH   1  12
BRANCH   2  22
ATOM     22  O   UNL     1      -2.549  37.400  58.110  1.00  0.00    -0.502 OA
ATOM     23  H   UNL     1      -2.144  37.365  57.182  1.00  0.00     0.293 HD
ENDBRANCH   2  22
BRANCH   6  24
ATOM     24  O   UNL     1       0.084  32.866  59.047  1.00  0.00    -0.507 OA
ATOM     25  H   UNL     1       0.351  32.079  58.475  1.00  0.00     0.293 HD
ENDBRANCH   6  24
BRANCH   8  26
ATOM     26  O   UNL     1      -2.934  30.753  62.125  1.00  0.00    -0.508 OA
ATOM     27  H   UNL     1      -2.564  29.828  61.940  1.00  0.00     0.293 HD
ENDBRANCH   8  26
TORSDOF 6
ENDMDL
MODEL 4
REMARK VINA RESULT:    -6.462     15.700     17.078
REMARK INTER + INTRA:          -8.084
REMARK INTER:                  -7.824
REMARK INTRA:                  -0.260
REMARK UNBOUND:                -0.300
REMARK SMILES O=c1c(O)c(-c2ccc(O)c(O)c2)oc2cc(O)cc(O)c12
REMARK SMILES IDX 5 1 3 2 2 3 1 4 22 5 20 6 19 7 17 8 16 9 15 10 14 11 6 12
REMARK SMILES IDX 7 13 8 14 9 15 13 16 11 17 10 18 12 20 4 22 21 24 18 26
REMARK H PARENT 10 19 12 21 4 23 21 25 18 27
REMARK Flexibility Score: inf
ROOT
ATOM      1  C   UNL     1     -16.873  27.740  52.066  1.00  0.00     0.180 A 
ATOM      2  C   UNL     1     -17.581  27.129  51.017  1.00  0.00     0.208 A 
ATOM      3  C   UNL     1     -17.950  27.901  49.904  1.00  0.00     0.238 A 
ATOM      4  O   UNL     1     -18.648  27.367  49.003  1.00  0.00    -0.285 OA
ATOM      5  C   UNL     1     -17.558  29.260  49.827  1.00  0.00     0.111 A 
ATOM      6  C   UNL     1     -17.838  30.125  48.725  1.00  0.00     0.134 A 
ATOM      7  C   UNL     1     -17.493  31.480  48.806  1.00  0.00     0.093 A 
ATOM      8  C   UNL     1     -16.820  31.987  49.922  1.00  0.00     0.123 A 
ATOM      9  C   UNL     1     -16.494  31.139  50.977  1.00  0.00     0.094 A 
ATOM     10  C   UNL     1     -16.859  29.792  50.942  1.00  0.00     0.146 A 
ATOM     11  O   UNL     1     -16.547  29.025  51.980  1.00  0.00    -0.452 OA
ENDROOT
BRANCH   1  12
ATOM     12  C   UNL     1     -16.460  26.996  53.278  1.00  0.00     0.025 A 
ATOM     13  C   UNL     1     -15.394  26.080  53.246  1.00  0.00     0.016 A 
ATOM     14  C   UNL     1     -15.037  25.370  54.396  1.00  0.00     0.051 A 
ATOM     15  C   UNL     1     -15.750  25.555  55.588  1.00  0.00     0.157 A 
ATOM     16  C   UNL     1     -17.184  27.160  54.469  1.00  0.00     0.062 A 
ATOM     17  C   UNL     1     -16.827  26.449  55.624  1.00  0.00     0.158 A 
BRANCH  15  18
ATOM     18  O   UNL     1     -15.396  24.850  56.738  1.00  0.00    -0.504 OA
ATOM     19  H   UNL     1     -16.081  24.328  57.270  1.00  0.00     0.293 HD
ENDBRANCH  15  18
BRANCH  17  20
ATOM     20  O   UNL     1     -17.538  26.625  56.809  1.00  0.00    -0.504 OA
ATOM     21  H   UNL     1     -18.549  26.566  56.836  1.00  0.00     0.293 HD
ENDBRANCH  17  20
ENDBRANCH   1  12
BRANCH   2  22
ATOM     22  O   UNL     1     -17.892  25.769  51.077  1.00  0.00    -0.502 OA
ATOM     23  H   UNL     1     -18.810  25.431  51.340  1.00  0.00     0.293 HD
ENDBRANCH   2  22
BRANCH   6  24
ATOM     24  O   UNL     1     -18.425  29.704  47.528  1.00  0.00    -0.507 OA
ATOM     25  H   UNL     1     -17.941  29.227  46.784  1.00  0.00     0.293 HD
ENDBRANCH   6  24
BRANCH   8  26
ATOM     26  O   UNL     1     -16.466  33.333  49.986  1.00  0.00    -0.508 OA
ATOM     27  H   UNL     1     -16.762  33.994  49.277  1.00  0.00     0.293 HD
ENDBRANCH   8  26
TORSDOF 6
ENDMDL
MODEL 5
REMARK VINA RESULT:    -6.390     16.150     17.646
REMARK INTER + INTRA:          -7.998
REMARK INTER:                  -8.079
REMARK INTRA:                   0.081
REMARK UNBOUND:                -0.300
REMARK SMILES O=c1c(O)c(-c2ccc(O)c(O)c2)oc2cc(O)cc(O)c12
REMARK SMILES IDX 5 1 3 2 2 3 1 4 22 5 20 6 19 7 17 8 16 9 15 10 14 11 6 12
REMARK SMILES IDX 7 13 8 14 9 15 13 16 11 17 10 18 12 20 4 22 21 24 18 26
REMARK H PARENT 10 19 12 21 4 23 21 25 18 27
REMARK Flexibility Score: inf
ROOT
ATOM      1  C   UNL     1     -17.052  31.057  50.171  1.00  0.00     0.180 A 
ATOM      2  C   UNL     1     -18.058  31.087  51.151  1.00  0.00     0.208 A 
ATOM      3  C   UNL     1     -18.091  30.076  52.124  1.00  0.00     0.238 A 
ATOM      4  O   UNL     1     -19.037  30.067  52.954  1.00  0.00    -0.285 OA
ATOM      5  C   UNL     1     -17.085  29.079  52.139  1.00  0.00     0.111 A 
ATOM      6  C   UNL     1     -16.994  28.030  53.106  1.00  0.00     0.134 A 
ATOM      7  C   UNL     1     -16.018  27.038  52.958  1.00  0.00     0.093 A 
ATOM      8  C   UNL     1     -15.088  27.091  51.916  1.00  0.00     0.123 A 
ATOM      9  C   UNL     1     -15.135  28.138  51.000  1.00  0.00     0.094 A 
ATOM     10  C   UNL     1     -16.121  29.122  51.098  1.00  0.00     0.146 A 
ATOM     11  O   UNL     1     -16.141  30.091  50.190  1.00  0.00    -0.452 OA
ENDROOT
BRANCH   1  12
ATOM     12  C   UNL     1     -16.958  32.081  49.104  1.00  0.00     0.025 A 
ATOM     13  C   UNL     1     -17.106  33.450  49.390  1.00  0.00     0.016 A 
ATOM     14  C   UNL     1     -17.038  34.397  48.364  1.00  0.00     0.051 A 
ATOM     15  C   UNL     1     -16.838  33.989  47.039  1.00  0.00     0.157 A 
ATOM     16  C   UNL     1     -16.780  31.677  47.772  1.00  0.00     0.062 A 
ATOM     17  C   UNL     1     -16.712  32.626  46.742  1.00  0.00     0.158 A 
BRANCH  15  18
ATOM     18  O   UNL     1     -16.769  34.930  46.013  1.00  0.00    -0.504 OA
ATOM     19  H   UNL     1     -17.541  35.075  45.375  1.00  0.00     0.293 HD
ENDBRANCH  15  18
BRANCH  17  20
ATOM     20  O   UNL     1     -16.520  32.222  45.422  1.00  0.00    -0.504 OA
ATOM     21  H   UNL     1     -15.671  31.754  45.128  1.00  0.00     0.293 HD
ENDBRANCH  17  20
ENDBRANCH   1  12
BRANCH   2  22
ATOM     22  O   UNL     1     -18.995  32.123  51.166  1.00  0.00    -0.502 OA
ATOM     23  H   UNL     1     -19.027  32.818  51.902  1.00  0.00     0.293 HD
ENDBRANCH   2  22
BRANCH   6  24
ATOM     24  O   UNL     1     -17.815  27.932  54.234  1.00  0.00    -0.507 OA
ATOM     25  H   UNL     1     -17.507  28.062  55.185  1.00  0.00     0.293 HD
ENDBRANCH   6  24
BRANCH   8  26
ATOM     26  O   UNL     1     -14.110  26.108  51.786  1.00  0.00    -0.508 OA
ATOM     27  H   UNL     1     -13.125  26.343  51.731  1.00  0.00     0.293 HD
ENDBRANCH   8  26
TORSDOF 6
ENDMDL
MODEL 6
REMARK VINA RESULT:    -6.265     16.357     17.576
REMARK INTER + INTRA:          -7.848
REMARK INTER:                  -7.565
REMARK INTRA:                  -0.283
REMARK UNBOUND:                -0.300
REMARK SMILES O=c1c(O)c(-c2ccc(O)c(O)c2)oc2cc(O)cc(O)c12
REMARK SMILES IDX 5 1 3 2 2 3 1 4 22 5 20 6 19 7 17 8 16 9 15 10 14 11 6 12
REMARK SMILES IDX 7 13 8 14 9 15 13 16 11 17 10 18 12 20 4 22 21 24 18 26
REMARK H PARENT 10 19 12 21 4 23 21 25 18 27
REMARK Flexibility Score: inf
ROOT
ATOM      1  C   UNL     1     -16.799  27.253  51.712  1.00  0.00     0.180 A 
ATOM      2  C   UNL     1     -17.834  28.110  52.123  1.00  0.00     0.208 A 
ATOM      3  C   UNL     1     -18.200  28.134  53.478  1.00  0.00     0.238 A 
ATOM      4  O   UNL     1     -19.176  28.848  53.827  1.00  0.00    -0.285 OA
ATOM      5  C   UNL     1     -17.489  27.344  54.415  1.00  0.00     0.111 A 
ATOM      6  C   UNL     1     -17.745  27.324  55.820  1.00  0.00     0.134 A 
ATOM      7  C   UNL     1     -17.049  26.423  56.636  1.00  0.00     0.093 A 
ATOM      8  C   UNL     1     -16.061  25.587  56.107  1.00  0.00     0.123 A 
ATOM      9  C   UNL     1     -15.767  25.638  54.747  1.00  0.00     0.094 A 
ATOM     10  C   UNL     1     -16.471  26.499  53.902  1.00  0.00     0.146 A 
ATOM     11  O   UNL     1     -16.172  26.499  52.608  1.00  0.00    -0.452 OA
ENDROOT
BRANCH   1  12
ATOM     12  C   UNL     1     -16.365  27.161  50.299  1.00  0.00     0.025 A 
ATOM     13  C   UNL     1     -17.128  26.468  49.343  1.00  0.00     0.016 A 
ATOM     14  C   UNL     1     -16.687  26.373  48.020  1.00  0.00     0.051 A 
ATOM     15  C   UNL     1     -15.471  26.957  47.638  1.00  0.00     0.157 A 
ATOM     16  C   UNL     1     -15.138  27.725  49.915  1.00  0.00     0.062 A 
ATOM     17  C   UNL     1     -14.694  27.632  48.588  1.00  0.00     0.158 A 
BRANCH  15  18
ATOM     18  O   UNL     1     -15.029  26.867  46.319  1.00  0.00    -0.504 OA
ATOM     19  H   UNL     1     -15.649  27.049  45.539  1.00  0.00     0.293 HD
ENDBRANCH  15  18
BRANCH  17  20
ATOM     20  O   UNL     1     -13.483  28.205  48.207  1.00  0.00    -0.504 OA
ATOM     21  H   UNL     1     -12.627  28.028  48.719  1.00  0.00     0.293 HD
ENDBRANCH  17  20
ENDBRANCH   1  12
BRANCH   2  22
ATOM     22  O   UNL     1     -18.471  28.939  51.197  1.00  0.00    -0.502 OA
ATOM     23  H   UNL     1     -18.200  28.974  50.221  1.00  0.00     0.293 HD
ENDBRANCH   2  22
BRANCH   6  24
ATOM     24  O   UNL     1     -18.645  28.177  56.465  1.00  0.00    -0.507 OA
ATOM     25  H   UNL     1     -18.739  28.269  57.465  1.00  0.00     0.293 HD
ENDBRANCH   6  24
BRANCH   8  26
ATOM     26  O   UNL     1     -15.362  24.705  56.929  1.00  0.00    -0.508 OA
ATOM     27  H   UNL     1     -15.834  23.965  57.435  1.00  0.00     0.293 HD
ENDBRANCH   8  26
TORSDOF 6
ENDMDL
MODEL 7
REMARK VINA RESULT:    -6.243     15.866     17.183
REMARK INTER + INTRA:          -7.821
REMARK INTER:                  -7.520
REMARK INTRA:                  -0.301
REMARK UNBOUND:                -0.300
REMARK SMILES O=c1c(O)c(-c2ccc(O)c(O)c2)oc2cc(O)cc(O)c12
REMARK SMILES IDX 5 1 3 2 2 3 1 4 22 5 20 6 19 7 17 8 16 9 15 10 14 11 6 12
REMARK SMILES IDX 7 13 8 14 9 15 13 16 11 17 10 18 12 20 4 22 21 24 18 26
REMARK H PARENT 10 19 12 21 4 23 21 25 18 27
REMARK Flexibility Score: inf
ROOT
ATOM      1  C   UNL     1     -16.612  29.316  50.392  1.00  0.00     0.180 A 
ATOM      2  C   UNL     1     -16.586  28.737  49.112  1.00  0.00     0.208 A 
ATOM      3  C   UNL     1     -16.666  29.572  47.986  1.00  0.00     0.238 A 
ATOM      4  O   UNL     1     -16.717  29.043  46.845  1.00  0.00    -0.285 OA
ATOM      5  C   UNL     1     -16.713  30.978  48.152  1.00  0.00     0.111 A 
ATOM      6  C   UNL     1     -16.751  31.922  47.080  1.00  0.00     0.134 A 
ATOM      7  C   UNL     1     -16.904  33.284  47.366  1.00  0.00     0.093 A 
ATOM      8  C   UNL     1     -16.957  33.743  48.685  1.00  0.00     0.123 A 
ATOM      9  C   UNL     1     -16.867  32.836  49.737  1.00  0.00     0.094 A 
ATOM     10  C   UNL     1     -16.752  31.467  49.484  1.00  0.00     0.146 A 
ATOM     11  O   UNL     1     -16.691  30.635  50.518  1.00  0.00    -0.452 OA
ENDROOT
BRANCH   1  12
ATOM     12  C   UNL     1     -16.546  28.501  51.628  1.00  0.00     0.025 A 
ATOM     13  C   UNL     1     -15.322  28.006  52.112  1.00  0.00     0.016 A 
ATOM     14  C   UNL     1     -15.286  27.219  53.266  1.00  0.00     0.051 A 
ATOM     15  C   UNL     1     -16.472  26.904  53.943  1.00  0.00     0.157 A 
ATOM     16  C   UNL     1     -17.732  28.164  52.297  1.00  0.00     0.062 A 
ATOM     17  C   UNL     1     -17.697  27.374  53.456  1.00  0.00     0.158 A 
BRANCH  15  18
ATOM     18  O   UNL     1     -16.439  26.120  55.096  1.00  0.00    -0.504 OA
ATOM     19  H   UNL     1     -17.225  26.085  55.734  1.00  0.00     0.293 HD
ENDBRANCH  15  18
BRANCH  17  20
ATOM     20  O   UNL     1     -18.876  27.054  54.127  1.00  0.00    -0.504 OA
ATOM     21  H   UNL     1     -19.447  26.264  53.850  1.00  0.00     0.293 HD
ENDBRANCH  17  20
ENDBRANCH   1  12
BRANCH   2  22
ATOM     22  O   UNL     1     -16.461  27.353  48.967  1.00  0.00    -0.502 OA
ATOM     23  H   UNL     1     -17.263  26.739  48.892  1.00  0.00     0.293 HD
ENDBRANCH   2  22
BRANCH   6  24
ATOM     24  O   UNL     1     -16.617  31.581  45.731  1.00  0.00    -0.507 OA
ATOM     25  H   UNL     1     -15.788  31.185  45.315  1.00  0.00     0.293 HD
ENDBRANCH   6  24
BRANCH   8  26
ATOM     26  O   UNL     1     -17.093  35.102  48.959  1.00  0.00    -0.508 OA
ATOM     27  H   UNL     1     -16.504  35.795  48.513  1.00  0.00     0.293 HD
ENDBRANCH   8  26
TORSDOF 6
ENDMDL
MODEL 8
REMARK VINA RESULT:    -6.210     15.571     17.513
REMARK INTER + INTRA:          -7.781
REMARK INTER:                  -7.551
REMARK INTRA:                  -0.230
REMARK UNBOUND:                -0.300
REMARK SMILES O=c1c(O)c(-c2ccc(O)c(O)c2)oc2cc(O)cc(O)c12
REMARK SMILES IDX 5 1 3 2 2 3 1 4 22 5 20 6 19 7 17 8 16 9 15 10 14 11 6 12
REMARK SMILES IDX 7 13 8 14 9 15 13 16 11 17 10 18 12 20 4 22 21 24 18 26
REMARK H PARENT 10 19 12 21 4 23 21 25 18 27
REMARK Flexibility Score: inf
ROOT
ATOM      1  C   UNL     1     -15.906  26.588  52.000  1.00  0.00     0.180 A 
ATOM      2  C   UNL     1     -17.129  26.477  51.316  1.00  0.00     0.208 A 
ATOM      3  C   UNL     1     -17.153  26.685  49.928  1.00  0.00     0.238 A 
ATOM      4  O   UNL     1     -18.263  26.657  49.333  1.00  0.00    -0.285 OA
ATOM      5  C   UNL     1     -15.947  26.945  49.233  1.00  0.00     0.111 A 
ATOM      6  C   UNL     1     -15.848  27.127  47.819  1.00  0.00     0.134 A 
ATOM      7  C   UNL     1     -14.618  27.486  47.254  1.00  0.00     0.093 A 
ATOM      8  C   UNL     1     -13.470  27.605  48.043  1.00  0.00     0.123 A 
ATOM      9  C   UNL     1     -13.546  27.376  49.414  1.00  0.00     0.094 A 
ATOM     10  C   UNL     1     -14.766  27.055  50.012  1.00  0.00     0.146 A 
ATOM     11  O   UNL     1     -14.797  26.866  51.326  1.00  0.00    -0.452 OA
ENDROOT
BRANCH   1  12
ATOM     12  C   UNL     1     -15.802  26.396  53.466  1.00  0.00     0.025 A 
ATOM     13  C   UNL     1     -15.229  25.234  54.012  1.00  0.00     0.016 A 
ATOM     14  C   UNL     1     -15.162  25.063  55.397  1.00  0.00     0.051 A 
ATOM     15  C   UNL     1     -15.681  26.043  56.255  1.00  0.00     0.157 A 
ATOM     16  C   UNL     1     -16.339  27.364  54.329  1.00  0.00     0.062 A 
ATOM     17  C   UNL     1     -16.273  27.194  55.720  1.00  0.00     0.158 A 
BRANCH  15  18
ATOM     18  O   UNL     1     -15.615  25.877  57.637  1.00  0.00    -0.504 OA
ATOM     19  H   UNL     1     -14.733  25.728  58.111  1.00  0.00     0.293 HD
ENDBRANCH  15  18
BRANCH  17  20
ATOM     20  O   UNL     1     -16.794  28.163  56.574  1.00  0.00    -0.504 OA
ATOM     21  H   UNL     1     -17.488  28.831  56.260  1.00  0.00     0.293 HD
ENDBRANCH  17  20
ENDBRANCH   1  12
BRANCH   2  22
ATOM     22  O   UNL     1     -18.295  26.143  52.009  1.00  0.00    -0.502 OA
ATOM     23  H   UNL     1     -18.794  26.808  52.588  1.00  0.00     0.293 HD
ENDBRANCH   2  22
BRANCH   6  24
ATOM     24  O   UNL     1     -16.911  26.945  46.929  1.00  0.00    -0.507 OA
ATOM     25  H   UNL     1     -17.744  27.512  46.901  1.00  0.00     0.293 HD
ENDBRANCH   6  24
BRANCH   8  26
ATOM     26  O   UNL     1     -12.247  27.946  47.469  1.00  0.00    -0.508 OA
ATOM     27  H   UNL     1     -12.190  28.341  46.538  1.00  0.00     0.293 HD
ENDBRANCH   8  26
TORSDOF 6
ENDMDL
MODEL 9
REMARK VINA RESULT:    -6.208      1.491      3.213
REMARK INTER + INTRA:          -7.779
REMARK INTER:                  -7.456
REMARK INTRA:                  -0.322
REMARK UNBOUND:                -0.300
REMARK SMILES O=c1c(O)c(-c2ccc(O)c(O)c2)oc2cc(O)cc(O)c12
REMARK SMILES IDX 5 1 3 2 2 3 1 4 22 5 20 6 19 7 17 8 16 9 15 10 14 11 6 12
REMARK SMILES IDX 7 13 8 14 9 15 13 16 11 17 10 18 12 20 4 22 21 24 18 26
REMARK H PARENT 10 19 12 21 4 23 21 25 18 27
REMARK Flexibility Score: inf
ROOT
ATOM      1  C   UNL     1      -3.623  35.285  60.805  1.00  0.00     0.180 A 
ATOM      2  C   UNL     1      -3.035  36.415  61.400  1.00  0.00     0.208 A 
ATOM      3  C   UNL     1      -3.671  37.660  61.272  1.00  0.00     0.238 A 
ATOM      4  O   UNL     1      -3.103  38.679  61.743  1.00  0.00    -0.285 OA
ATOM      5  C   UNL     1      -4.915  37.751  60.600  1.00  0.00     0.111 A 
ATOM      6  C   UNL     1      -5.671  38.954  60.449  1.00  0.00     0.134 A 
ATOM      7  C   UNL     1      -6.836  38.944  59.672  1.00  0.00     0.093 A 
ATOM      8  C   UNL     1      -7.307  37.762  59.094  1.00  0.00     0.123 A 
ATOM      9  C   UNL     1      -6.606  36.574  59.281  1.00  0.00     0.094 A 
ATOM     10  C   UNL     1      -5.420  36.559  60.018  1.00  0.00     0.146 A 
ATOM     11  O   UNL     1      -4.773  35.407  60.152  1.00  0.00    -0.452 OA
ENDROOT
BRANCH   1  12
ATOM     12  C   UNL     1      -3.006  33.941  60.885  1.00  0.00     0.025 A 
ATOM     13  C   UNL     1      -3.266  33.080  61.966  1.00  0.00     0.016 A 
ATOM     14  C   UNL     1      -2.654  31.825  62.033  1.00  0.00     0.051 A 
ATOM     15  C   UNL     1      -1.763  31.420  61.030  1.00  0.00     0.157 A 
ATOM     16  C   UNL     1      -2.096  33.538  59.895  1.00  0.00     0.062 A 
ATOM     17  C   UNL     1      -1.481  32.279  59.961  1.00  0.00     0.158 A 
BRANCH  15  18
ATOM     18  O   UNL     1      -1.152  30.169  61.093  1.00  0.00    -0.504 OA
ATOM     19  H   UNL     1      -0.145  30.069  61.056  1.00  0.00     0.293 HD
ENDBRANCH  15  18
BRANCH  17  20
ATOM     20  O   UNL     1      -0.590  31.877  58.968  1.00  0.00    -0.504 OA
ATOM     21  H   UNL     1       0.006  31.066  59.087  1.00  0.00     0.293 HD
ENDBRANCH  17  20
ENDBRANCH   1  12
BRANCH   2  22
ATOM     22  O   UNL     1      -1.848  36.291  62.125  1.00  0.00    -0.502 OA
ATOM     23  H   UNL     1      -1.793  36.489  63.117  1.00  0.00     0.293 HD
ENDBRANCH   2  22
BRANCH   6  24
ATOM     24  O   UNL     1      -5.339  40.169  61.056  1.00  0.00    -0.507 OA
ATOM     25  H   UNL     1      -5.734  41.063  60.812  1.00  0.00     0.293 HD
ENDBRANCH   6  24
BRANCH   8  26
ATOM     26  O   UNL     1      -8.476  37.759  58.336  1.00  0.00    -0.508 OA
ATOM     27  H   UNL     1      -9.239  38.395  58.536  1.00  0.00     0.293 HD
ENDBRANCH   8  26
TORSDOF 6
ENDMDL
