MODEL 1
REMARK VINA RESULT:    -5.214      0.000      0.000
REMARK INTER + INTRA:          -8.978
REMARK INTER:                  -8.262
REMARK INTRA:                  -0.716
REMARK UNBOUND:                -0.716
REMARK SMILES CCCCCCCCCCCC(=O)[O-]
REMARK SMILES IDX 7 1 8 2 9 3 10 4 11 5 12 6 13 7 14 8 6 9 5 10 4 11 3 12 2 13
REMARK SMILES IDX 1 14
REMARK H PARENT
REMARK Flexibility Score: inf
ROOT
ATOM      1  C   UNL     1      25.350  13.017  35.839  1.00  0.00     0.000 C 
ENDROOT
BRANCH   1   2
ATOM      2  C   UNL     1      26.675  13.230  35.089  1.00  0.00     0.000 C 
BRANCH   2   3
ATOM      3  C   UNL     1      27.592  11.994  35.140  1.00  0.00     0.000 C 
BRANCH   3   4
ATOM      4  C   UNL     1      28.267  11.705  33.791  1.00  0.00     0.006 C 
BRANCH   4   5
ATOM      5  C   UNL     1      27.255  11.496  32.658  1.00  0.00     0.053 C 
BRANCH   5   6
ATOM      6  C   UNL     1      27.932  11.599  31.327  1.00  0.00     0.041 C 
ATOM      7  O   UNL     1      27.830  10.663  30.490  1.00  0.00    -0.550 OA
ATOM      8  O   UNL     1      28.717  12.705  31.030  1.00  0.00    -0.550 OA
ENDBRANCH   5   6
ENDBRANCH   4   5
ENDBRANCH   3   4
ENDBRANCH   2   3
ENDBRANCH   1   2
BRANCH   1   9
ATOM      9  C   UNL     1      24.942  11.535  35.905  1.00  0.00     0.000 C 
BRANCH   9  10
ATOM     10  C   UNL     1      23.683  11.232  35.076  1.00  0.00    -0.000 C 
BRANCH  10  11
ATOM     11  C   UNL     1      22.777  12.460  34.902  1.00  0.00    -0.000 C 
BRANCH  11  12
ATOM     12  C   UNL     1      21.375  12.193  35.473  1.00  0.00    -0.000 C 
BRANCH  12  13
ATOM     13  C   UNL     1      20.487  13.446  35.471  1.00  0.00    -0.003 C 
ATOM     14  C   UNL     1      20.601  14.250  34.176  1.00  0.00     0.004 C 
ENDBRANCH  12  13
ENDBRANCH  11  12
ENDBRANCH  10  11
ENDBRANCH   9  10
ENDBRANCH   1   9
TORSDOF 10
ENDMDL
MODEL 2
REMARK VINA RESULT:    -5.146      1.583      2.335
REMARK INTER + INTRA:          -8.870
REMARK INTER:                  -8.007
REMARK INTRA:                  -0.863
REMARK UNBOUND:                -0.716
REMARK SMILES CCCCCCCCCCCC(=O)[O-]
REMARK SMILES IDX 7 1 8 2 9 3 10 4 11 5 12 6 13 7 14 8 6 9 5 10 4 11 3 12 2 13
REMARK SMILES IDX 1 14
REMARK H PARENT
REMARK Flexibility Score: inf
ROOT
ATOM      1  C   UNL     1      26.860  11.306  34.777  1.00  0.00     0.000 C 
ENDROOT
BRANCH   1   2
ATOM      2  C   UNL     1      27.325  12.763  34.931  1.00  0.00     0.000 C 
BRANCH   2   3
ATOM      3  C   UNL     1      27.252  13.553  33.610  1.00  0.00     0.000 C 
BRANCH   3   4
ATOM      4  C   UNL     1      26.264  12.936  32.608  1.00  0.00     0.006 C 
BRANCH   4   5
ATOM      5  C   UNL     1      26.752  13.043  31.158  1.00  0.00     0.053 C 
BRANCH   5   6
ATOM      6  C   UNL     1      27.960  12.185  30.950  1.00  0.00     0.041 C 
ATOM      7  O   UNL     1      29.069  12.710  30.665  1.00  0.00    -0.550 OA
ATOM      8  O   UNL     1      27.853  10.802  31.020  1.00  0.00    -0.550 OA
ENDBRANCH   5   6
ENDBRANCH   4   5
ENDBRANCH   3   4
ENDBRANCH   2   3
ENDBRANCH   1   2
BRANCH   1   9
ATOM      9  C   UNL     1      25.535  11.030  35.509  1.00  0.00     0.000 C 
BRANCH   9  10
ATOM     10  C   UNL     1      24.872  12.315  36.032  1.00  0.00    -0.000 C 
BRANCH  10  11
ATOM     11  C   UNL     1      23.439  12.499  35.510  1.00  0.00    -0.000 C 
BRANCH  11  12
ATOM     12  C   UNL     1      22.854  11.160  35.033  1.00  0.00    -0.000 C 
BRANCH  12  13
ATOM     13  C   UNL     1      21.585  10.763  35.802  1.00  0.00    -0.003 C 
ATOM     14  C   UNL     1      21.025   9.411  35.361  1.00  0.00     0.004 C 
ENDBRANCH  12  13
ENDBRANCH  11  12
ENDBRANCH  10  11
ENDBRANCH   9  10
ENDBRANCH   1   9
TORSDOF 10
ENDMDL
MODEL 3
REMARK VINA RESULT:    -5.111      1.277      1.740
REMARK INTER + INTRA:          -8.816
REMARK INTER:                  -7.980
REMARK INTRA:                  -0.835
REMARK UNBOUND:                -0.716
REMARK SMILES CCCCCCCCCCCC(=O)[O-]
REMARK SMILES IDX 7 1 8 2 9 3 10 4 11 5 12 6 13 7 14 8 6 9 5 10 4 11 3 12 2 13
REMARK SMILES IDX 1 14
REMARK H PARENT
REMARK Flexibility Score: inf
ROOT
ATOM      1  C   UNL     1      24.046  12.406  35.842  1.00  0.00     0.000 C 
ENDROOT
BRANCH   1   2
ATOM      2  C   UNL     1      25.584  12.387  35.843  1.00  0.00     0.000 C 
BRANCH   2   3
ATOM      3  C   UNL     1      26.164  11.164  35.110  1.00  0.00     0.000 C 
BRANCH   3   4
ATOM      4  C   UNL     1      27.658  11.322  34.789  1.00  0.00     0.006 C 
BRANCH   4   5
ATOM      5  C   UNL     1      27.993  12.703  34.209  1.00  0.00     0.053 C 
BRANCH   5   6
ATOM      6  C   UNL     1      27.601  12.772  32.767  1.00  0.00     0.041 C 
ATOM      7  O   UNL     1      28.348  12.276  31.882  1.00  0.00    -0.550 OA
ATOM      8  O   UNL     1      26.435  13.427  32.393  1.00  0.00    -0.550 OA
ENDBRANCH   5   6
ENDBRANCH   4   5
ENDBRANCH   3   4
ENDBRANCH   2   3
ENDBRANCH   1   2
BRANCH   1   9
ATOM      9  C   UNL     1      23.444  11.203  35.095  1.00  0.00     0.000 C 
BRANCH   9  10
ATOM     10  C   UNL     1      22.138  10.705  35.736  1.00  0.00    -0.000 C 
BRANCH  10  11
ATOM     11  C   UNL     1      20.886  11.189  34.989  1.00  0.00    -0.000 C 
BRANCH  11  12
ATOM     12  C   UNL     1      20.172  12.298  35.778  1.00  0.00    -0.000 C 
BRANCH  12  13
ATOM     13  C   UNL     1      20.572  13.706  35.313  1.00  0.00    -0.003 C 
ATOM     14  C   UNL     1      20.528  13.861  33.793  1.00  0.00     0.004 C 
ENDBRANCH  12  13
ENDBRANCH  11  12
ENDBRANCH  10  11
ENDBRANCH   9  10
ENDBRANCH   1   9
TORSDOF 10
ENDMDL
MODEL 4
REMARK VINA RESULT:    -5.073      4.362      7.019
REMARK INTER + INTRA:          -8.755
REMARK INTER:                  -8.054
REMARK INTRA:                  -0.702
REMARK UNBOUND:                -0.716
REMARK SMILES CCCCCCCCCCCC(=O)[O-]
REMARK SMILES IDX 7 1 8 2 9 3 10 4 11 5 12 6 13 7 14 8 6 9 5 10 4 11 3 12 2 13
REMARK SMILES IDX 1 14
REMARK H PARENT
REMARK Flexibility Score: inf
ROOT
ATOM      1  C   UNL     1      24.717  12.376  36.018  1.00  0.00     0.000 C 
ENDROOT
BRANCH   1   2
ATOM      2  C   UNL     1      23.191  12.438  35.838  1.00  0.00     0.000 C 
BRANCH   2   3
ATOM      3  C   UNL     1      22.553  11.044  35.691  1.00  0.00     0.000 C 
BRANCH   3   4
ATOM      4  C   UNL     1      21.030  11.109  35.502  1.00  0.00     0.006 C 
BRANCH   4   5
ATOM      5  C   UNL     1      20.498  12.548  35.496  1.00  0.00     0.053 C 
BRANCH   5   6
ATOM      6  C   UNL     1      19.019  12.559  35.717  1.00  0.00     0.041 C 
ATOM      7  O   UNL     1      18.520  13.266  36.632  1.00  0.00    -0.550 OA
ATOM      8  O   UNL     1      18.194  11.751  34.946  1.00  0.00    -0.550 OA
ENDBRANCH   5   6
ENDBRANCH   4   5
ENDBRANCH   3   4
ENDBRANCH   2   3
ENDBRANCH   1   2
BRANCH   1   9
ATOM      9  C   UNL     1      25.309  11.030  35.565  1.00  0.00     0.000 C 
BRANCH   9  10
ATOM     10  C   UNL     1      26.160  11.159  34.291  1.00  0.00    -0.000 C 
BRANCH  10  11
ATOM     11  C   UNL     1      27.667  11.204  34.585  1.00  0.00    -0.000 C 
BRANCH  11  12
ATOM     12  C   UNL     1      28.312  12.448  33.952  1.00  0.00    -0.000 C 
BRANCH  12  13
ATOM     13  C   UNL     1      27.343  13.637  33.867  1.00  0.00    -0.003 C 
ATOM     14  C   UNL     1      27.438  14.564  35.078  1.00  0.00     0.004 C 
ENDBRANCH  12  13
ENDBRANCH  11  12
ENDBRANCH  10  11
ENDBRANCH   9  10
ENDBRANCH   1   9
TORSDOF 10
ENDMDL
MODEL 5
REMARK VINA RESULT:    -5.042      1.559      2.256
REMARK INTER + INTRA:          -8.705
REMARK INTER:                  -8.029
REMARK INTRA:                  -0.676
REMARK UNBOUND:                -0.716
REMARK SMILES CCCCCCCCCCCC(=O)[O-]
REMARK SMILES IDX 7 1 8 2 9 3 10 4 11 5 12 6 13 7 14 8 6 9 5 10 4 11 3 12 2 13
REMARK SMILES IDX 1 14
REMARK H PARENT
REMARK Flexibility Score: inf
ROOT
ATOM      1  C   UNL     1      25.224  11.141  35.761  1.00  0.00     0.000 C 
ENDROOT
BRANCH   1   2
ATOM      2  C   UNL     1      26.451  11.127  34.835  1.00  0.00     0.000 C 
BRANCH   2   3
ATOM      3  C   UNL     1      27.380  12.335  35.061  1.00  0.00     0.000 C 
BRANCH   3   4
ATOM      4  C   UNL     1      27.781  13.024  33.748  1.00  0.00     0.006 C 
BRANCH   4   5
ATOM      5  C   UNL     1      26.957  12.534  32.550  1.00  0.00     0.053 C 
BRANCH   5   6
ATOM      6  C   UNL     1      27.858  12.022  31.471  1.00  0.00     0.041 C 
ATOM      7  O   UNL     1      27.744  10.837  31.059  1.00  0.00    -0.550 OA
ATOM      8  O   UNL     1      28.857  12.836  30.954  1.00  0.00    -0.550 OA
ENDBRANCH   5   6
ENDBRANCH   4   5
ENDBRANCH   3   4
ENDBRANCH   2   3
ENDBRANCH   1   2
BRANCH   1   9
ATOM      9  C   UNL     1      24.573  12.532  35.854  1.00  0.00     0.000 C 
BRANCH   9  10
ATOM     10  C   UNL     1      23.078  12.509  35.493  1.00  0.00    -0.000 C 
BRANCH  10  11
ATOM     11  C   UNL     1      22.614  11.141  34.970  1.00  0.00    -0.000 C 
BRANCH  11  12
ATOM     12  C   UNL     1      21.234  10.777  35.540  1.00  0.00    -0.000 C 
BRANCH  12  13
ATOM     13  C   UNL     1      20.981   9.262  35.553  1.00  0.00    -0.003 C 
ATOM     14  C   UNL     1      19.741   8.876  36.360  1.00  0.00     0.004 C 
ENDBRANCH  12  13
ENDBRANCH  11  12
ENDBRANCH  10  11
ENDBRANCH   9  10
ENDBRANCH   1   9
TORSDOF 10
ENDMDL
MODEL 6
REMARK VINA RESULT:    -4.787      2.409      3.401
REMARK INTER + INTRA:          -8.302
REMARK INTER:                  -7.790
REMARK INTRA:                  -0.512
REMARK UNBOUND:                -0.716
REMARK SMILES CCCCCCCCCCCC(=O)[O-]
REMARK SMILES IDX 7 1 8 2 9 3 10 4 11 5 12 6 13 7 14 8 6 9 5 10 4 11 3 12 2 13
REMARK SMILES IDX 1 14
REMARK H PARENT
REMARK Flexibility Score: inf
ROOT
ATOM      1  C   UNL     1      23.769  12.363  35.396  1.00  0.00     0.000 C 
ENDROOT
BRANCH   1   2
ATOM      2  C   UNL     1      25.076  11.789  35.966  1.00  0.00     0.000 C 
BRANCH   2   3
ATOM      3  C   UNL     1      25.938  11.096  34.894  1.00  0.00     0.000 C 
BRANCH   3   4
ATOM      4  C   UNL     1      27.426  11.462  35.006  1.00  0.00     0.006 C 
BRANCH   4   5
ATOM      5  C   UNL     1      27.980  12.075  33.713  1.00  0.00     0.053 C 
BRANCH   5   6
ATOM      6  C   UNL     1      27.249  13.336  33.378  1.00  0.00     0.041 C 
ATOM      7  O   UNL     1      27.285  14.318  34.166  1.00  0.00    -0.550 OA
ATOM      8  O   UNL     1      26.486  13.412  32.220  1.00  0.00    -0.550 OA
ENDBRANCH   5   6
ENDBRANCH   4   5
ENDBRANCH   3   4
ENDBRANCH   2   3
ENDBRANCH   1   2
BRANCH   1   9
ATOM      9  C   UNL     1      22.597  11.371  35.498  1.00  0.00     0.000 C 
BRANCH   9  10
ATOM     10  C   UNL     1      21.231  12.076  35.547  1.00  0.00    -0.000 C 
BRANCH  10  11
ATOM     11  C   UNL     1      20.064  11.098  35.750  1.00  0.00    -0.000 C 
BRANCH  11  12
ATOM     12  C   UNL     1      20.562   9.644  35.754  1.00  0.00    -0.000 C 
BRANCH  12  13
ATOM     13  C   UNL     1      19.438   8.635  36.032  1.00  0.00    -0.003 C 
ATOM     14  C   UNL     1      19.415   8.161  37.485  1.00  0.00     0.004 C 
ENDBRANCH  12  13
ENDBRANCH  11  12
ENDBRANCH  10  11
ENDBRANCH   9  10
ENDBRANCH   1   9
TORSDOF 10
ENDMDL
MODEL 7
REMARK VINA RESULT:    -4.787      3.522      6.211
REMARK INTER + INTRA:          -8.301
REMARK INTER:                  -7.425
REMARK INTRA:                  -0.876
REMARK UNBOUND:                -0.716
REMARK SMILES CCCCCCCCCCCC(=O)[O-]
REMARK SMILES IDX 7 1 8 2 9 3 10 4 11 5 12 6 13 7 14 8 6 9 5 10 4 11 3 12 2 13
REMARK SMILES IDX 1 14
REMARK H PARENT
REMARK Flexibility Score: inf
ROOT
ATOM      1  C   UNL     1      26.212  10.850  35.062  1.00  0.00     0.000 C 
ENDROOT
BRANCH   1   2
ATOM      2  C   UNL     1      25.182  11.637  35.889  1.00  0.00     0.000 C 
BRANCH   2   3
ATOM      3  C   UNL     1      23.735  11.398  35.420  1.00  0.00     0.000 C 
BRANCH   3   4
ATOM      4  C   UNL     1      23.381  12.208  34.163  1.00  0.00     0.006 C 
BRANCH   4   5
ATOM      5  C   UNL     1      21.895  12.104  33.795  1.00  0.00     0.053 C 
BRANCH   5   6
ATOM      6  C   UNL     1      21.091  13.083  34.591  1.00  0.00     0.041 C 
ATOM      7  O   UNL     1      20.942  14.264  34.180  1.00  0.00    -0.550 OA
ATOM      8  O   UNL     1      20.546  12.706  35.812  1.00  0.00    -0.550 OA
ENDBRANCH   5   6
ENDBRANCH   4   5
ENDBRANCH   3   4
ENDBRANCH   2   3
ENDBRANCH   1   2
BRANCH   1   9
ATOM      9  C   UNL     1      27.577  11.558  34.993  1.00  0.00     0.000 C 
BRANCH   9  10
ATOM     10  C   UNL     1      27.445  13.090  34.957  1.00  0.00    -0.000 C 
BRANCH  10  11
ATOM     11  C   UNL     1      27.294  13.640  33.531  1.00  0.00    -0.000 C 
BRANCH  11  12
ATOM     12  C   UNL     1      28.023  12.743  32.518  1.00  0.00    -0.000 C 
BRANCH  12  13
ATOM     13  C   UNL     1      27.084  12.190  31.435  1.00  0.00    -0.003 C 
ATOM     14  C   UNL     1      27.605  10.898  30.804  1.00  0.00     0.004 C 
ENDBRANCH  12  13
ENDBRANCH  11  12
ENDBRANCH  10  11
ENDBRANCH   9  10
ENDBRANCH   1   9
TORSDOF 10
ENDMDL
MODEL 8
REMARK VINA RESULT:    -4.784      1.591      2.998
REMARK INTER + INTRA:          -8.296
REMARK INTER:                  -7.256
REMARK INTRA:                  -1.040
REMARK UNBOUND:                -0.716
REMARK SMILES CCCCCCCCCCCC(=O)[O-]
REMARK SMILES IDX 7 1 8 2 9 3 10 4 11 5 12 6 13 7 14 8 6 9 5 10 4 11 3 12 2 13
REMARK SMILES IDX 1 14
REMARK H PARENT
REMARK Flexibility Score: inf
ROOT
ATOM      1  C   UNL     1      22.967  12.503  34.916  1.00  0.00     0.000 C 
ENDROOT
BRANCH   1   2
ATOM      2  C   UNL     1      23.079  11.224  35.762  1.00  0.00     0.000 C 
BRANCH   2   3
ATOM      3  C   UNL     1      24.534  10.746  35.926  1.00  0.00     0.000 C 
BRANCH   3   4
ATOM      4  C   UNL     1      25.556  11.806  35.489  1.00  0.00     0.006 C 
BRANCH   4   5
ATOM      5  C   UNL     1      26.741  11.202  34.724  1.00  0.00     0.053 C 
BRANCH   5   6
ATOM      6  C   UNL     1      27.052  12.022  33.512  1.00  0.00     0.041 C 
ATOM      7  O   UNL     1      26.121  12.534  32.836  1.00  0.00    -0.550 OA
ATOM      8  O   UNL     1      28.369  12.181  33.099  1.00  0.00    -0.550 OA
ENDBRANCH   5   6
ENDBRANCH   4   5
ENDBRANCH   3   4
ENDBRANCH   2   3
ENDBRANCH   1   2
BRANCH   1   9
ATOM      9  C   UNL     1      22.516  12.217  33.473  1.00  0.00     0.000 C 
BRANCH   9  10
ATOM     10  C   UNL     1      21.253  13.002  33.084  1.00  0.00    -0.000 C 
BRANCH  10  11
ATOM     11  C   UNL     1      20.813  13.997  34.168  1.00  0.00    -0.000 C 
BRANCH  11  12
ATOM     12  C   UNL     1      19.388  13.686  34.651  1.00  0.00    -0.000 C 
BRANCH  12  13
ATOM     13  C   UNL     1      19.367  12.972  36.012  1.00  0.00    -0.003 C 
ATOM     14  C   UNL     1      19.373  11.450  35.880  1.00  0.00     0.004 C 
ENDBRANCH  12  13
ENDBRANCH  11  12
ENDBRANCH  10  11
ENDBRANCH   9  10
ENDBRANCH   1   9
TORSDOF 10
ENDMDL
MODEL 9
REMARK VINA RESULT:    -4.779      3.456      6.070
REMARK INTER + INTRA:          -8.289
REMARK INTER:                  -7.094
REMARK INTRA:                  -1.195
REMARK UNBOUND:                -0.716
REMARK SMILES CCCCCCCCCCCC(=O)[O-]
REMARK SMILES IDX 7 1 8 2 9 3 10 4 11 5 12 6 13 7 14 8 6 9 5 10 4 11 3 12 2 13
REMARK SMILES IDX 1 14
REMARK H PARENT
REMARK Flexibility Score: inf
ROOT
ATOM      1  C   UNL     1      25.617  12.995  31.971  1.00  0.00     0.000 C 
ENDROOT
BRANCH   1   2
ATOM      2  C   UNL     1      24.234  12.448  31.579  1.00  0.00     0.000 C 
BRANCH   2   3
ATOM      3  C   UNL     1      23.313  12.234  32.794  1.00  0.00     0.000 C 
BRANCH   3   4
ATOM      4  C   UNL     1      24.088  11.824  34.056  1.00  0.00     0.006 C 
BRANCH   4   5
ATOM      5  C   UNL     1      23.455  12.374  35.341  1.00  0.00     0.053 C 
BRANCH   5   6
ATOM      6  C   UNL     1      22.209  11.617  35.675  1.00  0.00     0.041 C 
ATOM      7  O   UNL     1      22.256  10.373  35.868  1.00  0.00    -0.550 OA
ATOM      8  O   UNL     1      20.986  12.274  35.725  1.00  0.00    -0.550 OA
ENDBRANCH   5   6
ENDBRANCH   4   5
ENDBRANCH   3   4
ENDBRANCH   2   3
ENDBRANCH   1   2
BRANCH   1   9
ATOM      9  C   UNL     1      26.759  12.323  31.189  1.00  0.00     0.000 C 
BRANCH   9  10
ATOM     10  C   UNL     1      27.589  11.368  32.063  1.00  0.00    -0.000 C 
BRANCH  10  11
ATOM     11  C   UNL     1      28.369  12.097  33.167  1.00  0.00    -0.000 C 
BRANCH  11  12
ATOM     12  C   UNL     1      27.972  11.573  34.556  1.00  0.00    -0.000 C 
BRANCH  12  13
ATOM     13  C   UNL     1      27.186  12.607  35.376  1.00  0.00    -0.003 C 
ATOM     14  C   UNL     1      27.558  14.047  35.023  1.00  0.00     0.004 C 
ENDBRANCH  12  13
ENDBRANCH  11  12
ENDBRANCH  10  11
ENDBRANCH   9  10
ENDBRANCH   1   9
TORSDOF 10
ENDMDL
