MODEL 1
REMARK VINA RESULT:    -3.879      0.000      0.000
REMARK INTER + INTRA:          -7.568
REMARK INTER:                  -6.147
REMARK INTRA:                  -1.421
REMARK UNBOUND:                -1.421
REMARK SMILES CCCCCCCCCCCC(=O)[O-]
REMARK SMILES IDX 7 1 8 2 9 3 10 4 11 5 12 6 13 7 14 8 6 9 5 10 4 11 3 12 2 13
REMARK SMILES IDX 1 14
REMARK H PARENT
REMARK Flexibility Score: inf
ROOT
ATOM      1  C   UNL     1      -8.437  -1.068 -41.444  1.00  0.00     0.000 C 
ENDROOT
BRANCH   1   2
ATOM      2  C   UNL     1      -9.960  -1.284 -41.536  1.00  0.00     0.000 C 
BRANCH   2   3
ATOM      3  C   UNL     1     -10.762   0.019 -41.379  1.00  0.00     0.000 C 
BRANCH   3   4
ATOM      4  C   UNL     1     -12.134  -0.205 -40.716  1.00  0.00     0.006 C 
BRANCH   4   5
ATOM      5  C   UNL     1     -12.172  -1.369 -39.713  1.00  0.00     0.053 C 
BRANCH   5   6
ATOM      6  C   UNL     1     -13.483  -2.092 -39.741  1.00  0.00     0.041 C 
ATOM      7  O   UNL     1     -13.570  -3.266 -39.293  1.00  0.00    -0.550 OA
ATOM      8  O   UNL     1     -14.603  -1.480 -40.292  1.00  0.00    -0.550 OA
ENDBRANCH   5   6
ENDBRANCH   4   5
ENDBRANCH   3   4
ENDBRANCH   2   3
ENDBRANCH   1   2
BRANCH   1   9
ATOM      9  C   UNL     1      -7.772  -1.610 -40.165  1.00  0.00     0.000 C 
BRANCH   9  10
ATOM     10  C   UNL     1      -8.714  -2.488 -39.324  1.00  0.00    -0.000 C 
BRANCH  10  11
ATOM     11  C   UNL     1      -8.970  -1.905 -37.925  1.00  0.00    -0.000 C 
BRANCH  11  12
ATOM     12  C   UNL     1      -8.620  -0.409 -37.838  1.00  0.00    -0.000 C 
BRANCH  12  13
ATOM     13  C   UNL     1      -9.852   0.468 -37.558  1.00  0.00    -0.003 C 
ATOM     14  C   UNL     1     -10.691  -0.045 -36.388  1.00  0.00     0.004 C 
ENDBRANCH  12  13
ENDBRANCH  11  12
ENDBRANCH  10  11
ENDBRANCH   9  10
ENDBRANCH   1   9
TORSDOF 10
ENDMDL
MODEL 2
REMARK VINA RESULT:    -3.617      2.851      4.076
REMARK INTER + INTRA:          -7.153
REMARK INTER:                  -6.006
REMARK INTRA:                  -1.147
REMARK UNBOUND:                -1.421
REMARK SMILES CCCCCCCCCCCC(=O)[O-]
REMARK SMILES IDX 7 1 8 2 9 3 10 4 11 5 12 6 13 7 14 8 6 9 5 10 4 11 3 12 2 13
REMARK SMILES IDX 1 14
REMARK H PARENT
REMARK Flexibility Score: inf
ROOT
ATOM      1  C   UNL     1      -8.313  -0.797 -41.022  1.00  0.00     0.000 C 
ENDROOT
BRANCH   1   2
ATOM      2  C   UNL     1      -8.760   0.675 -40.952  1.00  0.00     0.000 C 
BRANCH   2   3
ATOM      3  C   UNL     1      -9.311   1.070 -39.571  1.00  0.00     0.000 C 
BRANCH   3   4
ATOM      4  C   UNL     1     -10.641   1.842 -39.660  1.00  0.00     0.006 C 
BRANCH   4   5
ATOM      5  C   UNL     1     -11.358   1.715 -41.013  1.00  0.00     0.053 C 
BRANCH   5   6
ATOM      6  C   UNL     1     -12.119   2.956 -41.364  1.00  0.00     0.041 C 
ATOM      7  O   UNL     1     -11.975   3.491 -42.495  1.00  0.00    -0.550 OA
ATOM      8  O   UNL     1     -12.966   3.541 -40.429  1.00  0.00    -0.550 OA
ENDBRANCH   5   6
ENDBRANCH   4   5
ENDBRANCH   3   4
ENDBRANCH   2   3
ENDBRANCH   1   2
BRANCH   1   9
ATOM      9  C   UNL     1      -9.449  -1.824 -41.180  1.00  0.00     0.000 C 
BRANCH   9  10
ATOM     10  C   UNL     1      -9.680  -2.664 -39.912  1.00  0.00    -0.000 C 
BRANCH  10  11
ATOM     11  C   UNL     1     -10.942  -2.237 -39.144  1.00  0.00    -0.000 C 
BRANCH  11  12
ATOM     12  C   UNL     1     -12.021  -1.647 -40.068  1.00  0.00    -0.000 C 
BRANCH  12  13
ATOM     13  C   UNL     1     -13.441  -2.071 -39.660  1.00  0.00    -0.003 C 
ATOM     14  C   UNL     1     -14.528  -1.254 -40.358  1.00  0.00     0.004 C 
ENDBRANCH  12  13
ENDBRANCH  11  12
ENDBRANCH  10  11
ENDBRANCH   9  10
ENDBRANCH   1   9
TORSDOF 10
ENDMDL
MODEL 3
REMARK VINA RESULT:    -3.594      2.644      3.626
REMARK INTER + INTRA:          -7.117
REMARK INTER:                  -5.978
REMARK INTRA:                  -1.139
REMARK UNBOUND:                -1.421
REMARK SMILES CCCCCCCCCCCC(=O)[O-]
REMARK SMILES IDX 7 1 8 2 9 3 10 4 11 5 12 6 13 7 14 8 6 9 5 10 4 11 3 12 2 13
REMARK SMILES IDX 1 14
REMARK H PARENT
REMARK Flexibility Score: inf
ROOT
ATOM      1  C   UNL     1     -11.310  -1.785 -38.901  1.00  0.00     0.000 C 
ENDROOT
BRANCH   1   2
ATOM      2  C   UNL     1     -11.849  -1.457 -40.306  1.00  0.00     0.000 C 
BRANCH   2   3
ATOM      3  C   UNL     1     -11.677   0.024 -40.684  1.00  0.00     0.000 C 
BRANCH   3   4
ATOM      4  C   UNL     1     -10.473   0.265 -41.613  1.00  0.00     0.006 C 
BRANCH   4   5
ATOM      5  C   UNL     1      -9.117   0.326 -40.891  1.00  0.00     0.053 C 
BRANCH   5   6
ATOM      6  C   UNL     1      -8.244  -0.841 -41.235  1.00  0.00     0.041 C 
ATOM      7  O   UNL     1      -7.066  -0.903 -40.795  1.00  0.00    -0.550 OA
ATOM      8  O   UNL     1      -8.722  -1.845 -42.069  1.00  0.00    -0.550 OA
ENDBRANCH   5   6
ENDBRANCH   4   5
ENDBRANCH   3   4
ENDBRANCH   2   3
ENDBRANCH   1   2
BRANCH   1   9
ATOM      9  C   UNL     1     -10.097  -2.732 -38.865  1.00  0.00     0.000 C 
BRANCH   9  10
ATOM     10  C   UNL     1      -9.063  -2.343 -37.794  1.00  0.00    -0.000 C 
BRANCH  10  11
ATOM     11  C   UNL     1      -9.223  -0.889 -37.323  1.00  0.00    -0.000 C 
BRANCH  11  12
ATOM     12  C   UNL     1      -9.572  -0.790 -35.828  1.00  0.00    -0.000 C 
BRANCH  12  13
ATOM     13  C   UNL     1     -10.887  -0.034 -35.579  1.00  0.00    -0.003 C 
ATOM     14  C   UNL     1     -10.695   1.480 -35.503  1.00  0.00     0.004 C 
ENDBRANCH  12  13
ENDBRANCH  11  12
ENDBRANCH  10  11
ENDBRANCH   9  10
ENDBRANCH   1   9
TORSDOF 10
ENDMDL
MODEL 4
REMARK VINA RESULT:    -3.552      4.649      6.151
REMARK INTER + INTRA:          -7.049
REMARK INTER:                  -6.528
REMARK INTRA:                  -0.520
REMARK UNBOUND:                -1.421
REMARK SMILES CCCCCCCCCCCC(=O)[O-]
REMARK SMILES IDX 7 1 8 2 9 3 10 4 11 5 12 6 13 7 14 8 6 9 5 10 4 11 3 12 2 13
REMARK SMILES IDX 1 14
REMARK H PARENT
REMARK Flexibility Score: inf
ROOT
ATOM      1  C   UNL     1     -12.248   3.822 -40.124  1.00  0.00     0.000 C 
ENDROOT
BRANCH   1   2
ATOM      2  C   UNL     1     -13.144   5.017 -40.500  1.00  0.00     0.000 C 
BRANCH   2   3
ATOM      3  C   UNL     1     -13.674   4.939 -41.942  1.00  0.00     0.000 C 
BRANCH   3   4
ATOM      4  C   UNL     1     -15.212   5.000 -42.013  1.00  0.00     0.006 C 
BRANCH   4   5
ATOM      5  C   UNL     1     -15.923   4.597 -40.711  1.00  0.00     0.053 C 
BRANCH   5   6
ATOM      6  C   UNL     1     -17.363   4.255 -40.940  1.00  0.00     0.041 C 
ATOM      7  O   UNL     1     -17.791   3.101 -40.677  1.00  0.00    -0.550 OA
ATOM      8  O   UNL     1     -18.227   5.204 -41.475  1.00  0.00    -0.550 OA
ENDBRANCH   5   6
ENDBRANCH   4   5
ENDBRANCH   3   4
ENDBRANCH   2   3
ENDBRANCH   1   2
BRANCH   1   9
ATOM      9  C   UNL     1     -12.064   2.764 -41.228  1.00  0.00     0.000 C 
BRANCH   9  10
ATOM     10  C   UNL     1     -11.344   1.498 -40.732  1.00  0.00    -0.000 C 
BRANCH  10  11
ATOM     11  C   UNL     1     -12.212   0.236 -40.871  1.00  0.00    -0.000 C 
BRANCH  11  12
ATOM     12  C   UNL     1     -11.435  -1.051 -40.542  1.00  0.00    -0.000 C 
BRANCH  12  13
ATOM     13  C   UNL     1     -12.120  -1.888 -39.448  1.00  0.00    -0.003 C 
ATOM     14  C   UNL     1     -13.627  -2.021 -39.660  1.00  0.00     0.004 C 
ENDBRANCH  12  13
ENDBRANCH  11  12
ENDBRANCH  10  11
ENDBRANCH   9  10
ENDBRANCH   1   9
TORSDOF 10
ENDMDL
MODEL 5
REMARK VINA RESULT:    -3.508      1.551      3.383
REMARK INTER + INTRA:          -6.980
REMARK INTER:                  -5.884
REMARK INTRA:                  -1.096
REMARK UNBOUND:                -1.421
REMARK SMILES CCCCCCCCCCCC(=O)[O-]
REMARK SMILES IDX 7 1 8 2 9 3 10 4 11 5 12 6 13 7 14 8 6 9 5 10 4 11 3 12 2 13
REMARK SMILES IDX 1 14
REMARK H PARENT
REMARK Flexibility Score: inf
ROOT
ATOM      1  C   UNL     1      -9.248  -1.306 -36.709  1.00  0.00     0.000 C 
ENDROOT
BRANCH   1   2
ATOM      2  C   UNL     1     -10.244  -1.152 -37.874  1.00  0.00     0.000 C 
BRANCH   2   3
ATOM      3  C   UNL     1      -9.894  -2.037 -39.082  1.00  0.00     0.000 C 
BRANCH   3   4
ATOM      4  C   UNL     1     -10.892  -1.876 -40.245  1.00  0.00     0.006 C 
BRANCH   4   5
ATOM      5  C   UNL     1     -12.107  -0.993 -39.919  1.00  0.00     0.053 C 
BRANCH   5   6
ATOM      6  C   UNL     1     -13.369  -1.792 -39.809  1.00  0.00     0.041 C 
ATOM      7  O   UNL     1     -13.365  -2.907 -39.224  1.00  0.00    -0.550 OA
ATOM      8  O   UNL     1     -14.545  -1.319 -40.380  1.00  0.00    -0.550 OA
ENDBRANCH   5   6
ENDBRANCH   4   5
ENDBRANCH   3   4
ENDBRANCH   2   3
ENDBRANCH   1   2
BRANCH   1   9
ATOM      9  C   UNL     1      -9.494  -0.377 -35.506  1.00  0.00     0.000 C 
BRANCH   9  10
ATOM     10  C   UNL     1     -10.837   0.370 -35.588  1.00  0.00    -0.000 C 
BRANCH  10  11
ATOM     11  C   UNL     1     -10.698   1.867 -35.268  1.00  0.00    -0.000 C 
BRANCH  11  12
ATOM     12  C   UNL     1      -9.741   2.589 -36.233  1.00  0.00    -0.000 C 
BRANCH  12  13
ATOM     13  C   UNL     1     -10.386   2.872 -37.600  1.00  0.00    -0.003 C 
ATOM     14  C   UNL     1      -9.586   2.290 -38.764  1.00  0.00     0.004 C 
ENDBRANCH  12  13
ENDBRANCH  11  12
ENDBRANCH  10  11
ENDBRANCH   9  10
ENDBRANCH   1   9
TORSDOF 10
ENDMDL
MODEL 6
REMARK VINA RESULT:    -3.495      1.578      2.813
REMARK INTER + INTRA:          -6.959
REMARK INTER:                  -5.742
REMARK INTRA:                  -1.217
REMARK UNBOUND:                -1.421
REMARK SMILES CCCCCCCCCCCC(=O)[O-]
REMARK SMILES IDX 7 1 8 2 9 3 10 4 11 5 12 6 13 7 14 8 6 9 5 10 4 11 3 12 2 13
REMARK SMILES IDX 1 14
REMARK H PARENT
REMARK Flexibility Score: inf
ROOT
ATOM      1  C   UNL     1      -7.603  -1.650 -39.507  1.00  0.00     0.000 C 
ENDROOT
BRANCH   1   2
ATOM      2  C   UNL     1      -8.723  -2.560 -38.968  1.00  0.00     0.000 C 
BRANCH   2   3
ATOM      3  C   UNL     1      -9.996  -2.520 -39.832  1.00  0.00     0.000 C 
BRANCH   3   4
ATOM      4  C   UNL     1     -11.147  -1.752 -39.157  1.00  0.00     0.006 C 
BRANCH   4   5
ATOM      5  C   UNL     1     -12.239  -1.266 -40.124  1.00  0.00     0.053 C 
BRANCH   5   6
ATOM      6  C   UNL     1     -13.560  -1.917 -39.853  1.00  0.00     0.041 C 
ATOM      7  O   UNL     1     -13.613  -3.008 -39.227  1.00  0.00    -0.550 OA
ATOM      8  O   UNL     1     -14.732  -1.334 -40.320  1.00  0.00    -0.550 OA
ENDBRANCH   5   6
ENDBRANCH   4   5
ENDBRANCH   3   4
ENDBRANCH   2   3
ENDBRANCH   1   2
BRANCH   1   9
ATOM      9  C   UNL     1      -7.854  -1.054 -40.905  1.00  0.00     0.000 C 
BRANCH   9  10
ATOM     10  C   UNL     1      -7.810   0.484 -40.918  1.00  0.00    -0.000 C 
BRANCH  10  11
ATOM     11  C   UNL     1      -9.205   1.111 -41.079  1.00  0.00    -0.000 C 
BRANCH  11  12
ATOM     12  C   UNL     1      -9.811   1.551 -39.735  1.00  0.00    -0.000 C 
BRANCH  12  13
ATOM     13  C   UNL     1     -10.931   2.591 -39.908  1.00  0.00    -0.003 C 
ATOM     14  C   UNL     1     -11.879   2.254 -41.058  1.00  0.00     0.004 C 
ENDBRANCH  12  13
ENDBRANCH  11  12
ENDBRANCH  10  11
ENDBRANCH   9  10
ENDBRANCH   1   9
TORSDOF 10
ENDMDL
MODEL 7
REMARK VINA RESULT:    -3.396      3.954      6.014
REMARK INTER + INTRA:          -6.802
REMARK INTER:                  -6.246
REMARK INTRA:                  -0.556
REMARK UNBOUND:                -1.421
REMARK SMILES CCCCCCCCCCCC(=O)[O-]
REMARK SMILES IDX 7 1 8 2 9 3 10 4 11 5 12 6 13 7 14 8 6 9 5 10 4 11 3 12 2 13
REMARK SMILES IDX 1 14
REMARK H PARENT
REMARK Flexibility Score: inf
ROOT
ATOM      1  C   UNL     1     -11.374   2.726 -41.795  1.00  0.00     0.000 C 
ENDROOT
BRANCH   1   2
ATOM      2  C   UNL     1     -11.769   1.404 -41.111  1.00  0.00     0.000 C 
BRANCH   2   3
ATOM      3  C   UNL     1     -10.605   0.402 -41.023  1.00  0.00     0.000 C 
BRANCH   3   4
ATOM      4  C   UNL     1     -11.082  -1.047 -40.814  1.00  0.00     0.006 C 
BRANCH   4   5
ATOM      5  C   UNL     1     -11.805  -1.290 -39.479  1.00  0.00     0.053 C 
BRANCH   5   6
ATOM      6  C   UNL     1     -13.174  -1.863 -39.678  1.00  0.00     0.041 C 
ATOM      7  O   UNL     1     -13.450  -3.013 -39.246  1.00  0.00    -0.550 OA
ATOM      8  O   UNL     1     -14.138  -1.138 -40.369  1.00  0.00    -0.550 OA
ENDBRANCH   5   6
ENDBRANCH   4   5
ENDBRANCH   3   4
ENDBRANCH   2   3
ENDBRANCH   1   2
BRANCH   1   9
ATOM      9  C   UNL     1     -12.512   3.750 -41.955  1.00  0.00     0.000 C 
BRANCH   9  10
ATOM     10  C   UNL     1     -13.156   4.147 -40.615  1.00  0.00    -0.000 C 
BRANCH  10  11
ATOM     11  C   UNL     1     -14.410   5.017 -40.799  1.00  0.00    -0.000 C 
BRANCH  11  12
ATOM     12  C   UNL     1     -14.777   5.214 -42.281  1.00  0.00    -0.000 C 
BRANCH  12  13
ATOM     13  C   UNL     1     -16.296   5.189 -42.518  1.00  0.00    -0.003 C 
ATOM     14  C   UNL     1     -17.065   4.539 -41.368  1.00  0.00     0.004 C 
ENDBRANCH  12  13
ENDBRANCH  11  12
ENDBRANCH  10  11
ENDBRANCH   9  10
ENDBRANCH   1   9
TORSDOF 10
ENDMDL
MODEL 8
REMARK VINA RESULT:    -3.391      1.403      3.540
REMARK INTER + INTRA:          -6.794
REMARK INTER:                  -5.188
REMARK INTRA:                  -1.605
REMARK UNBOUND:                -1.421
REMARK SMILES CCCCCCCCCCCC(=O)[O-]
REMARK SMILES IDX 7 1 8 2 9 3 10 4 11 5 12 6 13 7 14 8 6 9 5 10 4 11 3 12 2 13
REMARK SMILES IDX 1 14
REMARK H PARENT
REMARK Flexibility Score: inf
ROOT
ATOM      1  C   UNL     1      -8.443  -0.249 -37.514  1.00  0.00     0.000 C 
ENDROOT
BRANCH   1   2
ATOM      2  C   UNL     1      -9.273  -1.508 -37.830  1.00  0.00     0.000 C 
BRANCH   2   3
ATOM      3  C   UNL     1     -10.730  -1.188 -38.204  1.00  0.00     0.000 C 
BRANCH   3   4
ATOM      4  C   UNL     1     -11.115  -1.714 -39.600  1.00  0.00     0.006 C 
BRANCH   4   5
ATOM      5  C   UNL     1     -12.283  -0.965 -40.260  1.00  0.00     0.053 C 
BRANCH   5   6
ATOM      6  C   UNL     1     -13.592  -1.657 -40.038  1.00  0.00     0.041 C 
ATOM      7  O   UNL     1     -14.662  -1.139 -40.452  1.00  0.00    -0.550 OA
ATOM      8  O   UNL     1     -13.633  -2.860 -39.343  1.00  0.00    -0.550 OA
ENDBRANCH   5   6
ENDBRANCH   4   5
ENDBRANCH   3   4
ENDBRANCH   2   3
ENDBRANCH   1   2
BRANCH   1   9
ATOM      9  C   UNL     1      -9.251   1.055 -37.378  1.00  0.00     0.000 C 
BRANCH   9  10
ATOM     10  C   UNL     1      -8.973   2.054 -38.515  1.00  0.00    -0.000 C 
BRANCH  10  11
ATOM     11  C   UNL     1     -10.067   2.037 -39.595  1.00  0.00    -0.000 C 
BRANCH  11  12
ATOM     12  C   UNL     1      -9.549   1.522 -40.949  1.00  0.00    -0.000 C 
BRANCH  12  13
ATOM     13  C   UNL     1      -8.090   1.043 -40.878  1.00  0.00    -0.003 C 
ATOM     14  C   UNL     1      -7.940  -0.446 -41.185  1.00  0.00     0.004 C 
ENDBRANCH  12  13
ENDBRANCH  11  12
ENDBRANCH  10  11
ENDBRANCH   9  10
ENDBRANCH   1   9
TORSDOF 10
ENDMDL
MODEL 9
REMARK VINA RESULT:    -3.370      7.551      9.839
REMARK INTER + INTRA:          -6.761
REMARK INTER:                  -5.327
REMARK INTRA:                  -1.434
REMARK UNBOUND:                -1.421
REMARK SMILES CCCCCCCCCCCC(=O)[O-]
REMARK SMILES IDX 7 1 8 2 9 3 10 4 11 5 12 6 13 7 14 8 6 9 5 10 4 11 3 12 2 13
REMARK SMILES IDX 1 14
REMARK H PARENT
REMARK Flexibility Score: inf
ROOT
ATOM      1  C   UNL     1     -16.209   7.610 -43.501  1.00  0.00     0.000 C 
ENDROOT
BRANCH   1   2
ATOM      2  C   UNL     1     -16.534   6.217 -44.074  1.00  0.00     0.000 C 
BRANCH   2   3
ATOM      3  C   UNL     1     -15.335   5.255 -44.029  1.00  0.00     0.000 C 
BRANCH   3   4
ATOM      4  C   UNL     1     -14.243   5.712 -43.043  1.00  0.00     0.006 C 
BRANCH   4   5
ATOM      5  C   UNL     1     -13.242   4.614 -42.650  1.00  0.00     0.053 C 
BRANCH   5   6
ATOM      6  C   UNL     1     -13.164   4.429 -41.166  1.00  0.00     0.041 C 
ATOM      7  O   UNL     1     -13.453   5.380 -40.393  1.00  0.00    -0.550 OA
ATOM      8  O   UNL     1     -12.741   3.216 -40.638  1.00  0.00    -0.550 OA
ENDBRANCH   5   6
ENDBRANCH   4   5
ENDBRANCH   3   4
ENDBRANCH   2   3
ENDBRANCH   1   2
BRANCH   1   9
ATOM      9  C   UNL     1     -16.728   7.872 -42.075  1.00  0.00     0.000 C 
BRANCH   9  10
ATOM     10  C   UNL     1     -18.191   7.436 -41.880  1.00  0.00    -0.000 C 
BRANCH  10  11
ATOM     11  C   UNL     1     -18.345   6.363 -40.790  1.00  0.00    -0.000 C 
BRANCH  11  12
ATOM     12  C   UNL     1     -16.997   5.749 -40.374  1.00  0.00    -0.000 C 
BRANCH  12  13
ATOM     13  C   UNL     1     -16.877   4.268 -40.771  1.00  0.00    -0.003 C 
ATOM     14  C   UNL     1     -18.116   3.749 -41.501  1.00  0.00     0.004 C 
ENDBRANCH  12  13
ENDBRANCH  11  12
ENDBRANCH  10  11
ENDBRANCH   9  10
ENDBRANCH   1   9
TORSDOF 10
ENDMDL
