MODEL 1
REMARK VINA RESULT:    -8.020      0.000      0.000
REMARK INTER + INTRA:         -13.064
REMARK INTER:                 -11.536
REMARK INTRA:                  -1.528
REMARK UNBOUND:                -1.528
REMARK SMILES O=c1c(O[C@H]2O[C@H](CO)[C@@H](O)[C@H](O)[C@@H]2O)c(-c2ccc(O)cc2)oc2cc(O)cc(O)c12
REMARK SMILES IDX 4 1 3 2 16 3 24 4 2 5 25 6 1 7 32 8 26 9 30 10 27 11 29 12
REMARK SMILES IDX 17 13 18 14 19 15 20 16 23 17 22 18 21 19 31 21 28 23 5 25
REMARK SMILES IDX 14 26 6 27 12 28 7 29 10 30 15 31 13 33 8 35 9 36 11 38
REMARK H PARENT 21 20 31 22 28 24 15 32 13 34 9 37 11 39
REMARK Flexibility Score: inf
ROOT
ATOM      1  O   UNL     1       4.933  -9.504 -41.767  1.00  0.00    -0.454 OA
ENDROOT
BRANCH   1   2
ATOM      2  C   UNL     1       3.735 -10.074 -41.291  1.00  0.00     0.214 A 
ATOM      3  C   UNL     1       2.600  -9.243 -41.196  1.00  0.00     0.180 A 
ATOM      4  O   UNL     1       1.466  -9.711 -40.684  1.00  0.00    -0.452 OA
ATOM      5  C   UNL     1       3.614 -11.418 -40.865  1.00  0.00     0.239 A 
ATOM      6  C   UNL     1       1.315 -10.960 -40.268  1.00  0.00     0.146 A 
ATOM      7  O   UNL     1       4.600 -12.200 -40.935  1.00  0.00    -0.285 OA
ATOM      8  C   UNL     1       2.385 -11.879 -40.350  1.00  0.00     0.111 A 
ATOM      9  C   UNL     1       0.082 -11.356 -39.741  1.00  0.00     0.094 A 
ATOM     10  C   UNL     1       2.187 -13.208 -39.895  1.00  0.00     0.134 A 
ATOM     11  C   UNL     1      -0.103 -12.663 -39.281  1.00  0.00     0.123 A 
ATOM     12  C   UNL     1       0.945 -13.584 -39.360  1.00  0.00     0.093 A 
BRANCH   3  13
ATOM     13  C   UNL     1       2.637  -7.827 -41.622  1.00  0.00     0.021 A 
ATOM     14  C   UNL     1       2.981  -6.835 -40.690  1.00  0.00     0.016 A 
ATOM     15  C   UNL     1       3.002  -5.489 -41.064  1.00  0.00     0.047 A 
ATOM     16  C   UNL     1       2.667  -5.118 -42.370  1.00  0.00     0.115 A 
ATOM     17  C   UNL     1       2.286  -7.448 -42.929  1.00  0.00     0.016 A 
ATOM     18  C   UNL     1       2.313  -6.100 -43.304  1.00  0.00     0.047 A 
BRANCH  16  19
ATOM     19  O   UNL     1       2.690  -3.773 -42.728  1.00  0.00    -0.508 OA
ATOM     20  H   UNL     1       3.484  -3.182 -42.509  1.00  0.00     0.293 HD
ENDBRANCH  16  19
ENDBRANCH   3  13
BRANCH  10  21
ATOM     21  O   UNL     1       3.210 -14.155 -39.970  1.00  0.00    -0.507 OA
ATOM     22  H   UNL     1       4.098 -14.015 -39.504  1.00  0.00     0.293 HD
ENDBRANCH  10  21
BRANCH  11  23
ATOM     23  O   UNL     1      -1.325 -13.060 -38.738  1.00  0.00    -0.508 OA
ATOM     24  H   UNL     1      -1.381 -13.495 -37.824  1.00  0.00     0.293 HD
ENDBRANCH  11  23
ENDBRANCH   1   2
BRANCH   1  25
ATOM     25  C   UNL     1       5.456  -9.568 -43.094  1.00  0.00     0.339 C 
ATOM     26  C   UNL     1       5.798  -8.131 -43.550  1.00  0.00     0.214 C 
ATOM     27  O   UNL     1       4.503 -10.208 -43.937  1.00  0.00    -0.332 OA
ATOM     28  C   UNL     1       6.460  -8.152 -44.950  1.00  0.00     0.180 C 
ATOM     29  C   UNL     1       4.553  -9.823 -45.309  1.00  0.00     0.179 C 
ATOM     30  C   UNL     1       5.964  -9.361 -45.785  1.00  0.00     0.177 C 
BRANCH  26  31
ATOM     31  O   UNL     1       6.593  -7.451 -42.611  1.00  0.00    -0.384 OA
ATOM     32  H   UNL     1       6.992  -8.125 -42.000  1.00  0.00     0.211 HD
ENDBRANCH  26  31
BRANCH  28  33
ATOM     33  O   UNL     1       7.865  -8.151 -44.866  1.00  0.00    -0.387 OA
ATOM     34  H   UNL     1       8.211  -8.788 -45.545  1.00  0.00     0.211 HD
ENDBRANCH  28  33
BRANCH  29  35
ATOM     35  C   UNL     1       4.021 -10.987 -46.159  1.00  0.00     0.191 C 
BRANCH  35  36
ATOM     36  O   UNL     1       3.239 -10.519 -47.228  1.00  0.00    -0.394 OA
ATOM     37  H   UNL     1       3.120  -9.543 -47.093  1.00  0.00     0.210 HD
ENDBRANCH  35  36
ENDBRANCH  29  35
BRANCH  30  38
ATOM     38  O   UNL     1       5.969  -9.042 -47.155  1.00  0.00    -0.387 OA
ATOM     39  H   UNL     1       6.915  -9.028 -47.457  1.00  0.00     0.211 HD
ENDBRANCH  30  38
ENDBRANCH   1  25
TORSDOF 11
ENDMDL
MODEL 2
REMARK VINA RESULT:    -7.939      5.238      7.463
REMARK INTER + INTRA:         -12.948
REMARK INTER:                 -11.641
REMARK INTRA:                  -1.307
REMARK UNBOUND:                -1.528
REMARK SMILES O=c1c(O[C@H]2O[C@H](CO)[C@@H](O)[C@H](O)[C@@H]2O)c(-c2ccc(O)cc2)oc2cc(O)cc(O)c12
REMARK SMILES IDX 4 1 3 2 16 3 24 4 2 5 25 6 1 7 32 8 26 9 30 10 27 11 29 12
REMARK SMILES IDX 17 13 18 14 19 15 20 16 23 17 22 18 21 19 31 21 28 23 5 25
REMARK SMILES IDX 14 26 6 27 12 28 7 29 10 30 15 31 13 33 8 35 9 36 11 38
REMARK H PARENT 21 20 31 22 28 24 15 32 13 34 9 37 11 39
REMARK Flexibility Score: inf
ROOT
ATOM      1  O   UNL     1       9.343  -7.578 -38.869  1.00  0.00    -0.454 OA
ENDROOT
BRANCH   1   2
ATOM      2  C   UNL     1       8.733  -8.773 -39.303  1.00  0.00     0.214 A 
ATOM      3  C   UNL     1       7.787  -9.378 -38.451  1.00  0.00     0.180 A 
ATOM      4  O   UNL     1       7.238 -10.543 -38.779  1.00  0.00    -0.452 OA
ATOM      5  C   UNL     1       9.044  -9.420 -40.522  1.00  0.00     0.239 A 
ATOM      6  C   UNL     1       7.507 -11.185 -39.907  1.00  0.00     0.146 A 
ATOM      7  O   UNL     1       9.880  -8.915 -41.318  1.00  0.00    -0.285 OA
ATOM      8  C   UNL     1       8.419 -10.644 -40.841  1.00  0.00     0.111 A 
ATOM      9  C   UNL     1       6.879 -12.408 -40.160  1.00  0.00     0.094 A 
ATOM     10  C   UNL     1       8.683 -11.358 -42.038  1.00  0.00     0.134 A 
ATOM     11  C   UNL     1       7.154 -13.114 -41.334  1.00  0.00     0.123 A 
ATOM     12  C   UNL     1       8.050 -12.589 -42.269  1.00  0.00     0.093 A 
BRANCH   3  13
ATOM     13  C   UNL     1       7.402  -8.768 -37.160  1.00  0.00     0.021 A 
ATOM     14  C   UNL     1       8.363  -8.637 -36.144  1.00  0.00     0.016 A 
ATOM     15  C   UNL     1       8.016  -8.083 -34.910  1.00  0.00     0.047 A 
ATOM     16  C   UNL     1       6.703  -7.665 -34.671  1.00  0.00     0.115 A 
ATOM     17  C   UNL     1       6.079  -8.361 -36.911  1.00  0.00     0.016 A 
ATOM     18  C   UNL     1       5.735  -7.801 -35.675  1.00  0.00     0.047 A 
BRANCH  16  19
ATOM     19  O   UNL     1       6.372  -7.117 -33.436  1.00  0.00    -0.508 OA
ATOM     20  H   UNL     1       5.463  -6.699 -33.270  1.00  0.00     0.293 HD
ENDBRANCH  16  19
ENDBRANCH   3  13
BRANCH  10  21
ATOM     21  O   UNL     1       9.565 -10.856 -42.996  1.00  0.00    -0.507 OA
ATOM     22  H   UNL     1       9.441 -11.046 -43.982  1.00  0.00     0.293 HD
ENDBRANCH  10  21
BRANCH  11  23
ATOM     23  O   UNL     1       6.544 -14.343 -41.584  1.00  0.00    -0.508 OA
ATOM     24  H   UNL     1       5.650 -14.583 -41.172  1.00  0.00     0.293 HD
ENDBRANCH  11  23
ENDBRANCH   1   2
BRANCH   1  25
ATOM     25  C   UNL     1       9.059  -6.250 -39.308  1.00  0.00     0.339 C 
ATOM     26  C   UNL     1       8.870  -5.357 -38.060  1.00  0.00     0.214 C 
ATOM     27  O   UNL     1       7.912  -6.278 -40.151  1.00  0.00    -0.332 OA
ATOM     28  C   UNL     1       8.653  -3.882 -38.479  1.00  0.00     0.180 C 
ATOM     29  C   UNL     1       7.143  -5.076 -40.168  1.00  0.00     0.179 C 
ATOM     30  C   UNL     1       7.975  -3.791 -39.871  1.00  0.00     0.177 C 
BRANCH  26  31
ATOM     31  O   UNL     1       9.934  -5.486 -37.150  1.00  0.00    -0.384 OA
ATOM     32  H   UNL     1       9.610  -5.198 -36.256  1.00  0.00     0.211 HD
ENDBRANCH  26  31
BRANCH  28  33
ATOM     33  O   UNL     1       9.855  -3.151 -38.467  1.00  0.00    -0.387 OA
ATOM     34  H   UNL     1      10.596  -3.776 -38.684  1.00  0.00     0.211 HD
ENDBRANCH  28  33
BRANCH  29  35
ATOM     35  C   UNL     1       6.419  -4.983 -41.520  1.00  0.00     0.191 C 
BRANCH  35  36
ATOM     36  O   UNL     1       5.299  -4.140 -41.438  1.00  0.00    -0.394 OA
ATOM     37  H   UNL     1       4.927  -4.063 -42.355  1.00  0.00     0.210 HD
ENDBRANCH  35  36
ENDBRANCH  29  35
BRANCH  30  38
ATOM     38  O   UNL     1       7.181  -2.631 -39.950  1.00  0.00    -0.387 OA
ATOM     39  H   UNL     1       6.779  -2.480 -39.055  1.00  0.00     0.211 HD
ENDBRANCH  30  38
ENDBRANCH   1  25
TORSDOF 11
ENDMDL
MODEL 3
REMARK VINA RESULT:    -7.897      2.926      7.000
REMARK INTER + INTRA:         -12.888
REMARK INTER:                 -11.454
REMARK INTRA:                  -1.434
REMARK UNBOUND:                -1.528
REMARK SMILES O=c1c(O[C@H]2O[C@H](CO)[C@@H](O)[C@H](O)[C@@H]2O)c(-c2ccc(O)cc2)oc2cc(O)cc(O)c12
REMARK SMILES IDX 4 1 3 2 16 3 24 4 2 5 25 6 1 7 32 8 26 9 30 10 27 11 29 12
REMARK SMILES IDX 17 13 18 14 19 15 20 16 23 17 22 18 21 19 31 21 28 23 5 25
REMARK SMILES IDX 14 26 6 27 12 28 7 29 10 30 15 31 13 33 8 35 9 36 11 38
REMARK H PARENT 21 20 31 22 28 24 15 32 13 34 9 37 11 39
REMARK Flexibility Score: inf
ROOT
ATOM      1  O   UNL     1       0.990  -9.406 -39.830  1.00  0.00    -0.454 OA
ENDROOT
BRANCH   1   2
ATOM      2  C   UNL     1       1.350  -9.542 -41.186  1.00  0.00     0.214 A 
ATOM      3  C   UNL     1       0.408  -9.157 -42.161  1.00  0.00     0.180 A 
ATOM      4  O   UNL     1       0.668  -9.334 -43.453  1.00  0.00    -0.452 OA
ATOM      5  C   UNL     1       2.583 -10.080 -41.625  1.00  0.00     0.239 A 
ATOM      6  C   UNL     1       1.807  -9.840 -43.904  1.00  0.00     0.146 A 
ATOM      7  O   UNL     1       3.458 -10.434 -40.791  1.00  0.00    -0.285 OA
ATOM      8  C   UNL     1       2.826 -10.229 -43.007  1.00  0.00     0.111 A 
ATOM      9  C   UNL     1       1.984  -9.990 -45.283  1.00  0.00     0.094 A 
ATOM     10  C   UNL     1       4.032 -10.767 -43.526  1.00  0.00     0.134 A 
ATOM     11  C   UNL     1       3.168 -10.534 -45.788  1.00  0.00     0.123 A 
ATOM     12  C   UNL     1       4.187 -10.918 -44.912  1.00  0.00     0.093 A 
BRANCH   3  13
ATOM     13  C   UNL     1      -0.903  -8.582 -41.790  1.00  0.00     0.021 A 
ATOM     14  C   UNL     1      -2.054  -9.384 -41.865  1.00  0.00     0.016 A 
ATOM     15  C   UNL     1      -3.306  -8.856 -41.540  1.00  0.00     0.047 A 
ATOM     16  C   UNL     1      -3.425  -7.520 -41.146  1.00  0.00     0.115 A 
ATOM     17  C   UNL     1      -1.030  -7.235 -41.409  1.00  0.00     0.016 A 
ATOM     18  C   UNL     1      -2.283  -6.710 -41.077  1.00  0.00     0.047 A 
BRANCH  16  19
ATOM     19  O   UNL     1      -4.679  -7.008 -40.827  1.00  0.00    -0.508 OA
ATOM     20  H   UNL     1      -5.062  -6.206 -41.314  1.00  0.00     0.293 HD
ENDBRANCH  16  19
ENDBRANCH   3  13
BRANCH  10  21
ATOM     21  O   UNL     1       5.072 -11.150 -42.679  1.00  0.00    -0.507 OA
ATOM     22  H   UNL     1       6.019 -11.264 -43.019  1.00  0.00     0.293 HD
ENDBRANCH  10  21
BRANCH  11  23
ATOM     23  O   UNL     1       3.344 -10.702 -47.162  1.00  0.00    -0.508 OA
ATOM     24  H   UNL     1       2.806 -10.167 -47.833  1.00  0.00     0.293 HD
ENDBRANCH  11  23
ENDBRANCH   1   2
BRANCH   1  25
ATOM     25  C   UNL     1       0.498 -10.422 -38.957  1.00  0.00     0.339 C 
ATOM     26  C   UNL     1       1.552 -10.665 -37.851  1.00  0.00     0.214 C 
ATOM     27  O   UNL     1       0.214 -11.590 -39.721  1.00  0.00    -0.332 OA
ATOM     28  C   UNL     1       1.025 -11.692 -36.820  1.00  0.00     0.180 C 
ATOM     29  C   UNL     1       0.318 -12.821 -39.008  1.00  0.00     0.179 C 
ATOM     30  C   UNL     1       0.038 -12.691 -37.479  1.00  0.00     0.177 C 
BRANCH  26  31
ATOM     31  O   UNL     1       1.955  -9.469 -37.231  1.00  0.00    -0.384 OA
ATOM     32  H   UNL     1       1.517  -8.714 -37.705  1.00  0.00     0.211 HD
ENDBRANCH  26  31
BRANCH  28  33
ATOM     33  O   UNL     1       0.426 -11.065 -35.712  1.00  0.00    -0.387 OA
ATOM     34  H   UNL     1       0.267 -11.757 -35.018  1.00  0.00     0.211 HD
ENDBRANCH  28  33
BRANCH  29  35
ATOM     35  C   UNL     1      -0.615 -13.846 -39.670  1.00  0.00     0.191 C 
BRANCH  35  36
ATOM     36  O   UNL     1      -0.262 -15.158 -39.313  1.00  0.00    -0.394 OA
ATOM     37  H   UNL     1      -0.309 -15.211 -38.324  1.00  0.00     0.210 HD
ENDBRANCH  35  36
ENDBRANCH  29  35
BRANCH  30  38
ATOM     38  O   UNL     1       0.104 -13.939 -36.833  1.00  0.00    -0.387 OA
ATOM     39  H   UNL     1      -0.738 -14.426 -37.034  1.00  0.00     0.211 HD
ENDBRANCH  30  38
ENDBRANCH   1  25
TORSDOF 11
ENDMDL
MODEL 4
REMARK VINA RESULT:    -7.875      3.089      7.148
REMARK INTER + INTRA:         -12.857
REMARK INTER:                 -11.334
REMARK INTRA:                  -1.522
REMARK UNBOUND:                -1.528
REMARK SMILES O=c1c(O[C@H]2O[C@H](CO)[C@@H](O)[C@H](O)[C@@H]2O)c(-c2ccc(O)cc2)oc2cc(O)cc(O)c12
REMARK SMILES IDX 4 1 3 2 16 3 24 4 2 5 25 6 1 7 32 8 26 9 30 10 27 11 29 12
REMARK SMILES IDX 17 13 18 14 19 15 20 16 23 17 22 18 21 19 31 21 28 23 5 25
REMARK SMILES IDX 14 26 6 27 12 28 7 29 10 30 15 31 13 33 8 35 9 36 11 38
REMARK H PARENT 21 20 31 22 28 24 15 32 13 34 9 37 11 39
REMARK Flexibility Score: inf
ROOT
ATOM      1  O   UNL     1       4.251  -8.859 -42.008  1.00  0.00    -0.454 OA
ENDROOT
BRANCH   1   2
ATOM      2  C   UNL     1       5.411  -8.145 -41.644  1.00  0.00     0.214 A 
ATOM      3  C   UNL     1       6.558  -8.885 -41.290  1.00  0.00     0.180 A 
ATOM      4  O   UNL     1       7.654  -8.262 -40.868  1.00  0.00    -0.452 OA
ATOM      5  C   UNL     1       5.480  -6.734 -41.576  1.00  0.00     0.239 A 
ATOM      6  C   UNL     1       7.756  -6.944 -40.783  1.00  0.00     0.146 A 
ATOM      7  O   UNL     1       4.483  -6.030 -41.887  1.00  0.00    -0.285 OA
ATOM      8  C   UNL     1       6.671  -6.114 -41.145  1.00  0.00     0.111 A 
ATOM      9  C   UNL     1       8.952  -6.384 -40.324  1.00  0.00     0.094 A 
ATOM     10  C   UNL     1       6.817  -4.707 -41.041  1.00  0.00     0.134 A 
ATOM     11  C   UNL     1       9.085  -4.997 -40.210  1.00  0.00     0.123 A 
ATOM     12  C   UNL     1       8.022  -4.164 -40.569  1.00  0.00     0.093 A 
BRANCH   3  13
ATOM     13  C   UNL     1       6.573 -10.363 -41.336  1.00  0.00     0.021 A 
ATOM     14  C   UNL     1       7.046 -11.012 -42.488  1.00  0.00     0.016 A 
ATOM     15  C   UNL     1       7.050 -12.407 -42.562  1.00  0.00     0.047 A 
ATOM     16  C   UNL     1       6.572 -13.169 -41.492  1.00  0.00     0.115 A 
ATOM     17  C   UNL     1       6.079 -11.133 -40.269  1.00  0.00     0.016 A 
ATOM     18  C   UNL     1       6.090 -12.530 -40.342  1.00  0.00     0.047 A 
BRANCH  16  19
ATOM     19  O   UNL     1       6.581 -14.558 -41.581  1.00  0.00    -0.508 OA
ATOM     20  H   UNL     1       6.256 -15.036 -42.414  1.00  0.00     0.293 HD
ENDBRANCH  16  19
ENDBRANCH   3  13
BRANCH  10  21
ATOM     21  O   UNL     1       5.779  -3.847 -41.402  1.00  0.00    -0.507 OA
ATOM     22  H   UNL     1       4.831  -4.181 -41.523  1.00  0.00     0.293 HD
ENDBRANCH  10  21
BRANCH  11  23
ATOM     23  O   UNL     1      10.269  -4.432 -39.736  1.00  0.00    -0.508 OA
ATOM     24  H   UNL     1      10.271  -3.785 -38.957  1.00  0.00     0.293 HD
ENDBRANCH  11  23
ENDBRANCH   1   2
BRANCH   1  25
ATOM     25  C   UNL     1       3.777  -9.130 -43.327  1.00  0.00     0.339 C 
ATOM     26  C   UNL     1       3.588 -10.658 -43.470  1.00  0.00     0.214 C 
ATOM     27  O   UNL     1       4.701  -8.593 -44.269  1.00  0.00    -0.332 OA
ATOM     28  C   UNL     1       2.983 -11.000 -44.853  1.00  0.00     0.180 C 
ATOM     29  C   UNL     1       4.741  -9.264 -45.527  1.00  0.00     0.179 C 
ATOM     30  C   UNL     1       3.398  -9.953 -45.919  1.00  0.00     0.177 C 
BRANCH  26  31
ATOM     31  O   UNL     1       2.821 -11.198 -42.422  1.00  0.00    -0.384 OA
ATOM     32  H   UNL     1       1.962 -10.702 -42.382  1.00  0.00     0.211 HD
ENDBRANCH  26  31
BRANCH  28  33
ATOM     33  O   UNL     1       1.582 -11.121 -44.799  1.00  0.00    -0.387 OA
ATOM     34  H   UNL     1       1.363 -12.081 -44.674  1.00  0.00     0.211 HD
ENDBRANCH  28  33
BRANCH  29  35
ATOM     35  C   UNL     1       5.198  -8.261 -46.597  1.00  0.00     0.191 C 
BRANCH  35  36
ATOM     36  O   UNL     1       6.096  -8.855 -47.499  1.00  0.00    -0.394 OA
ATOM     37  H   UNL     1       6.831  -9.246 -46.959  1.00  0.00     0.210 HD
ENDBRANCH  35  36
ENDBRANCH  29  35
BRANCH  30  38
ATOM     38  O   UNL     1       3.477 -10.555 -47.189  1.00  0.00    -0.387 OA
ATOM     39  H   UNL     1       3.729  -9.850 -47.841  1.00  0.00     0.211 HD
ENDBRANCH  30  38
ENDBRANCH   1  25
TORSDOF 11
ENDMDL
MODEL 5
REMARK VINA RESULT:    -7.832      1.772      2.464
REMARK INTER + INTRA:         -12.795
REMARK INTER:                 -11.639
REMARK INTRA:                  -1.156
REMARK UNBOUND:                -1.528
REMARK SMILES O=c1c(O[C@H]2O[C@H](CO)[C@@H](O)[C@H](O)[C@@H]2O)c(-c2ccc(O)cc2)oc2cc(O)cc(O)c12
REMARK SMILES IDX 4 1 3 2 16 3 24 4 2 5 25 6 1 7 32 8 26 9 30 10 27 11 29 12
REMARK SMILES IDX 17 13 18 14 19 15 20 16 23 17 22 18 21 19 31 21 28 23 5 25
REMARK SMILES IDX 14 26 6 27 12 28 7 29 10 30 15 31 13 33 8 35 9 36 11 38
REMARK H PARENT 21 20 31 22 28 24 15 32 13 34 9 37 11 39
REMARK Flexibility Score: inf
ROOT
ATOM      1  O   UNL     1       3.726 -10.272 -42.369  1.00  0.00    -0.454 OA
ENDROOT
BRANCH   1   2
ATOM      2  C   UNL     1       2.851 -10.497 -41.288  1.00  0.00     0.214 A 
ATOM      3  C   UNL     1       2.163  -9.389 -40.752  1.00  0.00     0.180 A 
ATOM      4  O   UNL     1       1.383  -9.534 -39.686  1.00  0.00    -0.452 OA
ATOM      5  C   UNL     1       2.652 -11.761 -40.683  1.00  0.00     0.239 A 
ATOM      6  C   UNL     1       1.177 -10.698 -39.086  1.00  0.00     0.146 A 
ATOM      7  O   UNL     1       3.242 -12.781 -41.129  1.00  0.00    -0.285 OA
ATOM      8  C   UNL     1       1.798 -11.873 -39.566  1.00  0.00     0.111 A 
ATOM      9  C   UNL     1       0.341 -10.747 -37.967  1.00  0.00     0.094 A 
ATOM     10  C   UNL     1       1.554 -13.101 -38.900  1.00  0.00     0.134 A 
ATOM     11  C   UNL     1       0.116 -11.958 -37.306  1.00  0.00     0.123 A 
ATOM     12  C   UNL     1       0.719 -13.128 -37.772  1.00  0.00     0.093 A 
BRANCH   3  13
ATOM     13  C   UNL     1       2.309  -8.033 -41.326  1.00  0.00     0.021 A 
ATOM     14  C   UNL     1       3.198  -7.124 -40.729  1.00  0.00     0.016 A 
ATOM     15  C   UNL     1       3.336  -5.832 -41.241  1.00  0.00     0.047 A 
ATOM     16  C   UNL     1       2.581  -5.428 -42.346  1.00  0.00     0.115 A 
ATOM     17  C   UNL     1       1.540  -7.619 -42.427  1.00  0.00     0.016 A 
ATOM     18  C   UNL     1       1.685  -6.326 -42.942  1.00  0.00     0.047 A 
BRANCH  16  19
ATOM     19  O   UNL     1       2.728  -4.137 -42.844  1.00  0.00    -0.508 OA
ATOM     20  H   UNL     1       3.240  -3.428 -42.330  1.00  0.00     0.293 HD
ENDBRANCH  16  19
ENDBRANCH   3  13
BRANCH  10  21
ATOM     21  O   UNL     1       2.133 -14.290 -39.347  1.00  0.00    -0.507 OA
ATOM     22  H   UNL     1       1.831 -15.191 -38.998  1.00  0.00     0.293 HD
ENDBRANCH  10  21
BRANCH  11  23
ATOM     23  O   UNL     1      -0.704 -12.010 -36.178  1.00  0.00    -0.508 OA
ATOM     24  H   UNL     1      -1.620 -11.580 -36.171  1.00  0.00     0.293 HD
ENDBRANCH  11  23
ENDBRANCH   1   2
BRANCH   1  25
ATOM     25  C   UNL     1       5.150 -10.192 -42.330  1.00  0.00     0.339 C 
ATOM     26  C   UNL     1       5.623  -9.351 -43.539  1.00  0.00     0.214 C 
ATOM     27  O   UNL     1       5.687 -11.511 -42.326  1.00  0.00    -0.332 OA
ATOM     28  C   UNL     1       7.158  -9.152 -43.491  1.00  0.00     0.180 C 
ATOM     29  C   UNL     1       6.989 -11.638 -42.896  1.00  0.00     0.179 C 
ATOM     30  C   UNL     1       7.855 -10.345 -42.785  1.00  0.00     0.177 C 
BRANCH  26  31
ATOM     31  O   UNL     1       4.944  -8.123 -43.628  1.00  0.00    -0.384 OA
ATOM     32  H   UNL     1       5.365  -7.592 -44.355  1.00  0.00     0.211 HD
ENDBRANCH  26  31
BRANCH  28  33
ATOM     33  O   UNL     1       7.511  -7.938 -42.874  1.00  0.00    -0.387 OA
ATOM     34  H   UNL     1       7.746  -7.290 -43.588  1.00  0.00     0.211 HD
ENDBRANCH  28  33
BRANCH  29  35
ATOM     35  C   UNL     1       7.686 -12.844 -42.248  1.00  0.00     0.191 C 
BRANCH  35  36
ATOM     36  O   UNL     1       6.763 -13.855 -41.934  1.00  0.00    -0.394 OA
ATOM     37  H   UNL     1       6.255 -14.050 -42.764  1.00  0.00     0.210 HD
ENDBRANCH  35  36
ENDBRANCH  29  35
BRANCH  30  38
ATOM     38  O   UNL     1       9.144 -10.539 -43.315  1.00  0.00    -0.387 OA
ATOM     39  H   UNL     1       9.796 -10.386 -42.583  1.00  0.00     0.211 HD
ENDBRANCH  30  38
ENDBRANCH   1  25
TORSDOF 11
ENDMDL
MODEL 6
REMARK VINA RESULT:    -7.817      1.511      2.231
REMARK INTER + INTRA:         -12.773
REMARK INTER:                 -11.240
REMARK INTRA:                  -1.532
REMARK UNBOUND:                -1.528
REMARK SMILES O=c1c(O[C@H]2O[C@H](CO)[C@@H](O)[C@H](O)[C@@H]2O)c(-c2ccc(O)cc2)oc2cc(O)cc(O)c12
REMARK SMILES IDX 4 1 3 2 16 3 24 4 2 5 25 6 1 7 32 8 26 9 30 10 27 11 29 12
REMARK SMILES IDX 17 13 18 14 19 15 20 16 23 17 22 18 21 19 31 21 28 23 5 25
REMARK SMILES IDX 14 26 6 27 12 28 7 29 10 30 15 31 13 33 8 35 9 36 11 38
REMARK H PARENT 21 20 31 22 28 24 15 32 13 34 9 37 11 39
REMARK Flexibility Score: inf
ROOT
ATOM      1  O   UNL     1       4.493  -9.592 -41.078  1.00  0.00    -0.454 OA
ENDROOT
BRANCH   1   2
ATOM      2  C   UNL     1       3.242 -10.197 -40.844  1.00  0.00     0.214 A 
ATOM      3  C   UNL     1       2.083  -9.422 -41.056  1.00  0.00     0.180 A 
ATOM      4  O   UNL     1       0.883  -9.921 -40.780  1.00  0.00    -0.452 OA
ATOM      5  C   UNL     1       3.082 -11.521 -40.372  1.00  0.00     0.239 A 
ATOM      6  C   UNL     1       0.691 -11.153 -40.329  1.00  0.00     0.146 A 
ATOM      7  O   UNL     1       4.087 -12.254 -40.172  1.00  0.00    -0.285 OA
ATOM      8  C   UNL     1       1.787 -12.018 -40.113  1.00  0.00     0.111 A 
ATOM      9  C   UNL     1      -0.613 -11.584 -40.065  1.00  0.00     0.094 A 
ATOM     10  C   UNL     1       1.544 -13.329 -39.631  1.00  0.00     0.134 A 
ATOM     11  C   UNL     1      -0.845 -12.872 -39.576  1.00  0.00     0.123 A 
ATOM     12  C   UNL     1       0.229 -13.740 -39.362  1.00  0.00     0.093 A 
BRANCH   3  13
ATOM     13  C   UNL     1       2.160  -8.031 -41.552  1.00  0.00     0.021 A 
ATOM     14  C   UNL     1       2.076  -7.785 -42.932  1.00  0.00     0.016 A 
ATOM     15  C   UNL     1       2.167  -6.481 -43.424  1.00  0.00     0.047 A 
ATOM     16  C   UNL     1       2.354  -5.409 -42.545  1.00  0.00     0.115 A 
ATOM     17  C   UNL     1       2.363  -6.953 -40.673  1.00  0.00     0.016 A 
ATOM     18  C   UNL     1       2.448  -5.647 -41.168  1.00  0.00     0.047 A 
BRANCH  16  19
ATOM     19  O   UNL     1       2.445  -4.116 -43.051  1.00  0.00    -0.508 OA
ATOM     20  H   UNL     1       2.427  -3.307 -42.439  1.00  0.00     0.293 HD
ENDBRANCH  16  19
ENDBRANCH   3  13
BRANCH  10  21
ATOM     21  O   UNL     1       2.593 -14.224 -39.417  1.00  0.00    -0.507 OA
ATOM     22  H   UNL     1       2.601 -15.144 -39.840  1.00  0.00     0.293 HD
ENDBRANCH  10  21
BRANCH  11  23
ATOM     23  O   UNL     1      -2.141 -13.303 -39.293  1.00  0.00    -0.508 OA
ATOM     24  H   UNL     1      -2.768 -12.752 -38.719  1.00  0.00     0.293 HD
ENDBRANCH  11  23
ENDBRANCH   1   2
BRANCH   1  25
ATOM     25  C   UNL     1       5.412  -9.879 -42.132  1.00  0.00     0.339 C 
ATOM     26  C   UNL     1       6.831  -9.979 -41.525  1.00  0.00     0.214 C 
ATOM     27  O   UNL     1       5.303  -8.867 -43.129  1.00  0.00    -0.332 OA
ATOM     28  C   UNL     1       7.856 -10.384 -42.612  1.00  0.00     0.180 C 
ATOM     29  C   UNL     1       6.489  -8.634 -43.887  1.00  0.00     0.179 C 
ATOM     30  C   UNL     1       7.414  -9.883 -44.012  1.00  0.00     0.177 C 
BRANCH  26  31
ATOM     31  O   UNL     1       6.875 -10.848 -40.421  1.00  0.00    -0.384 OA
ATOM     32  H   UNL     1       7.556 -10.504 -39.785  1.00  0.00     0.211 HD
ENDBRANCH  26  31
BRANCH  28  33
ATOM     33  O   UNL     1       8.079 -11.774 -42.632  1.00  0.00    -0.387 OA
ATOM     34  H   UNL     1       8.620 -12.008 -41.834  1.00  0.00     0.211 HD
ENDBRANCH  28  33
BRANCH  29  35
ATOM     35  C   UNL     1       6.082  -8.090 -45.266  1.00  0.00     0.191 C 
BRANCH  35  36
ATOM     36  O   UNL     1       6.977  -7.100 -45.703  1.00  0.00    -0.394 OA
ATOM     37  H   UNL     1       6.583  -6.693 -46.518  1.00  0.00     0.210 HD
ENDBRANCH  35  36
ENDBRANCH  29  35
BRANCH  30  38
ATOM     38  O   UNL     1       8.541  -9.614 -44.811  1.00  0.00    -0.387 OA
ATOM     39  H   UNL     1       8.230  -9.530 -45.750  1.00  0.00     0.211 HD
ENDBRANCH  30  38
ENDBRANCH   1  25
TORSDOF 11
ENDMDL
MODEL 7
REMARK VINA RESULT:    -7.810      1.776      2.072
REMARK INTER + INTRA:         -12.762
REMARK INTER:                 -11.277
REMARK INTRA:                  -1.485
REMARK UNBOUND:                -1.528
REMARK SMILES O=c1c(O[C@H]2O[C@H](CO)[C@@H](O)[C@H](O)[C@@H]2O)c(-c2ccc(O)cc2)oc2cc(O)cc(O)c12
REMARK SMILES IDX 4 1 3 2 16 3 24 4 2 5 25 6 1 7 32 8 26 9 30 10 27 11 29 12
REMARK SMILES IDX 17 13 18 14 19 15 20 16 23 17 22 18 21 19 31 21 28 23 5 25
REMARK SMILES IDX 14 26 6 27 12 28 7 29 10 30 15 31 13 33 8 35 9 36 11 38
REMARK H PARENT 21 20 31 22 28 24 15 32 13 34 9 37 11 39
REMARK Flexibility Score: inf
ROOT
ATOM      1  O   UNL     1       4.966 -10.633 -41.538  1.00  0.00    -0.454 OA
ENDROOT
BRANCH   1   2
ATOM      2  C   UNL     1       3.894 -10.728 -40.627  1.00  0.00     0.214 A 
ATOM      3  C   UNL     1       3.399  -9.534 -40.063  1.00  0.00     0.180 A 
ATOM      4  O   UNL     1       2.440  -9.574 -39.144  1.00  0.00    -0.452 OA
ATOM      5  C   UNL     1       3.314 -11.951 -40.215  1.00  0.00     0.239 A 
ATOM      6  C   UNL     1       1.876 -10.699 -38.726  1.00  0.00     0.146 A 
ATOM      7  O   UNL     1       3.720 -13.043 -40.694  1.00  0.00    -0.285 OA
ATOM      8  C   UNL     1       2.282 -11.945 -39.253  1.00  0.00     0.111 A 
ATOM      9  C   UNL     1       0.875 -10.635 -37.751  1.00  0.00     0.094 A 
ATOM     10  C   UNL     1       1.657 -13.128 -38.783  1.00  0.00     0.134 A 
ATOM     11  C   UNL     1       0.273 -11.806 -37.281  1.00  0.00     0.123 A 
ATOM     12  C   UNL     1       0.661 -13.045 -37.797  1.00  0.00     0.093 A 
BRANCH   3  13
ATOM     13  C   UNL     1       3.945  -8.213 -40.440  1.00  0.00     0.021 A 
ATOM     14  C   UNL     1       3.257  -7.423 -41.376  1.00  0.00     0.016 A 
ATOM     15  C   UNL     1       3.766  -6.181 -41.762  1.00  0.00     0.047 A 
ATOM     16  C   UNL     1       4.972  -5.718 -41.228  1.00  0.00     0.115 A 
ATOM     17  C   UNL     1       5.165  -7.750 -39.917  1.00  0.00     0.016 A 
ATOM     18  C   UNL     1       5.670  -6.503 -40.301  1.00  0.00     0.047 A 
BRANCH  16  19
ATOM     19  O   UNL     1       5.467  -4.479 -41.624  1.00  0.00    -0.508 OA
ATOM     20  H   UNL     1       6.440  -4.230 -41.485  1.00  0.00     0.293 HD
ENDBRANCH  16  19
ENDBRANCH   3  13
BRANCH  10  21
ATOM     21  O   UNL     1       2.014 -14.380 -39.286  1.00  0.00    -0.507 OA
ATOM     22  H   UNL     1       1.647 -15.235 -38.888  1.00  0.00     0.293 HD
ENDBRANCH  10  21
BRANCH  11  23
ATOM     23  O   UNL     1      -0.713 -11.751 -36.296  1.00  0.00    -0.508 OA
ATOM     24  H   UNL     1      -0.532 -11.339 -35.389  1.00  0.00     0.293 HD
ENDBRANCH  11  23
ENDBRANCH   1   2
BRANCH   1  25
ATOM     25  C   UNL     1       4.897 -10.657 -42.963  1.00  0.00     0.339 C 
ATOM     26  C   UNL     1       5.918  -9.636 -43.516  1.00  0.00     0.214 C 
ATOM     27  O   UNL     1       3.559 -10.379 -43.366  1.00  0.00    -0.332 OA
ATOM     28  C   UNL     1       5.953  -9.689 -45.063  1.00  0.00     0.180 C 
ATOM     29  C   UNL     1       3.427  -9.768 -44.648  1.00  0.00     0.179 C 
ATOM     30  C   UNL     1       4.579 -10.121 -45.638  1.00  0.00     0.177 C 
BRANCH  26  31
ATOM     31  O   UNL     1       7.198  -9.814 -42.962  1.00  0.00    -0.384 OA
ATOM     32  H   UNL     1       7.467  -8.962 -42.527  1.00  0.00     0.211 HD
ENDBRANCH  26  31
BRANCH  28  33
ATOM     33  O   UNL     1       6.974 -10.534 -45.536  1.00  0.00    -0.387 OA
ATOM     34  H   UNL     1       7.818 -10.011 -45.555  1.00  0.00     0.211 HD
ENDBRANCH  28  33
BRANCH  29  35
ATOM     35  C   UNL     1       2.051 -10.139 -45.223  1.00  0.00     0.191 C 
BRANCH  35  36
ATOM     36  O   UNL     1       1.574  -9.136 -46.083  1.00  0.00    -0.394 OA
ATOM     37  H   UNL     1       0.931  -9.569 -46.703  1.00  0.00     0.210 HD
ENDBRANCH  35  36
ENDBRANCH  29  35
BRANCH  30  38
ATOM     38  O   UNL     1       4.374  -9.534 -46.901  1.00  0.00    -0.387 OA
ATOM     39  H   UNL     1       3.818 -10.159 -47.436  1.00  0.00     0.211 HD
ENDBRANCH  30  38
ENDBRANCH   1  25
TORSDOF 11
ENDMDL
MODEL 8
REMARK VINA RESULT:    -7.741      2.072      4.325
REMARK INTER + INTRA:         -12.664
REMARK INTER:                 -11.348
REMARK INTRA:                  -1.316
REMARK UNBOUND:                -1.528
REMARK SMILES O=c1c(O[C@H]2O[C@H](CO)[C@@H](O)[C@H](O)[C@@H]2O)c(-c2ccc(O)cc2)oc2cc(O)cc(O)c12
REMARK SMILES IDX 4 1 3 2 16 3 24 4 2 5 25 6 1 7 32 8 26 9 30 10 27 11 29 12
REMARK SMILES IDX 17 13 18 14 19 15 20 16 23 17 22 18 21 19 31 21 28 23 5 25
REMARK SMILES IDX 14 26 6 27 12 28 7 29 10 30 15 31 13 33 8 35 9 36 11 38
REMARK H PARENT 21 20 31 22 28 24 15 32 13 34 9 37 11 39
REMARK Flexibility Score: inf
ROOT
ATOM      1  O   UNL     1       4.781  -9.460 -41.943  1.00  0.00    -0.454 OA
ENDROOT
BRANCH   1   2
ATOM      2  C   UNL     1       3.922 -10.396 -41.332  1.00  0.00     0.214 A 
ATOM      3  C   UNL     1       4.499 -11.559 -40.780  1.00  0.00     0.180 A 
ATOM      4  O   UNL     1       3.727 -12.507 -40.258  1.00  0.00    -0.452 OA
ATOM      5  C   UNL     1       2.515 -10.258 -41.274  1.00  0.00     0.239 A 
ATOM      6  C   UNL     1       2.407 -12.419 -40.192  1.00  0.00     0.146 A 
ATOM      7  O   UNL     1       1.955  -9.234 -41.750  1.00  0.00    -0.285 OA
ATOM      8  C   UNL     1       1.737 -11.279 -40.690  1.00  0.00     0.111 A 
ATOM      9  C   UNL     1       1.683 -13.473 -39.626  1.00  0.00     0.094 A 
ATOM     10  C   UNL     1       0.323 -11.218 -40.603  1.00  0.00     0.134 A 
ATOM     11  C   UNL     1       0.288 -13.414 -39.556  1.00  0.00     0.123 A 
ATOM     12  C   UNL     1      -0.387 -12.291 -40.040  1.00  0.00     0.093 A 
BRANCH   3  13
ATOM     13  C   UNL     1       5.961 -11.782 -40.794  1.00  0.00     0.021 A 
ATOM     14  C   UNL     1       6.526 -12.587 -41.797  1.00  0.00     0.016 A 
ATOM     15  C   UNL     1       7.902 -12.829 -41.816  1.00  0.00     0.047 A 
ATOM     16  C   UNL     1       8.726 -12.281 -40.829  1.00  0.00     0.115 A 
ATOM     17  C   UNL     1       6.791 -11.246 -39.795  1.00  0.00     0.016 A 
ATOM     18  C   UNL     1       8.170 -11.484 -39.820  1.00  0.00     0.047 A 
BRANCH  16  19
ATOM     19  O   UNL     1      10.095 -12.532 -40.861  1.00  0.00    -0.508 OA
ATOM     20  H   UNL     1      10.769 -11.816 -40.616  1.00  0.00     0.293 HD
ENDBRANCH  16  19
ENDBRANCH   3  13
BRANCH  10  21
ATOM     21  O   UNL     1      -0.381 -10.106 -41.067  1.00  0.00    -0.507 OA
ATOM     22  H   UNL     1      -0.431  -9.248 -40.532  1.00  0.00     0.293 HD
ENDBRANCH  10  21
BRANCH  11  23
ATOM     23  O   UNL     1      -0.442 -14.469 -39.009  1.00  0.00    -0.508 OA
ATOM     24  H   UNL     1       0.005 -15.340 -38.746  1.00  0.00     0.293 HD
ENDBRANCH  11  23
ENDBRANCH   1   2
BRANCH   1  25
ATOM     25  C   UNL     1       5.275  -9.482 -43.282  1.00  0.00     0.339 C 
ATOM     26  C   UNL     1       5.464  -8.022 -43.754  1.00  0.00     0.214 C 
ATOM     27  O   UNL     1       4.369 -10.219 -44.097  1.00  0.00    -0.332 OA
ATOM     28  C   UNL     1       6.090  -7.989 -45.170  1.00  0.00     0.180 C 
ATOM     29  C   UNL     1       4.347  -9.841 -45.473  1.00  0.00     0.179 C 
ATOM     30  C   UNL     1       5.695  -9.247 -45.986  1.00  0.00     0.177 C 
BRANCH  26  31
ATOM     31  O   UNL     1       6.211  -7.261 -42.839  1.00  0.00    -0.384 OA
ATOM     32  H   UNL     1       5.575  -6.782 -42.244  1.00  0.00     0.211 HD
ENDBRANCH  26  31
BRANCH  28  33
ATOM     33  O   UNL     1       7.490  -7.851 -45.121  1.00  0.00    -0.387 OA
ATOM     34  H   UNL     1       7.880  -8.447 -45.812  1.00  0.00     0.211 HD
ENDBRANCH  28  33
BRANCH  29  35
ATOM     35  C   UNL     1       3.911 -11.057 -46.303  1.00  0.00     0.191 C 
BRANCH  35  36
ATOM     36  O   UNL     1       3.203 -10.661 -47.450  1.00  0.00    -0.394 OA
ATOM     37  H   UNL     1       2.270 -10.980 -47.339  1.00  0.00     0.210 HD
ENDBRANCH  35  36
ENDBRANCH  29  35
BRANCH  30  38
ATOM     38  O   UNL     1       5.636  -8.939 -47.358  1.00  0.00    -0.387 OA
ATOM     39  H   UNL     1       4.690  -9.032 -47.646  1.00  0.00     0.211 HD
ENDBRANCH  30  38
ENDBRANCH   1  25
TORSDOF 11
ENDMDL
MODEL 9
REMARK VINA RESULT:    -7.678      2.460      6.567
REMARK INTER + INTRA:         -12.573
REMARK INTER:                 -11.079
REMARK INTRA:                  -1.494
REMARK UNBOUND:                -1.528
REMARK SMILES O=c1c(O[C@H]2O[C@H](CO)[C@@H](O)[C@H](O)[C@@H]2O)c(-c2ccc(O)cc2)oc2cc(O)cc(O)c12
REMARK SMILES IDX 4 1 3 2 16 3 24 4 2 5 25 6 1 7 32 8 26 9 30 10 27 11 29 12
REMARK SMILES IDX 17 13 18 14 19 15 20 16 23 17 22 18 21 19 31 21 28 23 5 25
REMARK SMILES IDX 14 26 6 27 12 28 7 29 10 30 15 31 13 33 8 35 9 36 11 38
REMARK H PARENT 21 20 31 22 28 24 15 32 13 34 9 37 11 39
REMARK Flexibility Score: inf
ROOT
ATOM      1  O   UNL     1       1.676 -11.031 -41.864  1.00  0.00    -0.454 OA
ENDROOT
BRANCH   1   2
ATOM      2  C   UNL     1       3.003 -11.377 -41.536  1.00  0.00     0.214 A 
ATOM      3  C   UNL     1       3.274 -11.775 -40.211  1.00  0.00     0.180 A 
ATOM      4  O   UNL     1       4.520 -12.040 -39.831  1.00  0.00    -0.452 OA
ATOM      5  C   UNL     1       4.085 -11.308 -42.446  1.00  0.00     0.239 A 
ATOM      6  C   UNL     1       5.560 -11.980 -40.650  1.00  0.00     0.146 A 
ATOM      7  O   UNL     1       3.891 -10.961 -43.642  1.00  0.00    -0.285 OA
ATOM      8  C   UNL     1       5.388 -11.620 -42.006  1.00  0.00     0.111 A 
ATOM      9  C   UNL     1       6.834 -12.274 -40.153  1.00  0.00     0.094 A 
ATOM     10  C   UNL     1       6.524 -11.567 -42.853  1.00  0.00     0.134 A 
ATOM     11  C   UNL     1       7.951 -12.206 -40.990  1.00  0.00     0.123 A 
ATOM     12  C   UNL     1       7.795 -11.856 -42.334  1.00  0.00     0.093 A 
BRANCH   3  13
ATOM     13  C   UNL     1       2.202 -11.877 -39.197  1.00  0.00     0.021 A 
ATOM     14  C   UNL     1       1.933 -10.779 -38.364  1.00  0.00     0.016 A 
ATOM     15  C   UNL     1       0.941 -10.860 -37.385  1.00  0.00     0.047 A 
ATOM     16  C   UNL     1       0.213 -12.042 -37.218  1.00  0.00     0.115 A 
ATOM     17  C   UNL     1       1.479 -13.069 -39.016  1.00  0.00     0.016 A 
ATOM     18  C   UNL     1       0.481 -13.147 -38.039  1.00  0.00     0.047 A 
BRANCH  16  19
ATOM     19  O   UNL     1      -0.772 -12.109 -36.238  1.00  0.00    -0.508 OA
ATOM     20  H   UNL     1      -1.360 -12.928 -36.135  1.00  0.00     0.293 HD
ENDBRANCH  16  19
ENDBRANCH   3  13
BRANCH  10  21
ATOM     21  O   UNL     1       6.400 -11.231 -44.202  1.00  0.00    -0.507 OA
ATOM     22  H   UNL     1       5.711 -10.562 -44.522  1.00  0.00     0.293 HD
ENDBRANCH  10  21
BRANCH  11  23
ATOM     23  O   UNL     1       9.227 -12.481 -40.497  1.00  0.00    -0.508 OA
ATOM     24  H   UNL     1       9.393 -13.254 -39.863  1.00  0.00     0.293 HD
ENDBRANCH  11  23
ENDBRANCH   1   2
BRANCH   1  25
ATOM     25  C   UNL     1       1.093  -9.729 -41.861  1.00  0.00     0.339 C 
ATOM     26  C   UNL     1       0.579  -9.423 -43.287  1.00  0.00     0.214 C 
ATOM     27  O   UNL     1       2.062  -8.789 -41.405  1.00  0.00    -0.332 OA
ATOM     28  C   UNL     1      -0.150  -8.058 -43.317  1.00  0.00     0.180 C 
ATOM     29  C   UNL     1       1.900  -7.462 -41.902  1.00  0.00     0.179 C 
ATOM     30  C   UNL     1       0.424  -7.093 -42.247  1.00  0.00     0.177 C 
BRANCH  26  31
ATOM     31  O   UNL     1      -0.232 -10.455 -43.790  1.00  0.00    -0.384 OA
ATOM     32  H   UNL     1       0.007 -10.597 -44.744  1.00  0.00     0.211 HD
ENDBRANCH  26  31
BRANCH  28  33
ATOM     33  O   UNL     1      -1.541  -8.201 -43.156  1.00  0.00    -0.387 OA
ATOM     34  H   UNL     1      -1.987  -7.548 -43.757  1.00  0.00     0.211 HD
ENDBRANCH  28  33
BRANCH  29  35
ATOM     35  C   UNL     1       2.506  -6.485 -40.882  1.00  0.00     0.191 C 
BRANCH  35  36
ATOM     36  O   UNL     1       1.508  -5.908 -40.079  1.00  0.00    -0.394 OA
ATOM     37  H   UNL     1       0.779  -6.576 -40.000  1.00  0.00     0.210 HD
ENDBRANCH  35  36
ENDBRANCH  29  35
BRANCH  30  38
ATOM     38  O   UNL     1       0.313  -5.759 -42.683  1.00  0.00    -0.387 OA
ATOM     39  H   UNL     1       0.642  -5.176 -41.950  1.00  0.00     0.211 HD
ENDBRANCH  30  38
ENDBRANCH   1  25
TORSDOF 11
ENDMDL
