MODEL 1
REMARK VINA RESULT:    -1.365      0.000      0.000
REMARK INTER + INTRA:          -5.897
REMARK INTER:                  -3.600
REMARK INTRA:                  -2.297
REMARK UNBOUND:                -2.297
REMARK SMILES CCCCCCCCCCCCCCCCCCCCCCCCCCCCCC(=O)[O-]
REMARK SMILES IDX 16 1 17 2 18 3 19 4 20 5 21 6 22 7 23 8 24 9 25 10 26 11
REMARK SMILES IDX 27 12 28 13 29 14 30 15 31 16 32 17 15 18 14 19 13 20 12 21
REMARK SMILES IDX 11 22 10 23 9 24 8 25 7 26 6 27 5 28 4 29 3 30 2 31 1 32
REMARK H PARENT
REMARK Flexibility Score: inf
ROOT
ATOM      1  C   UNL     1     -16.366  -6.111 -20.727  1.00  0.00     0.000 C 
ENDROOT
BRANCH   1   2
ATOM      2  C   UNL     1     -16.840  -7.449 -20.128  1.00  0.00     0.000 C 
BRANCH   2   3
ATOM      3  C   UNL     1     -15.712  -8.500 -20.051  1.00  0.00     0.000 C 
BRANCH   3   4
ATOM      4  C   UNL     1     -16.165  -9.931 -20.397  1.00  0.00     0.000 C 
BRANCH   4   5
ATOM      5  C   UNL     1     -17.008 -10.633 -19.315  1.00  0.00     0.000 C 
BRANCH   5   6
ATOM      6  C   UNL     1     -16.792 -12.154 -19.196  1.00  0.00     0.000 C 
BRANCH   6   7
ATOM      7  C   UNL     1     -16.584 -12.896 -20.530  1.00  0.00     0.000 C 
BRANCH   7   8
ATOM      8  C   UNL     1     -17.876 -13.502 -21.123  1.00  0.00     0.000 C 
BRANCH   8   9
ATOM      9  C   UNL     1     -18.772 -12.447 -21.794  1.00  0.00     0.000 C 
BRANCH   9  10
ATOM     10  C   UNL     1     -19.616 -13.038 -22.935  1.00  0.00     0.000 C 
BRANCH  10  11
ATOM     11  C   UNL     1     -18.861 -14.124 -23.722  1.00  0.00     0.000 C 
BRANCH  11  12
ATOM     12  C   UNL     1     -18.996 -13.933 -25.247  1.00  0.00     0.000 C 
BRANCH  12  13
ATOM     13  C   UNL     1     -18.261 -12.690 -25.776  1.00  0.00     0.006 C 
BRANCH  13  14
ATOM     14  C   UNL     1     -17.072 -12.279 -24.899  1.00  0.00     0.053 C 
BRANCH  14  15
ATOM     15  C   UNL     1     -15.804 -12.873 -25.428  1.00  0.00     0.041 C 
ATOM     16  O   UNL     1     -14.733 -12.770 -24.772  1.00  0.00    -0.550 OA
ATOM     17  O   UNL     1     -15.788 -13.476 -26.679  1.00  0.00    -0.550 OA
ENDBRANCH  14  15
ENDBRANCH  13  14
ENDBRANCH  12  13
ENDBRANCH  11  12
ENDBRANCH  10  11
ENDBRANCH   9  10
ENDBRANCH   8   9
ENDBRANCH   7   8
ENDBRANCH   6   7
ENDBRANCH   5   6
ENDBRANCH   4   5
ENDBRANCH   3   4
ENDBRANCH   2   3
ENDBRANCH   1   2
BRANCH   1  18
ATOM     18  C   UNL     1     -14.951  -5.729 -20.257  1.00  0.00     0.000 C 
BRANCH  18  19
ATOM     19  C   UNL     1     -14.912  -5.362 -18.764  1.00  0.00     0.000 C 
BRANCH  19  20
ATOM     20  C   UNL     1     -13.527  -5.631 -18.155  1.00  0.00     0.000 C 
BRANCH  20  21
ATOM     21  C   UNL     1     -13.413  -7.036 -17.543  1.00  0.00     0.000 C 
BRANCH  21  22
ATOM     22  C   UNL     1     -13.115  -7.004 -16.032  1.00  0.00     0.000 C 
BRANCH  22  23
ATOM     23  C   UNL     1     -14.390  -6.983 -15.174  1.00  0.00     0.000 C 
BRANCH  23  24
ATOM     24  C   UNL     1     -14.386  -5.845 -14.138  1.00  0.00    -0.000 C 
BRANCH  24  25
ATOM     25  C   UNL     1     -13.797  -4.535 -14.685  1.00  0.00    -0.000 C 
BRANCH  25  26
ATOM     26  C   UNL     1     -14.734  -3.318 -14.531  1.00  0.00    -0.000 C 
BRANCH  26  27
ATOM     27  C   UNL     1     -14.007  -2.096 -13.948  1.00  0.00    -0.000 C 
BRANCH  27  28
ATOM     28  C   UNL     1     -12.875  -2.527 -13.002  1.00  0.00    -0.000 C 
BRANCH  28  29
ATOM     29  C   UNL     1     -13.351  -2.711 -11.552  1.00  0.00    -0.000 C 
BRANCH  29  30
ATOM     30  C   UNL     1     -13.024  -4.105 -10.995  1.00  0.00    -0.000 C 
BRANCH  30  31
ATOM     31  C   UNL     1     -13.924  -4.445  -9.802  1.00  0.00    -0.003 C 
ATOM     32  C   UNL     1     -13.413  -5.675  -9.057  1.00  0.00     0.004 C 
ENDBRANCH  30  31
ENDBRANCH  29  30
ENDBRANCH  28  29
ENDBRANCH  27  28
ENDBRANCH  26  27
ENDBRANCH  25  26
ENDBRANCH  24  25
ENDBRANCH  23  24
ENDBRANCH  22  23
ENDBRANCH  21  22
ENDBRANCH  20  21
ENDBRANCH  19  20
ENDBRANCH  18  19
ENDBRANCH   1  18
TORSDOF 28
ENDMDL
MODEL 2
REMARK VINA RESULT:    -0.203      4.703     12.897
REMARK INTER + INTRA:          -2.833
REMARK INTER:                  -2.539
REMARK INTRA:                  -0.294
REMARK UNBOUND:                -2.297
REMARK SMILES CCCCCCCCCCCCCCCCCCCCCCCCCCCCCC(=O)[O-]
REMARK SMILES IDX 16 1 17 2 18 3 19 4 20 5 21 6 22 7 23 8 24 9 25 10 26 11
REMARK SMILES IDX 27 12 28 13 29 14 30 15 31 16 32 17 15 18 14 19 13 20 12 21
REMARK SMILES IDX 11 22 10 23 9 24 8 25 7 26 6 27 5 28 4 29 3 30 2 31 1 32
REMARK H PARENT
REMARK Flexibility Score: inf
ROOT
ATOM      1  C   UNL     1     -16.084  -4.788 -20.590  1.00  0.00     0.000 C 
ENDROOT
BRANCH   1   2
ATOM      2  C   UNL     1     -14.788  -5.533 -20.219  1.00  0.00     0.000 C 
BRANCH   2   3
ATOM      3  C   UNL     1     -14.160  -5.019 -18.905  1.00  0.00     0.000 C 
BRANCH   3   4
ATOM      4  C   UNL     1     -13.398  -6.097 -18.112  1.00  0.00     0.000 C 
BRANCH   4   5
ATOM      5  C   UNL     1     -14.242  -6.882 -17.091  1.00  0.00     0.000 C 
BRANCH   5   6
ATOM      6  C   UNL     1     -13.597  -7.064 -15.703  1.00  0.00     0.000 C 
BRANCH   6   7
ATOM      7  C   UNL     1     -14.453  -6.593 -14.512  1.00  0.00     0.000 C 
BRANCH   7   8
ATOM      8  C   UNL     1     -14.087  -5.187 -13.988  1.00  0.00     0.000 C 
BRANCH   8   9
ATOM      9  C   UNL     1     -14.175  -4.106 -15.079  1.00  0.00     0.000 C 
BRANCH   9  10
ATOM     10  C   UNL     1     -14.700  -2.767 -14.535  1.00  0.00     0.000 C 
BRANCH  10  11
ATOM     11  C   UNL     1     -13.572  -1.870 -13.995  1.00  0.00     0.000 C 
BRANCH  11  12
ATOM     12  C   UNL     1     -12.876  -2.491 -12.766  1.00  0.00     0.000 C 
BRANCH  12  13
ATOM     13  C   UNL     1     -13.651  -2.284 -11.454  1.00  0.00     0.006 C 
BRANCH  13  14
ATOM     14  C   UNL     1     -14.205  -3.591 -10.873  1.00  0.00     0.053 C 
BRANCH  14  15
ATOM     15  C   UNL     1     -13.545  -3.900  -9.565  1.00  0.00     0.041 C 
ATOM     16  O   UNL     1     -13.038  -2.974  -8.875  1.00  0.00    -0.550 OA
ATOM     17  O   UNL     1     -13.422  -5.218  -9.144  1.00  0.00    -0.550 OA
ENDBRANCH  14  15
ENDBRANCH  13  14
ENDBRANCH  12  13
ENDBRANCH  11  12
ENDBRANCH  10  11
ENDBRANCH   9  10
ENDBRANCH   8   9
ENDBRANCH   7   8
ENDBRANCH   6   7
ENDBRANCH   5   6
ENDBRANCH   4   5
ENDBRANCH   3   4
ENDBRANCH   2   3
ENDBRANCH   1   2
BRANCH   1  18
ATOM     18  C   UNL     1     -17.317  -5.709 -20.559  1.00  0.00     0.000 C 
BRANCH  18  19
ATOM     19  C   UNL     1     -16.981  -7.148 -20.985  1.00  0.00     0.000 C 
BRANCH  19  20
ATOM     20  C   UNL     1     -15.827  -7.726 -20.152  1.00  0.00     0.000 C 
BRANCH  20  21
ATOM     21  C   UNL     1     -15.549  -9.204 -20.469  1.00  0.00     0.000 C 
BRANCH  21  22
ATOM     22  C   UNL     1     -16.729 -10.123 -20.102  1.00  0.00     0.000 C 
BRANCH  22  23
ATOM     23  C   UNL     1     -16.503 -11.582 -20.531  1.00  0.00     0.000 C 
BRANCH  23  24
ATOM     24  C   UNL     1     -17.305 -12.579 -19.676  1.00  0.00    -0.000 C 
BRANCH  24  25
ATOM     25  C   UNL     1     -17.380 -13.982 -20.298  1.00  0.00    -0.000 C 
BRANCH  25  26
ATOM     26  C   UNL     1     -17.857 -13.989 -21.767  1.00  0.00    -0.000 C 
BRANCH  26  27
ATOM     27  C   UNL     1     -19.333 -13.585 -21.900  1.00  0.00    -0.000 C 
BRANCH  27  28
ATOM     28  C   UNL     1     -19.627 -13.022 -23.299  1.00  0.00    -0.000 C 
BRANCH  28  29
ATOM     29  C   UNL     1     -18.661 -13.554 -24.369  1.00  0.00    -0.000 C 
BRANCH  29  30
ATOM     30  C   UNL     1     -19.121 -13.223 -25.798  1.00  0.00    -0.000 C 
BRANCH  30  31
ATOM     31  C   UNL     1     -18.161 -12.233 -26.468  1.00  0.00    -0.003 C 
ATOM     32  C   UNL     1     -16.810 -12.209 -25.759  1.00  0.00     0.004 C 
ENDBRANCH  30  31
ENDBRANCH  29  30
ENDBRANCH  28  29
ENDBRANCH  27  28
ENDBRANCH  26  27
ENDBRANCH  25  26
ENDBRANCH  24  25
ENDBRANCH  23  24
ENDBRANCH  22  23
ENDBRANCH  21  22
ENDBRANCH  20  21
ENDBRANCH  19  20
ENDBRANCH  18  19
ENDBRANCH   1  18
TORSDOF 28
ENDMDL
MODEL 3
REMARK VINA RESULT:     0.173      4.584     12.690
REMARK INTER + INTRA:          -1.841
REMARK INTER:                  -1.141
REMARK INTRA:                  -0.700
REMARK UNBOUND:                -2.297
REMARK SMILES CCCCCCCCCCCCCCCCCCCCCCCCCCCCCC(=O)[O-]
REMARK SMILES IDX 16 1 17 2 18 3 19 4 20 5 21 6 22 7 23 8 24 9 25 10 26 11
REMARK SMILES IDX 27 12 28 13 29 14 30 15 31 16 32 17 15 18 14 19 13 20 12 21
REMARK SMILES IDX 11 22 10 23 9 24 8 25 7 26 6 27 5 28 4 29 3 30 2 31 1 32
REMARK H PARENT
REMARK Flexibility Score: inf
ROOT
ATOM      1  C   UNL     1     -15.857  -7.818 -20.031  1.00  0.00     0.000 C 
ENDROOT
BRANCH   1   2
ATOM      2  C   UNL     1     -17.109  -7.185 -20.665  1.00  0.00     0.000 C 
BRANCH   2   3
ATOM      3  C   UNL     1     -16.948  -5.671 -20.918  1.00  0.00     0.000 C 
BRANCH   3   4
ATOM      4  C   UNL     1     -15.850  -5.007 -20.066  1.00  0.00     0.000 C 
BRANCH   4   5
ATOM      5  C   UNL     1     -14.410  -5.448 -20.390  1.00  0.00     0.000 C 
BRANCH   5   6
ATOM      6  C   UNL     1     -13.569  -5.895 -19.179  1.00  0.00     0.000 C 
BRANCH   6   7
ATOM      7  C   UNL     1     -13.592  -4.938 -17.972  1.00  0.00     0.000 C 
BRANCH   7   8
ATOM      8  C   UNL     1     -14.498  -5.407 -16.812  1.00  0.00     0.000 C 
BRANCH   8   9
ATOM      9  C   UNL     1     -13.923  -6.622 -16.064  1.00  0.00     0.000 C 
BRANCH   9  10
ATOM     10  C   UNL     1     -14.448  -6.723 -14.622  1.00  0.00     0.000 C 
BRANCH  10  11
ATOM     11  C   UNL     1     -13.834  -5.658 -13.698  1.00  0.00     0.000 C 
BRANCH  11  12
ATOM     12  C   UNL     1     -14.405  -4.251 -13.976  1.00  0.00     0.000 C 
BRANCH  12  13
ATOM     13  C   UNL     1     -14.390  -3.330 -12.744  1.00  0.00     0.006 C 
BRANCH  13  14
ATOM     14  C   UNL     1     -13.359  -3.753 -11.692  1.00  0.00     0.053 C 
BRANCH  14  15
ATOM     15  C   UNL     1     -14.032  -4.035 -10.386  1.00  0.00     0.041 C 
ATOM     16  O   UNL     1     -14.736  -3.149  -9.830  1.00  0.00    -0.550 OA
ATOM     17  O   UNL     1     -13.825  -5.250  -9.745  1.00  0.00    -0.550 OA
ENDBRANCH  14  15
ENDBRANCH  13  14
ENDBRANCH  12  13
ENDBRANCH  11  12
ENDBRANCH  10  11
ENDBRANCH   9  10
ENDBRANCH   8   9
ENDBRANCH   7   8
ENDBRANCH   6   7
ENDBRANCH   5   6
ENDBRANCH   4   5
ENDBRANCH   3   4
ENDBRANCH   2   3
ENDBRANCH   1   2
BRANCH   1  18
ATOM     18  C   UNL     1     -15.665  -9.285 -20.456  1.00  0.00     0.000 C 
BRANCH  18  19
ATOM     19  C   UNL     1     -16.673 -10.226 -19.775  1.00  0.00     0.000 C 
BRANCH  19  20
ATOM     20  C   UNL     1     -16.411 -11.694 -20.146  1.00  0.00     0.000 C 
BRANCH  20  21
ATOM     21  C   UNL     1     -17.015 -12.678 -19.131  1.00  0.00     0.000 C 
BRANCH  21  22
ATOM     22  C   UNL     1     -17.151 -14.104 -19.694  1.00  0.00     0.000 C 
BRANCH  22  23
ATOM     23  C   UNL     1     -17.407 -14.124 -21.210  1.00  0.00     0.000 C 
BRANCH  23  24
ATOM     24  C   UNL     1     -18.901 -13.999 -21.558  1.00  0.00    -0.000 C 
BRANCH  24  25
ATOM     25  C   UNL     1     -19.248 -12.672 -22.250  1.00  0.00    -0.000 C 
BRANCH  25  26
ATOM     26  C   UNL     1     -19.841 -12.842 -23.665  1.00  0.00    -0.000 C 
BRANCH  26  27
ATOM     27  C   UNL     1     -19.015 -13.807 -24.529  1.00  0.00    -0.000 C 
BRANCH  27  28
ATOM     28  C   UNL     1     -18.226 -13.046 -25.607  1.00  0.00    -0.000 C 
BRANCH  28  29
ATOM     29  C   UNL     1     -17.089 -12.194 -25.021  1.00  0.00    -0.000 C 
BRANCH  29  30
ATOM     30  C   UNL     1     -15.745 -12.937 -24.999  1.00  0.00    -0.000 C 
BRANCH  30  31
ATOM     31  C   UNL     1     -15.378 -13.448 -26.397  1.00  0.00    -0.003 C 
ATOM     32  C   UNL     1     -13.872 -13.374 -26.634  1.00  0.00     0.004 C 
ENDBRANCH  30  31
ENDBRANCH  29  30
ENDBRANCH  28  29
ENDBRANCH  27  28
ENDBRANCH  26  27
ENDBRANCH  25  26
ENDBRANCH  24  25
ENDBRANCH  23  24
ENDBRANCH  22  23
ENDBRANCH  21  22
ENDBRANCH  20  21
ENDBRANCH  19  20
ENDBRANCH  18  19
ENDBRANCH   1  18
TORSDOF 28
ENDMDL
MODEL 4
REMARK VINA RESULT:     0.271      4.096     12.427
REMARK INTER + INTRA:          -1.582
REMARK INTER:                  -2.036
REMARK INTRA:                   0.454
REMARK UNBOUND:                -2.297
REMARK SMILES CCCCCCCCCCCCCCCCCCCCCCCCCCCCCC(=O)[O-]
REMARK SMILES IDX 16 1 17 2 18 3 19 4 20 5 21 6 22 7 23 8 24 9 25 10 26 11
REMARK SMILES IDX 27 12 28 13 29 14 30 15 31 16 32 17 15 18 14 19 13 20 12 21
REMARK SMILES IDX 11 22 10 23 9 24 8 25 7 26 6 27 5 28 4 29 3 30 2 31 1 32
REMARK H PARENT
REMARK Flexibility Score: inf
ROOT
ATOM      1  C   UNL     1     -15.224  -7.440 -20.129  1.00  0.00     0.000 C 
ENDROOT
BRANCH   1   2
ATOM      2  C   UNL     1     -16.358  -6.789 -20.942  1.00  0.00     0.000 C 
BRANCH   2   3
ATOM      3  C   UNL     1     -16.926  -5.522 -20.265  1.00  0.00     0.000 C 
BRANCH   3   4
ATOM      4  C   UNL     1     -15.870  -4.686 -19.517  1.00  0.00     0.000 C 
BRANCH   4   5
ATOM      5  C   UNL     1     -14.429  -4.825 -20.042  1.00  0.00     0.000 C 
BRANCH   5   6
ATOM      6  C   UNL     1     -13.453  -5.556 -19.099  1.00  0.00     0.000 C 
BRANCH   6   7
ATOM      7  C   UNL     1     -13.624  -5.241 -17.601  1.00  0.00     0.000 C 
BRANCH   7   8
ATOM      8  C   UNL     1     -14.476  -6.275 -16.832  1.00  0.00     0.000 C 
BRANCH   8   9
ATOM      9  C   UNL     1     -13.683  -6.994 -15.727  1.00  0.00     0.000 C 
BRANCH   9  10
ATOM     10  C   UNL     1     -14.025  -6.467 -14.324  1.00  0.00     0.000 C 
BRANCH  10  11
ATOM     11  C   UNL     1     -14.440  -4.985 -14.339  1.00  0.00     0.000 C 
BRANCH  11  12
ATOM     12  C   UNL     1     -13.563  -4.130 -13.401  1.00  0.00     0.000 C 
BRANCH  12  13
ATOM     13  C   UNL     1     -14.287  -2.891 -12.846  1.00  0.00     0.006 C 
BRANCH  13  14
ATOM     14  C   UNL     1     -15.065  -2.122 -13.920  1.00  0.00     0.053 C 
BRANCH  14  15
ATOM     15  C   UNL     1     -14.132  -1.290 -14.744  1.00  0.00     0.041 C 
ATOM     16  O   UNL     1     -13.409  -1.832 -15.625  1.00  0.00    -0.550 OA
ATOM     17  O   UNL     1     -14.004   0.069 -14.491  1.00  0.00    -0.550 OA
ENDBRANCH  14  15
ENDBRANCH  13  14
ENDBRANCH  12  13
ENDBRANCH  11  12
ENDBRANCH  10  11
ENDBRANCH   9  10
ENDBRANCH   8   9
ENDBRANCH   7   8
ENDBRANCH   6   7
ENDBRANCH   5   6
ENDBRANCH   4   5
ENDBRANCH   3   4
ENDBRANCH   2   3
ENDBRANCH   1   2
BRANCH   1  18
ATOM     18  C   UNL     1     -15.162  -8.965 -20.329  1.00  0.00     0.000 C 
BRANCH  18  19
ATOM     19  C   UNL     1     -16.501  -9.650 -20.010  1.00  0.00     0.000 C 
BRANCH  19  20
ATOM     20  C   UNL     1     -16.384 -11.180 -20.090  1.00  0.00     0.000 C 
BRANCH  20  21
ATOM     21  C   UNL     1     -17.064 -11.888 -18.906  1.00  0.00     0.000 C 
BRANCH  21  22
ATOM     22  C   UNL     1     -16.692 -13.380 -18.813  1.00  0.00     0.000 C 
BRANCH  22  23
ATOM     23  C   UNL     1     -16.761 -14.097 -20.172  1.00  0.00     0.000 C 
BRANCH  23  24
ATOM     24  C   UNL     1     -18.182 -14.105 -20.763  1.00  0.00    -0.000 C 
BRANCH  24  25
ATOM     25  C   UNL     1     -18.424 -12.963 -21.763  1.00  0.00    -0.000 C 
BRANCH  25  26
ATOM     26  C   UNL     1     -19.566 -13.241 -22.764  1.00  0.00    -0.000 C 
BRANCH  26  27
ATOM     27  C   UNL     1     -19.101 -14.099 -23.951  1.00  0.00    -0.000 C 
BRANCH  27  28
ATOM     28  C   UNL     1     -17.567 -14.125 -24.045  1.00  0.00    -0.000 C 
BRANCH  28  29
ATOM     29  C   UNL     1     -17.050 -13.729 -25.437  1.00  0.00    -0.000 C 
BRANCH  29  30
ATOM     30  C   UNL     1     -17.035 -12.207 -25.651  1.00  0.00    -0.000 C 
BRANCH  30  31
ATOM     31  C   UNL     1     -17.896 -11.814 -26.857  1.00  0.00    -0.003 C 
ATOM     32  C   UNL     1     -19.204 -12.599 -26.881  1.00  0.00     0.004 C 
ENDBRANCH  30  31
ENDBRANCH  29  30
ENDBRANCH  28  29
ENDBRANCH  27  28
ENDBRANCH  26  27
ENDBRANCH  25  26
ENDBRANCH  24  25
ENDBRANCH  23  24
ENDBRANCH  22  23
ENDBRANCH  21  22
ENDBRANCH  20  21
ENDBRANCH  19  20
ENDBRANCH  18  19
ENDBRANCH   1  18
TORSDOF 28
ENDMDL
MODEL 5
REMARK VINA RESULT:     0.720      2.776      4.676
REMARK INTER + INTRA:          -0.400
REMARK INTER:                   1.016
REMARK INTRA:                  -1.416
REMARK UNBOUND:                -2.297
REMARK SMILES CCCCCCCCCCCCCCCCCCCCCCCCCCCCCC(=O)[O-]
REMARK SMILES IDX 16 1 17 2 18 3 19 4 20 5 21 6 22 7 23 8 24 9 25 10 26 11
REMARK SMILES IDX 27 12 28 13 29 14 30 15 31 16 32 17 15 18 14 19 13 20 12 21
REMARK SMILES IDX 11 22 10 23 9 24 8 25 7 26 6 27 5 28 4 29 3 30 2 31 1 32
REMARK H PARENT
REMARK Flexibility Score: inf
ROOT
ATOM      1  C   UNL     1     -17.839  -5.168 -23.179  1.00  0.00     0.000 C 
ENDROOT
BRANCH   1   2
ATOM      2  C   UNL     1     -17.376  -5.156 -24.647  1.00  0.00     0.000 C 
BRANCH   2   3
ATOM      3  C   UNL     1     -18.146  -6.168 -25.524  1.00  0.00     0.000 C 
BRANCH   3   4
ATOM      4  C   UNL     1     -17.307  -6.773 -26.665  1.00  0.00     0.000 C 
BRANCH   4   5
ATOM      5  C   UNL     1     -18.058  -7.755 -27.583  1.00  0.00     0.000 C 
BRANCH   5   6
ATOM      6  C   UNL     1     -17.461  -9.174 -27.659  1.00  0.00     0.000 C 
BRANCH   6   7
ATOM      7  C   UNL     1     -18.486 -10.323 -27.608  1.00  0.00     0.000 C 
BRANCH   7   8
ATOM      8  C   UNL     1     -17.959 -11.610 -26.935  1.00  0.00     0.000 C 
BRANCH   8   9
ATOM      9  C   UNL     1     -19.082 -12.457 -26.313  1.00  0.00     0.000 C 
BRANCH   9  10
ATOM     10  C   UNL     1     -18.556 -13.430 -25.244  1.00  0.00     0.000 C 
BRANCH  10  11
ATOM     11  C   UNL     1     -18.059 -12.703 -23.983  1.00  0.00     0.000 C 
BRANCH  11  12
ATOM     12  C   UNL     1     -18.447 -13.453 -22.691  1.00  0.00     0.000 C 
BRANCH  12  13
ATOM     13  C   UNL     1     -18.200 -12.636 -21.411  1.00  0.00     0.006 C 
BRANCH  13  14
ATOM     14  C   UNL     1     -16.715 -12.535 -21.043  1.00  0.00     0.053 C 
BRANCH  14  15
ATOM     15  C   UNL     1     -16.548 -12.493 -19.556  1.00  0.00     0.041 C 
ATOM     16  O   UNL     1     -16.218 -13.534 -18.925  1.00  0.00    -0.550 OA
ATOM     17  O   UNL     1     -16.829 -11.326 -18.858  1.00  0.00    -0.550 OA
ENDBRANCH  14  15
ENDBRANCH  13  14
ENDBRANCH  12  13
ENDBRANCH  11  12
ENDBRANCH  10  11
ENDBRANCH   9  10
ENDBRANCH   8   9
ENDBRANCH   7   8
ENDBRANCH   6   7
ENDBRANCH   5   6
ENDBRANCH   4   5
ENDBRANCH   3   4
ENDBRANCH   2   3
ENDBRANCH   1   2
BRANCH   1  18
ATOM     18  C   UNL     1     -17.146  -4.081 -22.338  1.00  0.00     0.000 C 
BRANCH  18  19
ATOM     19  C   UNL     1     -16.765  -4.583 -20.936  1.00  0.00     0.000 C 
BRANCH  19  20
ATOM     20  C   UNL     1     -16.606  -6.111 -20.910  1.00  0.00     0.000 C 
BRANCH  20  21
ATOM     21  C   UNL     1     -15.241  -6.556 -20.360  1.00  0.00     0.000 C 
BRANCH  21  22
ATOM     22  C   UNL     1     -14.666  -5.570 -19.327  1.00  0.00     0.000 C 
BRANCH  22  23
ATOM     23  C   UNL     1     -13.946  -6.276 -18.166  1.00  0.00     0.000 C 
BRANCH  23  24
ATOM     24  C   UNL     1     -14.041  -5.489 -16.847  1.00  0.00    -0.000 C 
BRANCH  24  25
ATOM     25  C   UNL     1     -14.101  -6.397 -15.608  1.00  0.00    -0.000 C 
BRANCH  25  26
ATOM     26  C   UNL     1     -14.195  -5.626 -14.273  1.00  0.00    -0.000 C 
BRANCH  26  27
ATOM     27  C   UNL     1     -14.584  -4.154 -14.479  1.00  0.00    -0.000 C 
BRANCH  27  28
ATOM     28  C   UNL     1     -13.760  -3.233 -13.565  1.00  0.00    -0.000 C 
BRANCH  28  29
ATOM     29  C   UNL     1     -14.180  -3.329 -12.090  1.00  0.00    -0.000 C 
BRANCH  29  30
ATOM     30  C   UNL     1     -13.033  -3.794 -11.178  1.00  0.00    -0.000 C 
BRANCH  30  31
ATOM     31  C   UNL     1     -13.577  -4.397  -9.878  1.00  0.00    -0.003 C 
ATOM     32  C   UNL     1     -14.717  -3.554  -9.313  1.00  0.00     0.004 C 
ENDBRANCH  30  31
ENDBRANCH  29  30
ENDBRANCH  28  29
ENDBRANCH  27  28
ENDBRANCH  26  27
ENDBRANCH  25  26
ENDBRANCH  24  25
ENDBRANCH  23  24
ENDBRANCH  22  23
ENDBRANCH  21  22
ENDBRANCH  20  21
ENDBRANCH  19  20
ENDBRANCH  18  19
ENDBRANCH   1  18
TORSDOF 28
ENDMDL
MODEL 6
REMARK VINA RESULT:     0.846      4.516     12.547
REMARK INTER + INTRA:          -0.067
REMARK INTER:                   1.432
REMARK INTRA:                  -1.499
REMARK UNBOUND:                -2.297
REMARK SMILES CCCCCCCCCCCCCCCCCCCCCCCCCCCCCC(=O)[O-]
REMARK SMILES IDX 16 1 17 2 18 3 19 4 20 5 21 6 22 7 23 8 24 9 25 10 26 11
REMARK SMILES IDX 27 12 28 13 29 14 30 15 31 16 32 17 15 18 14 19 13 20 12 21
REMARK SMILES IDX 11 22 10 23 9 24 8 25 7 26 6 27 5 28 4 29 3 30 2 31 1 32
REMARK H PARENT
REMARK Flexibility Score: inf
ROOT
ATOM      1  C   UNL     1     -16.637  -7.116 -20.396  1.00  0.00     0.000 C 
ENDROOT
BRANCH   1   2
ATOM      2  C   UNL     1     -15.968  -5.731 -20.305  1.00  0.00     0.000 C 
BRANCH   2   3
ATOM      3  C   UNL     1     -14.430  -5.803 -20.420  1.00  0.00     0.000 C 
BRANCH   3   4
ATOM      4  C   UNL     1     -13.683  -5.153 -19.240  1.00  0.00     0.000 C 
BRANCH   4   5
ATOM      5  C   UNL     1     -13.345  -6.100 -18.074  1.00  0.00     0.000 C 
BRANCH   5   6
ATOM      6  C   UNL     1     -14.397  -6.162 -16.950  1.00  0.00     0.000 C 
BRANCH   6   7
ATOM      7  C   UNL     1     -14.122  -7.203 -15.847  1.00  0.00     0.000 C 
BRANCH   7   8
ATOM      8  C   UNL     1     -14.368  -6.684 -14.413  1.00  0.00     0.000 C 
BRANCH   8   9
ATOM      9  C   UNL     1     -13.693  -5.327 -14.150  1.00  0.00     0.000 C 
BRANCH   9  10
ATOM     10  C   UNL     1     -14.016  -4.775 -12.752  1.00  0.00     0.000 C 
BRANCH  10  11
ATOM     11  C   UNL     1     -14.269  -3.257 -12.765  1.00  0.00     0.000 C 
BRANCH  11  12
ATOM     12  C   UNL     1     -15.312  -2.853 -13.829  1.00  0.00     0.000 C 
BRANCH  12  13
ATOM     13  C   UNL     1     -14.730  -2.755 -15.249  1.00  0.00     0.006 C 
BRANCH  13  14
ATOM     14  C   UNL     1     -13.421  -1.958 -15.306  1.00  0.00     0.053 C 
BRANCH  14  15
ATOM     15  C   UNL     1     -13.534  -0.712 -14.484  1.00  0.00     0.041 C 
ATOM     16  O   UNL     1     -12.884  -0.600 -13.409  1.00  0.00    -0.550 OA
ATOM     17  O   UNL     1     -14.412   0.295 -14.864  1.00  0.00    -0.550 OA
ENDBRANCH  14  15
ENDBRANCH  13  14
ENDBRANCH  12  13
ENDBRANCH  11  12
ENDBRANCH  10  11
ENDBRANCH   9  10
ENDBRANCH   8   9
ENDBRANCH   7   8
ENDBRANCH   6   7
ENDBRANCH   5   6
ENDBRANCH   4   5
ENDBRANCH   3   4
ENDBRANCH   2   3
ENDBRANCH   1   2
BRANCH   1  18
ATOM     18  C   UNL     1     -15.647  -8.262 -20.122  1.00  0.00     0.000 C 
BRANCH  18  19
ATOM     19  C   UNL     1     -16.351  -9.623 -19.996  1.00  0.00     0.000 C 
BRANCH  19  20
ATOM     20  C   UNL     1     -15.650 -10.699 -20.840  1.00  0.00     0.000 C 
BRANCH  20  21
ATOM     21  C   UNL     1     -15.837 -12.114 -20.269  1.00  0.00     0.000 C 
BRANCH  21  22
ATOM     22  C   UNL     1     -17.318 -12.495 -20.096  1.00  0.00     0.000 C 
BRANCH  22  23
ATOM     23  C   UNL     1     -17.603 -13.962 -20.457  1.00  0.00     0.000 C 
BRANCH  23  24
ATOM     24  C   UNL     1     -18.736 -14.108 -21.487  1.00  0.00    -0.000 C 
BRANCH  24  25
ATOM     25  C   UNL     1     -19.285 -12.757 -21.973  1.00  0.00    -0.000 C 
BRANCH  25  26
ATOM     26  C   UNL     1     -19.838 -12.790 -23.414  1.00  0.00    -0.000 C 
BRANCH  26  27
ATOM     27  C   UNL     1     -19.175 -13.883 -24.266  1.00  0.00    -0.000 C 
BRANCH  27  28
ATOM     28  C   UNL     1     -18.974 -13.408 -25.714  1.00  0.00    -0.000 C 
BRANCH  28  29
ATOM     29  C   UNL     1     -17.899 -12.316 -25.837  1.00  0.00    -0.000 C 
BRANCH  29  30
ATOM     30  C   UNL     1     -16.557 -12.864 -26.347  1.00  0.00    -0.000 C 
BRANCH  30  31
ATOM     31  C   UNL     1     -15.487 -12.799 -25.252  1.00  0.00    -0.003 C 
ATOM     32  C   UNL     1     -16.112 -12.897 -23.863  1.00  0.00     0.004 C 
ENDBRANCH  30  31
ENDBRANCH  29  30
ENDBRANCH  28  29
ENDBRANCH  27  28
ENDBRANCH  26  27
ENDBRANCH  25  26
ENDBRANCH  24  25
ENDBRANCH  23  24
ENDBRANCH  22  23
ENDBRANCH  21  22
ENDBRANCH  20  21
ENDBRANCH  19  20
ENDBRANCH  18  19
ENDBRANCH   1  18
TORSDOF 28
ENDMDL
MODEL 7
REMARK VINA RESULT:     1.021      1.349      2.385
REMARK INTER + INTRA:           0.394
REMARK INTER:                   2.125
REMARK INTRA:                  -1.731
REMARK UNBOUND:                -2.297
REMARK SMILES CCCCCCCCCCCCCCCCCCCCCCCCCCCCCC(=O)[O-]
REMARK SMILES IDX 16 1 17 2 18 3 19 4 20 5 21 6 22 7 23 8 24 9 25 10 26 11
REMARK SMILES IDX 27 12 28 13 29 14 30 15 31 16 32 17 15 18 14 19 13 20 12 21
REMARK SMILES IDX 11 22 10 23 9 24 8 25 7 26 6 27 5 28 4 29 3 30 2 31 1 32
REMARK H PARENT
REMARK Flexibility Score: inf
ROOT
ATOM      1  C   UNL     1     -16.715  -5.520 -20.647  1.00  0.00     0.000 C 
ENDROOT
BRANCH   1   2
ATOM      2  C   UNL     1     -16.225  -6.916 -21.074  1.00  0.00     0.000 C 
BRANCH   2   3
ATOM      3  C   UNL     1     -15.733  -7.765 -19.882  1.00  0.00     0.000 C 
BRANCH   3   4
ATOM      4  C   UNL     1     -15.512  -9.252 -20.221  1.00  0.00     0.000 C 
BRANCH   4   5
ATOM      5  C   UNL     1     -16.768 -10.140 -20.135  1.00  0.00     0.000 C 
BRANCH   5   6
ATOM      6  C   UNL     1     -16.579 -11.477 -19.394  1.00  0.00     0.000 C 
BRANCH   6   7
ATOM      7  C   UNL     1     -17.563 -12.595 -19.791  1.00  0.00     0.000 C 
BRANCH   7   8
ATOM      8  C   UNL     1     -16.977 -13.632 -20.775  1.00  0.00     0.000 C 
BRANCH   8   9
ATOM      9  C   UNL     1     -18.011 -14.125 -21.803  1.00  0.00     0.000 C 
BRANCH   9  10
ATOM     10  C   UNL     1     -19.414 -13.553 -21.541  1.00  0.00     0.000 C 
BRANCH  10  11
ATOM     11  C   UNL     1     -20.083 -13.032 -22.825  1.00  0.00     0.000 C 
BRANCH  11  12
ATOM     12  C   UNL     1     -19.200 -13.257 -24.071  1.00  0.00     0.000 C 
BRANCH  12  13
ATOM     13  C   UNL     1     -18.024 -12.272 -24.173  1.00  0.00     0.006 C 
BRANCH  13  14
ATOM     14  C   UNL     1     -17.320 -12.318 -25.535  1.00  0.00     0.053 C 
BRANCH  14  15
ATOM     15  C   UNL     1     -15.980 -12.972 -25.407  1.00  0.00     0.041 C 
ATOM     16  O   UNL     1     -15.631 -13.496 -24.314  1.00  0.00    -0.550 OA
ATOM     17  O   UNL     1     -15.087 -12.940 -26.470  1.00  0.00    -0.550 OA
ENDBRANCH  14  15
ENDBRANCH  13  14
ENDBRANCH  12  13
ENDBRANCH  11  12
ENDBRANCH  10  11
ENDBRANCH   9  10
ENDBRANCH   8   9
ENDBRANCH   7   8
ENDBRANCH   6   7
ENDBRANCH   5   6
ENDBRANCH   4   5
ENDBRANCH   3   4
ENDBRANCH   2   3
ENDBRANCH   1   2
BRANCH   1  18
ATOM     18  C   UNL     1     -15.949  -4.980 -19.426  1.00  0.00     0.000 C 
BRANCH  18  19
ATOM     19  C   UNL     1     -14.491  -4.626 -19.762  1.00  0.00     0.000 C 
BRANCH  19  20
ATOM     20  C   UNL     1     -13.504  -5.475 -18.946  1.00  0.00     0.000 C 
BRANCH  20  21
ATOM     21  C   UNL     1     -13.843  -5.500 -17.447  1.00  0.00     0.000 C 
BRANCH  21  22
ATOM     22  C   UNL     1     -13.946  -6.930 -16.884  1.00  0.00     0.000 C 
BRANCH  22  23
ATOM     23  C   UNL     1     -13.607  -7.007 -15.387  1.00  0.00     0.000 C 
BRANCH  23  24
ATOM     24  C   UNL     1     -14.570  -6.175 -14.521  1.00  0.00    -0.000 C 
BRANCH  24  25
ATOM     25  C   UNL     1     -13.845  -5.268 -13.515  1.00  0.00    -0.000 C 
BRANCH  25  26
ATOM     26  C   UNL     1     -14.787  -4.345 -12.714  1.00  0.00    -0.000 C 
BRANCH  26  27
ATOM     27  C   UNL     1     -14.094  -3.045 -12.277  1.00  0.00    -0.000 C 
BRANCH  27  28
ATOM     28  C   UNL     1     -12.922  -2.704 -13.211  1.00  0.00    -0.000 C 
BRANCH  28  29
ATOM     29  C   UNL     1     -12.882  -1.217 -13.597  1.00  0.00    -0.000 C 
BRANCH  29  30
ATOM     30  C   UNL     1     -13.961  -0.845 -14.626  1.00  0.00    -0.000 C 
BRANCH  30  31
ATOM     31  C   UNL     1     -13.680  -1.506 -15.980  1.00  0.00    -0.003 C 
ATOM     32  C   UNL     1     -14.504  -2.780 -16.153  1.00  0.00     0.004 C 
ENDBRANCH  30  31
ENDBRANCH  29  30
ENDBRANCH  28  29
ENDBRANCH  27  28
ENDBRANCH  26  27
ENDBRANCH  25  26
ENDBRANCH  24  25
ENDBRANCH  23  24
ENDBRANCH  22  23
ENDBRANCH  21  22
ENDBRANCH  20  21
ENDBRANCH  19  20
ENDBRANCH  18  19
ENDBRANCH   1  18
TORSDOF 28
ENDMDL
MODEL 8
REMARK VINA RESULT:     1.281      3.949     12.310
REMARK INTER + INTRA:           1.081
REMARK INTER:                   1.437
REMARK INTRA:                  -0.356
REMARK UNBOUND:                -2.297
REMARK SMILES CCCCCCCCCCCCCCCCCCCCCCCCCCCCCC(=O)[O-]
REMARK SMILES IDX 16 1 17 2 18 3 19 4 20 5 21 6 22 7 23 8 24 9 25 10 26 11
REMARK SMILES IDX 27 12 28 13 29 14 30 15 31 16 32 17 15 18 14 19 13 20 12 21
REMARK SMILES IDX 11 22 10 23 9 24 8 25 7 26 6 27 5 28 4 29 3 30 2 31 1 32
REMARK H PARENT
REMARK Flexibility Score: inf
ROOT
ATOM      1  C   UNL     1     -16.055  -4.807 -20.570  1.00  0.00     0.000 C 
ENDROOT
BRANCH   1   2
ATOM      2  C   UNL     1     -14.711  -5.507 -20.300  1.00  0.00     0.000 C 
BRANCH   2   3
ATOM      3  C   UNL     1     -14.036  -5.022 -18.999  1.00  0.00     0.000 C 
BRANCH   3   4
ATOM      4  C   UNL     1     -13.066  -6.044 -18.377  1.00  0.00     0.000 C 
BRANCH   4   5
ATOM      5  C   UNL     1     -13.703  -7.039 -17.389  1.00  0.00     0.000 C 
BRANCH   5   6
ATOM      6  C   UNL     1     -13.199  -6.938 -15.936  1.00  0.00     0.000 C 
BRANCH   6   7
ATOM      7  C   UNL     1     -14.300  -6.892 -14.859  1.00  0.00     0.000 C 
BRANCH   7   8
ATOM      8  C   UNL     1     -14.469  -5.512 -14.187  1.00  0.00     0.000 C 
BRANCH   8   9
ATOM      9  C   UNL     1     -13.964  -5.493 -12.734  1.00  0.00     0.000 C 
BRANCH   9  10
ATOM     10  C   UNL     1     -13.623  -4.074 -12.252  1.00  0.00     0.000 C 
BRANCH  10  11
ATOM     11  C   UNL     1     -14.832  -3.363 -11.618  1.00  0.00     0.000 C 
BRANCH  11  12
ATOM     12  C   UNL     1     -15.907  -3.004 -12.666  1.00  0.00     0.000 C 
BRANCH  12  13
ATOM     13  C   UNL     1     -15.490  -1.857 -13.602  1.00  0.00     0.006 C 
BRANCH  13  14
ATOM     14  C   UNL     1     -14.843  -2.351 -14.902  1.00  0.00     0.053 C 
BRANCH  14  15
ATOM     15  C   UNL     1     -13.743  -1.426 -15.320  1.00  0.00     0.041 C 
ATOM     16  O   UNL     1     -13.423  -0.448 -14.590  1.00  0.00    -0.550 OA
ATOM     17  O   UNL     1     -13.120  -1.597 -16.550  1.00  0.00    -0.550 OA
ENDBRANCH  14  15
ENDBRANCH  13  14
ENDBRANCH  12  13
ENDBRANCH  11  12
ENDBRANCH  10  11
ENDBRANCH   9  10
ENDBRANCH   8   9
ENDBRANCH   7   8
ENDBRANCH   6   7
ENDBRANCH   5   6
ENDBRANCH   4   5
ENDBRANCH   3   4
ENDBRANCH   2   3
ENDBRANCH   1   2
BRANCH   1  18
ATOM     18  C   UNL     1     -17.247  -5.777 -20.487  1.00  0.00     0.000 C 
BRANCH  18  19
ATOM     19  C   UNL     1     -16.872  -7.200 -20.932  1.00  0.00     0.000 C 
BRANCH  19  20
ATOM     20  C   UNL     1     -15.862  -7.843 -19.969  1.00  0.00     0.000 C 
BRANCH  20  21
ATOM     21  C   UNL     1     -15.555  -9.307 -20.322  1.00  0.00     0.000 C 
BRANCH  21  22
ATOM     22  C   UNL     1     -16.679 -10.270 -19.896  1.00  0.00     0.000 C 
BRANCH  22  23
ATOM     23  C   UNL     1     -16.518 -11.676 -20.497  1.00  0.00     0.000 C 
BRANCH  23  24
ATOM     24  C   UNL     1     -16.943 -12.787 -19.520  1.00  0.00    -0.000 C 
BRANCH  24  25
ATOM     25  C   UNL     1     -17.260 -14.117 -20.222  1.00  0.00    -0.000 C 
BRANCH  25  26
ATOM     26  C   UNL     1     -17.857 -13.950 -21.636  1.00  0.00    -0.000 C 
BRANCH  26  27
ATOM     27  C   UNL     1     -19.220 -13.241 -21.611  1.00  0.00    -0.000 C 
BRANCH  27  28
ATOM     28  C   UNL     1     -19.682 -12.885 -23.033  1.00  0.00    -0.000 C 
BRANCH  28  29
ATOM     29  C   UNL     1     -18.512 -12.556 -23.974  1.00  0.00    -0.000 C 
BRANCH  29  30
ATOM     30  C   UNL     1     -18.476 -13.466 -25.212  1.00  0.00    -0.000 C 
BRANCH  30  31
ATOM     31  C   UNL     1     -19.056 -12.749 -26.436  1.00  0.00    -0.003 C 
ATOM     32  C   UNL     1     -18.072 -11.723 -26.992  1.00  0.00     0.004 C 
ENDBRANCH  30  31
ENDBRANCH  29  30
ENDBRANCH  28  29
ENDBRANCH  27  28
ENDBRANCH  26  27
ENDBRANCH  25  26
ENDBRANCH  24  25
ENDBRANCH  23  24
ENDBRANCH  22  23
ENDBRANCH  21  22
ENDBRANCH  20  21
ENDBRANCH  19  20
ENDBRANCH  18  19
ENDBRANCH   1  18
TORSDOF 28
ENDMDL
MODEL 9
REMARK VINA RESULT:     1.418      2.673      4.855
REMARK INTER + INTRA:           1.441
REMARK INTER:                   3.096
REMARK INTRA:                  -1.655
REMARK UNBOUND:                -2.297
REMARK SMILES CCCCCCCCCCCCCCCCCCCCCCCCCCCCCC(=O)[O-]
REMARK SMILES IDX 16 1 17 2 18 3 19 4 20 5 21 6 22 7 23 8 24 9 25 10 26 11
REMARK SMILES IDX 27 12 28 13 29 14 30 15 31 16 32 17 15 18 14 19 13 20 12 21
REMARK SMILES IDX 11 22 10 23 9 24 8 25 7 26 6 27 5 28 4 29 3 30 2 31 1 32
REMARK H PARENT
REMARK Flexibility Score: inf
ROOT
ATOM      1  C   UNL     1     -17.922  -5.128 -22.852  1.00  0.00     0.000 C 
ENDROOT
BRANCH   1   2
ATOM      2  C   UNL     1     -17.317  -4.981 -24.260  1.00  0.00     0.000 C 
BRANCH   2   3
ATOM      3  C   UNL     1     -18.168  -5.667 -25.349  1.00  0.00     0.000 C 
BRANCH   3   4
ATOM      4  C   UNL     1     -17.373  -6.631 -26.251  1.00  0.00     0.000 C 
BRANCH   4   5
ATOM      5  C   UNL     1     -18.201  -7.357 -27.328  1.00  0.00     0.000 C 
BRANCH   5   6
ATOM      6  C   UNL     1     -17.540  -8.609 -27.936  1.00  0.00     0.000 C 
BRANCH   6   7
ATOM      7  C   UNL     1     -18.255  -9.941 -27.639  1.00  0.00     0.000 C 
BRANCH   7   8
ATOM      8  C   UNL     1     -17.389 -10.967 -26.876  1.00  0.00     0.000 C 
BRANCH   8   9
ATOM      9  C   UNL     1     -17.960 -12.394 -26.945  1.00  0.00     0.000 C 
BRANCH   9  10
ATOM     10  C   UNL     1     -19.130 -12.602 -25.969  1.00  0.00     0.000 C 
BRANCH  10  11
ATOM     11  C   UNL     1     -18.819 -13.663 -24.898  1.00  0.00     0.000 C 
BRANCH  11  12
ATOM     12  C   UNL     1     -18.038 -13.070 -23.706  1.00  0.00     0.000 C 
BRANCH  12  13
ATOM     13  C   UNL     1     -18.822 -13.104 -22.383  1.00  0.00     0.006 C 
BRANCH  13  14
ATOM     14  C   UNL     1     -18.046 -13.775 -21.244  1.00  0.00     0.053 C 
BRANCH  14  15
ATOM     15  C   UNL     1     -17.167 -12.779 -20.554  1.00  0.00     0.041 C 
ATOM     16  O   UNL     1     -17.509 -11.567 -20.491  1.00  0.00    -0.550 OA
ATOM     17  O   UNL     1     -15.936 -13.173 -20.046  1.00  0.00    -0.550 OA
ENDBRANCH  14  15
ENDBRANCH  13  14
ENDBRANCH  12  13
ENDBRANCH  11  12
ENDBRANCH  10  11
ENDBRANCH   9  10
ENDBRANCH   8   9
ENDBRANCH   7   8
ENDBRANCH   6   7
ENDBRANCH   5   6
ENDBRANCH   4   5
ENDBRANCH   3   4
ENDBRANCH   2   3
ENDBRANCH   1   2
BRANCH   1  18
ATOM     18  C   UNL     1     -17.028  -4.507 -21.763  1.00  0.00     0.000 C 
BRANCH  18  19
ATOM     19  C   UNL     1     -16.916  -5.405 -20.520  1.00  0.00     0.000 C 
BRANCH  19  20
ATOM     20  C   UNL     1     -15.590  -6.181 -20.505  1.00  0.00     0.000 C 
BRANCH  20  21
ATOM     21  C   UNL     1     -14.509  -5.491 -19.657  1.00  0.00     0.000 C 
BRANCH  21  22
ATOM     22  C   UNL     1     -13.865  -6.439 -18.629  1.00  0.00     0.000 C 
BRANCH  22  23
ATOM     23  C   UNL     1     -13.968  -5.914 -17.188  1.00  0.00     0.000 C 
BRANCH  23  24
ATOM     24  C   UNL     1     -13.802  -7.029 -16.140  1.00  0.00    -0.000 C 
BRANCH  24  25
ATOM     25  C   UNL     1     -14.350  -6.641 -14.757  1.00  0.00    -0.000 C 
BRANCH  25  26
ATOM     26  C   UNL     1     -14.360  -5.120 -14.493  1.00  0.00    -0.000 C 
BRANCH  26  27
ATOM     27  C   UNL     1     -13.624  -4.751 -13.196  1.00  0.00    -0.000 C 
BRANCH  27  28
ATOM     28  C   UNL     1     -13.915  -3.297 -12.792  1.00  0.00    -0.000 C 
BRANCH  28  29
ATOM     29  C   UNL     1     -12.892  -2.304 -13.365  1.00  0.00    -0.000 C 
BRANCH  29  30
ATOM     30  C   UNL     1     -13.556  -1.070 -13.997  1.00  0.00    -0.000 C 
BRANCH  30  31
ATOM     31  C   UNL     1     -14.356  -1.458 -15.246  1.00  0.00    -0.003 C 
ATOM     32  C   UNL     1     -13.434  -1.921 -16.371  1.00  0.00     0.004 C 
ENDBRANCH  30  31
ENDBRANCH  29  30
ENDBRANCH  28  29
ENDBRANCH  27  28
ENDBRANCH  26  27
ENDBRANCH  25  26
ENDBRANCH  24  25
ENDBRANCH  23  24
ENDBRANCH  22  23
ENDBRANCH  21  22
ENDBRANCH  20  21
ENDBRANCH  19  20
ENDBRANCH  18  19
ENDBRANCH   1  18
TORSDOF 28
ENDMDL
