MODEL 1
REMARK VINA RESULT:    -3.344      0.000      0.000
REMARK INTER + INTRA:          -7.965
REMARK INTER:                  -6.080
REMARK INTRA:                  -1.885
REMARK UNBOUND:                -1.885
REMARK SMILES CCCCCCCCCCCCCCCC(=O)[O-]
REMARK SMILES IDX 9 1 10 2 11 3 12 4 13 5 14 6 15 7 16 8 17 9 18 10 8 11 7 12
REMARK SMILES IDX 6 13 5 14 4 15 3 16 2 17 1 18
REMARK H PARENT
REMARK Flexibility Score: inf
ROOT
ATOM      1  C   UNL     1       2.538  25.059  10.396  1.00  0.00     0.000 C 
ENDROOT
BRANCH   1   2
ATOM      2  C   UNL     1       1.566  24.016  10.975  1.00  0.00     0.000 C 
BRANCH   2   3
ATOM      3  C   UNL     1       0.132  24.554  11.126  1.00  0.00     0.000 C 
BRANCH   3   4
ATOM      4  C   UNL     1      -0.515  24.304  12.501  1.00  0.00     0.000 C 
BRANCH   4   5
ATOM      5  C   UNL     1      -0.015  25.277  13.582  1.00  0.00     0.000 C 
BRANCH   5   6
ATOM      6  C   UNL     1       0.843  24.582  14.649  1.00  0.00     0.006 C 
BRANCH   6   7
ATOM      7  C   UNL     1       2.028  25.445  15.105  1.00  0.00     0.053 C 
BRANCH   7   8
ATOM      8  C   UNL     1       3.077  25.496  14.039  1.00  0.00     0.041 C 
ATOM      9  O   UNL     1       3.314  26.575  13.434  1.00  0.00    -0.550 OA
ATOM     10  O   UNL     1       3.829  24.365  13.750  1.00  0.00    -0.550 OA
ENDBRANCH   7   8
ENDBRANCH   6   7
ENDBRANCH   5   6
ENDBRANCH   4   5
ENDBRANCH   3   4
ENDBRANCH   2   3
ENDBRANCH   1   2
BRANCH   1  11
ATOM     11  C   UNL     1       3.975  24.525  10.278  1.00  0.00     0.000 C 
BRANCH  11  12
ATOM     12  C   UNL     1       4.291  23.990   8.870  1.00  0.00    -0.000 C 
BRANCH  12  13
ATOM     13  C   UNL     1       4.887  25.066   7.944  1.00  0.00    -0.000 C 
BRANCH  13  14
ATOM     14  C   UNL     1       4.569  24.888   6.446  1.00  0.00    -0.000 C 
BRANCH  14  15
ATOM     15  C   UNL     1       3.102  24.542   6.123  1.00  0.00    -0.000 C 
BRANCH  15  16
ATOM     16  C   UNL     1       2.140  25.744   6.100  1.00  0.00    -0.000 C 
BRANCH  16  17
ATOM     17  C   UNL     1       1.098  25.693   7.227  1.00  0.00    -0.003 C 
ATOM     18  C   UNL     1       0.509  24.293   7.369  1.00  0.00     0.004 C 
ENDBRANCH  16  17
ENDBRANCH  15  16
ENDBRANCH  14  15
ENDBRANCH  13  14
ENDBRANCH  12  13
ENDBRANCH  11  12
ENDBRANCH   1  11
TORSDOF 14
ENDMDL
MODEL 2
REMARK VINA RESULT:    -3.334      1.607      3.198
REMARK INTER + INTRA:          -7.948
REMARK INTER:                  -6.293
REMARK INTRA:                  -1.655
REMARK UNBOUND:                -1.885
REMARK SMILES CCCCCCCCCCCCCCCC(=O)[O-]
REMARK SMILES IDX 9 1 10 2 11 3 12 4 13 5 14 6 15 7 16 8 17 9 18 10 8 11 7 12
REMARK SMILES IDX 6 13 5 14 4 15 3 16 2 17 1 18
REMARK H PARENT
REMARK Flexibility Score: inf
ROOT
ATOM      1  C   UNL     1       5.230  25.014   8.605  1.00  0.00     0.000 C 
ENDROOT
BRANCH   1   2
ATOM      2  C   UNL     1       4.413  24.026   9.456  1.00  0.00     0.000 C 
BRANCH   2   3
ATOM      3  C   UNL     1       4.946  23.892  10.894  1.00  0.00     0.000 C 
BRANCH   3   4
ATOM      4  C   UNL     1       3.908  24.159  12.000  1.00  0.00     0.000 C 
BRANCH   4   5
ATOM      5  C   UNL     1       4.255  25.385  12.861  1.00  0.00     0.000 C 
BRANCH   5   6
ATOM      6  C   UNL     1       3.007  26.128  13.360  1.00  0.00     0.006 C 
BRANCH   6   7
ATOM      7  C   UNL     1       2.591  25.695  14.772  1.00  0.00     0.053 C 
BRANCH   7   8
ATOM      8  C   UNL     1       1.174  25.212  14.774  1.00  0.00     0.041 C 
ATOM      9  O   UNL     1       0.723  24.578  15.764  1.00  0.00    -0.550 OA
ATOM     10  O   UNL     1       0.339  25.505  13.704  1.00  0.00    -0.550 OA
ENDBRANCH   7   8
ENDBRANCH   6   7
ENDBRANCH   5   6
ENDBRANCH   4   5
ENDBRANCH   3   4
ENDBRANCH   2   3
ENDBRANCH   1   2
BRANCH   1  11
ATOM     11  C   UNL     1       4.686  25.151   7.174  1.00  0.00     0.000 C 
BRANCH  11  12
ATOM     12  C   UNL     1       3.976  23.875   6.687  1.00  0.00    -0.000 C 
BRANCH  12  13
ATOM     13  C   UNL     1       2.555  24.147   6.164  1.00  0.00    -0.000 C 
BRANCH  13  14
ATOM     14  C   UNL     1       2.187  25.638   6.019  1.00  0.00    -0.000 C 
BRANCH  14  15
ATOM     15  C   UNL     1       0.790  26.024   6.546  1.00  0.00    -0.000 C 
BRANCH  15  16
ATOM     16  C   UNL     1       0.372  25.322   7.850  1.00  0.00    -0.000 C 
BRANCH  16  17
ATOM     17  C   UNL     1       1.166  25.810   9.071  1.00  0.00    -0.003 C 
ATOM     18  C   UNL     1       0.910  24.922  10.284  1.00  0.00     0.004 C 
ENDBRANCH  16  17
ENDBRANCH  15  16
ENDBRANCH  14  15
ENDBRANCH  13  14
ENDBRANCH  12  13
ENDBRANCH  11  12
ENDBRANCH   1  11
TORSDOF 14
ENDMDL
MODEL 3
REMARK VINA RESULT:    -3.260      2.899      7.100
REMARK INTER + INTRA:          -7.812
REMARK INTER:                  -6.211
REMARK INTRA:                  -1.602
REMARK UNBOUND:                -1.885
REMARK SMILES CCCCCCCCCCCCCCCC(=O)[O-]
REMARK SMILES IDX 9 1 10 2 11 3 12 4 13 5 14 6 15 7 16 8 17 9 18 10 8 11 7 12
REMARK SMILES IDX 6 13 5 14 4 15 3 16 2 17 1 18
REMARK H PARENT
REMARK Flexibility Score: inf
ROOT
ATOM      1  C   UNL     1       3.505  24.767  10.043  1.00  0.00     0.000 C 
ENDROOT
BRANCH   1   2
ATOM      2  C   UNL     1       4.470  24.167   9.005  1.00  0.00     0.000 C 
BRANCH   2   3
ATOM      3  C   UNL     1       5.159  25.238   8.140  1.00  0.00     0.000 C 
BRANCH   3   4
ATOM      4  C   UNL     1       4.717  25.266   6.665  1.00  0.00     0.000 C 
BRANCH   4   5
ATOM      5  C   UNL     1       3.423  24.474   6.415  1.00  0.00     0.000 C 
BRANCH   5   6
ATOM      6  C   UNL     1       2.288  25.355   5.872  1.00  0.00     0.006 C 
BRANCH   6   7
ATOM      7  C   UNL     1       1.312  25.799   6.970  1.00  0.00     0.053 C 
BRANCH   7   8
ATOM      8  C   UNL     1      -0.049  26.038   6.395  1.00  0.00     0.041 C 
ATOM      9  O   UNL     1      -0.673  27.098   6.663  1.00  0.00    -0.550 OA
ATOM     10  O   UNL     1      -0.606  25.112   5.522  1.00  0.00    -0.550 OA
ENDBRANCH   7   8
ENDBRANCH   6   7
ENDBRANCH   5   6
ENDBRANCH   4   5
ENDBRANCH   3   4
ENDBRANCH   2   3
ENDBRANCH   1   2
BRANCH   1  11
ATOM     11  C   UNL     1       2.193  23.972  10.157  1.00  0.00     0.000 C 
BRANCH  11  12
ATOM     12  C   UNL     1       1.032  24.825  10.698  1.00  0.00    -0.000 C 
BRANCH  12  13
ATOM     13  C   UNL     1       0.365  24.203  11.938  1.00  0.00    -0.000 C 
BRANCH  13  14
ATOM     14  C   UNL     1       0.278  25.130  13.167  1.00  0.00    -0.000 C 
BRANCH  14  15
ATOM     15  C   UNL     1       1.040  24.640  14.415  1.00  0.00    -0.000 C 
BRANCH  15  16
ATOM     16  C   UNL     1       2.193  25.552  14.872  1.00  0.00    -0.000 C 
BRANCH  16  17
ATOM     17  C   UNL     1       2.992  26.135  13.698  1.00  0.00    -0.003 C 
ATOM     18  C   UNL     1       4.315  25.399  13.513  1.00  0.00     0.004 C 
ENDBRANCH  16  17
ENDBRANCH  15  16
ENDBRANCH  14  15
ENDBRANCH  13  14
ENDBRANCH  12  13
ENDBRANCH  11  12
ENDBRANCH   1  11
TORSDOF 14
ENDMDL
MODEL 4
REMARK VINA RESULT:    -3.050      2.269      6.796
REMARK INTER + INTRA:          -7.431
REMARK INTER:                  -6.225
REMARK INTRA:                  -1.207
REMARK UNBOUND:                -1.885
REMARK SMILES CCCCCCCCCCCCCCCC(=O)[O-]
REMARK SMILES IDX 9 1 10 2 11 3 12 4 13 5 14 6 15 7 16 8 17 9 18 10 8 11 7 12
REMARK SMILES IDX 6 13 5 14 4 15 3 16 2 17 1 18
REMARK H PARENT
REMARK Flexibility Score: inf
ROOT
ATOM      1  C   UNL     1       4.362  24.098   9.186  1.00  0.00     0.000 C 
ENDROOT
BRANCH   1   2
ATOM      2  C   UNL     1       5.240  25.123   8.446  1.00  0.00     0.000 C 
BRANCH   2   3
ATOM      3  C   UNL     1       4.887  25.244   6.953  1.00  0.00     0.000 C 
BRANCH   3   4
ATOM      4  C   UNL     1       4.524  23.918   6.260  1.00  0.00     0.000 C 
BRANCH   4   5
ATOM      5  C   UNL     1       3.194  23.990   5.490  1.00  0.00     0.000 C 
BRANCH   5   6
ATOM      6  C   UNL     1       1.992  24.246   6.412  1.00  0.00     0.006 C 
BRANCH   6   7
ATOM      7  C   UNL     1       1.370  25.632   6.196  1.00  0.00     0.053 C 
BRANCH   7   8
ATOM      8  C   UNL     1       0.628  26.068   7.421  1.00  0.00     0.041 C 
ATOM      9  O   UNL     1      -0.565  26.460   7.332  1.00  0.00    -0.550 OA
ATOM     10  O   UNL     1       1.239  25.994   8.666  1.00  0.00    -0.550 OA
ENDBRANCH   7   8
ENDBRANCH   6   7
ENDBRANCH   5   6
ENDBRANCH   4   5
ENDBRANCH   3   4
ENDBRANCH   2   3
ENDBRANCH   1   2
BRANCH   1  11
ATOM     11  C   UNL     1       4.609  24.096  10.704  1.00  0.00     0.000 C 
BRANCH  11  12
ATOM     12  C   UNL     1       3.315  24.293  11.513  1.00  0.00    -0.000 C 
BRANCH  12  13
ATOM     13  C   UNL     1       3.019  25.774  11.811  1.00  0.00    -0.000 C 
BRANCH  13  14
ATOM     14  C   UNL     1       3.112  26.172  13.298  1.00  0.00    -0.000 C 
BRANCH  14  15
ATOM     15  C   UNL     1       2.800  25.044  14.300  1.00  0.00    -0.000 C 
BRANCH  15  16
ATOM     16  C   UNL     1       1.641  25.338  15.270  1.00  0.00    -0.000 C 
BRANCH  16  17
ATOM     17  C   UNL     1       0.450  24.387  15.080  1.00  0.00    -0.003 C 
ATOM     18  C   UNL     1      -0.239  24.629  13.741  1.00  0.00     0.004 C 
ENDBRANCH  16  17
ENDBRANCH  15  16
ENDBRANCH  14  15
ENDBRANCH  13  14
ENDBRANCH  12  13
ENDBRANCH  11  12
ENDBRANCH   1  11
TORSDOF 14
ENDMDL
MODEL 5
REMARK VINA RESULT:    -3.041      1.546      2.945
REMARK INTER + INTRA:          -7.415
REMARK INTER:                  -5.874
REMARK INTRA:                  -1.540
REMARK UNBOUND:                -1.885
REMARK SMILES CCCCCCCCCCCCCCCC(=O)[O-]
REMARK SMILES IDX 9 1 10 2 11 3 12 4 13 5 14 6 15 7 16 8 17 9 18 10 8 11 7 12
REMARK SMILES IDX 6 13 5 14 4 15 3 16 2 17 1 18
REMARK H PARENT
REMARK Flexibility Score: inf
ROOT
ATOM      1  C   UNL     1       5.259  25.283   8.381  1.00  0.00     0.000 C 
ENDROOT
BRANCH   1   2
ATOM      2  C   UNL     1       4.617  24.156   9.208  1.00  0.00     0.000 C 
BRANCH   2   3
ATOM      3  C   UNL     1       3.524  24.664  10.166  1.00  0.00     0.000 C 
BRANCH   3   4
ATOM      4  C   UNL     1       2.082  24.511   9.647  1.00  0.00     0.000 C 
BRANCH   4   5
ATOM      5  C   UNL     1       1.030  24.639  10.761  1.00  0.00     0.000 C 
BRANCH   5   6
ATOM      6  C   UNL     1       1.592  24.287  12.146  1.00  0.00     0.006 C 
BRANCH   6   7
ATOM      7  C   UNL     1       0.963  25.126  13.266  1.00  0.00     0.053 C 
BRANCH   7   8
ATOM      8  C   UNL     1       2.024  25.662  14.176  1.00  0.00     0.041 C 
ATOM      9  O   UNL     1       1.990  25.405  15.409  1.00  0.00    -0.550 OA
ATOM     10  O   UNL     1       3.077  26.402  13.655  1.00  0.00    -0.550 OA
ENDBRANCH   7   8
ENDBRANCH   6   7
ENDBRANCH   5   6
ENDBRANCH   4   5
ENDBRANCH   3   4
ENDBRANCH   2   3
ENDBRANCH   1   2
BRANCH   1  11
ATOM     11  C   UNL     1       4.877  25.214   6.893  1.00  0.00     0.000 C 
BRANCH  11  12
ATOM     12  C   UNL     1       4.153  23.905   6.530  1.00  0.00    -0.000 C 
BRANCH  12  13
ATOM     13  C   UNL     1       2.762  24.145   5.915  1.00  0.00    -0.000 C 
BRANCH  13  14
ATOM     14  C   UNL     1       2.311  25.619   5.874  1.00  0.00    -0.000 C 
BRANCH  14  15
ATOM     15  C   UNL     1       0.970  25.914   6.574  1.00  0.00    -0.000 C 
BRANCH  15  16
ATOM     16  C   UNL     1      -0.240  25.146   6.010  1.00  0.00    -0.000 C 
BRANCH  16  17
ATOM     17  C   UNL     1      -0.529  25.487   4.541  1.00  0.00    -0.003 C 
ATOM     18  C   UNL     1      -0.381  24.257   3.652  1.00  0.00     0.004 C 
ENDBRANCH  16  17
ENDBRANCH  15  16
ENDBRANCH  14  15
ENDBRANCH  13  14
ENDBRANCH  12  13
ENDBRANCH  11  12
ENDBRANCH   1  11
TORSDOF 14
ENDMDL
MODEL 6
REMARK VINA RESULT:    -3.020      0.948      2.535
REMARK INTER + INTRA:          -7.376
REMARK INTER:                  -5.799
REMARK INTRA:                  -1.577
REMARK UNBOUND:                -1.885
REMARK SMILES CCCCCCCCCCCCCCCC(=O)[O-]
REMARK SMILES IDX 9 1 10 2 11 3 12 4 13 5 14 6 15 7 16 8 17 9 18 10 8 11 7 12
REMARK SMILES IDX 6 13 5 14 4 15 3 16 2 17 1 18
REMARK H PARENT
REMARK Flexibility Score: inf
ROOT
ATOM      1  C   UNL     1       1.127  24.480  10.616  1.00  0.00     0.000 C 
ENDROOT
BRANCH   1   2
ATOM      2  C   UNL     1      -0.376  24.201  10.799  1.00  0.00     0.000 C 
BRANCH   2   3
ATOM      3  C   UNL     1      -0.786  24.081  12.277  1.00  0.00     0.000 C 
BRANCH   3   4
ATOM      4  C   UNL     1      -0.159  25.130  13.214  1.00  0.00     0.000 C 
BRANCH   4   5
ATOM      5  C   UNL     1       0.377  24.519  14.520  1.00  0.00     0.000 C 
BRANCH   5   6
ATOM      6  C   UNL     1       1.911  24.536  14.592  1.00  0.00     0.006 C 
BRANCH   6   7
ATOM      7  C   UNL     1       2.492  25.949  14.445  1.00  0.00     0.053 C 
BRANCH   7   8
ATOM      8  C   UNL     1       3.493  25.989  13.333  1.00  0.00     0.041 C 
ATOM      9  O   UNL     1       3.270  26.680  12.304  1.00  0.00    -0.550 OA
ATOM     10  O   UNL     1       4.695  25.304  13.456  1.00  0.00    -0.550 OA
ENDBRANCH   7   8
ENDBRANCH   6   7
ENDBRANCH   5   6
ENDBRANCH   4   5
ENDBRANCH   3   4
ENDBRANCH   2   3
ENDBRANCH   1   2
BRANCH   1  11
ATOM     11  C   UNL     1       1.401  25.572   9.568  1.00  0.00     0.000 C 
BRANCH  11  12
ATOM     12  C   UNL     1       0.260  25.708   8.545  1.00  0.00    -0.000 C 
BRANCH  12  13
ATOM     13  C   UNL     1       0.595  25.062   7.189  1.00  0.00    -0.000 C 
BRANCH  13  14
ATOM     14  C   UNL     1       1.677  25.792   6.368  1.00  0.00    -0.000 C 
BRANCH  14  15
ATOM     15  C   UNL     1       2.797  24.892   5.809  1.00  0.00    -0.000 C 
BRANCH  15  16
ATOM     16  C   UNL     1       3.635  24.162   6.874  1.00  0.00    -0.000 C 
BRANCH  16  17
ATOM     17  C   UNL     1       4.841  24.986   7.349  1.00  0.00    -0.003 C 
ATOM     18  C   UNL     1       4.931  24.999   8.872  1.00  0.00     0.004 C 
ENDBRANCH  16  17
ENDBRANCH  15  16
ENDBRANCH  14  15
ENDBRANCH  13  14
ENDBRANCH  12  13
ENDBRANCH  11  12
ENDBRANCH   1  11
TORSDOF 14
ENDMDL
MODEL 7
REMARK VINA RESULT:    -2.915      2.487      6.598
REMARK INTER + INTRA:          -7.186
REMARK INTER:                  -5.565
REMARK INTRA:                  -1.621
REMARK UNBOUND:                -1.885
REMARK SMILES CCCCCCCCCCCCCCCC(=O)[O-]
REMARK SMILES IDX 9 1 10 2 11 3 12 4 13 5 14 6 15 7 16 8 17 9 18 10 8 11 7 12
REMARK SMILES IDX 6 13 5 14 4 15 3 16 2 17 1 18
REMARK H PARENT
REMARK Flexibility Score: inf
ROOT
ATOM      1  C   UNL     1       2.993  25.477  11.345  1.00  0.00     0.000 C 
ENDROOT
BRANCH   1   2
ATOM      2  C   UNL     1       3.207  24.015  10.918  1.00  0.00     0.000 C 
BRANCH   2   3
ATOM      3  C   UNL     1       3.594  23.875   9.435  1.00  0.00     0.000 C 
BRANCH   3   4
ATOM      4  C   UNL     1       4.605  24.920   8.925  1.00  0.00     0.000 C 
BRANCH   4   5
ATOM      5  C   UNL     1       4.675  24.982   7.389  1.00  0.00     0.000 C 
BRANCH   5   6
ATOM      6  C   UNL     1       3.428  24.389   6.717  1.00  0.00     0.006 C 
BRANCH   6   7
ATOM      7  C   UNL     1       2.631  25.437   5.928  1.00  0.00     0.053 C 
BRANCH   7   8
ATOM      8  C   UNL     1       1.346  25.752   6.627  1.00  0.00     0.041 C 
ATOM      9  O   UNL     1       0.249  25.639   6.019  1.00  0.00    -0.550 OA
ATOM     10  O   UNL     1       1.357  26.122   7.966  1.00  0.00    -0.550 OA
ENDBRANCH   7   8
ENDBRANCH   6   7
ENDBRANCH   5   6
ENDBRANCH   4   5
ENDBRANCH   3   4
ENDBRANCH   2   3
ENDBRANCH   1   2
BRANCH   1  11
ATOM     11  C   UNL     1       3.518  25.762  12.762  1.00  0.00     0.000 C 
BRANCH  11  12
ATOM     12  C   UNL     1       2.391  26.102  13.752  1.00  0.00    -0.000 C 
BRANCH  12  13
ATOM     13  C   UNL     1       2.220  25.036  14.849  1.00  0.00    -0.000 C 
BRANCH  13  14
ATOM     14  C   UNL     1       0.816  24.404  14.932  1.00  0.00    -0.000 C 
BRANCH  14  15
ATOM     15  C   UNL     1      -0.243  25.031  14.003  1.00  0.00    -0.000 C 
BRANCH  15  16
ATOM     16  C   UNL     1      -0.693  24.135  12.835  1.00  0.00    -0.000 C 
BRANCH  16  17
ATOM     17  C   UNL     1      -1.083  24.938  11.585  1.00  0.00    -0.003 C 
ATOM     18  C   UNL     1      -0.402  24.380  10.339  1.00  0.00     0.004 C 
ENDBRANCH  16  17
ENDBRANCH  15  16
ENDBRANCH  14  15
ENDBRANCH  13  14
ENDBRANCH  12  13
ENDBRANCH  11  12
ENDBRANCH   1  11
TORSDOF 14
ENDMDL
MODEL 8
REMARK VINA RESULT:    -2.907      1.963      6.571
REMARK INTER + INTRA:          -7.171
REMARK INTER:                  -5.503
REMARK INTRA:                  -1.668
REMARK UNBOUND:                -1.885
REMARK SMILES CCCCCCCCCCCCCCCC(=O)[O-]
REMARK SMILES IDX 9 1 10 2 11 3 12 4 13 5 14 6 15 7 16 8 17 9 18 10 8 11 7 12
REMARK SMILES IDX 6 13 5 14 4 15 3 16 2 17 1 18
REMARK H PARENT
REMARK Flexibility Score: inf
ROOT
ATOM      1  C   UNL     1       1.248  24.815  10.464  1.00  0.00     0.000 C 
ENDROOT
BRANCH   1   2
ATOM      2  C   UNL     1       1.164  24.086   9.111  1.00  0.00     0.000 C 
BRANCH   2   3
ATOM      3  C   UNL     1       0.456  24.919   8.027  1.00  0.00     0.000 C 
BRANCH   3   4
ATOM      4  C   UNL     1       1.390  25.767   7.144  1.00  0.00     0.000 C 
BRANCH   4   5
ATOM      5  C   UNL     1       2.201  24.921   6.148  1.00  0.00     0.000 C 
BRANCH   5   6
ATOM      6  C   UNL     1       3.713  25.163   6.264  1.00  0.00     0.006 C 
BRANCH   6   7
ATOM      7  C   UNL     1       4.398  24.164   7.206  1.00  0.00     0.053 C 
BRANCH   7   8
ATOM      8  C   UNL     1       5.001  24.878   8.375  1.00  0.00     0.041 C 
ATOM      9  O   UNL     1       4.697  24.539   9.550  1.00  0.00    -0.550 OA
ATOM     10  O   UNL     1       5.937  25.883   8.169  1.00  0.00    -0.550 OA
ENDBRANCH   7   8
ENDBRANCH   6   7
ENDBRANCH   5   6
ENDBRANCH   4   5
ENDBRANCH   3   4
ENDBRANCH   2   3
ENDBRANCH   1   2
BRANCH   1  11
ATOM     11  C   UNL     1      -0.127  24.979  11.133  1.00  0.00     0.000 C 
BRANCH  11  12
ATOM     12  C   UNL     1      -0.366  23.947  12.249  1.00  0.00    -0.000 C 
BRANCH  12  13
ATOM     13  C   UNL     1      -0.345  24.575  13.654  1.00  0.00    -0.000 C 
BRANCH  13  14
ATOM     14  C   UNL     1       0.583  23.875  14.668  1.00  0.00    -0.000 C 
BRANCH  14  15
ATOM     15  C   UNL     1       2.043  24.371  14.672  1.00  0.00    -0.000 C 
BRANCH  15  16
ATOM     16  C   UNL     1       2.231  25.842  14.264  1.00  0.00    -0.000 C 
BRANCH  16  17
ATOM     17  C   UNL     1       3.386  26.042  13.273  1.00  0.00    -0.003 C 
ATOM     18  C   UNL     1       4.115  24.729  13.005  1.00  0.00     0.004 C 
ENDBRANCH  16  17
ENDBRANCH  15  16
ENDBRANCH  14  15
ENDBRANCH  13  14
ENDBRANCH  12  13
ENDBRANCH  11  12
ENDBRANCH   1  11
TORSDOF 14
ENDMDL
MODEL 9
REMARK VINA RESULT:    -0.515      1.757      2.817
REMARK INTER + INTRA:          -2.822
REMARK INTER:                  -1.563
REMARK INTRA:                  -1.259
REMARK UNBOUND:                -1.885
REMARK SMILES CCCCCCCCCCCCCCCC(=O)[O-]
REMARK SMILES IDX 9 1 10 2 11 3 12 4 13 5 14 6 15 7 16 8 17 9 18 10 8 11 7 12
REMARK SMILES IDX 6 13 5 14 4 15 3 16 2 17 1 18
REMARK H PARENT
REMARK Flexibility Score: inf
ROOT
ATOM      1  C   UNL     1       5.143  24.169  11.457  1.00  0.00     0.000 C 
ENDROOT
BRANCH   1   2
ATOM      2  C   UNL     1       4.506  23.944  12.839  1.00  0.00     0.000 C 
BRANCH   2   3
ATOM      3  C   UNL     1       4.381  25.241  13.659  1.00  0.00     0.000 C 
BRANCH   3   4
ATOM      4  C   UNL     1       3.031  25.970  13.523  1.00  0.00     0.000 C 
BRANCH   4   5
ATOM      5  C   UNL     1       2.041  25.605  14.642  1.00  0.00     0.000 C 
BRANCH   5   6
ATOM      6  C   UNL     1       1.206  24.360  14.306  1.00  0.00     0.006 C 
BRANCH   6   7
ATOM      7  C   UNL     1      -0.148  24.712  13.677  1.00  0.00     0.053 C 
BRANCH   7   8
ATOM      8  C   UNL     1      -0.088  24.558  12.189  1.00  0.00     0.041 C 
ATOM      9  O   UNL     1       0.829  23.877  11.659  1.00  0.00    -0.550 OA
ATOM     10  O   UNL     1      -1.074  25.125  11.392  1.00  0.00    -0.550 OA
ENDBRANCH   7   8
ENDBRANCH   6   7
ENDBRANCH   5   6
ENDBRANCH   4   5
ENDBRANCH   3   4
ENDBRANCH   2   3
ENDBRANCH   1   2
BRANCH   1  11
ATOM     11  C   UNL     1       4.170  23.875  10.303  1.00  0.00     0.000 C 
BRANCH  11  12
ATOM     12  C   UNL     1       3.968  25.089   9.379  1.00  0.00    -0.000 C 
BRANCH  12  13
ATOM     13  C   UNL     1       4.981  25.130   8.221  1.00  0.00    -0.000 C 
BRANCH  13  14
ATOM     14  C   UNL     1       4.386  24.866   6.823  1.00  0.00    -0.000 C 
BRANCH  14  15
ATOM     15  C   UNL     1       2.859  24.656   6.788  1.00  0.00    -0.000 C 
BRANCH  15  16
ATOM     16  C   UNL     1       2.080  25.692   5.958  1.00  0.00    -0.000 C 
BRANCH  16  17
ATOM     17  C   UNL     1       0.692  25.998   6.540  1.00  0.00    -0.003 C 
ATOM     18  C   UNL     1       0.683  25.834   8.056  1.00  0.00     0.004 C 
ENDBRANCH  16  17
ENDBRANCH  15  16
ENDBRANCH  14  15
ENDBRANCH  13  14
ENDBRANCH  12  13
ENDBRANCH  11  12
ENDBRANCH   1  11
TORSDOF 14
ENDMDL
