MODEL 1
REMARK VINA RESULT:    -1.725      0.000      0.000
REMARK INTER + INTRA:          -4.593
REMARK INTER:                  -3.944
REMARK INTRA:                  -0.649
REMARK UNBOUND:                -0.649
REMARK SMILES CCCCCCCCCCCCCCCCCCCCCCCC(=O)[O-]
REMARK SMILES IDX 13 1 14 2 15 3 16 4 17 5 18 6 19 7 20 8 21 9 22 10 23 11
REMARK SMILES IDX 24 12 25 13 26 14 12 15 11 16 10 17 9 18 8 19 7 20 6 21 5 22
REMARK SMILES IDX 4 23 3 24 2 25 1 26
REMARK H PARENT
REMARK Flexibility Score: inf
ROOT
ATOM      1  C   UNL     1       5.437 -36.743  25.139  1.00  0.00     0.000 C 
ENDROOT
BRANCH   1   2
ATOM      2  C   UNL     1       5.003 -38.151  25.575  1.00  0.00     0.000 C 
BRANCH   2   3
ATOM      3  C   UNL     1       4.772 -39.101  24.384  1.00  0.00     0.000 C 
BRANCH   3   4
ATOM      4  C   UNL     1       5.411 -40.497  24.524  1.00  0.00     0.000 C 
BRANCH   4   5
ATOM      5  C   UNL     1       5.229 -41.429  23.308  1.00  0.00     0.000 C 
BRANCH   5   6
ATOM      6  C   UNL     1       5.613 -40.806  21.954  1.00  0.00     0.000 C 
BRANCH   6   7
ATOM      7  C   UNL     1       4.741 -39.611  21.525  1.00  0.00     0.000 C 
BRANCH   7   8
ATOM      8  C   UNL     1       5.338 -38.801  20.353  1.00  0.00     0.000 C 
BRANCH   8   9
ATOM      9  C   UNL     1       4.326 -38.590  19.212  1.00  0.00     0.000 C 
BRANCH   9  10
ATOM     10  C   UNL     1       2.972 -38.062  19.712  1.00  0.00     0.006 C 
BRANCH  10  11
ATOM     11  C   UNL     1       1.856 -39.111  19.623  1.00  0.00     0.053 C 
BRANCH  11  12
ATOM     12  C   UNL     1       0.614 -38.506  19.051  1.00  0.00     0.041 C 
ATOM     13  O   UNL     1      -0.135 -37.792  19.770  1.00  0.00    -0.550 OA
ATOM     14  O   UNL     1       0.293 -38.711  17.715  1.00  0.00    -0.550 OA
ENDBRANCH  11  12
ENDBRANCH  10  11
ENDBRANCH   9  10
ENDBRANCH   8   9
ENDBRANCH   7   8
ENDBRANCH   6   7
ENDBRANCH   5   6
ENDBRANCH   4   5
ENDBRANCH   3   4
ENDBRANCH   2   3
ENDBRANCH   1   2
BRANCH   1  15
ATOM     15  C   UNL     1       6.033 -36.720  23.721  1.00  0.00     0.000 C 
BRANCH  15  16
ATOM     16  C   UNL     1       5.244 -35.816  22.757  1.00  0.00     0.000 C 
BRANCH  16  17
ATOM     17  C   UNL     1       6.125 -35.225  21.647  1.00  0.00     0.000 C 
BRANCH  17  18
ATOM     18  C   UNL     1       6.121 -36.077  20.369  1.00  0.00    -0.000 C 
BRANCH  18  19
ATOM     19  C   UNL     1       5.792 -35.218  19.142  1.00  0.00    -0.000 C 
BRANCH  19  20
ATOM     20  C   UNL     1       4.282 -35.196  18.868  1.00  0.00    -0.000 C 
BRANCH  20  21
ATOM     21  C   UNL     1       3.948 -35.198  17.366  1.00  0.00    -0.000 C 
BRANCH  21  22
ATOM     22  C   UNL     1       3.586 -36.593  16.813  1.00  0.00    -0.000 C 
BRANCH  22  23
ATOM     23  C   UNL     1       2.246 -36.589  16.054  1.00  0.00    -0.000 C 
BRANCH  23  24
ATOM     24  C   UNL     1       2.320 -37.348  14.720  1.00  0.00    -0.000 C 
BRANCH  24  25
ATOM     25  C   UNL     1       3.763 -37.607  14.266  1.00  0.00    -0.003 C 
ATOM     26  C   UNL     1       4.052 -39.103  14.193  1.00  0.00     0.004 C 
ENDBRANCH  24  25
ENDBRANCH  23  24
ENDBRANCH  22  23
ENDBRANCH  21  22
ENDBRANCH  20  21
ENDBRANCH  19  20
ENDBRANCH  18  19
ENDBRANCH  17  18
ENDBRANCH  16  17
ENDBRANCH  15  16
ENDBRANCH   1  15
TORSDOF 22
ENDMDL
MODEL 2
REMARK VINA RESULT:    -0.724      1.235      6.327
REMARK INTER + INTRA:          -2.305
REMARK INTER:                  -3.144
REMARK INTRA:                   0.839
REMARK UNBOUND:                -0.649
REMARK SMILES CCCCCCCCCCCCCCCCCCCCCCCC(=O)[O-]
REMARK SMILES IDX 13 1 14 2 15 3 16 4 17 5 18 6 19 7 20 8 21 9 22 10 23 11
REMARK SMILES IDX 24 12 25 13 26 14 12 15 11 16 10 17 9 18 8 19 7 20 6 21 5 22
REMARK SMILES IDX 4 23 3 24 2 25 1 26
REMARK H PARENT
REMARK Flexibility Score: inf
ROOT
ATOM      1  C   UNL     1       4.793 -37.738  21.887  1.00  0.00     0.000 C 
ENDROOT
BRANCH   1   2
ATOM      2  C   UNL     1       4.989 -38.871  20.867  1.00  0.00     0.000 C 
BRANCH   2   3
ATOM      3  C   UNL     1       4.656 -38.441  19.425  1.00  0.00     0.000 C 
BRANCH   3   4
ATOM      4  C   UNL     1       3.891 -37.108  19.299  1.00  0.00     0.000 C 
BRANCH   4   5
ATOM      5  C   UNL     1       4.762 -35.878  18.968  1.00  0.00     0.000 C 
BRANCH   5   6
ATOM      6  C   UNL     1       4.399 -35.166  17.652  1.00  0.00     0.000 C 
BRANCH   6   7
ATOM      7  C   UNL     1       3.100 -35.661  16.989  1.00  0.00     0.000 C 
BRANCH   7   8
ATOM      8  C   UNL     1       3.335 -36.431  15.670  1.00  0.00     0.000 C 
BRANCH   8   9
ATOM      9  C   UNL     1       2.194 -37.414  15.354  1.00  0.00     0.000 C 
BRANCH   9  10
ATOM     10  C   UNL     1       1.836 -38.309  16.552  1.00  0.00     0.006 C 
BRANCH  10  11
ATOM     11  C   UNL     1       0.715 -37.720  17.419  1.00  0.00     0.053 C 
BRANCH  11  12
ATOM     12  C   UNL     1       0.713 -38.355  18.773  1.00  0.00     0.041 C 
ATOM     13  O   UNL     1       1.440 -39.357  19.007  1.00  0.00    -0.550 OA
ATOM     14  O   UNL     1      -0.075 -37.825  19.787  1.00  0.00    -0.550 OA
ENDBRANCH  11  12
ENDBRANCH  10  11
ENDBRANCH   9  10
ENDBRANCH   8   9
ENDBRANCH   7   8
ENDBRANCH   6   7
ENDBRANCH   5   6
ENDBRANCH   4   5
ENDBRANCH   3   4
ENDBRANCH   2   3
ENDBRANCH   1   2
BRANCH   1  15
ATOM     15  C   UNL     1       6.123 -37.112  22.338  1.00  0.00     0.000 C 
BRANCH  15  16
ATOM     16  C   UNL     1       6.100 -35.573  22.306  1.00  0.00     0.000 C 
BRANCH  16  17
ATOM     17  C   UNL     1       5.594 -34.963  23.621  1.00  0.00     0.000 C 
BRANCH  17  18
ATOM     18  C   UNL     1       6.019 -35.774  24.855  1.00  0.00    -0.000 C 
BRANCH  18  19
ATOM     19  C   UNL     1       5.797 -37.273  24.624  1.00  0.00    -0.000 C 
BRANCH  19  20
ATOM     20  C   UNL     1       4.837 -37.860  25.668  1.00  0.00    -0.000 C 
BRANCH  20  21
ATOM     21  C   UNL     1       4.934 -39.392  25.775  1.00  0.00    -0.000 C 
BRANCH  21  22
ATOM     22  C   UNL     1       4.574 -40.128  24.468  1.00  0.00    -0.000 C 
BRANCH  22  23
ATOM     23  C   UNL     1       5.823 -40.520  23.657  1.00  0.00    -0.000 C 
BRANCH  23  24
ATOM     24  C   UNL     1       5.618 -41.803  22.837  1.00  0.00    -0.000 C 
BRANCH  24  25
ATOM     25  C   UNL     1       6.093 -43.061  23.577  1.00  0.00    -0.003 C 
ATOM     26  C   UNL     1       5.639 -43.041  25.033  1.00  0.00     0.004 C 
ENDBRANCH  24  25
ENDBRANCH  23  24
ENDBRANCH  22  23
ENDBRANCH  21  22
ENDBRANCH  20  21
ENDBRANCH  19  20
ENDBRANCH  18  19
ENDBRANCH  17  18
ENDBRANCH  16  17
ENDBRANCH  15  16
ENDBRANCH   1  15
TORSDOF 22
ENDMDL
MODEL 3
REMARK VINA RESULT:    -0.542      1.716      3.798
REMARK INTER + INTRA:          -1.889
REMARK INTER:                  -3.736
REMARK INTRA:                   1.847
REMARK UNBOUND:                -0.649
REMARK SMILES CCCCCCCCCCCCCCCCCCCCCCCC(=O)[O-]
REMARK SMILES IDX 13 1 14 2 15 3 16 4 17 5 18 6 19 7 20 8 21 9 22 10 23 11
REMARK SMILES IDX 24 12 25 13 26 14 12 15 11 16 10 17 9 18 8 19 7 20 6 21 5 22
REMARK SMILES IDX 4 23 3 24 2 25 1 26
REMARK H PARENT
REMARK Flexibility Score: inf
ROOT
ATOM      1  C   UNL     1       6.125 -34.922  21.700  1.00  0.00     0.000 C 
ENDROOT
BRANCH   1   2
ATOM      2  C   UNL     1       5.819 -35.187  23.183  1.00  0.00     0.000 C 
BRANCH   2   3
ATOM      3  C   UNL     1       6.122 -36.637  23.606  1.00  0.00     0.000 C 
BRANCH   3   4
ATOM      4  C   UNL     1       5.043 -37.303  24.485  1.00  0.00     0.000 C 
BRANCH   4   5
ATOM      5  C   UNL     1       5.580 -38.121  25.677  1.00  0.00     0.000 C 
BRANCH   5   6
ATOM      6  C   UNL     1       4.758 -39.376  26.021  1.00  0.00     0.000 C 
BRANCH   6   7
ATOM      7  C   UNL     1       4.630 -40.396  24.873  1.00  0.00     0.000 C 
BRANCH   7   8
ATOM      8  C   UNL     1       5.734 -41.476  24.882  1.00  0.00     0.000 C 
BRANCH   8   9
ATOM      9  C   UNL     1       5.799 -42.258  23.557  1.00  0.00     0.000 C 
BRANCH   9  10
ATOM     10  C   UNL     1       5.834 -41.336  22.328  1.00  0.00     0.006 C 
BRANCH  10  11
ATOM     11  C   UNL     1       4.808 -40.198  22.410  1.00  0.00     0.053 C 
BRANCH  11  12
ATOM     12  C   UNL     1       4.883 -39.336  21.190  1.00  0.00     0.041 C 
ATOM     13  O   UNL     1       5.755 -39.557  20.308  1.00  0.00    -0.550 OA
ATOM     14  O   UNL     1       3.975 -38.300  21.015  1.00  0.00    -0.550 OA
ENDBRANCH  11  12
ENDBRANCH  10  11
ENDBRANCH   9  10
ENDBRANCH   8   9
ENDBRANCH   7   8
ENDBRANCH   6   7
ENDBRANCH   5   6
ENDBRANCH   4   5
ENDBRANCH   3   4
ENDBRANCH   2   3
ENDBRANCH   1   2
BRANCH   1  15
ATOM     15  C   UNL     1       5.743 -36.107  20.797  1.00  0.00     0.000 C 
BRANCH  15  16
ATOM     16  C   UNL     1       5.810 -35.761  19.299  1.00  0.00     0.000 C 
BRANCH  16  17
ATOM     17  C   UNL     1       4.467 -35.256  18.749  1.00  0.00     0.000 C 
BRANCH  17  18
ATOM     18  C   UNL     1       3.880 -36.184  17.674  1.00  0.00    -0.000 C 
BRANCH  18  19
ATOM     19  C   UNL     1       3.885 -37.641  18.150  1.00  0.00    -0.000 C 
BRANCH  19  20
ATOM     20  C   UNL     1       2.482 -38.258  18.070  1.00  0.00    -0.000 C 
BRANCH  20  21
ATOM     21  C   UNL     1       1.521 -37.443  17.186  1.00  0.00    -0.000 C 
BRANCH  21  22
ATOM     22  C   UNL     1       2.235 -36.584  16.121  1.00  0.00    -0.000 C 
BRANCH  22  23
ATOM     23  C   UNL     1       1.665 -36.814  14.709  1.00  0.00    -0.000 C 
BRANCH  23  24
ATOM     24  C   UNL     1       2.521 -37.779  13.875  1.00  0.00    -0.000 C 
BRANCH  24  25
ATOM     25  C   UNL     1       3.830 -38.166  14.577  1.00  0.00    -0.003 C 
ATOM     26  C   UNL     1       4.254 -39.582  14.199  1.00  0.00     0.004 C 
ENDBRANCH  24  25
ENDBRANCH  23  24
ENDBRANCH  22  23
ENDBRANCH  21  22
ENDBRANCH  20  21
ENDBRANCH  19  20
ENDBRANCH  18  19
ENDBRANCH  17  18
ENDBRANCH  16  17
ENDBRANCH  15  16
ENDBRANCH   1  15
TORSDOF 22
ENDMDL
MODEL 4
REMARK VINA RESULT:    -0.509      1.963      4.162
REMARK INTER + INTRA:          -1.813
REMARK INTER:                  -0.265
REMARK INTRA:                  -1.548
REMARK UNBOUND:                -0.649
REMARK SMILES CCCCCCCCCCCCCCCCCCCCCCCC(=O)[O-]
REMARK SMILES IDX 13 1 14 2 15 3 16 4 17 5 18 6 19 7 20 8 21 9 22 10 23 11
REMARK SMILES IDX 24 12 25 13 26 14 12 15 11 16 10 17 9 18 8 19 7 20 6 21 5 22
REMARK SMILES IDX 4 23 3 24 2 25 1 26
REMARK H PARENT
REMARK Flexibility Score: inf
ROOT
ATOM      1  C   UNL     1       5.842 -39.902  22.944  1.00  0.00     0.000 C 
ENDROOT
BRANCH   1   2
ATOM      2  C   UNL     1       5.122 -40.048  24.295  1.00  0.00     0.000 C 
BRANCH   2   3
ATOM      3  C   UNL     1       3.933 -39.080  24.445  1.00  0.00     0.000 C 
BRANCH   3   4
ATOM      4  C   UNL     1       4.162 -37.904  25.417  1.00  0.00     0.000 C 
BRANCH   4   5
ATOM      5  C   UNL     1       5.619 -37.715  25.887  1.00  0.00     0.000 C 
BRANCH   5   6
ATOM      6  C   UNL     1       6.125 -36.261  25.850  1.00  0.00     0.000 C 
BRANCH   6   7
ATOM      7  C   UNL     1       6.075 -35.597  24.461  1.00  0.00     0.000 C 
BRANCH   7   8
ATOM      8  C   UNL     1       5.710 -36.575  23.322  1.00  0.00     0.000 C 
BRANCH   8   9
ATOM      9  C   UNL     1       4.932 -35.887  22.187  1.00  0.00     0.000 C 
BRANCH   9  10
ATOM     10  C   UNL     1       5.852 -35.143  21.205  1.00  0.00     0.006 C 
BRANCH  10  11
ATOM     11  C   UNL     1       6.080 -35.919  19.901  1.00  0.00     0.053 C 
BRANCH  11  12
ATOM     12  C   UNL     1       5.435 -35.212  18.752  1.00  0.00     0.041 C 
ATOM     13  O   UNL     1       6.125 -34.495  17.979  1.00  0.00    -0.550 OA
ATOM     14  O   UNL     1       4.074 -35.363  18.519  1.00  0.00    -0.550 OA
ENDBRANCH  11  12
ENDBRANCH  10  11
ENDBRANCH   9  10
ENDBRANCH   8   9
ENDBRANCH   7   8
ENDBRANCH   6   7
ENDBRANCH   5   6
ENDBRANCH   4   5
ENDBRANCH   3   4
ENDBRANCH   2   3
ENDBRANCH   1   2
BRANCH   1  15
ATOM     15  C   UNL     1       5.293 -40.860  21.875  1.00  0.00     0.000 C 
BRANCH  15  16
ATOM     16  C   UNL     1       6.055 -40.764  20.541  1.00  0.00     0.000 C 
BRANCH  16  17
ATOM     17  C   UNL     1       5.589 -39.583  19.677  1.00  0.00     0.000 C 
BRANCH  17  18
ATOM     18  C   UNL     1       4.321 -38.910  20.226  1.00  0.00    -0.000 C 
BRANCH  18  19
ATOM     19  C   UNL     1       3.440 -38.393  19.082  1.00  0.00    -0.000 C 
BRANCH  19  20
ATOM     20  C   UNL     1       2.110 -37.840  19.611  1.00  0.00    -0.000 C 
BRANCH  20  21
ATOM     21  C   UNL     1       0.922 -38.153  18.684  1.00  0.00    -0.000 C 
BRANCH  21  22
ATOM     22  C   UNL     1       1.318 -38.308  17.200  1.00  0.00    -0.000 C 
BRANCH  22  23
ATOM     23  C   UNL     1       1.388 -36.953  16.472  1.00  0.00    -0.000 C 
BRANCH  23  24
ATOM     24  C   UNL     1       2.660 -36.803  15.624  1.00  0.00    -0.000 C 
BRANCH  24  25
ATOM     25  C   UNL     1       3.441 -38.117  15.491  1.00  0.00    -0.003 C 
ATOM     26  C   UNL     1       3.853 -38.362  14.043  1.00  0.00     0.004 C 
ENDBRANCH  24  25
ENDBRANCH  23  24
ENDBRANCH  22  23
ENDBRANCH  21  22
ENDBRANCH  20  21
ENDBRANCH  19  20
ENDBRANCH  18  19
ENDBRANCH  17  18
ENDBRANCH  16  17
ENDBRANCH  15  16
ENDBRANCH   1  15
TORSDOF 22
ENDMDL
MODEL 5
REMARK VINA RESULT:    -0.312      1.086      6.454
REMARK INTER + INTRA:          -1.363
REMARK INTER:                  -0.355
REMARK INTRA:                  -1.008
REMARK UNBOUND:                -0.649
REMARK SMILES CCCCCCCCCCCCCCCCCCCCCCCC(=O)[O-]
REMARK SMILES IDX 13 1 14 2 15 3 16 4 17 5 18 6 19 7 20 8 21 9 22 10 23 11
REMARK SMILES IDX 24 12 25 13 26 14 12 15 11 16 10 17 9 18 8 19 7 20 6 21 5 22
REMARK SMILES IDX 4 23 3 24 2 25 1 26
REMARK H PARENT
REMARK Flexibility Score: inf
ROOT
ATOM      1  C   UNL     1       4.762 -35.053  19.428  1.00  0.00     0.000 C 
ENDROOT
BRANCH   1   2
ATOM      2  C   UNL     1       4.779 -34.885  17.900  1.00  0.00     0.000 C 
BRANCH   2   3
ATOM      3  C   UNL     1       3.879 -35.904  17.177  1.00  0.00     0.000 C 
BRANCH   3   4
ATOM      4  C   UNL     1       2.642 -35.306  16.476  1.00  0.00     0.000 C 
BRANCH   4   5
ATOM      5  C   UNL     1       1.625 -36.337  15.945  1.00  0.00     0.000 C 
BRANCH   5   6
ATOM      6  C   UNL     1       2.193 -37.336  14.921  1.00  0.00     0.000 C 
BRANCH   6   7
ATOM      7  C   UNL     1       3.404 -38.148  15.417  1.00  0.00     0.000 C 
BRANCH   7   8
ATOM      8  C   UNL     1       3.101 -39.010  16.662  1.00  0.00     0.000 C 
BRANCH   8   9
ATOM      9  C   UNL     1       3.826 -38.497  17.920  1.00  0.00     0.000 C 
BRANCH   9  10
ATOM     10  C   UNL     1       2.944 -38.560  19.178  1.00  0.00     0.006 C 
BRANCH  10  11
ATOM     11  C   UNL     1       1.731 -37.624  19.100  1.00  0.00     0.053 C 
BRANCH  11  12
ATOM     12  C   UNL     1       0.460 -38.410  19.160  1.00  0.00     0.041 C 
ATOM     13  O   UNL     1      -0.608 -37.863  19.544  1.00  0.00    -0.550 OA
ATOM     14  O   UNL     1       0.448 -39.743  18.769  1.00  0.00    -0.550 OA
ENDBRANCH  11  12
ENDBRANCH  10  11
ENDBRANCH   9  10
ENDBRANCH   8   9
ENDBRANCH   7   8
ENDBRANCH   6   7
ENDBRANCH   5   6
ENDBRANCH   4   5
ENDBRANCH   3   4
ENDBRANCH   2   3
ENDBRANCH   1   2
BRANCH   1  15
ATOM     15  C   UNL     1       5.859 -36.005  19.931  1.00  0.00     0.000 C 
BRANCH  15  16
ATOM     16  C   UNL     1       5.405 -36.857  21.130  1.00  0.00     0.000 C 
BRANCH  16  17
ATOM     17  C   UNL     1       4.929 -36.004  22.315  1.00  0.00     0.000 C 
BRANCH  17  18
ATOM     18  C   UNL     1       6.092 -35.454  23.156  1.00  0.00    -0.000 C 
BRANCH  18  19
ATOM     19  C   UNL     1       5.808 -35.622  24.653  1.00  0.00    -0.000 C 
BRANCH  19  20
ATOM     20  C   UNL     1       6.125 -37.048  25.123  1.00  0.00    -0.000 C 
BRANCH  20  21
ATOM     21  C   UNL     1       4.865 -37.846  25.503  1.00  0.00    -0.000 C 
BRANCH  21  22
ATOM     22  C   UNL     1       4.823 -39.263  24.893  1.00  0.00    -0.000 C 
BRANCH  22  23
ATOM     23  C   UNL     1       5.693 -39.378  23.627  1.00  0.00    -0.000 C 
BRANCH  23  24
ATOM     24  C   UNL     1       5.039 -40.240  22.536  1.00  0.00    -0.000 C 
BRANCH  24  25
ATOM     25  C   UNL     1       5.944 -41.387  22.066  1.00  0.00    -0.003 C 
ATOM     26  C   UNL     1       5.916 -42.545  23.058  1.00  0.00     0.004 C 
ENDBRANCH  24  25
ENDBRANCH  23  24
ENDBRANCH  22  23
ENDBRANCH  21  22
ENDBRANCH  20  21
ENDBRANCH  19  20
ENDBRANCH  18  19
ENDBRANCH  17  18
ENDBRANCH  16  17
ENDBRANCH  15  16
ENDBRANCH   1  15
TORSDOF 22
ENDMDL
MODEL 6
REMARK VINA RESULT:    -0.131      1.233      5.975
REMARK INTER + INTRA:          -0.949
REMARK INTER:                   0.324
REMARK INTRA:                  -1.273
REMARK UNBOUND:                -0.649
REMARK SMILES CCCCCCCCCCCCCCCCCCCCCCCC(=O)[O-]
REMARK SMILES IDX 13 1 14 2 15 3 16 4 17 5 18 6 19 7 20 8 21 9 22 10 23 11
REMARK SMILES IDX 24 12 25 13 26 14 12 15 11 16 10 17 9 18 8 19 7 20 6 21 5 22
REMARK SMILES IDX 4 23 3 24 2 25 1 26
REMARK H PARENT
REMARK Flexibility Score: inf
ROOT
ATOM      1  C   UNL     1       4.543 -35.752  21.536  1.00  0.00     0.000 C 
ENDROOT
BRANCH   1   2
ATOM      2  C   UNL     1       5.905 -36.092  20.911  1.00  0.00     0.000 C 
BRANCH   2   3
ATOM      3  C   UNL     1       5.788 -36.596  19.460  1.00  0.00     0.000 C 
BRANCH   3   4
ATOM      4  C   UNL     1       6.125 -35.554  18.374  1.00  0.00     0.000 C 
BRANCH   4   5
ATOM      5  C   UNL     1       5.003 -34.543  18.063  1.00  0.00     0.000 C 
BRANCH   5   6
ATOM      6  C   UNL     1       3.695 -35.168  17.546  1.00  0.00     0.000 C 
BRANCH   6   7
ATOM      7  C   UNL     1       3.884 -36.380  16.615  1.00  0.00     0.000 C 
BRANCH   7   8
ATOM      8  C   UNL     1       2.835 -36.460  15.484  1.00  0.00     0.000 C 
BRANCH   8   9
ATOM      9  C   UNL     1       1.647 -37.368  15.851  1.00  0.00     0.000 C 
BRANCH   9  10
ATOM     10  C   UNL     1       2.036 -38.481  16.837  1.00  0.00     0.006 C 
BRANCH  10  11
ATOM     11  C   UNL     1       2.047 -38.006  18.295  1.00  0.00     0.053 C 
BRANCH  11  12
ATOM     12  C   UNL     1       0.881 -38.574  19.040  1.00  0.00     0.041 C 
ATOM     13  O   UNL     1       0.400 -39.691  18.711  1.00  0.00    -0.550 OA
ATOM     14  O   UNL     1       0.339 -37.880  20.114  1.00  0.00    -0.550 OA
ENDBRANCH  11  12
ENDBRANCH  10  11
ENDBRANCH   9  10
ENDBRANCH   8   9
ENDBRANCH   7   8
ENDBRANCH   6   7
ENDBRANCH   5   6
ENDBRANCH   4   5
ENDBRANCH   3   4
ENDBRANCH   2   3
ENDBRANCH   1   2
BRANCH   1  15
ATOM     15  C   UNL     1       4.660 -35.305  23.002  1.00  0.00     0.000 C 
BRANCH  15  16
ATOM     16  C   UNL     1       6.067 -35.532  23.585  1.00  0.00     0.000 C 
BRANCH  16  17
ATOM     17  C   UNL     1       6.035 -36.254  24.940  1.00  0.00     0.000 C 
BRANCH  17  18
ATOM     18  C   UNL     1       5.989 -37.783  24.798  1.00  0.00    -0.000 C 
BRANCH  18  19
ATOM     19  C   UNL     1       4.737 -38.354  25.474  1.00  0.00    -0.000 C 
BRANCH  19  20
ATOM     20  C   UNL     1       4.258 -39.631  24.769  1.00  0.00    -0.000 C 
BRANCH  20  21
ATOM     21  C   UNL     1       5.379 -40.670  24.588  1.00  0.00    -0.000 C 
BRANCH  21  22
ATOM     22  C   UNL     1       5.156 -41.620  23.392  1.00  0.00    -0.000 C 
BRANCH  22  23
ATOM     23  C   UNL     1       6.119 -41.325  22.228  1.00  0.00    -0.000 C 
BRANCH  23  24
ATOM     24  C   UNL     1       5.451 -40.534  21.093  1.00  0.00    -0.000 C 
BRANCH  24  25
ATOM     25  C   UNL     1       5.079 -39.104  21.509  1.00  0.00    -0.003 C 
ATOM     26  C   UNL     1       3.565 -38.923  21.546  1.00  0.00     0.004 C 
ENDBRANCH  24  25
ENDBRANCH  23  24
ENDBRANCH  22  23
ENDBRANCH  21  22
ENDBRANCH  20  21
ENDBRANCH  19  20
ENDBRANCH  18  19
ENDBRANCH  17  18
ENDBRANCH  16  17
ENDBRANCH  15  16
ENDBRANCH   1  15
TORSDOF 22
ENDMDL
MODEL 7
REMARK VINA RESULT:     0.038      2.568      4.373
REMARK INTER + INTRA:          -0.562
REMARK INTER:                  -0.017
REMARK INTRA:                  -0.545
REMARK UNBOUND:                -0.649
REMARK SMILES CCCCCCCCCCCCCCCCCCCCCCCC(=O)[O-]
REMARK SMILES IDX 13 1 14 2 15 3 16 4 17 5 18 6 19 7 20 8 21 9 22 10 23 11
REMARK SMILES IDX 24 12 25 13 26 14 12 15 11 16 10 17 9 18 8 19 7 20 6 21 5 22
REMARK SMILES IDX 4 23 3 24 2 25 1 26
REMARK H PARENT
REMARK Flexibility Score: inf
ROOT
ATOM      1  C   UNL     1       4.953 -36.463  22.145  1.00  0.00     0.000 C 
ENDROOT
BRANCH   1   2
ATOM      2  C   UNL     1       5.842 -37.685  21.857  1.00  0.00     0.000 C 
BRANCH   2   3
ATOM      3  C   UNL     1       5.029 -38.940  21.486  1.00  0.00     0.000 C 
BRANCH   3   4
ATOM      4  C   UNL     1       5.682 -39.855  20.430  1.00  0.00     0.000 C 
BRANCH   4   5
ATOM      5  C   UNL     1       6.125 -41.240  20.943  1.00  0.00     0.000 C 
BRANCH   5   6
ATOM      6  C   UNL     1       5.234 -41.834  22.049  1.00  0.00     0.000 C 
BRANCH   6   7
ATOM      7  C   UNL     1       5.913 -42.914  22.913  1.00  0.00     0.000 C 
BRANCH   7   8
ATOM      8  C   UNL     1       5.971 -42.557  24.414  1.00  0.00     0.000 C 
BRANCH   8   9
ATOM      9  C   UNL     1       5.984 -41.036  24.654  1.00  0.00     0.000 C 
BRANCH   9  10
ATOM     10  C   UNL     1       4.614 -40.494  25.091  1.00  0.00     0.006 C 
BRANCH  10  11
ATOM     11  C   UNL     1       4.342 -39.077  24.568  1.00  0.00     0.053 C 
BRANCH  11  12
ATOM     12  C   UNL     1       4.934 -38.058  25.489  1.00  0.00     0.041 C 
ATOM     13  O   UNL     1       5.466 -38.414  26.574  1.00  0.00    -0.550 OA
ATOM     14  O   UNL     1       4.919 -36.714  25.137  1.00  0.00    -0.550 OA
ENDBRANCH  11  12
ENDBRANCH  10  11
ENDBRANCH   9  10
ENDBRANCH   8   9
ENDBRANCH   7   8
ENDBRANCH   6   7
ENDBRANCH   5   6
ENDBRANCH   4   5
ENDBRANCH   3   4
ENDBRANCH   2   3
ENDBRANCH   1   2
BRANCH   1  15
ATOM     15  C   UNL     1       5.298 -35.258  21.255  1.00  0.00     0.000 C 
BRANCH  15  16
ATOM     16  C   UNL     1       6.099 -35.653  20.001  1.00  0.00     0.000 C 
BRANCH  16  17
ATOM     17  C   UNL     1       5.740 -34.796  18.777  1.00  0.00     0.000 C 
BRANCH  17  18
ATOM     18  C   UNL     1       4.639 -35.429  17.912  1.00  0.00    -0.000 C 
BRANCH  18  19
ATOM     19  C   UNL     1       3.892 -36.518  18.691  1.00  0.00    -0.000 C 
BRANCH  19  20
ATOM     20  C   UNL     1       3.825 -37.827  17.893  1.00  0.00    -0.000 C 
BRANCH  20  21
ATOM     21  C   UNL     1       2.406 -38.419  17.833  1.00  0.00    -0.000 C 
BRANCH  21  22
ATOM     22  C   UNL     1       1.329 -37.402  17.398  1.00  0.00    -0.000 C 
BRANCH  22  23
ATOM     23  C   UNL     1       1.566 -36.878  15.970  1.00  0.00    -0.000 C 
BRANCH  23  24
ATOM     24  C   UNL     1       2.996 -37.141  15.473  1.00  0.00    -0.000 C 
BRANCH  24  25
ATOM     25  C   UNL     1       3.029 -37.933  14.158  1.00  0.00    -0.003 C 
ATOM     26  C   UNL     1       4.053 -39.061  14.226  1.00  0.00     0.004 C 
ENDBRANCH  24  25
ENDBRANCH  23  24
ENDBRANCH  22  23
ENDBRANCH  21  22
ENDBRANCH  20  21
ENDBRANCH  19  20
ENDBRANCH  18  19
ENDBRANCH  17  18
ENDBRANCH  16  17
ENDBRANCH  15  16
ENDBRANCH   1  15
TORSDOF 22
ENDMDL
