MODEL 1
REMARK VINA RESULT:    -3.905      0.000      0.000
REMARK INTER + INTRA:         -12.979
REMARK INTER:                  -8.928
REMARK INTRA:                  -4.051
REMARK UNBOUND:                -4.051
REMARK SMILES CCCCCCCCCCCCCCCCCCCCCCCC(=O)[O-]
REMARK SMILES IDX 13 1 14 2 15 3 16 4 17 5 18 6 19 7 20 8 21 9 22 10 23 11
REMARK SMILES IDX 24 12 25 13 26 14 12 15 11 16 10 17 9 18 8 19 7 20 6 21 5 22
REMARK SMILES IDX 4 23 3 24 2 25 1 26
REMARK H PARENT
REMARK Flexibility Score: inf
ROOT
ATOM      1  C   UNL     1      27.749  20.219  56.353  1.00  0.00     0.000 C 
ENDROOT
BRANCH   1   2
ATOM      2  C   UNL     1      26.666  19.125  56.370  1.00  0.00     0.000 C 
BRANCH   2   3
ATOM      3  C   UNL     1      26.836  18.137  57.535  1.00  0.00     0.000 C 
BRANCH   3   4
ATOM      4  C   UNL     1      28.301  18.076  57.995  1.00  0.00     0.000 C 
BRANCH   4   5
ATOM      5  C   UNL     1      29.062  16.886  57.377  1.00  0.00     0.000 C 
BRANCH   5   6
ATOM      6  C   UNL     1      28.150  15.748  56.882  1.00  0.00     0.000 C 
BRANCH   6   7
ATOM      7  C   UNL     1      28.357  15.421  55.393  1.00  0.00     0.000 C 
BRANCH   7   8
ATOM      8  C   UNL     1      29.405  16.341  54.734  1.00  0.00     0.000 C 
BRANCH   8   9
ATOM      9  C   UNL     1      28.833  17.256  53.635  1.00  0.00     0.000 C 
BRANCH   9  10
ATOM     10  C   UNL     1      27.332  17.029  53.391  1.00  0.00     0.006 C 
BRANCH  10  11
ATOM     11  C   UNL     1      26.945  17.444  51.968  1.00  0.00     0.053 C 
BRANCH  11  12
ATOM     12  C   UNL     1      25.812  18.421  51.997  1.00  0.00     0.041 C 
ATOM     13  O   UNL     1      25.700  19.233  52.952  1.00  0.00    -0.550 OA
ATOM     14  O   UNL     1      24.910  18.470  50.941  1.00  0.00    -0.550 OA
ENDBRANCH  11  12
ENDBRANCH  10  11
ENDBRANCH   9  10
ENDBRANCH   8   9
ENDBRANCH   7   8
ENDBRANCH   6   7
ENDBRANCH   5   6
ENDBRANCH   4   5
ENDBRANCH   3   4
ENDBRANCH   2   3
ENDBRANCH   1   2
BRANCH   1  15
ATOM     15  C   UNL     1      28.150  20.720  54.953  1.00  0.00     0.000 C 
BRANCH  15  16
ATOM     16  C   UNL     1      29.662  20.606  54.690  1.00  0.00     0.000 C 
BRANCH  16  17
ATOM     17  C   UNL     1      30.461  20.248  55.958  1.00  0.00     0.000 C 
BRANCH  17  18
ATOM     18  C   UNL     1      31.568  19.189  55.764  1.00  0.00    -0.000 C 
BRANCH  18  19
ATOM     19  C   UNL     1      32.060  19.014  54.315  1.00  0.00    -0.000 C 
BRANCH  19  20
ATOM     20  C   UNL     1      32.654  17.621  54.053  1.00  0.00    -0.000 C 
BRANCH  20  21
ATOM     21  C   UNL     1      34.149  17.688  53.694  1.00  0.00    -0.000 C 
BRANCH  21  22
ATOM     22  C   UNL     1      34.899  18.734  54.535  1.00  0.00    -0.000 C 
BRANCH  22  23
ATOM     23  C   UNL     1      35.208  18.249  55.961  1.00  0.00    -0.000 C 
BRANCH  23  24
ATOM     24  C   UNL     1      35.582  19.398  56.914  1.00  0.00    -0.000 C 
BRANCH  24  25
ATOM     25  C   UNL     1      34.871  20.713  56.560  1.00  0.00    -0.003 C 
ATOM     26  C   UNL     1      35.842  21.881  56.380  1.00  0.00     0.004 C 
ENDBRANCH  24  25
ENDBRANCH  23  24
ENDBRANCH  22  23
ENDBRANCH  21  22
ENDBRANCH  20  21
ENDBRANCH  19  20
ENDBRANCH  18  19
ENDBRANCH  17  18
ENDBRANCH  16  17
ENDBRANCH  15  16
ENDBRANCH   1  15
TORSDOF 22
ENDMDL
MODEL 2
REMARK VINA RESULT:    -3.896      2.327      4.542
REMARK INTER + INTRA:         -12.958
REMARK INTER:                  -8.486
REMARK INTRA:                  -4.473
REMARK UNBOUND:                -4.051
REMARK SMILES CCCCCCCCCCCCCCCCCCCCCCCC(=O)[O-]
REMARK SMILES IDX 13 1 14 2 15 3 16 4 17 5 18 6 19 7 20 8 21 9 22 10 23 11
REMARK SMILES IDX 24 12 25 13 26 14 12 15 11 16 10 17 9 18 8 19 7 20 6 21 5 22
REMARK SMILES IDX 4 23 3 24 2 25 1 26
REMARK H PARENT
REMARK Flexibility Score: inf
ROOT
ATOM      1  C   UNL     1      28.327  19.169  57.485  1.00  0.00     0.000 C 
ENDROOT
BRANCH   1   2
ATOM      2  C   UNL     1      28.293  20.504  56.718  1.00  0.00     0.000 C 
BRANCH   2   3
ATOM      3  C   UNL     1      29.628  20.831  56.033  1.00  0.00     0.000 C 
BRANCH   3   4
ATOM      4  C   UNL     1      29.484  20.799  54.503  1.00  0.00     0.000 C 
BRANCH   4   5
ATOM      5  C   UNL     1      28.054  21.139  54.040  1.00  0.00     0.000 C 
BRANCH   5   6
ATOM      6  C   UNL     1      27.462  20.127  53.041  1.00  0.00     0.000 C 
BRANCH   6   7
ATOM      7  C   UNL     1      26.596  19.052  53.723  1.00  0.00     0.000 C 
BRANCH   7   8
ATOM      8  C   UNL     1      27.220  17.646  53.617  1.00  0.00     0.000 C 
BRANCH   8   9
ATOM      9  C   UNL     1      28.459  17.578  52.704  1.00  0.00     0.000 C 
BRANCH   9  10
ATOM     10  C   UNL     1      28.580  16.237  51.962  1.00  0.00     0.006 C 
BRANCH  10  11
ATOM     11  C   UNL     1      29.629  15.341  52.628  1.00  0.00     0.053 C 
BRANCH  11  12
ATOM     12  C   UNL     1      29.002  14.074  53.118  1.00  0.00     0.041 C 
ATOM     13  O   UNL     1      29.709  13.191  53.671  1.00  0.00    -0.550 OA
ATOM     14  O   UNL     1      27.628  13.892  53.012  1.00  0.00    -0.550 OA
ENDBRANCH  11  12
ENDBRANCH  10  11
ENDBRANCH   9  10
ENDBRANCH   8   9
ENDBRANCH   7   8
ENDBRANCH   6   7
ENDBRANCH   5   6
ENDBRANCH   4   5
ENDBRANCH   3   4
ENDBRANCH   2   3
ENDBRANCH   1   2
BRANCH   1  15
ATOM     15  C   UNL     1      27.068  18.296  57.334  1.00  0.00     0.000 C 
BRANCH  15  16
ATOM     16  C   UNL     1      27.085  17.061  58.253  1.00  0.00     0.000 C 
BRANCH  16  17
ATOM     17  C   UNL     1      26.844  15.747  57.487  1.00  0.00     0.000 C 
BRANCH  17  18
ATOM     18  C   UNL     1      27.871  15.431  56.377  1.00  0.00    -0.000 C 
BRANCH  18  19
ATOM     19  C   UNL     1      29.131  14.681  56.846  1.00  0.00    -0.000 C 
BRANCH  19  20
ATOM     20  C   UNL     1      30.431  15.419  56.485  1.00  0.00    -0.000 C 
BRANCH  20  21
ATOM     21  C   UNL     1      30.159  16.818  55.906  1.00  0.00    -0.000 C 
BRANCH  21  22
ATOM     22  C   UNL     1      31.447  17.647  55.769  1.00  0.00    -0.000 C 
BRANCH  22  23
ATOM     23  C   UNL     1      31.931  17.768  54.315  1.00  0.00    -0.000 C 
BRANCH  23  24
ATOM     24  C   UNL     1      32.743  19.051  54.060  1.00  0.00    -0.000 C 
BRANCH  24  25
ATOM     25  C   UNL     1      34.223  18.762  53.767  1.00  0.00    -0.003 C 
ATOM     26  C   UNL     1      34.551  17.268  53.789  1.00  0.00     0.004 C 
ENDBRANCH  24  25
ENDBRANCH  23  24
ENDBRANCH  22  23
ENDBRANCH  21  22
ENDBRANCH  20  21
ENDBRANCH  19  20
ENDBRANCH  18  19
ENDBRANCH  17  18
ENDBRANCH  16  17
ENDBRANCH  15  16
ENDBRANCH   1  15
TORSDOF 22
ENDMDL
MODEL 3
REMARK VINA RESULT:    -3.876      1.609      3.235
REMARK INTER + INTRA:         -12.911
REMARK INTER:                  -8.207
REMARK INTRA:                  -4.705
REMARK UNBOUND:                -4.051
REMARK SMILES CCCCCCCCCCCCCCCCCCCCCCCC(=O)[O-]
REMARK SMILES IDX 13 1 14 2 15 3 16 4 17 5 18 6 19 7 20 8 21 9 22 10 23 11
REMARK SMILES IDX 24 12 25 13 26 14 12 15 11 16 10 17 9 18 8 19 7 20 6 21 5 22
REMARK SMILES IDX 4 23 3 24 2 25 1 26
REMARK H PARENT
REMARK Flexibility Score: inf
ROOT
ATOM      1  C   UNL     1      28.053  17.999  57.916  1.00  0.00     0.000 C 
ENDROOT
BRANCH   1   2
ATOM      2  C   UNL     1      28.577  16.675  57.331  1.00  0.00     0.000 C 
BRANCH   2   3
ATOM      3  C   UNL     1      30.037  16.766  56.863  1.00  0.00     0.000 C 
BRANCH   3   4
ATOM      4  C   UNL     1      30.569  15.385  56.447  1.00  0.00     0.000 C 
BRANCH   4   5
ATOM      5  C   UNL     1      29.451  14.329  56.352  1.00  0.00     0.000 C 
BRANCH   5   6
ATOM      6  C   UNL     1      29.351  13.645  54.974  1.00  0.00     0.000 C 
BRANCH   6   7
ATOM      7  C   UNL     1      28.413  14.389  54.007  1.00  0.00     0.000 C 
BRANCH   7   8
ATOM      8  C   UNL     1      29.189  15.193  52.943  1.00  0.00     0.000 C 
BRANCH   8   9
ATOM      9  C   UNL     1      29.109  16.719  53.132  1.00  0.00     0.000 C 
BRANCH   9  10
ATOM     10  C   UNL     1      27.796  17.172  53.790  1.00  0.00     0.006 C 
BRANCH  10  11
ATOM     11  C   UNL     1      26.715  17.417  52.732  1.00  0.00     0.053 C 
BRANCH  11  12
ATOM     12  C   UNL     1      26.450  18.882  52.583  1.00  0.00     0.041 C 
ATOM     13  O   UNL     1      25.267  19.309  52.526  1.00  0.00    -0.550 OA
ATOM     14  O   UNL     1      27.509  19.781  52.560  1.00  0.00    -0.550 OA
ENDBRANCH  11  12
ENDBRANCH  10  11
ENDBRANCH   9  10
ENDBRANCH   8   9
ENDBRANCH   7   8
ENDBRANCH   6   7
ENDBRANCH   5   6
ENDBRANCH   4   5
ENDBRANCH   3   4
ENDBRANCH   2   3
ENDBRANCH   1   2
BRANCH   1  15
ATOM     15  C   UNL     1      27.027  18.741  57.040  1.00  0.00     0.000 C 
BRANCH  15  16
ATOM     16  C   UNL     1      27.623  19.973  56.337  1.00  0.00     0.000 C 
BRANCH  16  17
ATOM     17  C   UNL     1      28.849  20.543  57.075  1.00  0.00     0.000 C 
BRANCH  17  18
ATOM     18  C   UNL     1      30.136  20.655  56.228  1.00  0.00    -0.000 C 
BRANCH  18  19
ATOM     19  C   UNL     1      30.048  20.039  54.819  1.00  0.00    -0.000 C 
BRANCH  19  20
ATOM     20  C   UNL     1      31.317  19.265  54.429  1.00  0.00    -0.000 C 
BRANCH  20  21
ATOM     21  C   UNL     1      32.338  19.212  55.578  1.00  0.00    -0.000 C 
BRANCH  21  22
ATOM     22  C   UNL     1      33.234  17.965  55.498  1.00  0.00    -0.000 C 
BRANCH  22  23
ATOM     23  C   UNL     1      34.042  17.887  54.192  1.00  0.00    -0.000 C 
BRANCH  23  24
ATOM     24  C   UNL     1      34.135  16.457  53.632  1.00  0.00    -0.000 C 
BRANCH  24  25
ATOM     25  C   UNL     1      32.756  15.805  53.448  1.00  0.00    -0.003 C 
ATOM     26  C   UNL     1      32.800  14.282  53.580  1.00  0.00     0.004 C 
ENDBRANCH  24  25
ENDBRANCH  23  24
ENDBRANCH  22  23
ENDBRANCH  21  22
ENDBRANCH  20  21
ENDBRANCH  19  20
ENDBRANCH  18  19
ENDBRANCH  17  18
ENDBRANCH  16  17
ENDBRANCH  15  16
ENDBRANCH   1  15
TORSDOF 22
ENDMDL
MODEL 4
REMARK VINA RESULT:    -3.864      3.045      6.070
REMARK INTER + INTRA:         -12.884
REMARK INTER:                  -8.356
REMARK INTRA:                  -4.528
REMARK UNBOUND:                -4.051
REMARK SMILES CCCCCCCCCCCCCCCCCCCCCCCC(=O)[O-]
REMARK SMILES IDX 13 1 14 2 15 3 16 4 17 5 18 6 19 7 20 8 21 9 22 10 23 11
REMARK SMILES IDX 24 12 25 13 26 14 12 15 11 16 10 17 9 18 8 19 7 20 6 21 5 22
REMARK SMILES IDX 4 23 3 24 2 25 1 26
REMARK H PARENT
REMARK Flexibility Score: inf
ROOT
ATOM      1  C   UNL     1      28.585  20.097  57.124  1.00  0.00     0.000 C 
ENDROOT
BRANCH   1   2
ATOM      2  C   UNL     1      27.282  19.474  56.590  1.00  0.00     0.000 C 
BRANCH   2   3
ATOM      3  C   UNL     1      26.813  18.270  57.421  1.00  0.00     0.000 C 
BRANCH   3   4
ATOM      4  C   UNL     1      28.011  17.461  57.942  1.00  0.00     0.000 C 
BRANCH   4   5
ATOM      5  C   UNL     1      28.206  16.138  57.174  1.00  0.00     0.000 C 
BRANCH   5   6
ATOM      6  C   UNL     1      29.675  15.823  56.834  1.00  0.00     0.000 C 
BRANCH   6   7
ATOM      7  C   UNL     1      30.453  17.057  56.344  1.00  0.00     0.000 C 
BRANCH   7   8
ATOM      8  C   UNL     1      31.941  16.745  56.085  1.00  0.00     0.000 C 
BRANCH   8   9
ATOM      9  C   UNL     1      32.400  17.040  54.644  1.00  0.00     0.000 C 
BRANCH   9  10
ATOM     10  C   UNL     1      32.384  18.539  54.307  1.00  0.00     0.006 C 
BRANCH  10  11
ATOM     11  C   UNL     1      33.810  19.082  54.179  1.00  0.00     0.053 C 
BRANCH  11  12
ATOM     12  C   UNL     1      34.443  19.217  55.528  1.00  0.00     0.041 C 
ATOM     13  O   UNL     1      34.026  20.085  56.339  1.00  0.00    -0.550 OA
ATOM     14  O   UNL     1      35.459  18.349  55.909  1.00  0.00    -0.550 OA
ENDBRANCH  11  12
ENDBRANCH  10  11
ENDBRANCH   9  10
ENDBRANCH   8   9
ENDBRANCH   7   8
ENDBRANCH   6   7
ENDBRANCH   5   6
ENDBRANCH   4   5
ENDBRANCH   3   4
ENDBRANCH   2   3
ENDBRANCH   1   2
BRANCH   1  15
ATOM     15  C   UNL     1      29.445  20.819  56.071  1.00  0.00     0.000 C 
BRANCH  15  16
ATOM     16  C   UNL     1      29.301  20.209  54.664  1.00  0.00     0.000 C 
BRANCH  16  17
ATOM     17  C   UNL     1      28.617  21.166  53.669  1.00  0.00     0.000 C 
BRANCH  17  18
ATOM     18  C   UNL     1      27.143  20.841  53.348  1.00  0.00    -0.000 C 
BRANCH  18  19
ATOM     19  C   UNL     1      26.900  20.197  51.970  1.00  0.00    -0.000 C 
BRANCH  19  20
ATOM     20  C   UNL     1      27.245  18.699  51.945  1.00  0.00    -0.000 C 
BRANCH  20  21
ATOM     21  C   UNL     1      26.698  17.959  53.178  1.00  0.00    -0.000 C 
BRANCH  21  22
ATOM     22  C   UNL     1      27.703  16.935  53.730  1.00  0.00    -0.000 C 
BRANCH  22  23
ATOM     23  C   UNL     1      29.074  17.004  53.038  1.00  0.00    -0.000 C 
BRANCH  23  24
ATOM     24  C   UNL     1      29.596  15.622  52.608  1.00  0.00    -0.000 C 
BRANCH  24  25
ATOM     25  C   UNL     1      28.877  14.470  53.327  1.00  0.00    -0.003 C 
ATOM     26  C   UNL     1      29.840  13.549  54.078  1.00  0.00     0.004 C 
ENDBRANCH  24  25
ENDBRANCH  23  24
ENDBRANCH  22  23
ENDBRANCH  21  22
ENDBRANCH  20  21
ENDBRANCH  19  20
ENDBRANCH  18  19
ENDBRANCH  17  18
ENDBRANCH  16  17
ENDBRANCH  15  16
ENDBRANCH   1  15
TORSDOF 22
ENDMDL
MODEL 5
REMARK VINA RESULT:    -3.841      1.408      3.735
REMARK INTER + INTRA:         -12.833
REMARK INTER:                  -8.468
REMARK INTRA:                  -4.365
REMARK UNBOUND:                -4.051
REMARK SMILES CCCCCCCCCCCCCCCCCCCCCCCC(=O)[O-]
REMARK SMILES IDX 13 1 14 2 15 3 16 4 17 5 18 6 19 7 20 8 21 9 22 10 23 11
REMARK SMILES IDX 24 12 25 13 26 14 12 15 11 16 10 17 9 18 8 19 7 20 6 21 5 22
REMARK SMILES IDX 4 23 3 24 2 25 1 26
REMARK H PARENT
REMARK Flexibility Score: inf
ROOT
ATOM      1  C   UNL     1      28.070  15.503  57.058  1.00  0.00     0.000 C 
ENDROOT
BRANCH   1   2
ATOM      2  C   UNL     1      29.384  16.306  57.021  1.00  0.00     0.000 C 
BRANCH   2   3
ATOM      3  C   UNL     1      30.537  15.532  56.364  1.00  0.00     0.000 C 
BRANCH   3   4
ATOM      4  C   UNL     1      30.056  14.791  55.107  1.00  0.00     0.000 C 
BRANCH   4   5
ATOM      5  C   UNL     1      30.613  15.410  53.810  1.00  0.00     0.000 C 
BRANCH   5   6
ATOM      6  C   UNL     1      29.530  15.778  52.777  1.00  0.00     0.000 C 
BRANCH   6   7
ATOM      7  C   UNL     1      28.110  15.763  53.370  1.00  0.00     0.000 C 
BRANCH   7   8
ATOM      8  C   UNL     1      27.616  17.177  53.737  1.00  0.00     0.000 C 
BRANCH   8   9
ATOM      9  C   UNL     1      28.251  18.300  52.896  1.00  0.00     0.000 C 
BRANCH   9  10
ATOM     10  C   UNL     1      27.331  19.521  52.739  1.00  0.00     0.006 C 
BRANCH  10  11
ATOM     11  C   UNL     1      25.909  19.086  52.371  1.00  0.00     0.053 C 
BRANCH  11  12
ATOM     12  C   UNL     1      25.588  19.478  50.963  1.00  0.00     0.041 C 
ATOM     13  O   UNL     1      25.405  18.594  50.085  1.00  0.00    -0.550 OA
ATOM     14  O   UNL     1      25.437  20.820  50.632  1.00  0.00    -0.550 OA
ENDBRANCH  11  12
ENDBRANCH  10  11
ENDBRANCH   9  10
ENDBRANCH   8   9
ENDBRANCH   7   8
ENDBRANCH   6   7
ENDBRANCH   5   6
ENDBRANCH   4   5
ENDBRANCH   3   4
ENDBRANCH   2   3
ENDBRANCH   1   2
BRANCH   1  15
ATOM     15  C   UNL     1      26.827  16.302  57.489  1.00  0.00     0.000 C 
BRANCH  15  16
ATOM     16  C   UNL     1      27.143  17.777  57.796  1.00  0.00     0.000 C 
BRANCH  16  17
ATOM     17  C   UNL     1      26.515  18.744  56.775  1.00  0.00     0.000 C 
BRANCH  17  18
ATOM     18  C   UNL     1      27.386  19.962  56.396  1.00  0.00    -0.000 C 
BRANCH  18  19
ATOM     19  C   UNL     1      28.779  19.999  57.051  1.00  0.00    -0.000 C 
BRANCH  19  20
ATOM     20  C   UNL     1      29.736  20.983  56.357  1.00  0.00    -0.000 C 
BRANCH  20  21
ATOM     21  C   UNL     1      30.263  20.432  55.021  1.00  0.00    -0.000 C 
BRANCH  21  22
ATOM     22  C   UNL     1      30.876  19.030  55.176  1.00  0.00    -0.000 C 
BRANCH  22  23
ATOM     23  C   UNL     1      32.315  18.941  54.641  1.00  0.00    -0.000 C 
BRANCH  23  24
ATOM     24  C   UNL     1      33.196  17.976  55.454  1.00  0.00    -0.000 C 
BRANCH  24  25
ATOM     25  C   UNL     1      33.921  18.676  56.614  1.00  0.00    -0.003 C 
ATOM     26  C   UNL     1      34.150  20.166  56.356  1.00  0.00     0.004 C 
ENDBRANCH  24  25
ENDBRANCH  23  24
ENDBRANCH  22  23
ENDBRANCH  21  22
ENDBRANCH  20  21
ENDBRANCH  19  20
ENDBRANCH  18  19
ENDBRANCH  17  18
ENDBRANCH  16  17
ENDBRANCH  15  16
ENDBRANCH   1  15
TORSDOF 22
ENDMDL
MODEL 6
REMARK VINA RESULT:    -3.818      1.977      3.894
REMARK INTER + INTRA:         -12.779
REMARK INTER:                  -8.618
REMARK INTRA:                  -4.161
REMARK UNBOUND:                -4.051
REMARK SMILES CCCCCCCCCCCCCCCCCCCCCCCC(=O)[O-]
REMARK SMILES IDX 13 1 14 2 15 3 16 4 17 5 18 6 19 7 20 8 21 9 22 10 23 11
REMARK SMILES IDX 24 12 25 13 26 14 12 15 11 16 10 17 9 18 8 19 7 20 6 21 5 22
REMARK SMILES IDX 4 23 3 24 2 25 1 26
REMARK H PARENT
REMARK Flexibility Score: inf
ROOT
ATOM      1  C   UNL     1      28.171  16.871  57.340  1.00  0.00     0.000 C 
ENDROOT
BRANCH   1   2
ATOM      2  C   UNL     1      29.685  16.773  57.073  1.00  0.00     0.000 C 
BRANCH   2   3
ATOM      3  C   UNL     1      30.025  15.821  55.916  1.00  0.00     0.000 C 
BRANCH   3   4
ATOM      4  C   UNL     1      28.803  15.596  55.011  1.00  0.00     0.000 C 
BRANCH   4   5
ATOM      5  C   UNL     1      29.154  15.696  53.514  1.00  0.00     0.000 C 
BRANCH   5   6
ATOM      6  C   UNL     1      28.221  16.624  52.713  1.00  0.00     0.000 C 
BRANCH   6   7
ATOM      7  C   UNL     1      27.199  17.355  53.603  1.00  0.00     0.000 C 
BRANCH   7   8
ATOM      8  C   UNL     1      26.959  18.807  53.144  1.00  0.00     0.000 C 
BRANCH   8   9
ATOM      9  C   UNL     1      27.212  19.040  51.642  1.00  0.00     0.000 C 
BRANCH   9  10
ATOM     10  C   UNL     1      25.936  19.419  50.873  1.00  0.00     0.006 C 
BRANCH  10  11
ATOM     11  C   UNL     1      25.149  20.496  51.626  1.00  0.00     0.053 C 
BRANCH  11  12
ATOM     12  C   UNL     1      24.289  21.274  50.680  1.00  0.00     0.041 C 
ATOM     13  O   UNL     1      23.249  21.848  51.097  1.00  0.00    -0.550 OA
ATOM     14  O   UNL     1      24.665  21.409  49.349  1.00  0.00    -0.550 OA
ENDBRANCH  11  12
ENDBRANCH  10  11
ENDBRANCH   9  10
ENDBRANCH   8   9
ENDBRANCH   7   8
ENDBRANCH   6   7
ENDBRANCH   5   6
ENDBRANCH   4   5
ENDBRANCH   3   4
ENDBRANCH   2   3
ENDBRANCH   1   2
BRANCH   1  15
ATOM     15  C   UNL     1      27.688  18.234  57.869  1.00  0.00     0.000 C 
BRANCH  15  16
ATOM     16  C   UNL     1      26.936  19.054  56.805  1.00  0.00     0.000 C 
BRANCH  16  17
ATOM     17  C   UNL     1      27.682  20.343  56.412  1.00  0.00     0.000 C 
BRANCH  17  18
ATOM     18  C   UNL     1      29.039  20.561  57.116  1.00  0.00    -0.000 C 
BRANCH  18  19
ATOM     19  C   UNL     1      30.273  20.483  56.197  1.00  0.00    -0.000 C 
BRANCH  19  20
ATOM     20  C   UNL     1      29.908  20.156  54.740  1.00  0.00    -0.000 C 
BRANCH  20  21
ATOM     21  C   UNL     1      30.715  18.965  54.195  1.00  0.00    -0.000 C 
BRANCH  21  22
ATOM     22  C   UNL     1      32.071  18.813  54.904  1.00  0.00    -0.000 C 
BRANCH  22  23
ATOM     23  C   UNL     1      33.267  18.919  53.943  1.00  0.00    -0.000 C 
BRANCH  23  24
ATOM     24  C   UNL     1      34.133  17.647  53.925  1.00  0.00    -0.000 C 
BRANCH  24  25
ATOM     25  C   UNL     1      33.350  16.395  54.348  1.00  0.00    -0.003 C 
ATOM     26  C   UNL     1      32.877  15.563  53.155  1.00  0.00     0.004 C 
ENDBRANCH  24  25
ENDBRANCH  23  24
ENDBRANCH  22  23
ENDBRANCH  21  22
ENDBRANCH  20  21
ENDBRANCH  19  20
ENDBRANCH  18  19
ENDBRANCH  17  18
ENDBRANCH  16  17
ENDBRANCH  15  16
ENDBRANCH   1  15
TORSDOF 22
ENDMDL
MODEL 7
REMARK VINA RESULT:    -3.794      3.046      6.603
REMARK INTER + INTRA:         -12.724
REMARK INTER:                  -8.391
REMARK INTRA:                  -4.333
REMARK UNBOUND:                -4.051
REMARK SMILES CCCCCCCCCCCCCCCCCCCCCCCC(=O)[O-]
REMARK SMILES IDX 13 1 14 2 15 3 16 4 17 5 18 6 19 7 20 8 21 9 22 10 23 11
REMARK SMILES IDX 24 12 25 13 26 14 12 15 11 16 10 17 9 18 8 19 7 20 6 21 5 22
REMARK SMILES IDX 4 23 3 24 2 25 1 26
REMARK H PARENT
REMARK Flexibility Score: inf
ROOT
ATOM      1  C   UNL     1      27.383  19.379  56.282  1.00  0.00     0.000 C 
ENDROOT
BRANCH   1   2
ATOM      2  C   UNL     1      28.090  20.661  56.757  1.00  0.00     0.000 C 
BRANCH   2   3
ATOM      3  C   UNL     1      29.394  20.940  55.994  1.00  0.00     0.000 C 
BRANCH   3   4
ATOM      4  C   UNL     1      29.471  20.097  54.711  1.00  0.00     0.000 C 
BRANCH   4   5
ATOM      5  C   UNL     1      30.830  19.386  54.556  1.00  0.00     0.000 C 
BRANCH   5   6
ATOM      6  C   UNL     1      31.761  19.541  55.774  1.00  0.00     0.000 C 
BRANCH   6   7
ATOM      7  C   UNL     1      33.229  19.216  55.448  1.00  0.00     0.000 C 
BRANCH   7   8
ATOM      8  C   UNL     1      33.385  18.531  54.075  1.00  0.00     0.000 C 
BRANCH   8   9
ATOM      9  C   UNL     1      33.783  17.045  54.159  1.00  0.00     0.000 C 
BRANCH   9  10
ATOM     10  C   UNL     1      32.589  16.123  54.456  1.00  0.00     0.006 C 
BRANCH  10  11
ATOM     11  C   UNL     1      32.631  15.631  55.905  1.00  0.00     0.053 C 
BRANCH  11  12
ATOM     12  C   UNL     1      32.707  14.138  55.951  1.00  0.00     0.041 C 
ATOM     13  O   UNL     1      33.622  13.569  56.602  1.00  0.00    -0.550 OA
ATOM     14  O   UNL     1      31.734  13.373  55.318  1.00  0.00    -0.550 OA
ENDBRANCH  11  12
ENDBRANCH  10  11
ENDBRANCH   9  10
ENDBRANCH   8   9
ENDBRANCH   7   8
ENDBRANCH   6   7
ENDBRANCH   5   6
ENDBRANCH   4   5
ENDBRANCH   3   4
ENDBRANCH   2   3
ENDBRANCH   1   2
BRANCH   1  15
ATOM     15  C   UNL     1      27.019  18.381  57.397  1.00  0.00     0.000 C 
BRANCH  15  16
ATOM     16  C   UNL     1      28.257  17.779  58.086  1.00  0.00     0.000 C 
BRANCH  16  17
ATOM     17  C   UNL     1      29.247  17.151  57.086  1.00  0.00     0.000 C 
BRANCH  17  18
ATOM     18  C   UNL     1      29.062  15.639  56.835  1.00  0.00    -0.000 C 
BRANCH  18  19
ATOM     19  C   UNL     1      28.725  15.253  55.382  1.00  0.00    -0.000 C 
BRANCH  19  20
ATOM     20  C   UNL     1      28.845  16.438  54.410  1.00  0.00    -0.000 C 
BRANCH  20  21
ATOM     21  C   UNL     1      27.504  16.764  53.729  1.00  0.00    -0.000 C 
BRANCH  21  22
ATOM     22  C   UNL     1      27.670  17.029  52.223  1.00  0.00    -0.000 C 
BRANCH  22  23
ATOM     23  C   UNL     1      27.597  18.522  51.864  1.00  0.00    -0.000 C 
BRANCH  23  24
ATOM     24  C   UNL     1      26.518  19.276  52.661  1.00  0.00    -0.000 C 
BRANCH  24  25
ATOM     25  C   UNL     1      26.613  20.800  52.485  1.00  0.00    -0.003 C 
ATOM     26  C   UNL     1      25.665  21.331  51.408  1.00  0.00     0.004 C 
ENDBRANCH  24  25
ENDBRANCH  23  24
ENDBRANCH  22  23
ENDBRANCH  21  22
ENDBRANCH  20  21
ENDBRANCH  19  20
ENDBRANCH  18  19
ENDBRANCH  17  18
ENDBRANCH  16  17
ENDBRANCH  15  16
ENDBRANCH   1  15
TORSDOF 22
ENDMDL
MODEL 8
REMARK VINA RESULT:    -3.769      2.047      3.585
REMARK INTER + INTRA:         -12.667
REMARK INTER:                  -7.778
REMARK INTRA:                  -4.889
REMARK UNBOUND:                -4.051
REMARK SMILES CCCCCCCCCCCCCCCCCCCCCCCC(=O)[O-]
REMARK SMILES IDX 13 1 14 2 15 3 16 4 17 5 18 6 19 7 20 8 21 9 22 10 23 11
REMARK SMILES IDX 24 12 25 13 26 14 12 15 11 16 10 17 9 18 8 19 7 20 6 21 5 22
REMARK SMILES IDX 4 23 3 24 2 25 1 26
REMARK H PARENT
REMARK Flexibility Score: inf
ROOT
ATOM      1  C   UNL     1      27.578  20.102  56.394  1.00  0.00     0.000 C 
ENDROOT
BRANCH   1   2
ATOM      2  C   UNL     1      26.530  18.983  56.540  1.00  0.00     0.000 C 
BRANCH   2   3
ATOM      3  C   UNL     1      26.888  17.971  57.639  1.00  0.00     0.000 C 
BRANCH   3   4
ATOM      4  C   UNL     1      28.371  18.082  58.027  1.00  0.00     0.000 C 
BRANCH   4   5
ATOM      5  C   UNL     1      29.230  16.973  57.388  1.00  0.00     0.000 C 
BRANCH   5   6
ATOM      6  C   UNL     1      28.424  15.745  56.922  1.00  0.00     0.000 C 
BRANCH   6   7
ATOM      7  C   UNL     1      28.585  15.461  55.419  1.00  0.00     0.000 C 
BRANCH   7   8
ATOM      8  C   UNL     1      28.915  16.735  54.615  1.00  0.00     0.000 C 
BRANCH   8   9
ATOM      9  C   UNL     1      27.847  17.111  53.571  1.00  0.00     0.000 C 
BRANCH   9  10
ATOM     10  C   UNL     1      28.430  17.871  52.369  1.00  0.00     0.006 C 
BRANCH  10  11
ATOM     11  C   UNL     1      27.420  17.922  51.218  1.00  0.00     0.053 C 
BRANCH  11  12
ATOM     12  C   UNL     1      27.270  16.572  50.591  1.00  0.00     0.041 C 
ATOM     13  O   UNL     1      26.126  16.126  50.312  1.00  0.00    -0.550 OA
ATOM     14  O   UNL     1      28.398  15.828  50.265  1.00  0.00    -0.550 OA
ENDBRANCH  11  12
ENDBRANCH  10  11
ENDBRANCH   9  10
ENDBRANCH   8   9
ENDBRANCH   7   8
ENDBRANCH   6   7
ENDBRANCH   5   6
ENDBRANCH   4   5
ENDBRANCH   3   4
ENDBRANCH   2   3
ENDBRANCH   1   2
BRANCH   1  15
ATOM     15  C   UNL     1      27.844  20.565  54.951  1.00  0.00     0.000 C 
BRANCH  15  16
ATOM     16  C   UNL     1      29.344  20.685  54.629  1.00  0.00     0.000 C 
BRANCH  16  17
ATOM     17  C   UNL     1      30.236  20.464  55.866  1.00  0.00     0.000 C 
BRANCH  17  18
ATOM     18  C   UNL     1      31.379  19.443  55.682  1.00  0.00    -0.000 C 
BRANCH  18  19
ATOM     19  C   UNL     1      31.673  19.046  54.223  1.00  0.00    -0.000 C 
BRANCH  19  20
ATOM     20  C   UNL     1      32.662  17.874  54.113  1.00  0.00    -0.000 C 
BRANCH  20  21
ATOM     21  C   UNL     1      32.496  16.868  55.266  1.00  0.00    -0.000 C 
BRANCH  21  22
ATOM     22  C   UNL     1      32.737  15.420  54.808  1.00  0.00    -0.000 C 
BRANCH  22  23
ATOM     23  C   UNL     1      33.234  15.323  53.357  1.00  0.00    -0.000 C 
BRANCH  23  24
ATOM     24  C   UNL     1      32.387  14.366  52.499  1.00  0.00    -0.000 C 
BRANCH  24  25
ATOM     25  C   UNL     1      30.895  14.730  52.509  1.00  0.00    -0.003 C 
ATOM     26  C   UNL     1      29.986  13.501  52.454  1.00  0.00     0.004 C 
ENDBRANCH  24  25
ENDBRANCH  23  24
ENDBRANCH  22  23
ENDBRANCH  21  22
ENDBRANCH  20  21
ENDBRANCH  19  20
ENDBRANCH  18  19
ENDBRANCH  17  18
ENDBRANCH  16  17
ENDBRANCH  15  16
ENDBRANCH   1  15
TORSDOF 22
ENDMDL
MODEL 9
REMARK VINA RESULT:    -3.727      1.644      4.072
REMARK INTER + INTRA:         -12.571
REMARK INTER:                  -8.719
REMARK INTRA:                  -3.852
REMARK UNBOUND:                -4.051
REMARK SMILES CCCCCCCCCCCCCCCCCCCCCCCC(=O)[O-]
REMARK SMILES IDX 13 1 14 2 15 3 16 4 17 5 18 6 19 7 20 8 21 9 22 10 23 11
REMARK SMILES IDX 24 12 25 13 26 14 12 15 11 16 10 17 9 18 8 19 7 20 6 21 5 22
REMARK SMILES IDX 4 23 3 24 2 25 1 26
REMARK H PARENT
REMARK Flexibility Score: inf
ROOT
ATOM      1  C   UNL     1      29.566  15.990  56.735  1.00  0.00     0.000 C 
ENDROOT
BRANCH   1   2
ATOM      2  C   UNL     1      28.422  14.960  56.769  1.00  0.00     0.000 C 
BRANCH   2   3
ATOM      3  C   UNL     1      27.805  14.708  55.386  1.00  0.00     0.000 C 
BRANCH   3   4
ATOM      4  C   UNL     1      26.392  15.307  55.296  1.00  0.00     0.000 C 
BRANCH   4   5
ATOM      5  C   UNL     1      26.175  16.111  53.999  1.00  0.00     0.000 C 
BRANCH   5   6
ATOM      6  C   UNL     1      27.194  17.248  53.790  1.00  0.00     0.000 C 
BRANCH   6   7
ATOM      7  C   UNL     1      27.548  17.466  52.308  1.00  0.00     0.000 C 
BRANCH   7   8
ATOM      8  C   UNL     1      27.503  18.955  51.909  1.00  0.00     0.000 C 
BRANCH   8   9
ATOM      9  C   UNL     1      26.239  19.693  52.388  1.00  0.00     0.000 C 
BRANCH   9  10
ATOM     10  C   UNL     1      26.308  21.210  52.153  1.00  0.00     0.006 C 
BRANCH  10  11
ATOM     11  C   UNL     1      24.939  21.758  51.738  1.00  0.00     0.053 C 
BRANCH  11  12
ATOM     12  C   UNL     1      24.387  20.974  50.589  1.00  0.00     0.041 C 
ATOM     13  O   UNL     1      24.893  21.089  49.442  1.00  0.00    -0.550 OA
ATOM     14  O   UNL     1      23.347  20.076  50.797  1.00  0.00    -0.550 OA
ENDBRANCH  11  12
ENDBRANCH  10  11
ENDBRANCH   9  10
ENDBRANCH   8   9
ENDBRANCH   7   8
ENDBRANCH   6   7
ENDBRANCH   5   6
ENDBRANCH   4   5
ENDBRANCH   3   4
ENDBRANCH   2   3
ENDBRANCH   1   2
BRANCH   1  15
ATOM     15  C   UNL     1      29.296  17.294  57.507  1.00  0.00     0.000 C 
BRANCH  15  16
ATOM     16  C   UNL     1      27.805  17.497  57.832  1.00  0.00     0.000 C 
BRANCH  16  17
ATOM     17  C   UNL     1      27.215  18.749  57.157  1.00  0.00     0.000 C 
BRANCH  17  18
ATOM     18  C   UNL     1      28.229  19.872  56.846  1.00  0.00    -0.000 C 
BRANCH  18  19
ATOM     19  C   UNL     1      27.972  20.641  55.538  1.00  0.00    -0.000 C 
BRANCH  19  20
ATOM     20  C   UNL     1      29.213  20.705  54.632  1.00  0.00    -0.000 C 
BRANCH  20  21
ATOM     21  C   UNL     1      30.354  19.815  55.153  1.00  0.00    -0.000 C 
BRANCH  21  22
ATOM     22  C   UNL     1      30.592  18.593  54.250  1.00  0.00    -0.000 C 
BRANCH  22  23
ATOM     23  C   UNL     1      32.018  18.031  54.363  1.00  0.00    -0.000 C 
BRANCH  23  24
ATOM     24  C   UNL     1      33.096  19.052  53.959  1.00  0.00    -0.000 C 
BRANCH  24  25
ATOM     25  C   UNL     1      34.262  19.104  54.958  1.00  0.00    -0.003 C 
ATOM     26  C   UNL     1      33.821  18.830  56.397  1.00  0.00     0.004 C 
ENDBRANCH  24  25
ENDBRANCH  23  24
ENDBRANCH  22  23
ENDBRANCH  21  22
ENDBRANCH  20  21
ENDBRANCH  19  20
ENDBRANCH  18  19
ENDBRANCH  17  18
ENDBRANCH  16  17
ENDBRANCH  15  16
ENDBRANCH   1  15
TORSDOF 22
ENDMDL
