MODEL 1
REMARK VINA RESULT:    -5.865      0.000      0.000
REMARK INTER + INTRA:         -10.161
REMARK INTER:                  -8.608
REMARK INTRA:                  -1.553
REMARK UNBOUND:                -1.553
REMARK SMILES O=c1c(O[C@@H]2O[C@@H](CO)[C@@H](O)[C@H](O)[C@H]2O)c(-c2ccc(O)c(O)c2)oc2cc(O)cc(O)c12
REMARK SMILES IDX 4 1 3 2 16 3 25 4 2 5 26 6 1 7 33 8 27 9 31 10 28 11 30 12
REMARK SMILES IDX 17 13 18 14 19 15 20 16 24 17 22 18 21 19 23 21 32 23 29 25
REMARK SMILES IDX 5 27 14 28 6 29 12 30 7 31 10 32 15 33 13 35 8 37 9 38 11 40
REMARK H PARENT 21 20 23 22 32 24 29 26 15 34 13 36 9 39 11 41
REMARK Flexibility Score: inf
ROOT
ATOM      1  O   UNL     1      48.818  24.698  22.709  1.00  0.00    -0.454 OA
ENDROOT
BRANCH   1   2
ATOM      2  C   UNL     1      47.909  24.805  21.645  1.00  0.00     0.214 A 
ATOM      3  C   UNL     1      48.144  25.644  20.531  1.00  0.00     0.180 A 
ATOM      4  O   UNL     1      47.209  25.772  19.595  1.00  0.00    -0.452 OA
ATOM      5  C   UNL     1      46.731  24.051  21.681  1.00  0.00     0.239 A 
ATOM      6  C   UNL     1      46.059  25.109  19.616  1.00  0.00     0.146 A 
ATOM      7  O   UNL     1      46.543  23.251  22.637  1.00  0.00    -0.285 OA
ATOM      8  C   UNL     1      45.771  24.199  20.659  1.00  0.00     0.111 A 
ATOM      9  C   UNL     1      45.136  25.312  18.584  1.00  0.00     0.094 A 
ATOM     10  C   UNL     1      44.545  23.492  20.641  1.00  0.00     0.134 A 
ATOM     11  C   UNL     1      43.927  24.615  18.572  1.00  0.00     0.123 A 
ATOM     12  C   UNL     1      43.635  23.708  19.597  1.00  0.00     0.093 A 
BRANCH   3  13
ATOM     13  C   UNL     1      49.414  26.379  20.340  1.00  0.00     0.025 A 
ATOM     14  C   UNL     1      50.405  25.904  19.464  1.00  0.00     0.016 A 
ATOM     15  C   UNL     1      51.592  26.620  19.286  1.00  0.00     0.051 A 
ATOM     16  C   UNL     1      51.801  27.822  19.968  1.00  0.00     0.157 A 
ATOM     17  C   UNL     1      49.618  27.597  21.007  1.00  0.00     0.062 A 
ATOM     18  C   UNL     1      50.810  28.315  20.834  1.00  0.00     0.158 A 
BRANCH  16  19
ATOM     19  O   UNL     1      52.993  28.520  19.766  1.00  0.00    -0.504 OA
ATOM     20  H   UNL     1      53.900  28.090  19.907  1.00  0.00     0.293 HD
ENDBRANCH  16  19
BRANCH  18  21
ATOM     21  O   UNL     1      51.012  29.513  21.518  1.00  0.00    -0.504 OA
ATOM     22  H   UNL     1      51.560  29.551  22.370  1.00  0.00     0.293 HD
ENDBRANCH  18  21
ENDBRANCH   3  13
BRANCH  10  23
ATOM     23  O   UNL     1      44.225  22.582  21.650  1.00  0.00    -0.507 OA
ATOM     24  H   UNL     1      43.942  22.890  22.573  1.00  0.00     0.293 HD
ENDBRANCH  10  23
BRANCH  11  25
ATOM     25  O   UNL     1      43.021  24.830  17.535  1.00  0.00    -0.508 OA
ATOM     26  H   UNL     1      43.247  25.430  16.750  1.00  0.00     0.293 HD
ENDBRANCH  11  25
ENDBRANCH   1   2
BRANCH   1  27
ATOM     27  C   UNL     1      48.976  25.707  23.717  1.00  0.00     0.339 C 
ATOM     28  C   UNL     1      47.887  25.587  24.814  1.00  0.00     0.214 C 
ATOM     29  O   UNL     1      50.286  25.662  24.261  1.00  0.00    -0.332 OA
ATOM     30  C   UNL     1      48.149  24.398  25.769  1.00  0.00     0.180 C 
ATOM     31  C   UNL     1      50.527  24.433  24.927  1.00  0.00     0.179 C 
ATOM     32  C   UNL     1      49.632  24.317  26.180  1.00  0.00     0.177 C 
BRANCH  28  33
ATOM     33  O   UNL     1      47.763  26.786  25.541  1.00  0.00    -0.384 OA
ATOM     34  H   UNL     1      48.664  27.188  25.637  1.00  0.00     0.211 HD
ENDBRANCH  28  33
BRANCH  30  35
ATOM     35  O   UNL     1      47.783  23.193  25.146  1.00  0.00    -0.387 OA
ATOM     36  H   UNL     1      46.802  23.094  25.263  1.00  0.00     0.211 HD
ENDBRANCH  30  35
BRANCH  31  37
ATOM     37  C   UNL     1      52.020  24.358  25.287  1.00  0.00     0.191 C 
BRANCH  37  38
ATOM     38  O   UNL     1      52.477  25.582  25.798  1.00  0.00    -0.394 OA
ATOM     39  H   UNL     1      51.949  25.761  26.620  1.00  0.00     0.210 HD
ENDBRANCH  37  38
ENDBRANCH  31  37
BRANCH  32  40
ATOM     40  O   UNL     1      49.944  25.342  27.090  1.00  0.00    -0.387 OA
ATOM     41  H   UNL     1      50.871  25.176  27.403  1.00  0.00     0.211 HD
ENDBRANCH  32  40
ENDBRANCH   1  27
TORSDOF 12
ENDMDL
MODEL 2
REMARK VINA RESULT:    -5.728      3.992      7.627
REMARK INTER + INTRA:          -9.960
REMARK INTER:                  -8.282
REMARK INTRA:                  -1.678
REMARK UNBOUND:                -1.553
REMARK SMILES O=c1c(O[C@@H]2O[C@@H](CO)[C@@H](O)[C@H](O)[C@H]2O)c(-c2ccc(O)c(O)c2)oc2cc(O)cc(O)c12
REMARK SMILES IDX 4 1 3 2 16 3 25 4 2 5 26 6 1 7 33 8 27 9 31 10 28 11 30 12
REMARK SMILES IDX 17 13 18 14 19 15 20 16 24 17 22 18 21 19 23 21 32 23 29 25
REMARK SMILES IDX 5 27 14 28 6 29 12 30 7 31 10 32 15 33 13 35 8 37 9 38 11 40
REMARK H PARENT 21 20 23 22 32 24 29 26 15 34 13 36 9 39 11 41
REMARK Flexibility Score: inf
ROOT
ATOM      1  O   UNL     1      47.876  27.895  16.481  1.00  0.00    -0.454 OA
ENDROOT
BRANCH   1   2
ATOM      2  C   UNL     1      47.232  27.079  17.424  1.00  0.00     0.214 A 
ATOM      3  C   UNL     1      47.940  26.393  18.438  1.00  0.00     0.180 A 
ATOM      4  O   UNL     1      47.289  25.566  19.249  1.00  0.00    -0.452 OA
ATOM      5  C   UNL     1      45.841  26.943  17.366  1.00  0.00     0.239 A 
ATOM      6  C   UNL     1      45.976  25.373  19.197  1.00  0.00     0.146 A 
ATOM      7  O   UNL     1      45.195  27.601  16.507  1.00  0.00    -0.285 OA
ATOM      8  C   UNL     1      45.184  26.070  18.256  1.00  0.00     0.111 A 
ATOM      9  C   UNL     1      45.382  24.480  20.095  1.00  0.00     0.094 A 
ATOM     10  C   UNL     1      43.784  25.859  18.240  1.00  0.00     0.134 A 
ATOM     11  C   UNL     1      44.002  24.272  20.074  1.00  0.00     0.123 A 
ATOM     12  C   UNL     1      43.207  24.960  19.150  1.00  0.00     0.093 A 
BRANCH   3  13
ATOM     13  C   UNL     1      49.391  26.576  18.661  1.00  0.00     0.025 A 
ATOM     14  C   UNL     1      50.333  25.719  18.066  1.00  0.00     0.016 A 
ATOM     15  C   UNL     1      51.700  25.918  18.278  1.00  0.00     0.051 A 
ATOM     16  C   UNL     1      52.146  26.977  19.074  1.00  0.00     0.157 A 
ATOM     17  C   UNL     1      49.842  27.652  19.443  1.00  0.00     0.062 A 
ATOM     18  C   UNL     1      51.213  27.850  19.661  1.00  0.00     0.158 A 
BRANCH  16  19
ATOM     19  O   UNL     1      53.517  27.156  19.263  1.00  0.00    -0.504 OA
ATOM     20  H   UNL     1      54.077  27.726  18.640  1.00  0.00     0.293 HD
ENDBRANCH  16  19
BRANCH  18  21
ATOM     21  O   UNL     1      51.650  28.908  20.456  1.00  0.00    -0.504 OA
ATOM     22  H   UNL     1      51.010  29.621  20.787  1.00  0.00     0.293 HD
ENDBRANCH  18  21
ENDBRANCH   3  13
BRANCH  10  23
ATOM     23  O   UNL     1      42.966  26.529  17.331  1.00  0.00    -0.507 OA
ATOM     24  H   UNL     1      42.474  26.037  16.594  1.00  0.00     0.293 HD
ENDBRANCH  10  23
BRANCH  11  25
ATOM     25  O   UNL     1      43.429  23.378  20.976  1.00  0.00    -0.508 OA
ATOM     26  H   UNL     1      42.712  22.722  20.688  1.00  0.00     0.293 HD
ENDBRANCH  11  25
ENDBRANCH   1   2
BRANCH   1  27
ATOM     27  C   UNL     1      48.656  27.381  15.393  1.00  0.00     0.339 C 
ATOM     28  C   UNL     1      47.777  27.096  14.149  1.00  0.00     0.214 C 
ATOM     29  O   UNL     1      49.730  28.261  15.095  1.00  0.00    -0.332 OA
ATOM     30  C   UNL     1      47.362  28.395  13.417  1.00  0.00     0.180 C 
ATOM     31  C   UNL     1      49.256  29.520  14.646  1.00  0.00     0.179 C 
ATOM     32  C   UNL     1      48.546  29.372  13.283  1.00  0.00     0.177 C 
BRANCH  28  33
ATOM     33  O   UNL     1      48.421  26.213  13.261  1.00  0.00    -0.384 OA
ATOM     34  H   UNL     1      49.240  26.656  12.920  1.00  0.00     0.211 HD
ENDBRANCH  28  33
BRANCH  30  35
ATOM     35  O   UNL     1      46.324  29.030  14.119  1.00  0.00    -0.387 OA
ATOM     36  H   UNL     1      46.511  28.906  15.086  1.00  0.00     0.211 HD
ENDBRANCH  30  35
BRANCH  31  37
ATOM     37  C   UNL     1      50.448  30.488  14.563  1.00  0.00     0.191 C 
BRANCH  37  38
ATOM     38  O   UNL     1      50.229  31.474  13.589  1.00  0.00    -0.394 OA
ATOM     39  H   UNL     1      51.123  31.812  13.322  1.00  0.00     0.210 HD
ENDBRANCH  37  38
ENDBRANCH  31  37
BRANCH  32  40
ATOM     40  O   UNL     1      49.454  28.911  12.315  1.00  0.00    -0.387 OA
ATOM     41  H   UNL     1      49.150  29.269  11.440  1.00  0.00     0.211 HD
ENDBRANCH  32  40
ENDBRANCH   1  27
TORSDOF 12
ENDMDL
MODEL 3
REMARK VINA RESULT:    -5.717      1.920      2.577
REMARK INTER + INTRA:          -9.944
REMARK INTER:                  -8.250
REMARK INTRA:                  -1.694
REMARK UNBOUND:                -1.553
REMARK SMILES O=c1c(O[C@@H]2O[C@@H](CO)[C@@H](O)[C@H](O)[C@H]2O)c(-c2ccc(O)c(O)c2)oc2cc(O)cc(O)c12
REMARK SMILES IDX 4 1 3 2 16 3 25 4 2 5 26 6 1 7 33 8 27 9 31 10 28 11 30 12
REMARK SMILES IDX 17 13 18 14 19 15 20 16 24 17 22 18 21 19 23 21 32 23 29 25
REMARK SMILES IDX 5 27 14 28 6 29 12 30 7 31 10 32 15 33 13 35 8 37 9 38 11 40
REMARK H PARENT 21 20 23 22 32 24 29 26 15 34 13 36 9 39 11 41
REMARK Flexibility Score: inf
ROOT
ATOM      1  O   UNL     1      48.067  24.854  20.652  1.00  0.00    -0.454 OA
ENDROOT
BRANCH   1   2
ATOM      2  C   UNL     1      47.415  25.546  19.620  1.00  0.00     0.214 A 
ATOM      3  C   UNL     1      48.095  26.440  18.762  1.00  0.00     0.180 A 
ATOM      4  O   UNL     1      47.410  27.134  17.858  1.00  0.00    -0.452 OA
ATOM      5  C   UNL     1      46.044  25.341  19.427  1.00  0.00     0.239 A 
ATOM      6  C   UNL     1      46.101  27.002  17.674  1.00  0.00     0.146 A 
ATOM      7  O   UNL     1      45.442  24.498  20.145  1.00  0.00    -0.285 OA
ATOM      8  C   UNL     1      45.355  26.082  18.445  1.00  0.00     0.111 A 
ATOM      9  C   UNL     1      45.469  27.778  16.697  1.00  0.00     0.094 A 
ATOM     10  C   UNL     1      43.966  25.949  18.210  1.00  0.00     0.134 A 
ATOM     11  C   UNL     1      44.098  27.647  16.470  1.00  0.00     0.123 A 
ATOM     12  C   UNL     1      43.350  26.735  17.225  1.00  0.00     0.093 A 
BRANCH   3  13
ATOM     13  C   UNL     1      49.562  26.624  18.802  1.00  0.00     0.025 A 
ATOM     14  C   UNL     1      50.425  25.752  18.116  1.00  0.00     0.016 A 
ATOM     15  C   UNL     1      51.807  25.952  18.155  1.00  0.00     0.051 A 
ATOM     16  C   UNL     1      52.347  27.027  18.867  1.00  0.00     0.157 A 
ATOM     17  C   UNL     1      50.105  27.715  19.499  1.00  0.00     0.062 A 
ATOM     18  C   UNL     1      51.493  27.915  19.543  1.00  0.00     0.158 A 
BRANCH  16  19
ATOM     19  O   UNL     1      53.731  27.206  18.883  1.00  0.00    -0.504 OA
ATOM     20  H   UNL     1      54.286  27.197  18.035  1.00  0.00     0.293 HD
ENDBRANCH  16  19
BRANCH  18  21
ATOM     21  O   UNL     1      52.023  28.990  20.255  1.00  0.00    -0.504 OA
ATOM     22  H   UNL     1      52.247  29.867  19.800  1.00  0.00     0.293 HD
ENDBRANCH  18  21
ENDBRANCH   3  13
BRANCH  10  23
ATOM     23  O   UNL     1      43.194  25.050  18.947  1.00  0.00    -0.507 OA
ATOM     24  H   UNL     1      43.606  24.446  19.649  1.00  0.00     0.293 HD
ENDBRANCH  10  23
BRANCH  11  25
ATOM     25  O   UNL     1      43.486  28.429  15.492  1.00  0.00    -0.508 OA
ATOM     26  H   UNL     1      43.262  29.403  15.657  1.00  0.00     0.293 HD
ENDBRANCH  11  25
ENDBRANCH   1   2
BRANCH   1  27
ATOM     27  C   UNL     1      48.540  25.485  21.850  1.00  0.00     0.339 C 
ATOM     28  C   UNL     1      47.438  25.530  22.939  1.00  0.00     0.214 C 
ATOM     29  O   UNL     1      49.719  24.846  22.314  1.00  0.00    -0.332 OA
ATOM     30  C   UNL     1      47.207  24.148  23.595  1.00  0.00     0.180 C 
ATOM     31  C   UNL     1      49.467  23.499  22.680  1.00  0.00     0.179 C 
ATOM     32  C   UNL     1      48.540  23.443  23.914  1.00  0.00     0.177 C 
BRANCH  28  33
ATOM     33  O   UNL     1      47.729  26.499  23.919  1.00  0.00    -0.384 OA
ATOM     34  H   UNL     1      47.131  27.276  23.777  1.00  0.00     0.211 HD
ENDBRANCH  28  33
BRANCH  30  35
ATOM     35  O   UNL     1      46.453  23.330  22.737  1.00  0.00    -0.387 OA
ATOM     36  H   UNL     1      45.576  23.778  22.608  1.00  0.00     0.211 HD
ENDBRANCH  30  35
BRANCH  31  37
ATOM     37  C   UNL     1      50.813  22.807  22.951  1.00  0.00     0.191 C 
BRANCH  37  38
ATOM     38  O   UNL     1      51.694  23.665  23.627  1.00  0.00    -0.394 OA
ATOM     39  H   UNL     1      51.582  24.564  23.219  1.00  0.00     0.210 HD
ENDBRANCH  37  38
ENDBRANCH  31  37
BRANCH  32  40
ATOM     40  O   UNL     1      49.166  24.054  25.014  1.00  0.00    -0.387 OA
ATOM     41  H   UNL     1      49.641  23.337  25.510  1.00  0.00     0.211 HD
ENDBRANCH  32  40
ENDBRANCH   1  27
TORSDOF 12
ENDMDL
MODEL 4
REMARK VINA RESULT:    -5.695      4.492      6.619
REMARK INTER + INTRA:          -9.911
REMARK INTER:                  -8.204
REMARK INTRA:                  -1.707
REMARK UNBOUND:                -1.553
REMARK SMILES O=c1c(O[C@@H]2O[C@@H](CO)[C@@H](O)[C@H](O)[C@H]2O)c(-c2ccc(O)c(O)c2)oc2cc(O)cc(O)c12
REMARK SMILES IDX 4 1 3 2 16 3 25 4 2 5 26 6 1 7 33 8 27 9 31 10 28 11 30 12
REMARK SMILES IDX 17 13 18 14 19 15 20 16 24 17 22 18 21 19 23 21 32 23 29 25
REMARK SMILES IDX 5 27 14 28 6 29 12 30 7 31 10 32 15 33 13 35 8 37 9 38 11 40
REMARK H PARENT 21 20 23 22 32 24 29 26 15 34 13 36 9 39 11 41
REMARK Flexibility Score: inf
ROOT
ATOM      1  O   UNL     1      49.681  27.395  16.830  1.00  0.00    -0.454 OA
ENDROOT
BRANCH   1   2
ATOM      2  C   UNL     1      48.302  27.491  16.593  1.00  0.00     0.214 A 
ATOM      3  C   UNL     1      47.762  28.344  15.603  1.00  0.00     0.180 A 
ATOM      4  O   UNL     1      46.443  28.459  15.482  1.00  0.00    -0.452 OA
ATOM      5  C   UNL     1      47.427  26.712  17.358  1.00  0.00     0.239 A 
ATOM      6  C   UNL     1      45.579  27.772  16.219  1.00  0.00     0.146 A 
ATOM      7  O   UNL     1      47.901  25.901  18.198  1.00  0.00    -0.285 OA
ATOM      8  C   UNL     1      46.034  26.848  17.187  1.00  0.00     0.111 A 
ATOM      9  C   UNL     1      44.208  27.963  16.017  1.00  0.00     0.094 A 
ATOM     10  C   UNL     1      45.087  26.114  17.942  1.00  0.00     0.134 A 
ATOM     11  C   UNL     1      43.277  27.240  16.765  1.00  0.00     0.123 A 
ATOM     12  C   UNL     1      43.717  26.319  17.723  1.00  0.00     0.093 A 
BRANCH   3  13
ATOM     13  C   UNL     1      48.609  29.107  14.660  1.00  0.00     0.025 A 
ATOM     14  C   UNL     1      49.175  28.493  13.529  1.00  0.00     0.016 A 
ATOM     15  C   UNL     1      49.960  29.235  12.642  1.00  0.00     0.051 A 
ATOM     16  C   UNL     1      50.181  30.597  12.863  1.00  0.00     0.157 A 
ATOM     17  C   UNL     1      48.815  30.480  14.868  1.00  0.00     0.062 A 
ATOM     18  C   UNL     1      49.607  31.225  13.982  1.00  0.00     0.158 A 
BRANCH  16  19
ATOM     19  O   UNL     1      50.964  31.315  11.958  1.00  0.00    -0.504 OA
ATOM     20  H   UNL     1      50.572  32.028  11.354  1.00  0.00     0.293 HD
ENDBRANCH  16  19
BRANCH  18  21
ATOM     21  O   UNL     1      49.824  32.583  14.210  1.00  0.00    -0.504 OA
ATOM     22  H   UNL     1      50.235  32.916  15.074  1.00  0.00     0.293 HD
ENDBRANCH  18  21
ENDBRANCH   3  13
BRANCH  10  23
ATOM     23  O   UNL     1      45.495  25.190  18.904  1.00  0.00    -0.507 OA
ATOM     24  H   UNL     1      44.868  24.867  19.631  1.00  0.00     0.293 HD
ENDBRANCH  10  23
BRANCH  11  25
ATOM     25  O   UNL     1      41.916  27.444  16.550  1.00  0.00    -0.508 OA
ATOM     26  H   UNL     1      41.574  28.262  16.058  1.00  0.00     0.293 HD
ENDBRANCH  11  25
ENDBRANCH   1   2
BRANCH   1  27
ATOM     27  C   UNL     1      50.409  28.325  17.645  1.00  0.00     0.339 C 
ATOM     28  C   UNL     1      50.380  27.913  19.139  1.00  0.00     0.214 C 
ATOM     29  O   UNL     1      51.736  28.474  17.162  1.00  0.00    -0.332 OA
ATOM     30  C   UNL     1      51.313  26.715  19.433  1.00  0.00     0.180 C 
ATOM     31  C   UNL     1      52.459  27.258  17.253  1.00  0.00     0.179 C 
ATOM     32  C   UNL     1      52.676  26.872  18.732  1.00  0.00     0.177 C 
BRANCH  28  33
ATOM     33  O   UNL     1      50.697  29.002  19.974  1.00  0.00    -0.384 OA
ATOM     34  H   UNL     1      50.262  29.814  19.607  1.00  0.00     0.211 HD
ENDBRANCH  28  33
BRANCH  30  35
ATOM     35  O   UNL     1      50.712  25.521  18.998  1.00  0.00    -0.387 OA
ATOM     36  H   UNL     1      50.255  25.124  19.786  1.00  0.00     0.211 HD
ENDBRANCH  30  35
BRANCH  31  37
ATOM     37  C   UNL     1      53.794  27.427  16.510  1.00  0.00     0.191 C 
BRANCH  37  38
ATOM     38  O   UNL     1      54.314  28.717  16.695  1.00  0.00    -0.394 OA
ATOM     39  H   UNL     1      53.959  29.043  17.564  1.00  0.00     0.210 HD
ENDBRANCH  37  38
ENDBRANCH  31  37
BRANCH  32  40
ATOM     40  O   UNL     1      53.447  27.854  19.377  1.00  0.00    -0.387 OA
ATOM     41  H   UNL     1      53.955  27.395  20.097  1.00  0.00     0.211 HD
ENDBRANCH  32  40
ENDBRANCH   1  27
TORSDOF 12
ENDMDL
MODEL 5
REMARK VINA RESULT:    -5.665      2.686      5.888
REMARK INTER + INTRA:          -9.867
REMARK INTER:                  -8.603
REMARK INTRA:                  -1.264
REMARK UNBOUND:                -1.553
REMARK SMILES O=c1c(O[C@@H]2O[C@@H](CO)[C@@H](O)[C@H](O)[C@H]2O)c(-c2ccc(O)c(O)c2)oc2cc(O)cc(O)c12
REMARK SMILES IDX 4 1 3 2 16 3 25 4 2 5 26 6 1 7 33 8 27 9 31 10 28 11 30 12
REMARK SMILES IDX 17 13 18 14 19 15 20 16 24 17 22 18 21 19 23 21 32 23 29 25
REMARK SMILES IDX 5 27 14 28 6 29 12 30 7 31 10 32 15 33 13 35 8 37 9 38 11 40
REMARK H PARENT 21 20 23 22 32 24 29 26 15 34 13 36 9 39 11 41
REMARK Flexibility Score: inf
ROOT
ATOM      1  O   UNL     1      47.751  24.628  22.953  1.00  0.00    -0.454 OA
ENDROOT
BRANCH   1   2
ATOM      2  C   UNL     1      46.607  24.544  23.761  1.00  0.00     0.214 A 
ATOM      3  C   UNL     1      46.612  24.936  25.120  1.00  0.00     0.180 A 
ATOM      4  O   UNL     1      45.523  24.752  25.861  1.00  0.00    -0.452 OA
ATOM      5  C   UNL     1      45.418  24.060  23.205  1.00  0.00     0.239 A 
ATOM      6  C   UNL     1      44.389  24.253  25.382  1.00  0.00     0.146 A 
ATOM      7  O   UNL     1      45.387  23.768  21.979  1.00  0.00    -0.285 OA
ATOM      8  C   UNL     1      44.279  23.896  24.018  1.00  0.00     0.111 A 
ATOM      9  C   UNL     1      43.297  24.097  26.242  1.00  0.00     0.094 A 
ATOM     10  C   UNL     1      43.049  23.388  23.534  1.00  0.00     0.134 A 
ATOM     11  C   UNL     1      42.087  23.592  25.762  1.00  0.00     0.123 A 
ATOM     12  C   UNL     1      41.965  23.240  24.412  1.00  0.00     0.093 A 
BRANCH   3  13
ATOM     13  C   UNL     1      47.779  25.579  25.761  1.00  0.00     0.025 A 
ATOM     14  C   UNL     1      47.669  26.835  26.383  1.00  0.00     0.016 A 
ATOM     15  C   UNL     1      48.781  27.418  26.995  1.00  0.00     0.051 A 
ATOM     16  C   UNL     1      50.012  26.754  27.008  1.00  0.00     0.157 A 
ATOM     17  C   UNL     1      49.011  24.905  25.793  1.00  0.00     0.062 A 
ATOM     18  C   UNL     1      50.129  25.491  26.403  1.00  0.00     0.158 A 
BRANCH  16  19
ATOM     19  O   UNL     1      51.104  27.358  27.633  1.00  0.00    -0.504 OA
ATOM     20  H   UNL     1      51.880  26.820  27.999  1.00  0.00     0.293 HD
ENDBRANCH  16  19
BRANCH  18  21
ATOM     21  O   UNL     1      51.353  24.823  26.410  1.00  0.00    -0.504 OA
ATOM     22  H   UNL     1      51.404  23.811  26.401  1.00  0.00     0.293 HD
ENDBRANCH  18  21
ENDBRANCH   3  13
BRANCH  10  23
ATOM     23  O   UNL     1      42.898  23.028  22.195  1.00  0.00    -0.507 OA
ATOM     24  H   UNL     1      43.028  23.697  21.446  1.00  0.00     0.293 HD
ENDBRANCH  10  23
BRANCH  11  25
ATOM     25  O   UNL     1      41.011  23.443  26.634  1.00  0.00    -0.508 OA
ATOM     26  H   UNL     1      40.053  23.495  26.306  1.00  0.00     0.293 HD
ENDBRANCH  11  25
ENDBRANCH   1   2
BRANCH   1  27
ATOM     27  C   UNL     1      48.127  25.813  22.237  1.00  0.00     0.339 C 
ATOM     28  C   UNL     1      49.663  26.021  22.251  1.00  0.00     0.214 C 
ATOM     29  O   UNL     1      47.608  25.781  20.917  1.00  0.00    -0.332 OA
ATOM     30  C   UNL     1      50.393  25.048  21.295  1.00  0.00     0.180 C 
ATOM     31  C   UNL     1      48.159  24.709  20.171  1.00  0.00     0.179 C 
ATOM     32  C   UNL     1      49.669  24.937  19.939  1.00  0.00     0.177 C 
BRANCH  28  33
ATOM     33  O   UNL     1      50.000  27.354  21.950  1.00  0.00    -0.384 OA
ATOM     34  H   UNL     1      49.178  27.905  22.010  1.00  0.00     0.211 HD
ENDBRANCH  28  33
BRANCH  30  35
ATOM     35  O   UNL     1      50.468  23.771  21.876  1.00  0.00    -0.387 OA
ATOM     36  H   UNL     1      49.814  23.197  21.397  1.00  0.00     0.211 HD
ENDBRANCH  30  35
BRANCH  31  37
ATOM     37  C   UNL     1      47.393  24.593  18.843  1.00  0.00     0.191 C 
BRANCH  37  38
ATOM     38  O   UNL     1      46.984  25.854  18.386  1.00  0.00    -0.394 OA
ATOM     39  H   UNL     1      46.743  26.383  19.191  1.00  0.00     0.210 HD
ENDBRANCH  37  38
ENDBRANCH  31  37
BRANCH  32  40
ATOM     40  O   UNL     1      49.868  26.105  19.182  1.00  0.00    -0.387 OA
ATOM     41  H   UNL     1      50.687  25.961  18.639  1.00  0.00     0.211 HD
ENDBRANCH  32  40
ENDBRANCH   1  27
TORSDOF 12
ENDMDL
MODEL 6
REMARK VINA RESULT:    -5.616      4.871      8.422
REMARK INTER + INTRA:          -9.796
REMARK INTER:                  -8.593
REMARK INTRA:                  -1.203
REMARK UNBOUND:                -1.553
REMARK SMILES O=c1c(O[C@@H]2O[C@@H](CO)[C@@H](O)[C@H](O)[C@H]2O)c(-c2ccc(O)c(O)c2)oc2cc(O)cc(O)c12
REMARK SMILES IDX 4 1 3 2 16 3 25 4 2 5 26 6 1 7 33 8 27 9 31 10 28 11 30 12
REMARK SMILES IDX 17 13 18 14 19 15 20 16 24 17 22 18 21 19 23 21 32 23 29 25
REMARK SMILES IDX 5 27 14 28 6 29 12 30 7 31 10 32 15 33 13 35 8 37 9 38 11 40
REMARK H PARENT 21 20 23 22 32 24 29 26 15 34 13 36 9 39 11 41
REMARK Flexibility Score: inf
ROOT
ATOM      1  O   UNL     1      48.990  28.017  14.881  1.00  0.00    -0.454 OA
ENDROOT
BRANCH   1   2
ATOM      2  C   UNL     1      48.090  27.519  15.836  1.00  0.00     0.214 A 
ATOM      3  C   UNL     1      48.492  26.640  16.868  1.00  0.00     0.180 A 
ATOM      4  O   UNL     1      47.580  26.131  17.690  1.00  0.00    -0.452 OA
ATOM      5  C   UNL     1      46.747  27.909  15.770  1.00  0.00     0.239 A 
ATOM      6  C   UNL     1      46.290  26.440  17.632  1.00  0.00     0.146 A 
ATOM      7  O   UNL     1      46.392  28.742  14.893  1.00  0.00    -0.285 OA
ATOM      8  C   UNL     1      45.813  27.362  16.672  1.00  0.00     0.111 A 
ATOM      9  C   UNL     1      45.406  25.851  18.543  1.00  0.00     0.094 A 
ATOM     10  C   UNL     1      44.435  27.687  16.651  1.00  0.00     0.134 A 
ATOM     11  C   UNL     1      44.048  26.171  18.516  1.00  0.00     0.123 A 
ATOM     12  C   UNL     1      43.566  27.087  17.573  1.00  0.00     0.093 A 
BRANCH   3  13
ATOM     13  C   UNL     1      49.907  26.275  17.098  1.00  0.00     0.025 A 
ATOM     14  C   UNL     1      50.561  25.342  16.275  1.00  0.00     0.016 A 
ATOM     15  C   UNL     1      51.902  25.021  16.500  1.00  0.00     0.051 A 
ATOM     16  C   UNL     1      52.611  25.633  17.538  1.00  0.00     0.157 A 
ATOM     17  C   UNL     1      50.626  26.903  18.126  1.00  0.00     0.062 A 
ATOM     18  C   UNL     1      51.971  26.579  18.357  1.00  0.00     0.158 A 
BRANCH  16  19
ATOM     19  O   UNL     1      53.951  25.298  17.736  1.00  0.00    -0.504 OA
ATOM     20  H   UNL     1      54.708  25.870  17.380  1.00  0.00     0.293 HD
ENDBRANCH  16  19
BRANCH  18  21
ATOM     21  O   UNL     1      52.671  27.193  19.394  1.00  0.00    -0.504 OA
ATOM     22  H   UNL     1      52.323  27.185  20.346  1.00  0.00     0.293 HD
ENDBRANCH  18  21
ENDBRANCH   3  13
BRANCH  10  23
ATOM     23  O   UNL     1      43.925  28.594  15.722  1.00  0.00    -0.507 OA
ATOM     24  H   UNL     1      44.280  29.541  15.653  1.00  0.00     0.293 HD
ENDBRANCH  10  23
BRANCH  11  25
ATOM     25  O   UNL     1      43.183  25.574  19.432  1.00  0.00    -0.508 OA
ATOM     26  H   UNL     1      42.334  25.109  19.132  1.00  0.00     0.293 HD
ENDBRANCH  11  25
ENDBRANCH   1   2
BRANCH   1  27
ATOM     27  C   UNL     1      50.073  28.901  15.202  1.00  0.00     0.339 C 
ATOM     28  C   UNL     1      51.107  28.973  14.050  1.00  0.00     0.214 C 
ATOM     29  O   UNL     1      49.577  30.185  15.551  1.00  0.00    -0.332 OA
ATOM     30  C   UNL     1      50.594  29.813  12.856  1.00  0.00     0.180 C 
ATOM     31  C   UNL     1      48.912  30.797  14.459  1.00  0.00     0.179 C 
ATOM     32  C   UNL     1      49.916  31.114  13.329  1.00  0.00     0.177 C 
BRANCH  28  33
ATOM     33  O   UNL     1      52.344  29.466  14.506  1.00  0.00    -0.384 OA
ATOM     34  H   UNL     1      52.382  30.439  14.317  1.00  0.00     0.211 HD
ENDBRANCH  28  33
BRANCH  30  35
ATOM     35  O   UNL     1      49.672  29.066  12.105  1.00  0.00    -0.387 OA
ATOM     36  H   UNL     1      48.836  29.601  12.059  1.00  0.00     0.211 HD
ENDBRANCH  30  35
BRANCH  31  37
ATOM     37  C   UNL     1      48.209  32.067  14.965  1.00  0.00     0.191 C 
BRANCH  37  38
ATOM     38  O   UNL     1      46.994  31.755  15.591  1.00  0.00    -0.394 OA
ATOM     39  H   UNL     1      46.279  31.927  14.924  1.00  0.00     0.210 HD
ENDBRANCH  37  38
ENDBRANCH  31  37
BRANCH  32  40
ATOM     40  O   UNL     1      50.880  32.030  13.785  1.00  0.00    -0.387 OA
ATOM     41  H   UNL     1      50.532  32.418  14.630  1.00  0.00     0.211 HD
ENDBRANCH  32  40
ENDBRANCH   1  27
TORSDOF 12
ENDMDL
MODEL 7
REMARK VINA RESULT:    -5.558      3.785      7.574
REMARK INTER + INTRA:          -9.711
REMARK INTER:                  -8.506
REMARK INTRA:                  -1.204
REMARK UNBOUND:                -1.553
REMARK SMILES O=c1c(O[C@@H]2O[C@@H](CO)[C@@H](O)[C@H](O)[C@H]2O)c(-c2ccc(O)c(O)c2)oc2cc(O)cc(O)c12
REMARK SMILES IDX 4 1 3 2 16 3 25 4 2 5 26 6 1 7 33 8 27 9 31 10 28 11 30 12
REMARK SMILES IDX 17 13 18 14 19 15 20 16 24 17 22 18 21 19 23 21 32 23 29 25
REMARK SMILES IDX 5 27 14 28 6 29 12 30 7 31 10 32 15 33 13 35 8 37 9 38 11 40
REMARK H PARENT 21 20 23 22 32 24 29 26 15 34 13 36 9 39 11 41
REMARK Flexibility Score: inf
ROOT
ATOM      1  O   UNL     1      50.007  27.563  16.444  1.00  0.00    -0.454 OA
ENDROOT
BRANCH   1   2
ATOM      2  C   UNL     1      48.633  27.461  16.710  1.00  0.00     0.214 A 
ATOM      3  C   UNL     1      48.125  26.685  17.777  1.00  0.00     0.180 A 
ATOM      4  O   UNL     1      46.810  26.555  17.927  1.00  0.00    -0.452 OA
ATOM      5  C   UNL     1      47.732  28.156  15.896  1.00  0.00     0.239 A 
ATOM      6  C   UNL     1      45.922  27.161  17.148  1.00  0.00     0.146 A 
ATOM      7  O   UNL     1      48.178  28.902  14.982  1.00  0.00    -0.285 OA
ATOM      8  C   UNL     1      46.345  28.008  16.098  1.00  0.00     0.111 A 
ATOM      9  C   UNL     1      44.558  26.962  17.387  1.00  0.00     0.094 A 
ATOM     10  C   UNL     1      45.373  28.657  15.300  1.00  0.00     0.134 A 
ATOM     11  C   UNL     1      43.603  27.600  16.594  1.00  0.00     0.123 A 
ATOM     12  C   UNL     1      44.010  28.445  15.556  1.00  0.00     0.093 A 
BRANCH   3  13
ATOM     13  C   UNL     1      49.000  26.021  18.767  1.00  0.00     0.025 A 
ATOM     14  C   UNL     1      49.805  24.925  18.410  1.00  0.00     0.016 A 
ATOM     15  C   UNL     1      50.635  24.321  19.357  1.00  0.00     0.051 A 
ATOM     16  C   UNL     1      50.684  24.807  20.667  1.00  0.00     0.157 A 
ATOM     17  C   UNL     1      49.066  26.520  20.078  1.00  0.00     0.062 A 
ATOM     18  C   UNL     1      49.896  25.912  21.032  1.00  0.00     0.158 A 
BRANCH  16  19
ATOM     19  O   UNL     1      51.528  24.188  21.591  1.00  0.00    -0.504 OA
ATOM     20  H   UNL     1      51.882  24.673  22.407  1.00  0.00     0.293 HD
ENDBRANCH  16  19
BRANCH  18  21
ATOM     21  O   UNL     1      49.939  26.401  22.336  1.00  0.00    -0.504 OA
ATOM     22  H   UNL     1      50.112  25.790  23.126  1.00  0.00     0.293 HD
ENDBRANCH  18  21
ENDBRANCH   3  13
BRANCH  10  23
ATOM     23  O   UNL     1      45.748  29.504  14.257  1.00  0.00    -0.507 OA
ATOM     24  H   UNL     1      46.153  29.145  13.399  1.00  0.00     0.293 HD
ENDBRANCH  10  23
BRANCH  11  25
ATOM     25  O   UNL     1      42.248  27.389  16.847  1.00  0.00    -0.508 OA
ATOM     26  H   UNL     1      41.553  28.092  16.625  1.00  0.00     0.293 HD
ENDBRANCH  11  25
ENDBRANCH   1   2
BRANCH   1  27
ATOM     27  C   UNL     1      50.918  28.303  17.268  1.00  0.00     0.339 C 
ATOM     28  C   UNL     1      52.392  27.939  16.952  1.00  0.00     0.214 C 
ATOM     29  O   UNL     1      50.678  29.697  17.144  1.00  0.00    -0.332 OA
ATOM     30  C   UNL     1      52.875  28.562  15.621  1.00  0.00     0.180 C 
ATOM     31  C   UNL     1      50.923  30.149  15.823  1.00  0.00     0.179 C 
ATOM     32  C   UNL     1      52.426  30.030  15.486  1.00  0.00     0.177 C 
BRANCH  28  33
ATOM     33  O   UNL     1      53.246  28.309  18.008  1.00  0.00    -0.384 OA
ATOM     34  H   UNL     1      52.775  28.976  18.571  1.00  0.00     0.211 HD
ENDBRANCH  28  33
BRANCH  30  35
ATOM     35  O   UNL     1      52.365  27.829  14.535  1.00  0.00    -0.387 OA
ATOM     36  H   UNL     1      51.718  27.174  14.908  1.00  0.00     0.211 HD
ENDBRANCH  30  35
BRANCH  31  37
ATOM     37  C   UNL     1      50.428  31.599  15.703  1.00  0.00     0.191 C 
BRANCH  37  38
ATOM     38  O   UNL     1      49.026  31.655  15.707  1.00  0.00    -0.394 OA
ATOM     39  H   UNL     1      48.775  32.495  15.240  1.00  0.00     0.210 HD
ENDBRANCH  37  38
ENDBRANCH  31  37
BRANCH  32  40
ATOM     40  O   UNL     1      53.177  30.852  16.344  1.00  0.00    -0.387 OA
ATOM     41  H   UNL     1      53.010  30.531  17.269  1.00  0.00     0.211 HD
ENDBRANCH  32  40
ENDBRANCH   1  27
TORSDOF 12
ENDMDL
MODEL 8
REMARK VINA RESULT:    -5.455      3.156      6.300
REMARK INTER + INTRA:          -9.559
REMARK INTER:                  -8.005
REMARK INTRA:                  -1.554
REMARK UNBOUND:                -1.553
REMARK SMILES O=c1c(O[C@@H]2O[C@@H](CO)[C@@H](O)[C@H](O)[C@H]2O)c(-c2ccc(O)c(O)c2)oc2cc(O)cc(O)c12
REMARK SMILES IDX 4 1 3 2 16 3 25 4 2 5 26 6 1 7 33 8 27 9 31 10 28 11 30 12
REMARK SMILES IDX 17 13 18 14 19 15 20 16 24 17 22 18 21 19 23 21 32 23 29 25
REMARK SMILES IDX 5 27 14 28 6 29 12 30 7 31 10 32 15 33 13 35 8 37 9 38 11 40
REMARK H PARENT 21 20 23 22 32 24 29 26 15 34 13 36 9 39 11 41
REMARK Flexibility Score: inf
ROOT
ATOM      1  O   UNL     1      49.423  26.451  18.640  1.00  0.00    -0.454 OA
ENDROOT
BRANCH   1   2
ATOM      2  C   UNL     1      48.163  25.923  18.960  1.00  0.00     0.214 A 
ATOM      3  C   UNL     1      47.040  26.083  18.116  1.00  0.00     0.180 A 
ATOM      4  O   UNL     1      45.852  25.637  18.512  1.00  0.00    -0.452 OA
ATOM      5  C   UNL     1      48.011  25.207  20.153  1.00  0.00     0.239 A 
ATOM      6  C   UNL     1      45.657  24.993  19.657  1.00  0.00     0.146 A 
ATOM      7  O   UNL     1      49.021  25.003  20.880  1.00  0.00    -0.285 OA
ATOM      8  C   UNL     1      46.739  24.732  20.529  1.00  0.00     0.111 A 
ATOM      9  C   UNL     1      44.367  24.562  19.985  1.00  0.00     0.094 A 
ATOM     10  C   UNL     1      46.502  24.024  21.731  1.00  0.00     0.134 A 
ATOM     11  C   UNL     1      44.137  23.867  21.173  1.00  0.00     0.123 A 
ATOM     12  C   UNL     1      45.202  23.599  22.042  1.00  0.00     0.093 A 
BRANCH   3  13
ATOM     13  C   UNL     1      47.130  26.710  16.779  1.00  0.00     0.025 A 
ATOM     14  C   UNL     1      47.957  26.173  15.778  1.00  0.00     0.016 A 
ATOM     15  C   UNL     1      48.017  26.771  14.517  1.00  0.00     0.051 A 
ATOM     16  C   UNL     1      47.246  27.902  14.233  1.00  0.00     0.157 A 
ATOM     17  C   UNL     1      46.341  27.833  16.486  1.00  0.00     0.062 A 
ATOM     18  C   UNL     1      46.403  28.438  15.222  1.00  0.00     0.158 A 
BRANCH  16  19
ATOM     19  O   UNL     1      47.320  28.475  12.963  1.00  0.00    -0.504 OA
ATOM     20  H   UNL     1      46.664  29.182  12.651  1.00  0.00     0.293 HD
ENDBRANCH  16  19
BRANCH  18  21
ATOM     21  O   UNL     1      45.632  29.566  14.948  1.00  0.00    -0.504 OA
ATOM     22  H   UNL     1      44.662  29.488  14.663  1.00  0.00     0.293 HD
ENDBRANCH  18  21
ENDBRANCH   3  13
BRANCH  10  23
ATOM     23  O   UNL     1      47.542  23.743  22.617  1.00  0.00    -0.507 OA
ATOM     24  H   UNL     1      47.724  24.326  23.426  1.00  0.00     0.293 HD
ENDBRANCH  10  23
BRANCH  11  25
ATOM     25  O   UNL     1      42.845  23.446  21.484  1.00  0.00    -0.508 OA
ATOM     26  H   UNL     1      42.498  23.461  22.435  1.00  0.00     0.293 HD
ENDBRANCH  11  25
ENDBRANCH   1   2
BRANCH   1  27
ATOM     27  C   UNL     1      49.862  27.754  19.051  1.00  0.00     0.339 C 
ATOM     28  C   UNL     1      51.228  27.688  19.780  1.00  0.00     0.214 C 
ATOM     29  O   UNL     1      49.893  28.638  17.942  1.00  0.00    -0.332 OA
ATOM     30  C   UNL     1      52.402  27.453  18.800  1.00  0.00     0.180 C 
ATOM     31  C   UNL     1      50.840  28.219  16.973  1.00  0.00     0.179 C 
ATOM     32  C   UNL     1      52.273  28.330  17.540  1.00  0.00     0.177 C 
BRANCH  28  33
ATOM     33  O   UNL     1      51.452  28.847  20.549  1.00  0.00    -0.384 OA
ATOM     34  H   UNL     1      50.653  29.429  20.476  1.00  0.00     0.211 HD
ENDBRANCH  28  33
BRANCH  30  35
ATOM     35  O   UNL     1      52.441  26.102  18.414  1.00  0.00    -0.387 OA
ATOM     36  H   UNL     1      52.556  25.568  19.243  1.00  0.00     0.211 HD
ENDBRANCH  30  35
BRANCH  31  37
ATOM     37  C   UNL     1      50.662  29.080  15.712  1.00  0.00     0.191 C 
BRANCH  37  38
ATOM     38  O   UNL     1      50.002  30.281  16.011  1.00  0.00    -0.394 OA
ATOM     39  H   UNL     1      50.686  30.999  15.963  1.00  0.00     0.210 HD
ENDBRANCH  37  38
ENDBRANCH  31  37
BRANCH  32  40
ATOM     40  O   UNL     1      52.567  29.670  17.844  1.00  0.00    -0.387 OA
ATOM     41  H   UNL     1      53.534  29.708  18.067  1.00  0.00     0.211 HD
ENDBRANCH  32  40
ENDBRANCH   1  27
TORSDOF 12
ENDMDL
MODEL 9
REMARK VINA RESULT:    -5.368      4.433      7.736
REMARK INTER + INTRA:          -9.431
REMARK INTER:                  -7.651
REMARK INTRA:                  -1.780
REMARK UNBOUND:                -1.553
REMARK SMILES O=c1c(O[C@@H]2O[C@@H](CO)[C@@H](O)[C@H](O)[C@H]2O)c(-c2ccc(O)c(O)c2)oc2cc(O)cc(O)c12
REMARK SMILES IDX 4 1 3 2 16 3 25 4 2 5 26 6 1 7 33 8 27 9 31 10 28 11 30 12
REMARK SMILES IDX 17 13 18 14 19 15 20 16 24 17 22 18 21 19 23 21 32 23 29 25
REMARK SMILES IDX 5 27 14 28 6 29 12 30 7 31 10 32 15 33 13 35 8 37 9 38 11 40
REMARK H PARENT 21 20 23 22 32 24 29 26 15 34 13 36 9 39 11 41
REMARK Flexibility Score: inf
ROOT
ATOM      1  O   UNL     1      48.382  28.213  15.840  1.00  0.00    -0.454 OA
ENDROOT
BRANCH   1   2
ATOM      2  C   UNL     1      47.590  27.491  16.747  1.00  0.00     0.214 A 
ATOM      3  C   UNL     1      48.148  26.740  17.806  1.00  0.00     0.180 A 
ATOM      4  O   UNL     1      47.355  26.006  18.581  1.00  0.00    -0.452 OA
ATOM      5  C   UNL     1      46.199  27.520  16.603  1.00  0.00     0.239 A 
ATOM      6  C   UNL     1      46.034  25.970  18.448  1.00  0.00     0.146 A 
ATOM      7  O   UNL     1      45.689  28.239  15.701  1.00  0.00    -0.285 OA
ATOM      8  C   UNL     1      45.389  26.744  17.456  1.00  0.00     0.111 A 
ATOM      9  C   UNL     1      45.283  25.166  19.313  1.00  0.00     0.094 A 
ATOM     10  C   UNL     1      43.977  26.700  17.355  1.00  0.00     0.134 A 
ATOM     11  C   UNL     1      43.893  25.123  19.208  1.00  0.00     0.123 A 
ATOM     12  C   UNL     1      43.243  25.889  18.232  1.00  0.00     0.093 A 
BRANCH   3  13
ATOM     13  C   UNL     1      49.594  26.752  18.118  1.00  0.00     0.025 A 
ATOM     14  C   UNL     1      50.442  25.719  17.682  1.00  0.00     0.016 A 
ATOM     15  C   UNL     1      51.807  25.756  17.975  1.00  0.00     0.051 A 
ATOM     16  C   UNL     1      52.348  26.827  18.693  1.00  0.00     0.157 A 
ATOM     17  C   UNL     1      50.142  27.836  18.821  1.00  0.00     0.062 A 
ATOM     18  C   UNL     1      51.512  27.873  19.120  1.00  0.00     0.158 A 
BRANCH  16  19
ATOM     19  O   UNL     1      53.716  26.841  18.965  1.00  0.00    -0.504 OA
ATOM     20  H   UNL     1      54.333  27.553  18.590  1.00  0.00     0.293 HD
ENDBRANCH  16  19
BRANCH  18  21
ATOM     21  O   UNL     1      52.043  28.944  19.838  1.00  0.00    -0.504 OA
ATOM     22  H   UNL     1      51.478  29.479  20.487  1.00  0.00     0.293 HD
ENDBRANCH  18  21
ENDBRANCH   3  13
BRANCH  10  23
ATOM     23  O   UNL     1      43.303  27.451  16.392  1.00  0.00    -0.507 OA
ATOM     24  H   UNL     1      42.343  27.747  16.525  1.00  0.00     0.293 HD
ENDBRANCH  10  23
BRANCH  11  25
ATOM     25  O   UNL     1      43.162  24.316  20.078  1.00  0.00    -0.508 OA
ATOM     26  H   UNL     1      42.999  23.336  19.879  1.00  0.00     0.293 HD
ENDBRANCH  11  25
ENDBRANCH   1   2
BRANCH   1  27
ATOM     27  C   UNL     1      48.990  27.626  14.681  1.00  0.00     0.339 C 
ATOM     28  C   UNL     1      48.635  28.413  13.394  1.00  0.00     0.214 C 
ATOM     29  O   UNL     1      50.393  27.510  14.862  1.00  0.00    -0.332 OA
ATOM     30  C   UNL     1      49.411  29.748  13.293  1.00  0.00     0.180 C 
ATOM     31  C   UNL     1      51.004  28.782  14.995  1.00  0.00     0.179 C 
ATOM     32  C   UNL     1      50.894  29.571  13.671  1.00  0.00     0.177 C 
BRANCH  28  33
ATOM     33  O   UNL     1      48.847  27.631  12.243  1.00  0.00    -0.384 OA
ATOM     34  H   UNL     1      49.498  26.918  12.465  1.00  0.00     0.211 HD
ENDBRANCH  28  33
BRANCH  30  35
ATOM     35  O   UNL     1      48.834  30.704  14.147  1.00  0.00    -0.387 OA
ATOM     36  H   UNL     1      49.579  31.245  14.520  1.00  0.00     0.211 HD
ENDBRANCH  30  35
BRANCH  31  37
ATOM     37  C   UNL     1      52.469  28.579  15.414  1.00  0.00     0.191 C 
BRANCH  37  38
ATOM     38  O   UNL     1      52.983  27.385  14.886  1.00  0.00    -0.394 OA
ATOM     39  H   UNL     1      52.613  26.649  15.439  1.00  0.00     0.210 HD
ENDBRANCH  37  38
ENDBRANCH  31  37
BRANCH  32  40
ATOM     40  O   UNL     1      51.581  28.893  12.650  1.00  0.00    -0.387 OA
ATOM     41  H   UNL     1      52.313  29.493  12.348  1.00  0.00     0.211 HD
ENDBRANCH  32  40
ENDBRANCH   1  27
TORSDOF 12
ENDMDL
