MODEL 1
REMARK VINA RESULT:    -4.272      0.000      0.000
REMARK INTER + INTRA:          -8.976
REMARK INTER:                  -7.268
REMARK INTRA:                  -1.708
REMARK UNBOUND:                -1.708
REMARK SMILES CCCCCCCCCCCCCC(=O)[O-]
REMARK SMILES IDX 8 1 9 2 10 3 11 4 12 5 13 6 14 7 15 8 16 9 7 10 6 11 5 12
REMARK SMILES IDX 4 13 3 14 2 15 1 16
REMARK H PARENT
REMARK Flexibility Score: inf
ROOT
ATOM      1  C   UNL     1      46.953 -40.610  -3.895  1.00  0.00     0.000 C 
ENDROOT
BRANCH   1   2
ATOM      2  C   UNL     1      47.667 -40.597  -2.532  1.00  0.00     0.000 C 
BRANCH   2   3
ATOM      3  C   UNL     1      49.200 -40.546  -2.659  1.00  0.00     0.000 C 
BRANCH   3   4
ATOM      4  C   UNL     1      49.759 -41.698  -3.508  1.00  0.00     0.000 C 
BRANCH   4   5
ATOM      5  C   UNL     1      51.263 -41.932  -3.276  1.00  0.00     0.006 C 
BRANCH   5   6
ATOM      6  C   UNL     1      51.789 -41.156  -2.062  1.00  0.00     0.053 C 
BRANCH   6   7
ATOM      7  C   UNL     1      53.257 -40.878  -2.176  1.00  0.00     0.041 C 
ATOM      8  O   UNL     1      54.093 -41.801  -1.983  1.00  0.00    -0.550 OA
ATOM      9  O   UNL     1      53.702 -39.593  -2.461  1.00  0.00    -0.550 OA
ENDBRANCH   6   7
ENDBRANCH   5   6
ENDBRANCH   4   5
ENDBRANCH   3   4
ENDBRANCH   2   3
ENDBRANCH   1   2
BRANCH   1  10
ATOM     10  C   UNL     1      47.336 -39.460  -4.846  1.00  0.00     0.000 C 
BRANCH  10  11
ATOM     11  C   UNL     1      46.882 -38.084  -4.338  1.00  0.00    -0.000 C 
BRANCH  11  12
ATOM     12  C   UNL     1      47.883 -36.992  -4.735  1.00  0.00    -0.000 C 
BRANCH  12  13
ATOM     13  C   UNL     1      49.279 -37.295  -4.174  1.00  0.00    -0.000 C 
BRANCH  13  14
ATOM     14  C   UNL     1      50.366 -37.306  -5.262  1.00  0.00    -0.000 C 
BRANCH  14  15
ATOM     15  C   UNL     1      51.284 -38.534  -5.166  1.00  0.00    -0.003 C 
ATOM     16  C   UNL     1      50.983 -39.531  -6.282  1.00  0.00     0.004 C 
ENDBRANCH  14  15
ENDBRANCH  13  14
ENDBRANCH  12  13
ENDBRANCH  11  12
ENDBRANCH  10  11
ENDBRANCH   1  10
TORSDOF 12
ENDMDL
MODEL 2
REMARK VINA RESULT:    -4.226      1.564      3.521
REMARK INTER + INTRA:          -8.899
REMARK INTER:                  -7.491
REMARK INTRA:                  -1.408
REMARK UNBOUND:                -1.708
REMARK SMILES CCCCCCCCCCCCCC(=O)[O-]
REMARK SMILES IDX 8 1 9 2 10 3 11 4 12 5 13 6 14 7 15 8 16 9 7 10 6 11 5 12
REMARK SMILES IDX 4 13 3 14 2 15 1 16
REMARK H PARENT
REMARK Flexibility Score: inf
ROOT
ATOM      1  C   UNL     1      48.734 -38.989  -4.121  1.00  0.00     0.000 C 
ENDROOT
BRANCH   1   2
ATOM      2  C   UNL     1      49.115 -40.300  -4.830  1.00  0.00     0.000 C 
BRANCH   2   3
ATOM      3  C   UNL     1      49.385 -41.456  -3.851  1.00  0.00     0.000 C 
BRANCH   3   4
ATOM      4  C   UNL     1      50.261 -41.028  -2.663  1.00  0.00     0.000 C 
BRANCH   4   5
ATOM      5  C   UNL     1      51.766 -41.086  -2.982  1.00  0.00     0.006 C 
BRANCH   5   6
ATOM      6  C   UNL     1      52.605 -41.456  -1.752  1.00  0.00     0.053 C 
BRANCH   6   7
ATOM      7  C   UNL     1      53.992 -40.899  -1.839  1.00  0.00     0.041 C 
ATOM      8  O   UNL     1      54.170 -39.657  -1.958  1.00  0.00    -0.550 OA
ATOM      9  O   UNL     1      55.088 -41.753  -1.822  1.00  0.00    -0.550 OA
ENDBRANCH   6   7
ENDBRANCH   5   6
ENDBRANCH   4   5
ENDBRANCH   3   4
ENDBRANCH   2   3
ENDBRANCH   1   2
BRANCH   1  10
ATOM     10  C   UNL     1      47.509 -38.261  -4.706  1.00  0.00     0.000 C 
BRANCH  10  11
ATOM     11  C   UNL     1      46.378 -39.217  -5.108  1.00  0.00    -0.000 C 
BRANCH  11  12
ATOM     12  C   UNL     1      45.094 -38.912  -4.326  1.00  0.00    -0.000 C 
BRANCH  12  13
ATOM     13  C   UNL     1      44.879 -39.934  -3.201  1.00  0.00    -0.000 C 
BRANCH  13  14
ATOM     14  C   UNL     1      45.461 -39.468  -1.857  1.00  0.00    -0.000 C 
BRANCH  14  15
ATOM     15  C   UNL     1      46.658 -40.318  -1.405  1.00  0.00    -0.003 C 
ATOM     16  C   UNL     1      47.560 -39.534  -0.457  1.00  0.00     0.004 C 
ENDBRANCH  14  15
ENDBRANCH  13  14
ENDBRANCH  12  13
ENDBRANCH  11  12
ENDBRANCH  10  11
ENDBRANCH   1  10
TORSDOF 12
ENDMDL
MODEL 3
REMARK VINA RESULT:    -4.221      1.924      3.205
REMARK INTER + INTRA:          -8.890
REMARK INTER:                  -7.580
REMARK INTRA:                  -1.310
REMARK UNBOUND:                -1.708
REMARK SMILES CCCCCCCCCCCCCC(=O)[O-]
REMARK SMILES IDX 8 1 9 2 10 3 11 4 12 5 13 6 14 7 15 8 16 9 7 10 6 11 5 12
REMARK SMILES IDX 4 13 3 14 2 15 1 16
REMARK H PARENT
REMARK Flexibility Score: inf
ROOT
ATOM      1  C   UNL     1      46.759 -39.977  -4.589  1.00  0.00     0.000 C 
ENDROOT
BRANCH   1   2
ATOM      2  C   UNL     1      48.297 -39.915  -4.563  1.00  0.00     0.000 C 
BRANCH   2   3
ATOM      3  C   UNL     1      48.942 -41.230  -4.092  1.00  0.00     0.000 C 
BRANCH   3   4
ATOM      4  C   UNL     1      49.798 -41.046  -2.829  1.00  0.00     0.000 C 
BRANCH   4   5
ATOM      5  C   UNL     1      51.263 -40.696  -3.150  1.00  0.00     0.006 C 
BRANCH   5   6
ATOM      6  C   UNL     1      52.249 -41.462  -2.259  1.00  0.00     0.053 C 
BRANCH   6   7
ATOM      7  C   UNL     1      53.535 -40.714  -2.084  1.00  0.00     0.041 C 
ATOM      8  O   UNL     1      53.552 -39.457  -2.164  1.00  0.00    -0.550 OA
ATOM      9  O   UNL     1      54.719 -41.407  -1.866  1.00  0.00    -0.550 OA
ENDBRANCH   6   7
ENDBRANCH   5   6
ENDBRANCH   4   5
ENDBRANCH   3   4
ENDBRANCH   2   3
ENDBRANCH   1   2
BRANCH   1  10
ATOM     10  C   UNL     1      46.096 -40.339  -3.246  1.00  0.00     0.000 C 
BRANCH  10  11
ATOM     11  C   UNL     1      46.058 -39.164  -2.259  1.00  0.00    -0.000 C 
BRANCH  11  12
ATOM     12  C   UNL     1      46.959 -39.434  -1.047  1.00  0.00    -0.000 C 
BRANCH  12  13
ATOM     13  C   UNL     1      47.741 -38.174  -0.651  1.00  0.00    -0.000 C 
BRANCH  13  14
ATOM     14  C   UNL     1      48.563 -37.597  -1.815  1.00  0.00    -0.000 C 
BRANCH  14  15
ATOM     15  C   UNL     1      48.987 -36.140  -1.573  1.00  0.00    -0.003 C 
ATOM     16  C   UNL     1      48.964 -35.803  -0.085  1.00  0.00     0.004 C 
ENDBRANCH  14  15
ENDBRANCH  13  14
ENDBRANCH  12  13
ENDBRANCH  11  12
ENDBRANCH  10  11
ENDBRANCH   1  10
TORSDOF 12
ENDMDL
MODEL 4
REMARK VINA RESULT:    -4.208      1.517      2.079
REMARK INTER + INTRA:          -8.868
REMARK INTER:                  -7.007
REMARK INTRA:                  -1.861
REMARK UNBOUND:                -1.708
REMARK SMILES CCCCCCCCCCCCCC(=O)[O-]
REMARK SMILES IDX 8 1 9 2 10 3 11 4 12 5 13 6 14 7 15 8 16 9 7 10 6 11 5 12
REMARK SMILES IDX 4 13 3 14 2 15 1 16
REMARK H PARENT
REMARK Flexibility Score: inf
ROOT
ATOM      1  C   UNL     1      46.305 -40.224  -2.513  1.00  0.00     0.000 C 
ENDROOT
BRANCH   1   2
ATOM      2  C   UNL     1      46.528 -40.199  -4.036  1.00  0.00     0.000 C 
BRANCH   2   3
ATOM      3  C   UNL     1      47.952 -40.621  -4.440  1.00  0.00     0.000 C 
BRANCH   3   4
ATOM      4  C   UNL     1      48.769 -41.150  -3.250  1.00  0.00     0.000 C 
BRANCH   4   5
ATOM      5  C   UNL     1      50.211 -41.523  -3.639  1.00  0.00     0.006 C 
BRANCH   5   6
ATOM      6  C   UNL     1      51.244 -40.922  -2.676  1.00  0.00     0.053 C 
BRANCH   6   7
ATOM      7  C   UNL     1      52.368 -41.874  -2.405  1.00  0.00     0.041 C 
ATOM      8  O   UNL     1      53.417 -41.470  -1.836  1.00  0.00    -0.550 OA
ATOM      9  O   UNL     1      52.271 -43.199  -2.810  1.00  0.00    -0.550 OA
ENDBRANCH   6   7
ENDBRANCH   5   6
ENDBRANCH   4   5
ENDBRANCH   3   4
ENDBRANCH   2   3
ENDBRANCH   1   2
BRANCH   1  10
ATOM     10  C   UNL     1      45.944 -38.865  -1.883  1.00  0.00     0.000 C 
BRANCH  10  11
ATOM     11  C   UNL     1      46.852 -37.723  -2.360  1.00  0.00    -0.000 C 
BRANCH  11  12
ATOM     12  C   UNL     1      48.268 -37.869  -1.789  1.00  0.00    -0.000 C 
BRANCH  12  13
ATOM     13  C   UNL     1      49.216 -36.827  -2.397  1.00  0.00    -0.000 C 
BRANCH  13  14
ATOM     14  C   UNL     1      50.252 -37.451  -3.347  1.00  0.00    -0.000 C 
BRANCH  14  15
ATOM     15  C   UNL     1      49.754 -37.520  -4.799  1.00  0.00    -0.003 C 
ATOM     16  C   UNL     1      50.702 -38.345  -5.664  1.00  0.00     0.004 C 
ENDBRANCH  14  15
ENDBRANCH  13  14
ENDBRANCH  12  13
ENDBRANCH  11  12
ENDBRANCH  10  11
ENDBRANCH   1  10
TORSDOF 12
ENDMDL
MODEL 5
REMARK VINA RESULT:    -4.201     12.297     13.766
REMARK INTER + INTRA:          -8.856
REMARK INTER:                  -6.838
REMARK INTRA:                  -2.019
REMARK UNBOUND:                -1.708
REMARK SMILES CCCCCCCCCCCCCC(=O)[O-]
REMARK SMILES IDX 8 1 9 2 10 3 11 4 12 5 13 6 14 7 15 8 16 9 7 10 6 11 5 12
REMARK SMILES IDX 4 13 3 14 2 15 1 16
REMARK H PARENT
REMARK Flexibility Score: inf
ROOT
ATOM      1  C   UNL     1      50.605 -39.338   7.500  1.00  0.00     0.000 C 
ENDROOT
BRANCH   1   2
ATOM      2  C   UNL     1      50.836 -37.886   7.954  1.00  0.00     0.000 C 
BRANCH   2   3
ATOM      3  C   UNL     1      51.578 -37.788   9.298  1.00  0.00     0.000 C 
BRANCH   3   4
ATOM      4  C   UNL     1      50.767 -37.037  10.366  1.00  0.00     0.000 C 
BRANCH   4   5
ATOM      5  C   UNL     1      49.911 -35.903   9.773  1.00  0.00     0.006 C 
BRANCH   5   6
ATOM      6  C   UNL     1      50.700 -34.595   9.631  1.00  0.00     0.053 C 
BRANCH   6   7
ATOM      7  C   UNL     1      51.053 -34.013  10.966  1.00  0.00     0.041 C 
ATOM      8  O   UNL     1      52.252 -33.750  11.246  1.00  0.00    -0.550 OA
ATOM      9  O   UNL     1      50.060 -33.792  11.912  1.00  0.00    -0.550 OA
ENDBRANCH   6   7
ENDBRANCH   5   6
ENDBRANCH   4   5
ENDBRANCH   3   4
ENDBRANCH   2   3
ENDBRANCH   1   2
BRANCH   1  10
ATOM     10  C   UNL     1      49.873 -40.233   8.518  1.00  0.00     0.000 C 
BRANCH  10  11
ATOM     11  C   UNL     1      48.345 -40.171   8.381  1.00  0.00    -0.000 C 
BRANCH  11  12
ATOM     12  C   UNL     1      47.708 -39.521   9.616  1.00  0.00    -0.000 C 
BRANCH  12  13
ATOM     13  C   UNL     1      47.038 -38.189   9.253  1.00  0.00    -0.000 C 
BRANCH  13  14
ATOM     14  C   UNL     1      46.993 -37.942   7.736  1.00  0.00    -0.000 C 
BRANCH  14  15
ATOM     15  C   UNL     1      47.388 -36.506   7.360  1.00  0.00    -0.003 C 
ATOM     16  C   UNL     1      48.023 -36.457   5.973  1.00  0.00     0.004 C 
ENDBRANCH  14  15
ENDBRANCH  13  14
ENDBRANCH  12  13
ENDBRANCH  11  12
ENDBRANCH  10  11
ENDBRANCH   1  10
TORSDOF 12
ENDMDL
MODEL 6
REMARK VINA RESULT:    -4.182     13.301     14.866
REMARK INTER + INTRA:          -8.823
REMARK INTER:                  -6.979
REMARK INTRA:                  -1.844
REMARK UNBOUND:                -1.708
REMARK SMILES CCCCCCCCCCCCCC(=O)[O-]
REMARK SMILES IDX 8 1 9 2 10 3 11 4 12 5 13 6 14 7 15 8 16 9 7 10 6 11 5 12
REMARK SMILES IDX 4 13 3 14 2 15 1 16
REMARK H PARENT
REMARK Flexibility Score: inf
ROOT
ATOM      1  C   UNL     1      50.245 -38.734   7.750  1.00  0.00     0.000 C 
ENDROOT
BRANCH   1   2
ATOM      2  C   UNL     1      51.359 -38.143   8.632  1.00  0.00     0.000 C 
BRANCH   2   3
ATOM      3  C   UNL     1      51.289 -36.609   8.738  1.00  0.00     0.000 C 
BRANCH   3   4
ATOM      4  C   UNL     1      49.861 -36.101   8.993  1.00  0.00     0.000 C 
BRANCH   4   5
ATOM      5  C   UNL     1      49.827 -34.840   9.875  1.00  0.00     0.006 C 
BRANCH   5   6
ATOM      6  C   UNL     1      50.985 -34.806  10.880  1.00  0.00     0.053 C 
BRANCH   6   7
ATOM      7  C   UNL     1      50.678 -33.922  12.050  1.00  0.00     0.041 C 
ATOM      8  O   UNL     1      49.527 -33.927  12.563  1.00  0.00    -0.550 OA
ATOM      9  O   UNL     1      51.653 -33.070  12.553  1.00  0.00    -0.550 OA
ENDBRANCH   6   7
ENDBRANCH   5   6
ENDBRANCH   4   5
ENDBRANCH   3   4
ENDBRANCH   2   3
ENDBRANCH   1   2
BRANCH   1  10
ATOM     10  C   UNL     1      49.828 -40.175   8.102  1.00  0.00     0.000 C 
BRANCH  10  11
ATOM     11  C   UNL     1      48.307 -40.346   8.222  1.00  0.00    -0.000 C 
BRANCH  11  12
ATOM     12  C   UNL     1      47.662 -39.111   8.863  1.00  0.00    -0.000 C 
BRANCH  12  13
ATOM     13  C   UNL     1      47.448 -39.320  10.368  1.00  0.00    -0.000 C 
BRANCH  13  14
ATOM     14  C   UNL     1      48.315 -38.384  11.226  1.00  0.00    -0.000 C 
BRANCH  14  15
ATOM     15  C   UNL     1      49.587 -39.069  11.748  1.00  0.00    -0.003 C 
ATOM     16  C   UNL     1      49.394 -40.580  11.846  1.00  0.00     0.004 C 
ENDBRANCH  14  15
ENDBRANCH  13  14
ENDBRANCH  12  13
ENDBRANCH  11  12
ENDBRANCH  10  11
ENDBRANCH   1  10
TORSDOF 12
ENDMDL
MODEL 7
REMARK VINA RESULT:    -4.162     13.773     15.028
REMARK INTER + INTRA:          -8.790
REMARK INTER:                  -7.455
REMARK INTRA:                  -1.335
REMARK UNBOUND:                -1.708
REMARK SMILES CCCCCCCCCCCCCC(=O)[O-]
REMARK SMILES IDX 8 1 9 2 10 3 11 4 12 5 13 6 14 7 15 8 16 9 7 10 6 11 5 12
REMARK SMILES IDX 4 13 3 14 2 15 1 16
REMARK H PARENT
REMARK Flexibility Score: inf
ROOT
ATOM      1  C   UNL     1      49.351 -37.761  12.313  1.00  0.00     0.000 C 
ENDROOT
BRANCH   1   2
ATOM      2  C   UNL     1      49.579 -39.222  12.737  1.00  0.00     0.000 C 
BRANCH   2   3
ATOM      3  C   UNL     1      48.268 -40.011  12.898  1.00  0.00     0.000 C 
BRANCH   3   4
ATOM      4  C   UNL     1      47.963 -40.900  11.682  1.00  0.00     0.000 C 
BRANCH   4   5
ATOM      5  C   UNL     1      49.087 -40.875  10.630  1.00  0.00     0.006 C 
BRANCH   5   6
ATOM      6  C   UNL     1      48.581 -40.425   9.253  1.00  0.00     0.053 C 
BRANCH   6   7
ATOM      7  C   UNL     1      49.618 -40.622   8.190  1.00  0.00     0.041 C 
ATOM      8  O   UNL     1      50.197 -39.628   7.678  1.00  0.00    -0.550 OA
ATOM      9  O   UNL     1      49.919 -41.902   7.742  1.00  0.00    -0.550 OA
ENDBRANCH   6   7
ENDBRANCH   5   6
ENDBRANCH   4   5
ENDBRANCH   3   4
ENDBRANCH   2   3
ENDBRANCH   1   2
BRANCH   1  10
ATOM     10  C   UNL     1      50.273 -37.255  11.187  1.00  0.00     0.000 C 
BRANCH  10  11
ATOM     11  C   UNL     1      49.507 -36.850   9.920  1.00  0.00    -0.000 C 
BRANCH  11  12
ATOM     12  C   UNL     1      49.928 -35.454   9.445  1.00  0.00    -0.000 C 
BRANCH  12  13
ATOM     13  C   UNL     1      51.078 -34.905  10.300  1.00  0.00    -0.000 C 
BRANCH  13  14
ATOM     14  C   UNL     1      50.783 -33.505  10.863  1.00  0.00    -0.000 C 
BRANCH  14  15
ATOM     15  C   UNL     1      50.980 -33.428  12.385  1.00  0.00    -0.003 C 
ATOM     16  C   UNL     1      49.824 -34.099  13.121  1.00  0.00     0.004 C 
ENDBRANCH  14  15
ENDBRANCH  13  14
ENDBRANCH  12  13
ENDBRANCH  11  12
ENDBRANCH  10  11
ENDBRANCH   1  10
TORSDOF 12
ENDMDL
MODEL 8
REMARK VINA RESULT:    -4.157      1.383      2.500
REMARK INTER + INTRA:          -8.781
REMARK INTER:                  -6.983
REMARK INTRA:                  -1.798
REMARK UNBOUND:                -1.708
REMARK SMILES CCCCCCCCCCCCCC(=O)[O-]
REMARK SMILES IDX 8 1 9 2 10 3 11 4 12 5 13 6 14 7 15 8 16 9 7 10 6 11 5 12
REMARK SMILES IDX 4 13 3 14 2 15 1 16
REMARK H PARENT
REMARK Flexibility Score: inf
ROOT
ATOM      1  C   UNL     1      47.765 -40.965  -3.601  1.00  0.00     0.000 C 
ENDROOT
BRANCH   1   2
ATOM      2  C   UNL     1      49.198 -41.285  -4.063  1.00  0.00     0.000 C 
BRANCH   2   3
ATOM      3  C   UNL     1      49.660 -40.404  -5.236  1.00  0.00     0.000 C 
BRANCH   3   4
ATOM      4  C   UNL     1      50.895 -39.558  -4.887  1.00  0.00     0.000 C 
BRANCH   4   5
ATOM      5  C   UNL     1      51.376 -39.776  -3.442  1.00  0.00     0.006 C 
BRANCH   5   6
ATOM      6  C   UNL     1      52.604 -38.920  -3.105  1.00  0.00     0.053 C 
BRANCH   6   7
ATOM      7  C   UNL     1      53.632 -39.700  -2.344  1.00  0.00     0.041 C 
ATOM      8  O   UNL     1      54.722 -39.161  -2.016  1.00  0.00    -0.550 OA
ATOM      9  O   UNL     1      53.400 -41.033  -2.027  1.00  0.00    -0.550 OA
ENDBRANCH   6   7
ENDBRANCH   5   6
ENDBRANCH   4   5
ENDBRANCH   3   4
ENDBRANCH   2   3
ENDBRANCH   1   2
BRANCH   1  10
ATOM     10  C   UNL     1      46.922 -40.152  -4.601  1.00  0.00     0.000 C 
BRANCH  10  11
ATOM     11  C   UNL     1      45.842 -39.298  -3.921  1.00  0.00    -0.000 C 
BRANCH  11  12
ATOM     12  C   UNL     1      45.932 -37.835  -4.372  1.00  0.00    -0.000 C 
BRANCH  12  13
ATOM     13  C   UNL     1      47.333 -37.510  -4.910  1.00  0.00    -0.000 C 
BRANCH  13  14
ATOM     14  C   UNL     1      47.949 -36.267  -4.249  1.00  0.00    -0.000 C 
BRANCH  14  15
ATOM     15  C   UNL     1      49.158 -36.606  -3.365  1.00  0.00    -0.003 C 
ATOM     16  C   UNL     1      48.775 -37.594  -2.267  1.00  0.00     0.004 C 
ENDBRANCH  14  15
ENDBRANCH  13  14
ENDBRANCH  12  13
ENDBRANCH  11  12
ENDBRANCH  10  11
ENDBRANCH   1  10
TORSDOF 12
ENDMDL
MODEL 9
REMARK VINA RESULT:    -4.145      2.084      3.401
REMARK INTER + INTRA:          -8.761
REMARK INTER:                  -6.945
REMARK INTRA:                  -1.816
REMARK UNBOUND:                -1.708
REMARK SMILES CCCCCCCCCCCCCC(=O)[O-]
REMARK SMILES IDX 8 1 9 2 10 3 11 4 12 5 13 6 14 7 15 8 16 9 7 10 6 11 5 12
REMARK SMILES IDX 4 13 3 14 2 15 1 16
REMARK H PARENT
REMARK Flexibility Score: inf
ROOT
ATOM      1  C   UNL     1      45.068 -39.910  -3.372  1.00  0.00     0.000 C 
ENDROOT
BRANCH   1   2
ATOM      2  C   UNL     1      46.418 -40.620  -3.570  1.00  0.00     0.000 C 
BRANCH   2   3
ATOM      3  C   UNL     1      47.324 -39.911  -4.592  1.00  0.00     0.000 C 
BRANCH   3   4
ATOM      4  C   UNL     1      48.756 -40.471  -4.598  1.00  0.00     0.000 C 
BRANCH   4   5
ATOM      5  C   UNL     1      49.187 -41.015  -3.224  1.00  0.00     0.006 C 
BRANCH   5   6
ATOM      6  C   UNL     1      50.481 -41.836  -3.307  1.00  0.00     0.053 C 
BRANCH   6   7
ATOM      7  C   UNL     1      51.654 -41.076  -2.768  1.00  0.00     0.041 C 
ATOM      8  O   UNL     1      52.424 -41.612  -1.928  1.00  0.00    -0.550 OA
ATOM      9  O   UNL     1      51.877 -39.765  -3.169  1.00  0.00    -0.550 OA
ENDBRANCH   6   7
ENDBRANCH   5   6
ENDBRANCH   4   5
ENDBRANCH   3   4
ENDBRANCH   2   3
ENDBRANCH   1   2
BRANCH   1  10
ATOM     10  C   UNL     1      44.686 -39.627  -1.907  1.00  0.00     0.000 C 
BRANCH  10  11
ATOM     11  C   UNL     1      45.624 -40.308  -0.900  1.00  0.00    -0.000 C 
BRANCH  11  12
ATOM     12  C   UNL     1      46.316 -39.272  -0.005  1.00  0.00    -0.000 C 
BRANCH  12  13
ATOM     13  C   UNL     1      47.628 -38.787  -0.637  1.00  0.00    -0.000 C 
BRANCH  13  14
ATOM     14  C   UNL     1      47.595 -37.292  -0.997  1.00  0.00    -0.000 C 
BRANCH  14  15
ATOM     15  C   UNL     1      47.986 -37.029  -2.459  1.00  0.00    -0.003 C 
ATOM     16  C   UNL     1      49.479 -37.259  -2.676  1.00  0.00     0.004 C 
ENDBRANCH  14  15
ENDBRANCH  13  14
ENDBRANCH  12  13
ENDBRANCH  11  12
ENDBRANCH  10  11
ENDBRANCH   1  10
TORSDOF 12
ENDMDL
