MODEL 1
REMARK VINA RESULT:    -6.889      0.000      0.000
REMARK INTER + INTRA:          -8.625
REMARK INTER:                  -8.299
REMARK INTRA:                  -0.327
REMARK UNBOUND:                -0.327
REMARK SMILES Oc1cc(O)c2cc(O)c(-c3ccc(O)c(O)c3)[o+]c2c1.[Cl-]
REMARK SMILES IDX 10 1 19 2 20 3 21 4 2 5 3 6 4 7 6 8 7 9 8 10 11 11 12 12
REMARK SMILES IDX 13 13 14 14 18 15 16 16 15 17 17 19 9 21 1 23 5 25
REMARK H PARENT 15 18 17 20 9 22 1 24 5 26
REMARK Flexibility Score: inf
ROOT
ATOM      1  C   UNL     1      27.066 -16.750  23.235  1.00  0.00     0.402 A 
ATOM      2  O   UNL     1      27.886 -17.625  23.815  1.00  0.00    -0.202 OA
ATOM      3  C   UNL     1      28.432 -18.650  23.167  1.00  0.00     0.368 A 
ATOM      4  C   UNL     1      29.288 -19.522  23.847  1.00  0.00     0.162 A 
ATOM      5  C   UNL     1      29.872 -20.603  23.175  1.00  0.00     0.128 A 
ATOM      6  C   UNL     1      29.599 -20.811  21.819  1.00  0.00     0.093 A 
ATOM      7  C   UNL     1      28.742 -19.946  21.124  1.00  0.00     0.136 A 
ATOM      8  C   UNL     1      28.155 -18.859  21.799  1.00  0.00     0.125 A 
ATOM      9  C   UNL     1      27.287 -17.968  21.159  1.00  0.00     0.078 A 
ATOM     10  C   UNL     1      26.724 -16.908  21.876  1.00  0.00     0.223 A 
ENDROOT
BRANCH   1  11
ATOM     11  C   UNL     1      26.527 -15.644  24.059  1.00  0.00     0.087 A 
ATOM     12  C   UNL     1      25.510 -15.909  24.989  1.00  0.00     0.022 A 
ATOM     13  C   UNL     1      25.000 -14.886  25.792  1.00  0.00     0.051 A 
ATOM     14  C   UNL     1      25.511 -13.585  25.688  1.00  0.00     0.157 A 
ATOM     15  C   UNL     1      27.051 -14.342  23.972  1.00  0.00     0.068 A 
ATOM     16  C   UNL     1      26.545 -13.314  24.776  1.00  0.00     0.158 A 
BRANCH  14  17
ATOM     17  O   UNL     1      24.999 -12.565  26.488  1.00  0.00    -0.504 OA
ATOM     18  H   UNL     1      24.006 -12.487  26.677  1.00  0.00     0.293 HD
ENDBRANCH  14  17
BRANCH  16  19
ATOM     19  O   UNL     1      27.085 -12.034  24.658  1.00  0.00    -0.504 OA
ATOM     20  H   UNL     1      26.600 -11.212  25.000  1.00  0.00     0.293 HD
ENDBRANCH  16  19
ENDBRANCH   1  11
BRANCH  10  21
ATOM     21  O   UNL     1      25.819 -16.046  21.257  1.00  0.00    -0.500 OA
ATOM     22  H   UNL     1      24.929 -15.816  21.683  1.00  0.00     0.294 HD
ENDBRANCH  10  21
BRANCH   5  23
ATOM     23  O   UNL     1      30.726 -21.476  23.845  1.00  0.00    -0.507 OA
ATOM     24  H   UNL     1      30.528 -21.793  24.786  1.00  0.00     0.293 HD
ENDBRANCH   5  23
BRANCH   7  25
ATOM     25  O   UNL     1      28.477 -20.165  19.772  1.00  0.00    -0.507 OA
ATOM     26  H   UNL     1      28.345 -21.099  19.401  1.00  0.00     0.293 HD
ENDBRANCH   7  25
TORSDOF 6
ENDMDL
MODEL 2
REMARK VINA RESULT:    -6.742      4.707     10.744
REMARK INTER + INTRA:          -8.448
REMARK INTER:                  -8.157
REMARK INTRA:                  -0.291
REMARK UNBOUND:                -0.327
REMARK SMILES Oc1cc(O)c2cc(O)c(-c3ccc(O)c(O)c3)[o+]c2c1.[Cl-]
REMARK SMILES IDX 10 1 19 2 20 3 21 4 2 5 3 6 4 7 6 8 7 9 8 10 11 11 12 12
REMARK SMILES IDX 13 13 14 14 18 15 16 16 15 17 17 19 9 21 1 23 5 25
REMARK H PARENT 15 18 17 20 9 22 1 24 5 26
REMARK Flexibility Score: inf
ROOT
ATOM      1  C   UNL     1      24.239 -11.496  27.485  1.00  0.00     0.402 A 
ATOM      2  O   UNL     1      23.026 -11.060  27.146  1.00  0.00    -0.202 OA
ATOM      3  C   UNL     1      22.346 -10.173  27.865  1.00  0.00     0.368 A 
ATOM      4  C   UNL     1      21.079  -9.762  27.439  1.00  0.00     0.162 A 
ATOM      5  C   UNL     1      20.354  -8.824  28.186  1.00  0.00     0.128 A 
ATOM      6  C   UNL     1      20.898  -8.298  29.361  1.00  0.00     0.093 A 
ATOM      7  C   UNL     1      22.167  -8.701  29.803  1.00  0.00     0.136 A 
ATOM      8  C   UNL     1      22.896  -9.643  29.052  1.00  0.00     0.125 A 
ATOM      9  C   UNL     1      24.163 -10.087  29.448  1.00  0.00     0.078 A 
ATOM     10  C   UNL     1      24.843 -11.029  28.671  1.00  0.00     0.223 A 
ENDROOT
BRANCH   1  11
ATOM     11  C   UNL     1      24.901 -12.480  26.599  1.00  0.00     0.087 A 
ATOM     12  C   UNL     1      25.969 -12.068  25.786  1.00  0.00     0.022 A 
ATOM     13  C   UNL     1      26.623 -12.984  24.958  1.00  0.00     0.051 A 
ATOM     14  C   UNL     1      26.228 -14.329  24.942  1.00  0.00     0.157 A 
ATOM     15  C   UNL     1      24.522 -13.835  26.596  1.00  0.00     0.068 A 
ATOM     16  C   UNL     1      25.176 -14.756  25.768  1.00  0.00     0.158 A 
BRANCH  14  17
ATOM     17  O   UNL     1      26.880 -15.241  24.112  1.00  0.00    -0.504 OA
ATOM     18  H   UNL     1      26.694 -16.235  24.168  1.00  0.00     0.293 HD
ENDBRANCH  14  17
BRANCH  16  19
ATOM     19  O   UNL     1      24.769 -16.090  25.787  1.00  0.00    -0.504 OA
ATOM     20  H   UNL     1      24.913 -16.707  24.996  1.00  0.00     0.293 HD
ENDBRANCH  16  19
ENDBRANCH   1  11
BRANCH  10  21
ATOM     21  O   UNL     1      26.083 -11.514  29.085  1.00  0.00    -0.500 OA
ATOM     22  H   UNL     1      26.907 -10.924  29.097  1.00  0.00     0.294 HD
ENDBRANCH  10  21
BRANCH   5  23
ATOM     23  O   UNL     1      19.091  -8.410  27.768  1.00  0.00    -0.507 OA
ATOM     24  H   UNL     1      18.918  -8.123  26.812  1.00  0.00     0.293 HD
ENDBRANCH   5  23
BRANCH   7  25
ATOM     25  O   UNL     1      22.698  -8.169  30.977  1.00  0.00    -0.507 OA
ATOM     26  H   UNL     1      22.160  -8.136  31.836  1.00  0.00     0.293 HD
ENDBRANCH   7  25
TORSDOF 6
ENDMDL
MODEL 3
REMARK VINA RESULT:    -6.499      4.431      7.792
REMARK INTER + INTRA:          -8.156
REMARK INTER:                  -8.087
REMARK INTRA:                  -0.069
REMARK UNBOUND:                -0.327
REMARK SMILES Oc1cc(O)c2cc(O)c(-c3ccc(O)c(O)c3)[o+]c2c1.[Cl-]
REMARK SMILES IDX 10 1 19 2 20 3 21 4 2 5 3 6 4 7 6 8 7 9 8 10 11 11 12 12
REMARK SMILES IDX 13 13 14 14 18 15 16 16 15 17 17 19 9 21 1 23 5 25
REMARK H PARENT 15 18 17 20 9 22 1 24 5 26
REMARK Flexibility Score: inf
ROOT
ATOM      1  C   UNL     1      28.013 -11.846  25.071  1.00  0.00     0.402 A 
ATOM      2  O   UNL     1      28.518 -11.766  23.840  1.00  0.00    -0.202 OA
ATOM      3  C   UNL     1      29.480 -10.913  23.502  1.00  0.00     0.368 A 
ATOM      4  C   UNL     1      29.960 -10.896  22.189  1.00  0.00     0.162 A 
ATOM      5  C   UNL     1      30.975 -10.003  21.822  1.00  0.00     0.128 A 
ATOM      6  C   UNL     1      31.511  -9.127  22.771  1.00  0.00     0.093 A 
ATOM      7  C   UNL     1      31.040  -9.132  24.092  1.00  0.00     0.136 A 
ATOM      8  C   UNL     1      30.019 -10.029  24.462  1.00  0.00     0.125 A 
ATOM      9  C   UNL     1      29.504 -10.073  25.762  1.00  0.00     0.078 A 
ATOM     10  C   UNL     1      28.486 -10.977  26.076  1.00  0.00     0.223 A 
ENDROOT
BRANCH   1  11
ATOM     11  C   UNL     1      26.950 -12.843  25.328  1.00  0.00     0.087 A 
ATOM     12  C   UNL     1      25.717 -12.418  25.850  1.00  0.00     0.022 A 
ATOM     13  C   UNL     1      24.692 -13.339  26.080  1.00  0.00     0.051 A 
ATOM     14  C   UNL     1      24.877 -14.695  25.779  1.00  0.00     0.157 A 
ATOM     15  C   UNL     1      27.125 -14.201  25.007  1.00  0.00     0.068 A 
ATOM     16  C   UNL     1      26.099 -15.126  25.235  1.00  0.00     0.158 A 
BRANCH  14  17
ATOM     17  O   UNL     1      23.854 -15.612  26.013  1.00  0.00    -0.504 OA
ATOM     18  H   UNL     1      23.347 -16.046  25.250  1.00  0.00     0.293 HD
ENDBRANCH  14  17
BRANCH  16  19
ATOM     19  O   UNL     1      26.311 -16.466  24.911  1.00  0.00    -0.504 OA
ATOM     20  H   UNL     1      25.594 -17.033  24.476  1.00  0.00     0.293 HD
ENDBRANCH  16  19
ENDBRANCH   1  11
BRANCH  10  21
ATOM     21  O   UNL     1      27.934 -10.992  27.357  1.00  0.00    -0.500 OA
ATOM     22  H   UNL     1      27.170 -11.612  27.599  1.00  0.00     0.294 HD
ENDBRANCH  10  21
BRANCH   5  23
ATOM     23  O   UNL     1      31.459  -9.980  20.516  1.00  0.00    -0.507 OA
ATOM     24  H   UNL     1      31.866  -9.142  20.116  1.00  0.00     0.293 HD
ENDBRANCH   5  23
BRANCH   7  25
ATOM     25  O   UNL     1      31.582  -8.253  25.029  1.00  0.00    -0.507 OA
ATOM     26  H   UNL     1      32.150  -7.461  24.748  1.00  0.00     0.293 HD
ENDBRANCH   7  25
TORSDOF 6
ENDMDL
MODEL 4
REMARK VINA RESULT:    -6.417      1.385      7.042
REMARK INTER + INTRA:          -8.057
REMARK INTER:                  -7.764
REMARK INTRA:                  -0.293
REMARK UNBOUND:                -0.327
REMARK SMILES Oc1cc(O)c2cc(O)c(-c3ccc(O)c(O)c3)[o+]c2c1.[Cl-]
REMARK SMILES IDX 10 1 19 2 20 3 21 4 2 5 3 6 4 7 6 8 7 9 8 10 11 11 12 12
REMARK SMILES IDX 13 13 14 14 18 15 16 16 15 17 17 19 9 21 1 23 5 25
REMARK H PARENT 15 18 17 20 9 22 1 24 5 26
REMARK Flexibility Score: inf
ROOT
ATOM      1  C   UNL     1      27.655 -16.304  22.895  1.00  0.00     0.402 A 
ATOM      2  O   UNL     1      26.617 -16.374  23.727  1.00  0.00    -0.202 OA
ATOM      3  C   UNL     1      26.188 -15.339  24.442  1.00  0.00     0.368 A 
ATOM      4  C   UNL     1      25.087 -15.492  25.290  1.00  0.00     0.162 A 
ATOM      5  C   UNL     1      24.623 -14.407  26.046  1.00  0.00     0.128 A 
ATOM      6  C   UNL     1      25.263 -13.167  25.953  1.00  0.00     0.093 A 
ATOM      7  C   UNL     1      26.370 -12.998  25.108  1.00  0.00     0.136 A 
ATOM      8  C   UNL     1      26.836 -14.088  24.348  1.00  0.00     0.125 A 
ATOM      9  C   UNL     1      27.940 -13.980  23.494  1.00  0.00     0.078 A 
ATOM     10  C   UNL     1      28.367 -15.094  22.766  1.00  0.00     0.223 A 
ENDROOT
BRANCH   1  11
ATOM     11  C   UNL     1      28.034 -17.524  22.146  1.00  0.00     0.087 A 
ATOM     12  C   UNL     1      27.745 -17.609  20.775  1.00  0.00     0.022 A 
ATOM     13  C   UNL     1      28.112 -18.741  20.043  1.00  0.00     0.051 A 
ATOM     14  C   UNL     1      28.786 -19.799  20.668  1.00  0.00     0.157 A 
ATOM     15  C   UNL     1      28.730 -18.578  22.765  1.00  0.00     0.068 A 
ATOM     16  C   UNL     1      29.101 -19.714  22.034  1.00  0.00     0.158 A 
BRANCH  14  17
ATOM     17  O   UNL     1      29.149 -20.929  19.936  1.00  0.00    -0.504 OA
ATOM     18  H   UNL     1      28.616 -21.789  19.991  1.00  0.00     0.293 HD
ENDBRANCH  14  17
BRANCH  16  19
ATOM     19  O   UNL     1      29.784 -20.742  22.683  1.00  0.00    -0.504 OA
ATOM     20  H   UNL     1      30.083 -21.579  22.196  1.00  0.00     0.293 HD
ENDBRANCH  16  19
ENDBRANCH   1  11
BRANCH  10  21
ATOM     21  O   UNL     1      29.496 -15.007  21.952  1.00  0.00    -0.500 OA
ATOM     22  H   UNL     1      29.423 -14.805  20.962  1.00  0.00     0.294 HD
ENDBRANCH  10  21
BRANCH   5  23
ATOM     23  O   UNL     1      23.526 -14.551  26.893  1.00  0.00    -0.507 OA
ATOM     24  H   UNL     1      23.231 -15.461  27.228  1.00  0.00     0.293 HD
ENDBRANCH   5  23
BRANCH   7  25
ATOM     25  O   UNL     1      27.000 -11.757  25.025  1.00  0.00    -0.507 OA
ATOM     26  H   UNL     1      26.616 -10.935  25.477  1.00  0.00     0.293 HD
ENDBRANCH   7  25
TORSDOF 6
ENDMDL
MODEL 5
REMARK VINA RESULT:    -6.241      3.813      9.463
REMARK INTER + INTRA:          -7.845
REMARK INTER:                  -7.755
REMARK INTRA:                  -0.090
REMARK UNBOUND:                -0.327
REMARK SMILES Oc1cc(O)c2cc(O)c(-c3ccc(O)c(O)c3)[o+]c2c1.[Cl-]
REMARK SMILES IDX 10 1 19 2 20 3 21 4 2 5 3 6 4 7 6 8 7 9 8 10 11 11 12 12
REMARK SMILES IDX 13 13 14 14 18 15 16 16 15 17 17 19 9 21 1 23 5 25
REMARK H PARENT 15 18 17 20 9 22 1 24 5 26
REMARK Flexibility Score: inf
ROOT
ATOM      1  C   UNL     1      25.871 -12.475  26.937  1.00  0.00     0.402 A 
ATOM      2  O   UNL     1      24.620 -12.019  26.989  1.00  0.00    -0.202 OA
ATOM      3  C   UNL     1      24.170 -11.241  27.969  1.00  0.00     0.368 A 
ATOM      4  C   UNL     1      22.843 -10.800  27.948  1.00  0.00     0.162 A 
ATOM      5  C   UNL     1      22.358  -9.977  28.973  1.00  0.00     0.128 A 
ATOM      6  C   UNL     1      23.203  -9.595  30.020  1.00  0.00     0.093 A 
ATOM      7  C   UNL     1      24.536 -10.030  30.055  1.00  0.00     0.136 A 
ATOM      8  C   UNL     1      25.024 -10.857  29.025  1.00  0.00     0.125 A 
ATOM      9  C   UNL     1      26.342 -11.328  29.012  1.00  0.00     0.078 A 
ATOM     10  C   UNL     1      26.775 -12.152  27.970  1.00  0.00     0.223 A 
ENDROOT
BRANCH   1  11
ATOM     11  C   UNL     1      26.258 -13.327  25.790  1.00  0.00     0.087 A 
ATOM     12  C   UNL     1      25.446 -14.416  25.435  1.00  0.00     0.022 A 
ATOM     13  C   UNL     1      25.780 -15.222  24.344  1.00  0.00     0.051 A 
ATOM     14  C   UNL     1      26.922 -14.943  23.582  1.00  0.00     0.157 A 
ATOM     15  C   UNL     1      27.392 -13.037  25.010  1.00  0.00     0.068 A 
ATOM     16  C   UNL     1      27.728 -13.841  23.914  1.00  0.00     0.158 A 
BRANCH  14  17
ATOM     17  O   UNL     1      27.255 -15.750  22.495  1.00  0.00    -0.504 OA
ATOM     18  H   UNL     1      28.218 -15.890  22.214  1.00  0.00     0.293 HD
ENDBRANCH  14  17
BRANCH  16  19
ATOM     19  O   UNL     1      28.863 -13.527  23.167  1.00  0.00    -0.504 OA
ATOM     20  H   UNL     1      29.262 -12.596  23.162  1.00  0.00     0.293 HD
ENDBRANCH  16  19
ENDBRANCH   1  11
BRANCH  10  21
ATOM     21  O   UNL     1      28.072 -12.665  27.976  1.00  0.00    -0.500 OA
ATOM     22  H   UNL     1      28.362 -13.386  27.326  1.00  0.00     0.294 HD
ENDBRANCH  10  21
BRANCH   5  23
ATOM     23  O   UNL     1      21.038  -9.533  28.960  1.00  0.00    -0.507 OA
ATOM     24  H   UNL     1      20.525  -9.371  29.818  1.00  0.00     0.293 HD
ENDBRANCH   5  23
BRANCH   7  25
ATOM     25  O   UNL     1      25.369  -9.643  31.105  1.00  0.00    -0.507 OA
ATOM     26  H   UNL     1      25.524  -8.666  31.327  1.00  0.00     0.293 HD
ENDBRANCH   7  25
TORSDOF 6
ENDMDL
MODEL 6
REMARK VINA RESULT:    -5.978      4.636     10.177
REMARK INTER + INTRA:          -7.528
REMARK INTER:                  -7.441
REMARK INTRA:                  -0.087
REMARK UNBOUND:                -0.327
REMARK SMILES Oc1cc(O)c2cc(O)c(-c3ccc(O)c(O)c3)[o+]c2c1.[Cl-]
REMARK SMILES IDX 10 1 19 2 20 3 21 4 2 5 3 6 4 7 6 8 7 9 8 10 11 11 12 12
REMARK SMILES IDX 13 13 14 14 18 15 16 16 15 17 17 19 9 21 1 23 5 25
REMARK H PARENT 15 18 17 20 9 22 1 24 5 26
REMARK Flexibility Score: inf
ROOT
ATOM      1  C   UNL     1      25.904 -11.971  27.828  1.00  0.00     0.402 A 
ATOM      2  O   UNL     1      24.835 -11.239  28.136  1.00  0.00    -0.202 OA
ATOM      3  C   UNL     1      24.789 -10.424  29.185  1.00  0.00     0.368 A 
ATOM      4  C   UNL     1      23.630  -9.685  29.438  1.00  0.00     0.162 A 
ATOM      5  C   UNL     1      23.571  -8.820  30.538  1.00  0.00     0.128 A 
ATOM      6  C   UNL     1      24.675  -8.695  31.387  1.00  0.00     0.093 A 
ATOM      7  C   UNL     1      25.845  -9.430  31.147  1.00  0.00     0.136 A 
ATOM      8  C   UNL     1      25.905 -10.300  30.041  1.00  0.00     0.125 A 
ATOM      9  C   UNL     1      27.042 -11.064  29.758  1.00  0.00     0.078 A 
ATOM     10  C   UNL     1      27.048 -11.917  28.651  1.00  0.00     0.223 A 
ENDROOT
BRANCH   1  11
ATOM     11  C   UNL     1      25.838 -12.836  26.628  1.00  0.00     0.087 A 
ATOM     12  C   UNL     1      26.831 -12.727  25.642  1.00  0.00     0.022 A 
ATOM     13  C   UNL     1      26.800 -13.548  24.512  1.00  0.00     0.051 A 
ATOM     14  C   UNL     1      25.785 -14.501  24.358  1.00  0.00     0.157 A 
ATOM     15  C   UNL     1      24.832 -13.809  26.481  1.00  0.00     0.068 A 
ATOM     16  C   UNL     1      24.799 -14.635  25.350  1.00  0.00     0.158 A 
BRANCH  14  17
ATOM     17  O   UNL     1      25.754 -15.317  23.228  1.00  0.00    -0.504 OA
ATOM     18  H   UNL     1      26.606 -15.635  22.781  1.00  0.00     0.293 HD
ENDBRANCH  14  17
BRANCH  16  19
ATOM     19  O   UNL     1      23.783 -15.583  25.235  1.00  0.00    -0.504 OA
ATOM     20  H   UNL     1      23.328 -15.985  26.046  1.00  0.00     0.293 HD
ENDBRANCH  16  19
ENDBRANCH   1  11
BRANCH  10  21
ATOM     21  O   UNL     1      28.159 -12.719  28.391  1.00  0.00    -0.500 OA
ATOM     22  H   UNL     1      28.671 -12.652  27.519  1.00  0.00     0.294 HD
ENDBRANCH  10  21
BRANCH   5  23
ATOM     23  O   UNL     1      22.419  -8.079  30.797  1.00  0.00    -0.507 OA
ATOM     24  H   UNL     1      21.541  -8.289  30.338  1.00  0.00     0.293 HD
ENDBRANCH   5  23
BRANCH   7  25
ATOM     25  O   UNL     1      26.939  -9.297  32.002  1.00  0.00    -0.507 OA
ATOM     26  H   UNL     1      27.138  -8.425  32.479  1.00  0.00     0.293 HD
ENDBRANCH   7  25
TORSDOF 6
ENDMDL
MODEL 7
REMARK VINA RESULT:    -5.975      5.115      8.707
REMARK INTER + INTRA:          -7.524
REMARK INTER:                  -7.344
REMARK INTRA:                  -0.180
REMARK UNBOUND:                -0.327
REMARK SMILES Oc1cc(O)c2cc(O)c(-c3ccc(O)c(O)c3)[o+]c2c1.[Cl-]
REMARK SMILES IDX 10 1 19 2 20 3 21 4 2 5 3 6 4 7 6 8 7 9 8 10 11 11 12 12
REMARK SMILES IDX 13 13 14 14 18 15 16 16 15 17 17 19 9 21 1 23 5 25
REMARK H PARENT 15 18 17 20 9 22 1 24 5 26
REMARK Flexibility Score: inf
ROOT
ATOM      1  C   UNL     1      23.526 -11.247  28.380  1.00  0.00     0.402 A 
ATOM      2  O   UNL     1      23.502 -12.121  27.375  1.00  0.00    -0.202 OA
ATOM      3  C   UNL     1      24.601 -12.620  26.819  1.00  0.00     0.368 A 
ATOM      4  C   UNL     1      24.491 -13.538  25.771  1.00  0.00     0.162 A 
ATOM      5  C   UNL     1      25.643 -14.074  25.178  1.00  0.00     0.128 A 
ATOM      6  C   UNL     1      26.907 -13.689  25.638  1.00  0.00     0.093 A 
ATOM      7  C   UNL     1      27.033 -12.768  26.688  1.00  0.00     0.136 A 
ATOM      8  C   UNL     1      25.876 -12.230  27.283  1.00  0.00     0.125 A 
ATOM      9  C   UNL     1      25.942 -11.302  28.329  1.00  0.00     0.078 A 
ATOM     10  C   UNL     1      24.763 -10.793  28.881  1.00  0.00     0.223 A 
ENDROOT
BRANCH   1  11
ATOM     11  C   UNL     1      22.234 -10.769  28.923  1.00  0.00     0.087 A 
ATOM     12  C   UNL     1      21.914 -11.020  30.266  1.00  0.00     0.022 A 
ATOM     13  C   UNL     1      20.710 -10.560  30.805  1.00  0.00     0.051 A 
ATOM     14  C   UNL     1      19.814  -9.829  30.013  1.00  0.00     0.157 A 
ATOM     15  C   UNL     1      21.342 -10.017  28.136  1.00  0.00     0.068 A 
ATOM     16  C   UNL     1      20.135  -9.553  28.673  1.00  0.00     0.158 A 
BRANCH  14  17
ATOM     17  O   UNL     1      18.612  -9.374  30.552  1.00  0.00    -0.504 OA
ATOM     18  H   UNL     1      18.349  -8.396  30.510  1.00  0.00     0.293 HD
ENDBRANCH  14  17
BRANCH  16  19
ATOM     19  O   UNL     1      19.272  -8.816  27.862  1.00  0.00    -0.504 OA
ATOM     20  H   UNL     1      18.805  -7.981  28.194  1.00  0.00     0.293 HD
ENDBRANCH  16  19
ENDBRANCH   1  11
BRANCH  10  21
ATOM     21  O   UNL     1      24.822  -9.830  29.889  1.00  0.00    -0.500 OA
ATOM     22  H   UNL     1      25.066  -8.867  29.690  1.00  0.00     0.294 HD
ENDBRANCH  10  21
BRANCH   5  23
ATOM     23  O   UNL     1      25.542 -14.989  24.133  1.00  0.00    -0.507 OA
ATOM     24  H   UNL     1      25.042 -14.767  23.281  1.00  0.00     0.293 HD
ENDBRANCH   5  23
BRANCH   7  25
ATOM     25  O   UNL     1      28.299 -12.392  27.136  1.00  0.00    -0.507 OA
ATOM     26  H   UNL     1      29.107 -12.991  27.010  1.00  0.00     0.293 HD
ENDBRANCH   7  25
TORSDOF 6
ENDMDL
MODEL 8
REMARK VINA RESULT:    -5.954      3.809      6.261
REMARK INTER + INTRA:          -7.499
REMARK INTER:                  -7.427
REMARK INTRA:                  -0.072
REMARK UNBOUND:                -0.327
REMARK SMILES Oc1cc(O)c2cc(O)c(-c3ccc(O)c(O)c3)[o+]c2c1.[Cl-]
REMARK SMILES IDX 10 1 19 2 20 3 21 4 2 5 3 6 4 7 6 8 7 9 8 10 11 11 12 12
REMARK SMILES IDX 13 13 14 14 18 15 16 16 15 17 17 19 9 21 1 23 5 25
REMARK H PARENT 15 18 17 20 9 22 1 24 5 26
REMARK Flexibility Score: inf
ROOT
ATOM      1  C   UNL     1      25.474 -12.603  26.616  1.00  0.00     0.402 A 
ATOM      2  O   UNL     1      26.593 -12.191  26.023  1.00  0.00    -0.202 OA
ATOM      3  C   UNL     1      27.200 -12.876  25.059  1.00  0.00     0.368 A 
ATOM      4  C   UNL     1      28.370 -12.372  24.483  1.00  0.00     0.162 A 
ATOM      5  C   UNL     1      29.017 -13.083  23.463  1.00  0.00     0.128 A 
ATOM      6  C   UNL     1      28.491 -14.301  23.021  1.00  0.00     0.093 A 
ATOM      7  C   UNL     1      27.319 -14.820  23.590  1.00  0.00     0.136 A 
ATOM      8  C   UNL     1      26.668 -14.106  24.614  1.00  0.00     0.125 A 
ATOM      9  C   UNL     1      25.501 -14.578  25.223  1.00  0.00     0.078 A 
ATOM     10  C   UNL     1      24.898 -13.834  26.241  1.00  0.00     0.223 A 
ENDROOT
BRANCH   1  11
ATOM     11  C   UNL     1      24.886 -11.748  27.672  1.00  0.00     0.087 A 
ATOM     12  C   UNL     1      25.711 -11.241  28.688  1.00  0.00     0.022 A 
ATOM     13  C   UNL     1      25.182 -10.415  29.683  1.00  0.00     0.051 A 
ATOM     14  C   UNL     1      23.824 -10.072  29.669  1.00  0.00     0.157 A 
ATOM     15  C   UNL     1      23.527 -11.385  27.649  1.00  0.00     0.068 A 
ATOM     16  C   UNL     1      22.994 -10.556  28.644  1.00  0.00     0.158 A 
BRANCH  14  17
ATOM     17  O   UNL     1      23.297  -9.250  30.665  1.00  0.00    -0.504 OA
ATOM     18  H   UNL     1      22.629  -8.519  30.451  1.00  0.00     0.293 HD
ENDBRANCH  14  17
BRANCH  16  19
ATOM     19  O   UNL     1      21.641 -10.221  28.593  1.00  0.00    -0.504 OA
ATOM     20  H   UNL     1      20.977 -10.752  28.042  1.00  0.00     0.293 HD
ENDBRANCH  16  19
ENDBRANCH   1  11
BRANCH  10  21
ATOM     21  O   UNL     1      23.762 -14.323  26.887  1.00  0.00    -0.500 OA
ATOM     22  H   UNL     1      22.890 -14.466  26.392  1.00  0.00     0.294 HD
ENDBRANCH  10  21
BRANCH   5  23
ATOM     23  O   UNL     1      30.183 -12.587  22.884  1.00  0.00    -0.507 OA
ATOM     24  H   UNL     1      31.096 -12.940  23.145  1.00  0.00     0.293 HD
ENDBRANCH   5  23
BRANCH   7  25
ATOM     25  O   UNL     1      26.806 -16.036  23.140  1.00  0.00    -0.507 OA
ATOM     26  H   UNL     1      26.677 -16.226  22.152  1.00  0.00     0.293 HD
ENDBRANCH   7  25
TORSDOF 6
ENDMDL
MODEL 9
REMARK VINA RESULT:    -5.914      4.738      8.685
REMARK INTER + INTRA:          -7.450
REMARK INTER:                  -7.380
REMARK INTRA:                  -0.070
REMARK UNBOUND:                -0.327
REMARK SMILES Oc1cc(O)c2cc(O)c(-c3ccc(O)c(O)c3)[o+]c2c1.[Cl-]
REMARK SMILES IDX 10 1 19 2 20 3 21 4 2 5 3 6 4 7 6 8 7 9 8 10 11 11 12 12
REMARK SMILES IDX 13 13 14 14 18 15 16 16 15 17 17 19 9 21 1 23 5 25
REMARK H PARENT 15 18 17 20 9 22 1 24 5 26
REMARK Flexibility Score: inf
ROOT
ATOM      1  C   UNL     1      27.738 -11.651  26.278  1.00  0.00     0.402 A 
ATOM      2  O   UNL     1      28.051 -11.117  27.458  1.00  0.00    -0.202 OA
ATOM      3  C   UNL     1      28.973 -10.170  27.605  1.00  0.00     0.368 A 
ATOM      4  C   UNL     1      29.240  -9.656  28.878  1.00  0.00     0.162 A 
ATOM      5  C   UNL     1      30.206  -8.656  29.046  1.00  0.00     0.128 A 
ATOM      6  C   UNL     1      30.906  -8.169  27.937  1.00  0.00     0.093 A 
ATOM      7  C   UNL     1      30.650  -8.674  26.654  1.00  0.00     0.136 A 
ATOM      8  C   UNL     1      29.678  -9.680  26.485  1.00  0.00     0.125 A 
ATOM      9  C   UNL     1      29.386 -10.227  25.231  1.00  0.00     0.078 A 
ATOM     10  C   UNL     1      28.418 -11.229  25.118  1.00  0.00     0.223 A 
ENDROOT
BRANCH   1  11
ATOM     11  C   UNL     1      26.688 -12.694  26.239  1.00  0.00     0.087 A 
ATOM     12  C   UNL     1      25.408 -12.403  26.738  1.00  0.00     0.022 A 
ATOM     13  C   UNL     1      24.395 -13.365  26.692  1.00  0.00     0.051 A 
ATOM     14  C   UNL     1      24.643 -14.626  26.134  1.00  0.00     0.157 A 
ATOM     15  C   UNL     1      26.927 -13.954  25.661  1.00  0.00     0.068 A 
ATOM     16  C   UNL     1      25.914 -14.919  25.612  1.00  0.00     0.158 A 
BRANCH  14  17
ATOM     17  O   UNL     1      23.632 -15.585  26.092  1.00  0.00    -0.504 OA
ATOM     18  H   UNL     1      23.237 -15.902  25.214  1.00  0.00     0.293 HD
ENDBRANCH  14  17
BRANCH  16  19
ATOM     19  O   UNL     1      26.189 -16.159  25.036  1.00  0.00    -0.504 OA
ATOM     20  H   UNL     1      25.521 -16.921  25.056  1.00  0.00     0.293 HD
ENDBRANCH  16  19
ENDBRANCH   1  11
BRANCH  10  21
ATOM     21  O   UNL     1      28.158 -11.813  23.879  1.00  0.00    -0.500 OA
ATOM     22  H   UNL     1      27.459 -11.436  23.249  1.00  0.00     0.294 HD
ENDBRANCH  10  21
BRANCH   5  23
ATOM     23  O   UNL     1      30.478  -8.139  30.311  1.00  0.00    -0.507 OA
ATOM     24  H   UNL     1      29.883  -7.438  30.735  1.00  0.00     0.293 HD
ENDBRANCH   5  23
BRANCH   7  25
ATOM     25  O   UNL     1      31.355  -8.181  25.557  1.00  0.00    -0.507 OA
ATOM     26  H   UNL     1      31.064  -7.338  25.074  1.00  0.00     0.293 HD
ENDBRANCH   7  25
TORSDOF 6
ENDMDL
