MODEL 1
REMARK VINA RESULT:    -5.627      0.000      0.000
REMARK INTER + INTRA:          -6.886
REMARK INTER:                  -6.614
REMARK INTRA:                  -0.272
REMARK UNBOUND:                -0.272
REMARK SMILES O=c1cc(-c2ccc(O)c(O)c2)oc2cc(O)cc(O)c12
REMARK SMILES IDX 4 1 3 2 2 3 1 4 21 5 19 6 18 7 16 8 15 9 14 10 13 11 5 12
REMARK SMILES IDX 6 13 7 14 8 15 12 16 10 17 9 18 11 20 20 22 17 24
REMARK H PARENT 9 19 11 21 20 23 17 25
REMARK Flexibility Score: inf
ROOT
ATOM      1  C   UNL     1       2.716  -4.615  -8.374  1.00  0.00     0.138 A 
ATOM      2  C   UNL     1       3.737  -4.958  -9.271  1.00  0.00     0.100 A 
ATOM      3  C   UNL     1       4.849  -5.665  -8.811  1.00  0.00     0.197 A 
ATOM      4  O   UNL     1       5.720  -6.013  -9.651  1.00  0.00    -0.289 OA
ATOM      5  C   UNL     1       4.952  -6.002  -7.441  1.00  0.00     0.107 A 
ATOM      6  C   UNL     1       6.059  -6.684  -6.853  1.00  0.00     0.134 A 
ATOM      7  C   UNL     1       5.999  -7.067  -5.507  1.00  0.00     0.093 A 
ATOM      8  C   UNL     1       4.900  -6.738  -4.714  1.00  0.00     0.123 A 
ATOM      9  C   UNL     1       3.835  -6.023  -5.265  1.00  0.00     0.094 A 
ATOM     10  C   UNL     1       3.851  -5.658  -6.613  1.00  0.00     0.146 A 
ATOM     11  O   UNL     1       2.812  -4.990  -7.102  1.00  0.00    -0.456 OA
ENDROOT
BRANCH   1  12
ATOM     12  C   UNL     1       1.512  -3.862  -8.807  1.00  0.00     0.021 A 
ATOM     13  C   UNL     1       0.611  -4.457  -9.706  1.00  0.00     0.016 A 
ATOM     14  C   UNL     1      -0.534  -3.773 -10.124  1.00  0.00     0.051 A 
ATOM     15  C   UNL     1      -0.802  -2.488  -9.646  1.00  0.00     0.157 A 
ATOM     16  C   UNL     1       1.230  -2.571  -8.318  1.00  0.00     0.062 A 
ATOM     17  C   UNL     1       0.080  -1.884  -8.736  1.00  0.00     0.158 A 
BRANCH  15  18
ATOM     18  O   UNL     1      -1.952  -1.829 -10.082  1.00  0.00    -0.504 OA
ATOM     19  H   UNL     1      -2.573  -2.231 -10.774  1.00  0.00     0.293 HD
ENDBRANCH  15  18
BRANCH  17  20
ATOM     20  O   UNL     1      -0.188  -0.606  -8.247  1.00  0.00    -0.504 OA
ATOM     21  H   UNL     1      -0.352   0.177  -8.869  1.00  0.00     0.293 HD
ENDBRANCH  17  20
ENDBRANCH   1  12
BRANCH   6  22
ATOM     22  O   UNL     1       7.242  -6.986  -7.535  1.00  0.00    -0.507 OA
ATOM     23  H   UNL     1       7.714  -6.366  -8.175  1.00  0.00     0.293 HD
ENDBRANCH   6  22
BRANCH   8  24
ATOM     24  O   UNL     1       4.880  -7.122  -3.374  1.00  0.00    -0.508 OA
ATOM     25  H   UNL     1       5.607  -7.707  -2.980  1.00  0.00     0.293 HD
ENDBRANCH   8  24
TORSDOF 5
ENDMDL
MODEL 2
REMARK VINA RESULT:    -5.541      1.753      3.669
REMARK INTER + INTRA:          -6.785
REMARK INTER:                  -6.515
REMARK INTRA:                  -0.270
REMARK UNBOUND:                -0.272
REMARK SMILES O=c1cc(-c2ccc(O)c(O)c2)oc2cc(O)cc(O)c12
REMARK SMILES IDX 4 1 3 2 2 3 1 4 21 5 19 6 18 7 16 8 15 9 14 10 13 11 5 12
REMARK SMILES IDX 6 13 7 14 8 15 12 16 10 17 9 18 11 20 20 22 17 24
REMARK H PARENT 9 19 11 21 20 23 17 25
REMARK Flexibility Score: inf
ROOT
ATOM      1  C   UNL     1       4.109  -5.568  -6.911  1.00  0.00     0.138 A 
ATOM      2  C   UNL     1       3.991  -6.020  -5.589  1.00  0.00     0.100 A 
ATOM      3  C   UNL     1       5.016  -6.784  -5.027  1.00  0.00     0.197 A 
ATOM      4  O   UNL     1       4.910  -7.122  -3.820  1.00  0.00    -0.289 OA
ATOM      5  C   UNL     1       6.149  -7.121  -5.804  1.00  0.00     0.107 A 
ATOM      6  C   UNL     1       7.235  -7.928  -5.350  1.00  0.00     0.134 A 
ATOM      7  C   UNL     1       8.358  -8.100  -6.169  1.00  0.00     0.093 A 
ATOM      8  C   UNL     1       8.408  -7.545  -7.447  1.00  0.00     0.123 A 
ATOM      9  C   UNL     1       7.328  -6.799  -7.923  1.00  0.00     0.094 A 
ATOM     10  C   UNL     1       6.209  -6.581  -7.116  1.00  0.00     0.146 A 
ATOM     11  O   UNL     1       5.209  -5.854  -7.601  1.00  0.00    -0.456 OA
ENDROOT
BRANCH   1  12
ATOM     12  C   UNL     1       3.050  -4.755  -7.559  1.00  0.00     0.021 A 
ATOM     13  C   UNL     1       2.902  -3.403  -7.205  1.00  0.00     0.016 A 
ATOM     14  C   UNL     1       1.917  -2.615  -7.806  1.00  0.00     0.051 A 
ATOM     15  C   UNL     1       1.070  -3.158  -8.774  1.00  0.00     0.157 A 
ATOM     16  C   UNL     1       2.202  -5.295  -8.546  1.00  0.00     0.062 A 
ATOM     17  C   UNL     1       1.214  -4.503  -9.150  1.00  0.00     0.158 A 
BRANCH  15  18
ATOM     18  O   UNL     1       0.096  -2.346  -9.355  1.00  0.00    -0.504 OA
ATOM     19  H   UNL     1      -0.051  -2.315 -10.357  1.00  0.00     0.293 HD
ENDBRANCH  15  18
BRANCH  17  20
ATOM     20  O   UNL     1       0.378  -5.048 -10.125  1.00  0.00    -0.504 OA
ATOM     21  H   UNL     1      -0.552  -4.683 -10.291  1.00  0.00     0.293 HD
ENDBRANCH  17  20
ENDBRANCH   1  12
BRANCH   6  22
ATOM     22  O   UNL     1       7.249  -8.598  -4.122  1.00  0.00    -0.507 OA
ATOM     23  H   UNL     1       6.582  -9.299  -3.839  1.00  0.00     0.293 HD
ENDBRANCH   6  22
BRANCH   8  24
ATOM     24  O   UNL     1       9.535  -7.749  -8.241  1.00  0.00    -0.508 OA
ATOM     25  H   UNL     1       9.838  -7.059  -8.918  1.00  0.00     0.293 HD
ENDBRANCH   8  24
TORSDOF 5
ENDMDL
MODEL 3
REMARK VINA RESULT:    -5.264      2.188      7.396
REMARK INTER + INTRA:          -6.460
REMARK INTER:                  -6.197
REMARK INTRA:                  -0.263
REMARK UNBOUND:                -0.272
REMARK SMILES O=c1cc(-c2ccc(O)c(O)c2)oc2cc(O)cc(O)c12
REMARK SMILES IDX 4 1 3 2 2 3 1 4 21 5 19 6 18 7 16 8 15 9 14 10 13 11 5 12
REMARK SMILES IDX 6 13 7 14 8 15 12 16 10 17 9 18 11 20 20 22 17 24
REMARK H PARENT 9 19 11 21 20 23 17 25
REMARK Flexibility Score: inf
ROOT
ATOM      1  C   UNL     1       4.897  -6.815  -7.002  1.00  0.00     0.138 A 
ATOM      2  C   UNL     1       4.338  -7.643  -7.986  1.00  0.00     0.100 A 
ATOM      3  C   UNL     1       3.272  -7.175  -8.756  1.00  0.00     0.197 A 
ATOM      4  O   UNL     1       2.832  -7.916  -9.673  1.00  0.00    -0.289 OA
ATOM      5  C   UNL     1       2.745  -5.884  -8.518  1.00  0.00     0.107 A 
ATOM      6  C   UNL     1       1.634  -5.319  -9.213  1.00  0.00     0.134 A 
ATOM      7  C   UNL     1       1.273  -3.988  -8.972  1.00  0.00     0.093 A 
ATOM      8  C   UNL     1       1.943  -3.221  -8.018  1.00  0.00     0.123 A 
ATOM      9  C   UNL     1       2.997  -3.781  -7.293  1.00  0.00     0.094 A 
ATOM     10  C   UNL     1       3.402  -5.095  -7.537  1.00  0.00     0.146 A 
ATOM     11  O   UNL     1       4.418  -5.586  -6.835  1.00  0.00    -0.456 OA
ENDROOT
BRANCH   1  12
ATOM     12  C   UNL     1       6.030  -7.262  -6.153  1.00  0.00     0.021 A 
ATOM     13  C   UNL     1       5.769  -7.860  -4.909  1.00  0.00     0.016 A 
ATOM     14  C   UNL     1       6.817  -8.295  -4.095  1.00  0.00     0.051 A 
ATOM     15  C   UNL     1       8.143  -8.150  -4.511  1.00  0.00     0.157 A 
ATOM     16  C   UNL     1       7.369  -7.129  -6.575  1.00  0.00     0.062 A 
ATOM     17  C   UNL     1       8.421  -7.567  -5.758  1.00  0.00     0.158 A 
BRANCH  15  18
ATOM     18  O   UNL     1       9.168  -8.592  -3.676  1.00  0.00    -0.504 OA
ATOM     19  H   UNL     1      10.037  -8.082  -3.573  1.00  0.00     0.293 HD
ENDBRANCH  15  18
BRANCH  17  20
ATOM     20  O   UNL     1       9.742  -7.429  -6.184  1.00  0.00    -0.504 OA
ATOM     21  H   UNL     1      10.462  -8.084  -5.902  1.00  0.00     0.293 HD
ENDBRANCH  17  20
ENDBRANCH   1  12
BRANCH   6  22
ATOM     22  O   UNL     1       0.842  -6.025 -10.125  1.00  0.00    -0.507 OA
ATOM     23  H   UNL     1       1.154  -6.812 -10.671  1.00  0.00     0.293 HD
ENDBRANCH   6  22
BRANCH   8  24
ATOM     24  O   UNL     1       1.548  -1.904  -7.794  1.00  0.00    -0.508 OA
ATOM     25  H   UNL     1       0.665  -1.685  -7.347  1.00  0.00     0.293 HD
ENDBRANCH   8  24
TORSDOF 5
ENDMDL
MODEL 4
REMARK VINA RESULT:    -5.140      1.360      2.932
REMARK INTER + INTRA:          -6.314
REMARK INTER:                  -6.049
REMARK INTRA:                  -0.264
REMARK UNBOUND:                -0.272
REMARK SMILES O=c1cc(-c2ccc(O)c(O)c2)oc2cc(O)cc(O)c12
REMARK SMILES IDX 4 1 3 2 2 3 1 4 21 5 19 6 18 7 16 8 15 9 14 10 13 11 5 12
REMARK SMILES IDX 6 13 7 14 8 15 12 16 10 17 9 18 11 20 20 22 17 24
REMARK H PARENT 9 19 11 21 20 23 17 25
REMARK Flexibility Score: inf
ROOT
ATOM      1  C   UNL     1       3.475  -5.343  -7.387  1.00  0.00     0.138 A 
ATOM      2  C   UNL     1       3.293  -5.828  -6.084  1.00  0.00     0.100 A 
ATOM      3  C   UNL     1       4.312  -6.561  -5.474  1.00  0.00     0.197 A 
ATOM      4  O   UNL     1       4.146  -6.928  -4.282  1.00  0.00    -0.289 OA
ATOM      5  C   UNL     1       5.505  -6.835  -6.184  1.00  0.00     0.107 A 
ATOM      6  C   UNL     1       6.593  -7.607  -5.677  1.00  0.00     0.134 A 
ATOM      7  C   UNL     1       7.771  -7.715  -6.427  1.00  0.00     0.093 A 
ATOM      8  C   UNL     1       7.877  -7.132  -7.689  1.00  0.00     0.123 A 
ATOM      9  C   UNL     1       6.799  -6.421  -8.218  1.00  0.00     0.094 A 
ATOM     10  C   UNL     1       5.624  -6.266  -7.479  1.00  0.00     0.146 A 
ATOM     11  O   UNL     1       4.626  -5.569  -8.013  1.00  0.00    -0.456 OA
ENDROOT
BRANCH   1  12
ATOM     12  C   UNL     1       2.424  -4.560  -8.086  1.00  0.00     0.021 A 
ATOM     13  C   UNL     1       1.745  -5.131  -9.175  1.00  0.00     0.016 A 
ATOM     14  C   UNL     1       0.747  -4.417  -9.844  1.00  0.00     0.051 A 
ATOM     15  C   UNL     1       0.405  -3.127  -9.434  1.00  0.00     0.157 A 
ATOM     16  C   UNL     1       2.067  -3.263  -7.667  1.00  0.00     0.062 A 
ATOM     17  C   UNL     1       1.064  -2.547  -8.337  1.00  0.00     0.158 A 
BRANCH  15  18
ATOM     18  O   UNL     1      -0.594  -2.439 -10.122  1.00  0.00    -0.504 OA
ATOM     19  H   UNL     1      -0.982  -2.782 -10.992  1.00  0.00     0.293 HD
ENDBRANCH  15  18
BRANCH  17  20
ATOM     20  O   UNL     1       0.719  -1.263  -7.916  1.00  0.00    -0.504 OA
ATOM     21  H   UNL     1       1.414  -0.532  -7.816  1.00  0.00     0.293 HD
ENDBRANCH  17  20
ENDBRANCH   1  12
BRANCH   6  22
ATOM     22  O   UNL     1       6.559  -8.302  -4.464  1.00  0.00    -0.507 OA
ATOM     23  H   UNL     1       5.863  -8.176  -3.746  1.00  0.00     0.293 HD
ENDBRANCH   6  22
BRANCH   8  24
ATOM     24  O   UNL     1       9.059  -7.273  -8.414  1.00  0.00    -0.508 OA
ATOM     25  H   UNL     1       9.963  -7.286  -7.956  1.00  0.00     0.293 HD
ENDBRANCH   8  24
TORSDOF 5
ENDMDL
MODEL 5
REMARK VINA RESULT:    -4.964     12.574     15.637
REMARK INTER + INTRA:          -6.107
REMARK INTER:                  -5.838
REMARK INTRA:                  -0.270
REMARK UNBOUND:                -0.272
REMARK SMILES O=c1cc(-c2ccc(O)c(O)c2)oc2cc(O)cc(O)c12
REMARK SMILES IDX 4 1 3 2 2 3 1 4 21 5 19 6 18 7 16 8 15 9 14 10 13 11 5 12
REMARK SMILES IDX 6 13 7 14 8 15 12 16 10 17 9 18 11 20 20 22 17 24
REMARK H PARENT 9 19 11 21 20 23 17 25
REMARK Flexibility Score: inf
ROOT
ATOM      1  C   UNL     1      -6.974   6.954  -6.070  1.00  0.00     0.138 A 
ATOM      2  C   UNL     1      -7.537   6.071  -7.002  1.00  0.00     0.100 A 
ATOM      3  C   UNL     1      -6.725   5.488  -7.976  1.00  0.00     0.197 A 
ATOM      4  O   UNL     1      -7.245   4.651  -8.759  1.00  0.00    -0.289 OA
ATOM      5  C   UNL     1      -5.350   5.817  -8.036  1.00  0.00     0.107 A 
ATOM      6  C   UNL     1      -4.436   5.316  -9.011  1.00  0.00     0.134 A 
ATOM      7  C   UNL     1      -3.074   5.620  -8.901  1.00  0.00     0.093 A 
ATOM      8  C   UNL     1      -2.602   6.456  -7.889  1.00  0.00     0.123 A 
ATOM      9  C   UNL     1      -3.495   6.996  -6.962  1.00  0.00     0.094 A 
ATOM     10  C   UNL     1      -4.854   6.682  -7.025  1.00  0.00     0.146 A 
ATOM     11  O   UNL     1      -5.669   7.205  -6.115  1.00  0.00    -0.456 OA
ENDROOT
BRANCH   1  12
ATOM     12  C   UNL     1      -7.790   7.604  -5.014  1.00  0.00     0.021 A 
ATOM     13  C   UNL     1      -7.804   9.006  -4.915  1.00  0.00     0.016 A 
ATOM     14  C   UNL     1      -8.571   9.641  -3.934  1.00  0.00     0.051 A 
ATOM     15  C   UNL     1      -9.341   8.891  -3.042  1.00  0.00     0.157 A 
ATOM     16  C   UNL     1      -8.579   6.852  -4.121  1.00  0.00     0.062 A 
ATOM     17  C   UNL     1      -9.349   7.490  -3.137  1.00  0.00     0.158 A 
BRANCH  15  18
ATOM     18  O   UNL     1     -10.094   9.554  -2.073  1.00  0.00    -0.504 OA
ATOM     19  H   UNL     1     -11.022   9.910  -2.264  1.00  0.00     0.293 HD
ENDBRANCH  15  18
BRANCH  17  20
ATOM     20  O   UNL     1     -10.125   6.736  -2.256  1.00  0.00    -0.504 OA
ATOM     21  H   UNL     1     -11.041   6.392  -2.518  1.00  0.00     0.293 HD
ENDBRANCH  17  20
ENDBRANCH   1  12
BRANCH   6  22
ATOM     22  O   UNL     1      -4.816   4.542 -10.112  1.00  0.00    -0.507 OA
ATOM     23  H   UNL     1      -4.586   4.751 -11.072  1.00  0.00     0.293 HD
ENDBRANCH   6  22
BRANCH   8  24
ATOM     24  O   UNL     1      -1.242   6.749  -7.819  1.00  0.00    -0.508 OA
ATOM     25  H   UNL     1      -0.625   6.598  -8.609  1.00  0.00     0.293 HD
ENDBRANCH   8  24
TORSDOF 5
ENDMDL
MODEL 6
REMARK VINA RESULT:    -4.953      1.345      1.998
REMARK INTER + INTRA:          -6.094
REMARK INTER:                  -5.827
REMARK INTRA:                  -0.267
REMARK UNBOUND:                -0.272
REMARK SMILES O=c1cc(-c2ccc(O)c(O)c2)oc2cc(O)cc(O)c12
REMARK SMILES IDX 4 1 3 2 2 3 1 4 21 5 19 6 18 7 16 8 15 9 14 10 13 11 5 12
REMARK SMILES IDX 6 13 7 14 8 15 12 16 10 17 9 18 11 20 20 22 17 24
REMARK H PARENT 9 19 11 21 20 23 17 25
REMARK Flexibility Score: inf
ROOT
ATOM      1  C   UNL     1       3.512  -5.164  -7.632  1.00  0.00     0.138 A 
ATOM      2  C   UNL     1       4.750  -5.243  -8.284  1.00  0.00     0.100 A 
ATOM      3  C   UNL     1       5.726  -6.121  -7.807  1.00  0.00     0.197 A 
ATOM      4  O   UNL     1       6.803  -6.216  -8.449  1.00  0.00    -0.289 OA
ATOM      5  C   UNL     1       5.469  -6.898  -6.653  1.00  0.00     0.107 A 
ATOM      6  C   UNL     1       6.403  -7.795  -6.053  1.00  0.00     0.134 A 
ATOM      7  C   UNL     1       5.997  -8.599  -4.981  1.00  0.00     0.093 A 
ATOM      8  C   UNL     1       4.712  -8.495  -4.448  1.00  0.00     0.123 A 
ATOM      9  C   UNL     1       3.808  -7.582  -4.993  1.00  0.00     0.094 A 
ATOM     10  C   UNL     1       4.172  -6.792  -6.085  1.00  0.00     0.146 A 
ATOM     11  O   UNL     1       3.277  -5.945  -6.582  1.00  0.00    -0.456 OA
ENDROOT
BRANCH   1  12
ATOM     12  C   UNL     1       2.440  -4.247  -8.095  1.00  0.00     0.021 A 
ATOM     13  C   UNL     1       2.497  -2.886  -7.751  1.00  0.00     0.016 A 
ATOM     14  C   UNL     1       1.504  -2.001  -8.181  1.00  0.00     0.051 A 
ATOM     15  C   UNL     1       0.443  -2.457  -8.966  1.00  0.00     0.157 A 
ATOM     16  C   UNL     1       1.375  -4.700  -8.899  1.00  0.00     0.062 A 
ATOM     17  C   UNL     1       0.378  -3.812  -9.331  1.00  0.00     0.158 A 
BRANCH  15  18
ATOM     18  O   UNL     1      -0.533  -1.551  -9.379  1.00  0.00    -0.504 OA
ATOM     19  H   UNL     1      -1.517  -1.698  -9.190  1.00  0.00     0.293 HD
ENDBRANCH  15  18
BRANCH  17  20
ATOM     20  O   UNL     1      -0.673  -4.271 -10.125  1.00  0.00    -0.504 OA
ATOM     21  H   UNL     1      -0.754  -5.247 -10.385  1.00  0.00     0.293 HD
ENDBRANCH  17  20
ENDBRANCH   1  12
BRANCH   6  22
ATOM     22  O   UNL     1       7.738  -7.916  -6.454  1.00  0.00    -0.507 OA
ATOM     23  H   UNL     1       8.145  -8.742  -6.863  1.00  0.00     0.293 HD
ENDBRANCH   6  22
BRANCH   8  24
ATOM     24  O   UNL     1       4.348  -9.300  -3.372  1.00  0.00    -0.508 OA
ATOM     25  H   UNL     1       3.476  -9.158  -2.874  1.00  0.00     0.293 HD
ENDBRANCH   8  24
TORSDOF 5
ENDMDL
MODEL 7
REMARK VINA RESULT:    -4.866     13.406     16.711
REMARK INTER + INTRA:          -5.991
REMARK INTER:                  -5.724
REMARK INTRA:                  -0.268
REMARK UNBOUND:                -0.272
REMARK SMILES O=c1cc(-c2ccc(O)c(O)c2)oc2cc(O)cc(O)c12
REMARK SMILES IDX 4 1 3 2 2 3 1 4 21 5 19 6 18 7 16 8 15 9 14 10 13 11 5 12
REMARK SMILES IDX 6 13 7 14 8 15 12 16 10 17 9 18 11 20 20 22 17 24
REMARK H PARENT 9 19 11 21 20 23 17 25
REMARK Flexibility Score: inf
ROOT
ATOM      1  C   UNL     1      -6.904   8.275  -5.611  1.00  0.00     0.138 A 
ATOM      2  C   UNL     1      -7.333   9.083  -6.673  1.00  0.00     0.100 A 
ATOM      3  C   UNL     1      -6.519   9.235  -7.796  1.00  0.00     0.197 A 
ATOM      4  O   UNL     1      -6.957   9.915  -8.760  1.00  0.00    -0.289 OA
ATOM      5  C   UNL     1      -5.256   8.598  -7.842  1.00  0.00     0.107 A 
ATOM      6  C   UNL     1      -4.325   8.714  -8.917  1.00  0.00     0.134 A 
ATOM      7  C   UNL     1      -3.155   7.946  -8.904  1.00  0.00     0.093 A 
ATOM      8  C   UNL     1      -2.853   7.112  -7.827  1.00  0.00     0.123 A 
ATOM      9  C   UNL     1      -3.731   7.032  -6.744  1.00  0.00     0.094 A 
ATOM     10  C   UNL     1      -4.922   7.760  -6.745  1.00  0.00     0.146 A 
ATOM     11  O   UNL     1      -5.737   7.644  -5.702  1.00  0.00    -0.456 OA
ENDROOT
BRANCH   1  12
ATOM     12  C   UNL     1      -7.728   8.080  -4.392  1.00  0.00     0.021 A 
ATOM     13  C   UNL     1      -8.882   7.281  -4.457  1.00  0.00     0.016 A 
ATOM     14  C   UNL     1      -9.671   7.076  -3.322  1.00  0.00     0.051 A 
ATOM     15  C   UNL     1      -9.318   7.657  -2.102  1.00  0.00     0.157 A 
ATOM     16  C   UNL     1      -7.369   8.653  -3.155  1.00  0.00     0.062 A 
ATOM     17  C   UNL     1      -8.159   8.447  -2.015  1.00  0.00     0.158 A 
BRANCH  15  18
ATOM     18  O   UNL     1     -10.125   7.436  -0.987  1.00  0.00    -0.504 OA
ATOM     19  H   UNL     1      -9.741   7.164  -0.090  1.00  0.00     0.293 HD
ENDBRANCH  15  18
BRANCH  17  20
ATOM     20  O   UNL     1      -7.795   9.020  -0.797  1.00  0.00    -0.504 OA
ATOM     21  H   UNL     1      -8.435   9.608  -0.275  1.00  0.00     0.293 HD
ENDBRANCH  17  20
ENDBRANCH   1  12
BRANCH   6  22
ATOM     22  O   UNL     1      -4.489   9.583 -10.002  1.00  0.00    -0.507 OA
ATOM     23  H   UNL     1      -3.826   9.701 -10.752  1.00  0.00     0.293 HD
ENDBRANCH   6  22
BRANCH   8  24
ATOM     24  O   UNL     1      -1.672   6.372  -7.841  1.00  0.00    -0.508 OA
ATOM     25  H   UNL     1      -1.377   5.830  -7.037  1.00  0.00     0.293 HD
ENDBRANCH   8  24
TORSDOF 5
ENDMDL
MODEL 8
REMARK VINA RESULT:    -4.765      2.167      3.322
REMARK INTER + INTRA:          -5.872
REMARK INTER:                  -5.601
REMARK INTRA:                  -0.272
REMARK UNBOUND:                -0.272
REMARK SMILES O=c1cc(-c2ccc(O)c(O)c2)oc2cc(O)cc(O)c12
REMARK SMILES IDX 4 1 3 2 2 3 1 4 21 5 19 6 18 7 16 8 15 9 14 10 13 11 5 12
REMARK SMILES IDX 6 13 7 14 8 15 12 16 10 17 9 18 11 20 20 22 17 24
REMARK H PARENT 9 19 11 21 20 23 17 25
REMARK Flexibility Score: inf
ROOT
ATOM      1  C   UNL     1       5.191  -5.919  -7.841  1.00  0.00     0.138 A 
ATOM      2  C   UNL     1       6.061  -6.142  -8.918  1.00  0.00     0.100 A 
ATOM      3  C   UNL     1       7.271  -6.802  -8.701  1.00  0.00     0.197 A 
ATOM      4  O   UNL     1       8.002  -7.044  -9.696  1.00  0.00    -0.289 OA
ATOM      5  C   UNL     1       7.626  -7.211  -7.393  1.00  0.00     0.107 A 
ATOM      6  C   UNL     1       8.852  -7.855  -7.047  1.00  0.00     0.134 A 
ATOM      7  C   UNL     1       9.043  -8.319  -5.740  1.00  0.00     0.093 A 
ATOM      8  C   UNL     1       8.080  -8.109  -4.753  1.00  0.00     0.123 A 
ATOM      9  C   UNL     1       6.900  -7.432  -5.068  1.00  0.00     0.094 A 
ATOM     10  C   UNL     1       6.666  -6.989  -6.371  1.00  0.00     0.146 A 
ATOM     11  O   UNL     1       5.524  -6.362  -6.632  1.00  0.00    -0.456 OA
ENDROOT
BRANCH   1  12
ATOM     12  C   UNL     1       3.892  -5.221  -8.014  1.00  0.00     0.021 A 
ATOM     13  C   UNL     1       3.585  -4.119  -7.197  1.00  0.00     0.016 A 
ATOM     14  C   UNL     1       2.372  -3.441  -7.346  1.00  0.00     0.051 A 
ATOM     15  C   UNL     1       1.450  -3.845  -8.314  1.00  0.00     0.157 A 
ATOM     16  C   UNL     1       2.965  -5.616  -8.999  1.00  0.00     0.062 A 
ATOM     17  C   UNL     1       1.748  -4.935  -9.148  1.00  0.00     0.158 A 
BRANCH  15  18
ATOM     18  O   UNL     1       0.248  -3.149  -8.437  1.00  0.00    -0.504 OA
ATOM     19  H   UNL     1      -0.430  -3.369  -9.157  1.00  0.00     0.293 HD
ENDBRANCH  15  18
BRANCH  17  20
ATOM     20  O   UNL     1       0.837  -5.335 -10.125  1.00  0.00    -0.504 OA
ATOM     21  H   UNL     1       1.127  -5.522 -11.077  1.00  0.00     0.293 HD
ENDBRANCH  17  20
ENDBRANCH   1  12
BRANCH   6  22
ATOM     22  O   UNL     1       9.915  -8.039  -7.937  1.00  0.00    -0.507 OA
ATOM     23  H   UNL     1      10.295  -8.934  -8.205  1.00  0.00     0.293 HD
ENDBRANCH   6  22
BRANCH   8  24
ATOM     24  O   UNL     1       8.311  -8.571  -3.459  1.00  0.00    -0.508 OA
ATOM     25  H   UNL     1       9.092  -8.236  -2.908  1.00  0.00     0.293 HD
ENDBRANCH   8  24
TORSDOF 5
ENDMDL
