MODEL 1
REMARK VINA RESULT:    -4.635      0.000      0.000
REMARK INTER + INTRA:          -6.103
REMARK INTER:                  -5.719
REMARK INTRA:                  -0.385
REMARK UNBOUND:                -0.385
REMARK SMILES Oc1cc(O)c2cc(O)c(-c3cc(O)c(O)c(O)c3)[o+]c2c1
REMARK SMILES IDX 10 1 20 2 21 3 22 4 2 5 3 6 4 7 6 8 7 9 8 10 11 11 12 12
REMARK SMILES IDX 13 13 19 14 15 15 17 16 14 17 16 19 18 21 9 23 1 25 5 27
REMARK H PARENT 14 18 16 20 18 22 9 24 1 26 5 28
REMARK Flexibility Score: inf
ROOT
ATOM      1  C   UNL     1       7.629 -18.457  20.530  1.00  0.00     0.402 A 
ATOM      2  O   UNL     1       6.689 -18.114  19.653  1.00  0.00    -0.202 OA
ATOM      3  C   UNL     1       5.412 -18.466  19.775  1.00  0.00     0.368 A 
ATOM      4  C   UNL     1       4.498 -18.059  18.800  1.00  0.00     0.162 A 
ATOM      5  C   UNL     1       3.154 -18.417  18.901  1.00  0.00     0.128 A 
ATOM      6  C   UNL     1       2.717 -19.187  19.985  1.00  0.00     0.093 A 
ATOM      7  C   UNL     1       3.613 -19.607  20.975  1.00  0.00     0.136 A 
ATOM      8  C   UNL     1       4.981 -19.244  20.877  1.00  0.00     0.125 A 
ATOM      9  C   UNL     1       5.947 -19.609  21.828  1.00  0.00     0.078 A 
ATOM     10  C   UNL     1       7.277 -19.209  21.667  1.00  0.00     0.223 A 
ENDROOT
BRANCH   1  11
ATOM     11  C   UNL     1       9.018 -18.013  20.278  1.00  0.00     0.091 A 
ATOM     12  C   UNL     1       9.917 -18.800  19.542  1.00  0.00     0.068 A 
ATOM     13  C   UNL     1      11.221 -18.361  19.290  1.00  0.00     0.162 A 
ATOM     14  C   UNL     1       9.431 -16.753  20.731  1.00  0.00     0.068 A 
ATOM     15  C   UNL     1      11.640 -17.098  19.776  1.00  0.00     0.200 A 
ATOM     16  C   UNL     1      10.731 -16.299  20.492  1.00  0.00     0.162 A 
BRANCH  13  17
ATOM     17  O   UNL     1      12.058 -19.201  18.552  1.00  0.00    -0.504 OA
ATOM     18  H   UNL     1      12.579 -18.910  17.739  1.00  0.00     0.293 HD
ENDBRANCH  13  17
BRANCH  15  19
ATOM     19  O   UNL     1      12.933 -16.611  19.566  1.00  0.00    -0.502 OA
ATOM     20  H   UNL     1      13.757 -16.972  20.024  1.00  0.00     0.293 HD
ENDBRANCH  15  19
BRANCH  16  21
ATOM     21  O   UNL     1      11.102 -15.045  20.978  1.00  0.00    -0.504 OA
ATOM     22  H   UNL     1      11.512 -14.920  21.896  1.00  0.00     0.293 HD
ENDBRANCH  16  21
ENDBRANCH   1  11
BRANCH  10  23
ATOM     23  O   UNL     1       8.227 -19.528  22.637  1.00  0.00    -0.500 OA
ATOM     24  H   UNL     1       8.153 -20.367  23.200  1.00  0.00     0.294 HD
ENDBRANCH  10  23
BRANCH   5  25
ATOM     25  O   UNL     1       2.257 -18.002  17.918  1.00  0.00    -0.507 OA
ATOM     26  H   UNL     1       2.218 -18.453  17.012  1.00  0.00     0.293 HD
ENDBRANCH   5  25
BRANCH   7  27
ATOM     27  O   UNL     1       3.099 -20.377  22.024  1.00  0.00    -0.507 OA
ATOM     28  H   UNL     1       2.396 -20.058  22.673  1.00  0.00     0.293 HD
ENDBRANCH   7  27
TORSDOF 7
ENDMDL
MODEL 2
REMARK VINA RESULT:    -4.535      2.573      4.430
REMARK INTER + INTRA:          -5.980
REMARK INTER:                  -5.652
REMARK INTRA:                  -0.329
REMARK UNBOUND:                -0.385
REMARK SMILES Oc1cc(O)c2cc(O)c(-c3cc(O)c(O)c(O)c3)[o+]c2c1
REMARK SMILES IDX 10 1 20 2 21 3 22 4 2 5 3 6 4 7 6 8 7 9 8 10 11 11 12 12
REMARK SMILES IDX 13 13 19 14 15 15 17 16 14 17 16 19 18 21 9 23 1 25 5 27
REMARK H PARENT 14 18 16 20 18 22 9 24 1 26 5 28
REMARK Flexibility Score: inf
ROOT
ATOM      1  C   UNL     1       4.245 -18.986  20.084  1.00  0.00     0.402 A 
ATOM      2  O   UNL     1       4.154 -19.360  21.357  1.00  0.00    -0.202 OA
ATOM      3  C   UNL     1       3.049 -19.871  21.890  1.00  0.00     0.368 A 
ATOM      4  C   UNL     1       3.049 -20.233  23.240  1.00  0.00     0.162 A 
ATOM      5  C   UNL     1       1.903 -20.769  23.827  1.00  0.00     0.128 A 
ATOM      6  C   UNL     1       0.745 -20.946  23.061  1.00  0.00     0.093 A 
ATOM      7  C   UNL     1       0.719 -20.591  21.707  1.00  0.00     0.136 A 
ATOM      8  C   UNL     1       1.884 -20.047  21.105  1.00  0.00     0.125 A 
ATOM      9  C   UNL     1       1.954 -19.676  19.753  1.00  0.00     0.078 A 
ATOM     10  C   UNL     1       3.139 -19.152  19.230  1.00  0.00     0.223 A 
ENDROOT
BRANCH   1  11
ATOM     11  C   UNL     1       5.529 -18.419  19.610  1.00  0.00     0.091 A 
ATOM     12  C   UNL     1       6.630 -19.240  19.323  1.00  0.00     0.068 A 
ATOM     13  C   UNL     1       7.831 -18.696  18.854  1.00  0.00     0.162 A 
ATOM     14  C   UNL     1       5.631 -17.040  19.386  1.00  0.00     0.068 A 
ATOM     15  C   UNL     1       7.935 -17.299  18.656  1.00  0.00     0.200 A 
ATOM     16  C   UNL     1       6.824 -16.479  18.920  1.00  0.00     0.162 A 
BRANCH  13  17
ATOM     17  O   UNL     1       8.883 -19.577  18.592  1.00  0.00    -0.504 OA
ATOM     18  H   UNL     1       8.766 -20.497  18.192  1.00  0.00     0.293 HD
ENDBRANCH  13  17
BRANCH  15  19
ATOM     19  O   UNL     1       9.112 -16.696  18.200  1.00  0.00    -0.502 OA
ATOM     20  H   UNL     1       9.688 -16.081  18.757  1.00  0.00     0.293 HD
ENDBRANCH  15  19
BRANCH  16  21
ATOM     21  O   UNL     1       6.883 -15.098  18.728  1.00  0.00    -0.504 OA
ATOM     22  H   UNL     1       7.492 -14.502  19.275  1.00  0.00     0.293 HD
ENDBRANCH  16  21
ENDBRANCH   1  11
BRANCH  10  23
ATOM     23  O   UNL     1       3.224 -18.830  17.875  1.00  0.00    -0.500 OA
ATOM     24  H   UNL     1       2.439 -18.954  17.247  1.00  0.00     0.294 HD
ENDBRANCH  10  23
BRANCH   5  25
ATOM     25  O   UNL     1       1.923 -21.123  25.175  1.00  0.00    -0.507 OA
ATOM     26  H   UNL     1       2.658 -21.706  25.559  1.00  0.00     0.293 HD
ENDBRANCH   5  25
BRANCH   7  27
ATOM     27  O   UNL     1      -0.477 -20.795  21.011  1.00  0.00    -0.507 OA
ATOM     28  H   UNL     1      -1.396 -20.643  21.400  1.00  0.00     0.293 HD
ENDBRANCH   7  27
TORSDOF 7
ENDMDL
MODEL 3
REMARK VINA RESULT:    -4.511      1.345      2.767
REMARK INTER + INTRA:          -5.950
REMARK INTER:                  -5.624
REMARK INTRA:                  -0.326
REMARK UNBOUND:                -0.385
REMARK SMILES Oc1cc(O)c2cc(O)c(-c3cc(O)c(O)c(O)c3)[o+]c2c1
REMARK SMILES IDX 10 1 20 2 21 3 22 4 2 5 3 6 4 7 6 8 7 9 8 10 11 11 12 12
REMARK SMILES IDX 13 13 19 14 15 15 17 16 14 17 16 19 18 21 9 23 1 25 5 27
REMARK H PARENT 14 18 16 20 18 22 9 24 1 26 5 28
REMARK Flexibility Score: inf
ROOT
ATOM      1  C   UNL     1       6.927 -18.648  20.161  1.00  0.00     0.402 A 
ATOM      2  O   UNL     1       6.539 -19.134  21.337  1.00  0.00    -0.202 OA
ATOM      3  C   UNL     1       5.277 -19.438  21.621  1.00  0.00     0.368 A 
ATOM      4  C   UNL     1       4.966 -19.941  22.887  1.00  0.00     0.162 A 
ATOM      5  C   UNL     1       3.650 -20.266  23.215  1.00  0.00     0.128 A 
ATOM      6  C   UNL     1       2.633 -20.087  22.270  1.00  0.00     0.093 A 
ATOM      7  C   UNL     1       2.918 -19.583  20.995  1.00  0.00     0.136 A 
ATOM      8  C   UNL     1       4.256 -19.254  20.658  1.00  0.00     0.125 A 
ATOM      9  C   UNL     1       4.636 -18.757  19.400  1.00  0.00     0.078 A 
ATOM     10  C   UNL     1       5.977 -18.460  19.140  1.00  0.00     0.223 A 
ENDROOT
BRANCH   1  11
ATOM     11  C   UNL     1       8.362 -18.338  19.969  1.00  0.00     0.091 A 
ATOM     12  C   UNL     1       9.199 -19.179  19.221  1.00  0.00     0.068 A 
ATOM     13  C   UNL     1      10.549 -18.865  19.027  1.00  0.00     0.162 A 
ATOM     14  C   UNL     1       8.886 -17.149  20.495  1.00  0.00     0.068 A 
ATOM     15  C   UNL     1      11.077 -17.676  19.584  1.00  0.00     0.200 A 
ATOM     16  C   UNL     1      10.232 -16.820  20.314  1.00  0.00     0.162 A 
BRANCH  13  17
ATOM     17  O   UNL     1      11.319 -19.753  18.272  1.00  0.00    -0.504 OA
ATOM     18  H   UNL     1      11.326 -19.780  17.262  1.00  0.00     0.293 HD
ENDBRANCH  13  17
BRANCH  15  19
ATOM     19  O   UNL     1      12.419 -17.315  19.434  1.00  0.00    -0.502 OA
ATOM     20  H   UNL     1      13.075 -17.800  18.839  1.00  0.00     0.293 HD
ENDBRANCH  15  19
BRANCH  16  21
ATOM     21  O   UNL     1      10.712 -15.635  20.870  1.00  0.00    -0.504 OA
ATOM     22  H   UNL     1      10.964 -15.560  21.848  1.00  0.00     0.293 HD
ENDBRANCH  16  21
ENDBRANCH   1  11
BRANCH  10  23
ATOM     23  O   UNL     1       6.362 -18.014  17.875  1.00  0.00    -0.500 OA
ATOM     24  H   UNL     1       5.968 -18.407  17.029  1.00  0.00     0.294 HD
ENDBRANCH  10  23
BRANCH   5  25
ATOM     25  O   UNL     1       3.361 -20.766  24.483  1.00  0.00    -0.507 OA
ATOM     26  H   UNL     1       2.409 -20.961  24.771  1.00  0.00     0.293 HD
ENDBRANCH   5  25
BRANCH   7  27
ATOM     27  O   UNL     1       1.846 -19.430  20.109  1.00  0.00    -0.507 OA
ATOM     28  H   UNL     1       1.530 -20.142  19.467  1.00  0.00     0.293 HD
ENDBRANCH   7  27
TORSDOF 7
ENDMDL
MODEL 4
REMARK VINA RESULT:    -4.498      1.412      3.358
REMARK INTER + INTRA:          -5.935
REMARK INTER:                  -5.604
REMARK INTRA:                  -0.331
REMARK UNBOUND:                -0.385
REMARK SMILES Oc1cc(O)c2cc(O)c(-c3cc(O)c(O)c(O)c3)[o+]c2c1
REMARK SMILES IDX 10 1 20 2 21 3 22 4 2 5 3 6 4 7 6 8 7 9 8 10 11 11 12 12
REMARK SMILES IDX 13 13 19 14 15 15 17 16 14 17 16 19 18 21 9 23 1 25 5 27
REMARK H PARENT 14 18 16 20 18 22 9 24 1 26 5 28
REMARK Flexibility Score: inf
ROOT
ATOM      1  C   UNL     1       6.631 -18.574  20.133  1.00  0.00     0.402 A 
ATOM      2  O   UNL     1       6.263 -19.108  21.294  1.00  0.00    -0.202 OA
ATOM      3  C   UNL     1       5.009 -19.445  21.579  1.00  0.00     0.368 A 
ATOM      4  C   UNL     1       4.720 -19.998  22.829  1.00  0.00     0.162 A 
ATOM      5  C   UNL     1       3.413 -20.359  23.157  1.00  0.00     0.128 A 
ATOM      6  C   UNL     1       2.384 -20.166  22.227  1.00  0.00     0.093 A 
ATOM      7  C   UNL     1       2.648 -19.614  20.968  1.00  0.00     0.136 A 
ATOM      8  C   UNL     1       3.976 -19.248  20.631  1.00  0.00     0.125 A 
ATOM      9  C   UNL     1       4.335 -18.701  19.388  1.00  0.00     0.078 A 
ATOM     10  C   UNL     1       5.668 -18.370  19.127  1.00  0.00     0.223 A 
ENDROOT
BRANCH   1  11
ATOM     11  C   UNL     1       8.058 -18.230  19.939  1.00  0.00     0.091 A 
ATOM     12  C   UNL     1       8.625 -17.095  20.537  1.00  0.00     0.068 A 
ATOM     13  C   UNL     1       9.981 -16.792  20.366  1.00  0.00     0.162 A 
ATOM     14  C   UNL     1       8.877 -19.087  19.192  1.00  0.00     0.068 A 
ATOM     15  C   UNL     1      10.795 -17.648  19.586  1.00  0.00     0.200 A 
ATOM     16  C   UNL     1      10.232 -18.799  19.007  1.00  0.00     0.162 A 
BRANCH  13  17
ATOM     17  O   UNL     1      10.472 -15.644  20.991  1.00  0.00    -0.504 OA
ATOM     18  H   UNL     1      11.318 -15.167  20.717  1.00  0.00     0.293 HD
ENDBRANCH  13  17
BRANCH  15  19
ATOM     19  O   UNL     1      12.153 -17.391  19.370  1.00  0.00    -0.502 OA
ATOM     20  H   UNL     1      12.614 -16.528  19.619  1.00  0.00     0.293 HD
ENDBRANCH  15  19
BRANCH  16  21
ATOM     21  O   UNL     1      11.004 -19.672  18.241  1.00  0.00    -0.504 OA
ATOM     22  H   UNL     1      12.013 -19.710  18.317  1.00  0.00     0.293 HD
ENDBRANCH  16  21
ENDBRANCH   1  11
BRANCH  10  23
ATOM     23  O   UNL     1       6.033 -17.873  17.875  1.00  0.00    -0.500 OA
ATOM     24  H   UNL     1       6.933 -18.083  17.461  1.00  0.00     0.294 HD
ENDBRANCH  10  23
BRANCH   5  25
ATOM     25  O   UNL     1       3.145 -20.908  24.409  1.00  0.00    -0.507 OA
ATOM     26  H   UNL     1       3.338 -21.881  24.613  1.00  0.00     0.293 HD
ENDBRANCH   5  25
BRANCH   7  27
ATOM     27  O   UNL     1       1.565 -19.451  20.097  1.00  0.00    -0.507 OA
ATOM     28  H   UNL     1       1.320 -20.099  19.364  1.00  0.00     0.293 HD
ENDBRANCH   7  27
TORSDOF 7
ENDMDL
MODEL 5
REMARK VINA RESULT:    -4.453      1.671      7.121
REMARK INTER + INTRA:          -5.879
REMARK INTER:                  -5.502
REMARK INTRA:                  -0.377
REMARK UNBOUND:                -0.385
REMARK SMILES Oc1cc(O)c2cc(O)c(-c3cc(O)c(O)c(O)c3)[o+]c2c1
REMARK SMILES IDX 10 1 20 2 21 3 22 4 2 5 3 6 4 7 6 8 7 9 8 10 11 11 12 12
REMARK SMILES IDX 13 13 19 14 15 15 17 16 14 17 16 19 18 21 9 23 1 25 5 27
REMARK H PARENT 14 18 16 20 18 22 9 24 1 26 5 28
REMARK Flexibility Score: inf
ROOT
ATOM      1  C   UNL     1       7.897 -17.562  19.856  1.00  0.00     0.402 A 
ATOM      2  O   UNL     1       8.040 -16.263  20.105  1.00  0.00    -0.202 OA
ATOM      3  C   UNL     1       9.210 -15.634  20.054  1.00  0.00     0.368 A 
ATOM      4  C   UNL     1       9.259 -14.266  20.335  1.00  0.00     0.162 A 
ATOM      5  C   UNL     1      10.472 -13.580  20.293  1.00  0.00     0.128 A 
ATOM      6  C   UNL     1      11.648 -14.265  19.968  1.00  0.00     0.093 A 
ATOM      7  C   UNL     1      11.626 -15.635  19.683  1.00  0.00     0.136 A 
ATOM      8  C   UNL     1      10.393 -16.336  19.723  1.00  0.00     0.125 A 
ATOM      9  C   UNL     1      10.273 -17.706  19.438  1.00  0.00     0.078 A 
ATOM     10  C   UNL     1       9.022 -18.327  19.493  1.00  0.00     0.223 A 
ENDROOT
BRANCH   1  11
ATOM     11  C   UNL     1       6.543 -18.151  19.955  1.00  0.00     0.091 A 
ATOM     12  C   UNL     1       6.124 -18.835  21.106  1.00  0.00     0.068 A 
ATOM     13  C   UNL     1       4.833 -19.368  21.198  1.00  0.00     0.162 A 
ATOM     14  C   UNL     1       5.636 -17.973  18.902  1.00  0.00     0.068 A 
ATOM     15  C   UNL     1       3.932 -19.208  20.119  1.00  0.00     0.200 A 
ATOM     16  C   UNL     1       4.344 -18.501  18.974  1.00  0.00     0.162 A 
BRANCH  13  17
ATOM     17  O   UNL     1       4.491 -20.037  22.376  1.00  0.00    -0.504 OA
ATOM     18  H   UNL     1       3.853 -19.673  23.069  1.00  0.00     0.293 HD
ENDBRANCH  13  17
BRANCH  15  19
ATOM     19  O   UNL     1       2.635 -19.728  20.147  1.00  0.00    -0.502 OA
ATOM     20  H   UNL     1       2.128 -19.944  20.994  1.00  0.00     0.293 HD
ENDBRANCH  15  19
BRANCH  16  21
ATOM     21  O   UNL     1       3.482 -18.313  17.894  1.00  0.00    -0.504 OA
ATOM     22  H   UNL     1       3.475 -18.934  17.094  1.00  0.00     0.293 HD
ENDBRANCH  16  21
ENDBRANCH   1  11
BRANCH  10  23
ATOM     23  O   UNL     1       8.895 -19.676  19.162  1.00  0.00    -0.500 OA
ATOM     24  H   UNL     1       9.442 -20.392  19.625  1.00  0.00     0.294 HD
ENDBRANCH  10  23
BRANCH   5  25
ATOM     25  O   UNL     1      10.501 -12.216  20.577  1.00  0.00    -0.507 OA
ATOM     26  H   UNL     1      11.301 -11.642  20.340  1.00  0.00     0.293 HD
ENDBRANCH   5  25
BRANCH   7  27
ATOM     27  O   UNL     1      12.844 -16.248  19.370  1.00  0.00    -0.507 OA
ATOM     28  H   UNL     1      13.482 -16.629  20.053  1.00  0.00     0.293 HD
ENDBRANCH   7  27
TORSDOF 7
ENDMDL
MODEL 6
REMARK VINA RESULT:    -4.429      1.693      7.103
REMARK INTER + INTRA:          -5.849
REMARK INTER:                  -5.503
REMARK INTRA:                  -0.347
REMARK UNBOUND:                -0.385
REMARK SMILES Oc1cc(O)c2cc(O)c(-c3cc(O)c(O)c(O)c3)[o+]c2c1
REMARK SMILES IDX 10 1 20 2 21 3 22 4 2 5 3 6 4 7 6 8 7 9 8 10 11 11 12 12
REMARK SMILES IDX 13 13 19 14 15 15 17 16 14 17 16 19 18 21 9 23 1 25 5 27
REMARK H PARENT 14 18 16 20 18 22 9 24 1 26 5 28
REMARK Flexibility Score: inf
ROOT
ATOM      1  C   UNL     1       7.854 -17.480  19.816  1.00  0.00     0.402 A 
ATOM      2  O   UNL     1       8.010 -16.178  20.034  1.00  0.00    -0.202 OA
ATOM      3  C   UNL     1       9.188 -15.563  19.977  1.00  0.00     0.368 A 
ATOM      4  C   UNL     1       9.251 -14.189  20.224  1.00  0.00     0.162 A 
ATOM      5  C   UNL     1      10.473 -13.519  20.175  1.00  0.00     0.128 A 
ATOM      6  C   UNL     1      11.643 -14.226  19.876  1.00  0.00     0.093 A 
ATOM      7  C   UNL     1      11.607 -15.602  19.625  1.00  0.00     0.136 A 
ATOM      8  C   UNL     1      10.365 -16.288  19.673  1.00  0.00     0.125 A 
ATOM      9  C   UNL     1      10.231 -17.663  19.422  1.00  0.00     0.078 A 
ATOM     10  C   UNL     1       8.973 -18.267  19.482  1.00  0.00     0.223 A 
ENDROOT
BRANCH   1  11
ATOM     11  C   UNL     1       6.492 -18.051  19.919  1.00  0.00     0.091 A 
ATOM     12  C   UNL     1       5.568 -17.935  18.869  1.00  0.00     0.068 A 
ATOM     13  C   UNL     1       4.291 -18.498  18.968  1.00  0.00     0.162 A 
ATOM     14  C   UNL     1       6.133 -18.774  21.064  1.00  0.00     0.068 A 
ATOM     15  C   UNL     1       3.926 -19.203  20.140  1.00  0.00     0.200 A 
ATOM     16  C   UNL     1       4.860 -19.340  21.182  1.00  0.00     0.162 A 
BRANCH  13  17
ATOM     17  O   UNL     1       3.427 -18.339  17.882  1.00  0.00    -0.504 OA
ATOM     18  H   UNL     1       3.164 -19.084  17.253  1.00  0.00     0.293 HD
ENDBRANCH  13  17
BRANCH  15  19
ATOM     19  O   UNL     1       2.661 -19.776  20.301  1.00  0.00    -0.502 OA
ATOM     20  H   UNL     1       1.941 -19.402  20.901  1.00  0.00     0.293 HD
ENDBRANCH  15  19
BRANCH  16  21
ATOM     21  O   UNL     1       4.543 -20.036  22.348  1.00  0.00    -0.504 OA
ATOM     22  H   UNL     1       4.193 -19.571  23.177  1.00  0.00     0.293 HD
ENDBRANCH  16  21
ENDBRANCH   1  11
BRANCH  10  23
ATOM     23  O   UNL     1       8.832 -19.623  19.184  1.00  0.00    -0.500 OA
ATOM     24  H   UNL     1       9.367 -20.333  19.669  1.00  0.00     0.294 HD
ENDBRANCH  10  23
BRANCH   5  25
ATOM     25  O   UNL     1      10.515 -12.148  20.424  1.00  0.00    -0.507 OA
ATOM     26  H   UNL     1      10.633 -11.477  19.675  1.00  0.00     0.293 HD
ENDBRANCH   5  25
BRANCH   7  27
ATOM     27  O   UNL     1      12.820 -16.237  19.338  1.00  0.00    -0.507 OA
ATOM     28  H   UNL     1      13.448 -16.608  20.035  1.00  0.00     0.293 HD
ENDBRANCH   7  27
TORSDOF 7
ENDMDL
MODEL 7
REMARK VINA RESULT:    -4.385      2.558      3.864
REMARK INTER + INTRA:          -5.795
REMARK INTER:                  -5.458
REMARK INTRA:                  -0.337
REMARK UNBOUND:                -0.385
REMARK SMILES Oc1cc(O)c2cc(O)c(-c3cc(O)c(O)c(O)c3)[o+]c2c1
REMARK SMILES IDX 10 1 20 2 21 3 22 4 2 5 3 6 4 7 6 8 7 9 8 10 11 11 12 12
REMARK SMILES IDX 13 13 19 14 15 15 17 16 14 17 16 19 18 21 9 23 1 25 5 27
REMARK H PARENT 14 18 16 20 18 22 9 24 1 26 5 28
REMARK Flexibility Score: inf
ROOT
ATOM      1  C   UNL     1       4.543 -19.009  20.397  1.00  0.00     0.402 A 
ATOM      2  O   UNL     1       3.464 -19.259  19.662  1.00  0.00    -0.202 OA
ATOM      3  C   UNL     1       2.347 -19.783  20.157  1.00  0.00     0.368 A 
ATOM      4  C   UNL     1       1.265 -20.011  19.303  1.00  0.00     0.162 A 
ATOM      5  C   UNL     1       0.083 -20.564  19.794  1.00  0.00     0.128 A 
ATOM      6  C   UNL     1      -0.022 -20.892  21.151  1.00  0.00     0.093 A 
ATOM      7  C   UNL     1       1.048 -20.674  22.027  1.00  0.00     0.136 A 
ATOM      8  C   UNL     1       2.252 -20.110  21.531  1.00  0.00     0.125 A 
ATOM      9  C   UNL     1       3.370 -19.844  22.338  1.00  0.00     0.078 A 
ATOM     10  C   UNL     1       4.521 -19.282  21.778  1.00  0.00     0.223 A 
ENDROOT
BRANCH   1  11
ATOM     11  C   UNL     1       5.731 -18.432  19.727  1.00  0.00     0.091 A 
ATOM     12  C   UNL     1       5.803 -17.067  19.411  1.00  0.00     0.068 A 
ATOM     13  C   UNL     1       6.939 -16.528  18.798  1.00  0.00     0.162 A 
ATOM     14  C   UNL     1       6.833 -19.253  19.454  1.00  0.00     0.068 A 
ATOM     15  C   UNL     1       8.038 -17.369  18.500  1.00  0.00     0.200 A 
ATOM     16  C   UNL     1       7.976 -18.733  18.839  1.00  0.00     0.162 A 
BRANCH  13  17
ATOM     17  O   UNL     1       6.935 -15.161  18.513  1.00  0.00    -0.504 OA
ATOM     18  H   UNL     1       7.552 -14.490  18.947  1.00  0.00     0.293 HD
ENDBRANCH  13  17
BRANCH  15  19
ATOM     19  O   UNL     1       9.196 -16.891  17.878  1.00  0.00    -0.502 OA
ATOM     20  H   UNL     1       9.789 -16.169  18.261  1.00  0.00     0.293 HD
ENDBRANCH  15  19
BRANCH  16  21
ATOM     21  O   UNL     1       9.042 -19.592  18.572  1.00  0.00    -0.504 OA
ATOM     22  H   UNL     1      10.003 -19.334  18.758  1.00  0.00     0.293 HD
ENDBRANCH  16  21
ENDBRANCH   1  11
BRANCH  10  23
ATOM     23  O   UNL     1       5.614 -18.971  22.588  1.00  0.00    -0.500 OA
ATOM     24  H   UNL     1       5.598 -18.182  23.224  1.00  0.00     0.294 HD
ENDBRANCH  10  23
BRANCH   5  25
ATOM     25  O   UNL     1      -0.985 -20.784  18.926  1.00  0.00    -0.507 OA
ATOM     26  H   UNL     1      -1.441 -21.687  18.866  1.00  0.00     0.293 HD
ENDBRANCH   5  25
BRANCH   7  27
ATOM     27  O   UNL     1       0.866 -21.032  23.367  1.00  0.00    -0.507 OA
ATOM     28  H   UNL     1       0.140 -20.662  23.962  1.00  0.00     0.293 HD
ENDBRANCH   7  27
TORSDOF 7
ENDMDL
MODEL 8
REMARK VINA RESULT:    -4.382      2.093      7.566
REMARK INTER + INTRA:          -5.791
REMARK INTER:                  -5.431
REMARK INTRA:                  -0.360
REMARK UNBOUND:                -0.385
REMARK SMILES Oc1cc(O)c2cc(O)c(-c3cc(O)c(O)c(O)c3)[o+]c2c1
REMARK SMILES IDX 10 1 20 2 21 3 22 4 2 5 3 6 4 7 6 8 7 9 8 10 11 11 12 12
REMARK SMILES IDX 13 13 19 14 15 15 17 16 14 17 16 19 18 21 9 23 1 25 5 27
REMARK H PARENT 14 18 16 20 18 22 9 24 1 26 5 28
REMARK Flexibility Score: inf
ROOT
ATOM      1  C   UNL     1       4.764 -18.336  19.904  1.00  0.00     0.402 A 
ATOM      2  O   UNL     1       5.812 -19.024  19.459  1.00  0.00    -0.202 OA
ATOM      3  C   UNL     1       7.017 -18.490  19.285  1.00  0.00     0.368 A 
ATOM      4  C   UNL     1       8.056 -19.294  18.809  1.00  0.00     0.162 A 
ATOM      5  C   UNL     1       9.329 -18.760  18.614  1.00  0.00     0.128 A 
ATOM      6  C   UNL     1       9.569 -17.410  18.897  1.00  0.00     0.093 A 
ATOM      7  C   UNL     1       8.545 -16.584  19.374  1.00  0.00     0.136 A 
ATOM      8  C   UNL     1       7.248 -17.124  19.576  1.00  0.00     0.125 A 
ATOM      9  C   UNL     1       6.166 -16.374  20.063  1.00  0.00     0.078 A 
ATOM     10  C   UNL     1       4.918 -16.978  20.241  1.00  0.00     0.223 A 
ENDROOT
BRANCH   1  11
ATOM     11  C   UNL     1       3.470 -19.041  20.046  1.00  0.00     0.091 A 
ATOM     12  C   UNL     1       2.624 -19.246  18.946  1.00  0.00     0.068 A 
ATOM     13  C   UNL     1       1.413 -19.934  19.086  1.00  0.00     0.162 A 
ATOM     14  C   UNL     1       3.106 -19.568  21.292  1.00  0.00     0.068 A 
ATOM     15  C   UNL     1       1.040 -20.440  20.354  1.00  0.00     0.200 A 
ATOM     16  C   UNL     1       1.899 -20.255  21.452  1.00  0.00     0.162 A 
BRANCH  13  17
ATOM     17  O   UNL     1       0.624 -20.097  17.945  1.00  0.00    -0.504 OA
ATOM     18  H   UNL     1       0.876 -19.756  17.029  1.00  0.00     0.293 HD
ENDBRANCH  13  17
BRANCH  15  19
ATOM     19  O   UNL     1      -0.162 -21.125  20.559  1.00  0.00    -0.502 OA
ATOM     20  H   UNL     1      -0.332 -22.075  20.263  1.00  0.00     0.293 HD
ENDBRANCH  15  19
BRANCH  16  21
ATOM     21  O   UNL     1       1.572 -20.748  22.715  1.00  0.00    -0.504 OA
ATOM     22  H   UNL     1       2.222 -20.719  23.492  1.00  0.00     0.293 HD
ENDBRANCH  16  21
ENDBRANCH   1  11
BRANCH  10  23
ATOM     23  O   UNL     1       3.855 -16.246  20.772  1.00  0.00    -0.500 OA
ATOM     24  H   UNL     1       3.304 -16.594  21.547  1.00  0.00     0.294 HD
ENDBRANCH  10  23
BRANCH   5  25
ATOM     25  O   UNL     1      10.352 -19.578  18.139  1.00  0.00    -0.507 OA
ATOM     26  H   UNL     1      10.841 -19.368  17.277  1.00  0.00     0.293 HD
ENDBRANCH   5  25
BRANCH   7  27
ATOM     27  O   UNL     1       8.864 -15.245  19.629  1.00  0.00    -0.507 OA
ATOM     28  H   UNL     1       8.572 -14.470  19.052  1.00  0.00     0.293 HD
ENDBRANCH   7  27
TORSDOF 7
ENDMDL
MODEL 9
REMARK VINA RESULT:    -4.278      1.672      7.331
REMARK INTER + INTRA:          -5.662
REMARK INTER:                  -5.767
REMARK INTRA:                   0.105
REMARK UNBOUND:                -0.385
REMARK SMILES Oc1cc(O)c2cc(O)c(-c3cc(O)c(O)c(O)c3)[o+]c2c1
REMARK SMILES IDX 10 1 20 2 21 3 22 4 2 5 3 6 4 7 6 8 7 9 8 10 11 11 12 12
REMARK SMILES IDX 13 13 19 14 15 15 17 16 14 17 16 19 18 21 9 23 1 25 5 27
REMARK H PARENT 14 18 16 20 18 22 9 24 1 26 5 28
REMARK Flexibility Score: inf
ROOT
ATOM      1  C   UNL     1       7.667 -18.256  20.087  1.00  0.00     0.402 A 
ATOM      2  O   UNL     1       8.513 -18.949  20.842  1.00  0.00    -0.202 OA
ATOM      3  C   UNL     1       9.827 -18.747  20.842  1.00  0.00     0.368 A 
ATOM      4  C   UNL     1      10.637 -19.529  21.671  1.00  0.00     0.162 A 
ATOM      5  C   UNL     1      12.018 -19.341  21.689  1.00  0.00     0.128 A 
ATOM      6  C   UNL     1      12.599 -18.363  20.873  1.00  0.00     0.093 A 
ATOM      7  C   UNL     1      11.810 -17.567  20.034  1.00  0.00     0.136 A 
ATOM      8  C   UNL     1      10.404 -17.754  20.014  1.00  0.00     0.125 A 
ATOM      9  C   UNL     1       9.534 -16.994  19.216  1.00  0.00     0.078 A 
ATOM     10  C   UNL     1       8.157 -17.233  19.254  1.00  0.00     0.223 A 
ENDROOT
BRANCH   1  11
ATOM     11  C   UNL     1       6.225 -18.582  20.168  1.00  0.00     0.091 A 
ATOM     12  C   UNL     1       5.390 -18.496  19.043  1.00  0.00     0.068 A 
ATOM     13  C   UNL     1       4.033 -18.829  19.126  1.00  0.00     0.162 A 
ATOM     14  C   UNL     1       5.691 -19.044  21.378  1.00  0.00     0.068 A 
ATOM     15  C   UNL     1       3.495 -19.269  20.359  1.00  0.00     0.200 A 
ATOM     16  C   UNL     1       4.337 -19.378  21.480  1.00  0.00     0.162 A 
BRANCH  13  17
ATOM     17  O   UNL     1       3.266 -18.716  17.964  1.00  0.00    -0.504 OA
ATOM     18  H   UNL     1       3.257 -17.901  17.368  1.00  0.00     0.293 HD
ENDBRANCH  13  17
BRANCH  15  19
ATOM     19  O   UNL     1       2.146 -19.604  20.506  1.00  0.00    -0.502 OA
ATOM     20  H   UNL     1       1.743 -20.480  20.208  1.00  0.00     0.293 HD
ENDBRANCH  15  19
BRANCH  16  21
ATOM     21  O   UNL     1       3.847 -19.817  22.710  1.00  0.00    -0.504 OA
ATOM     22  H   UNL     1       4.450 -19.963  23.511  1.00  0.00     0.293 HD
ENDBRANCH  16  21
ENDBRANCH   1  11
BRANCH  10  23
ATOM     23  O   UNL     1       7.289 -16.444  18.499  1.00  0.00    -0.500 OA
ATOM     24  H   UNL     1       6.930 -15.563  18.847  1.00  0.00     0.294 HD
ENDBRANCH  10  23
BRANCH   5  25
ATOM     25  O   UNL     1      12.808 -20.132  22.521  1.00  0.00    -0.507 OA
ATOM     26  H   UNL     1      13.157 -19.784  23.407  1.00  0.00     0.293 HD
ENDBRANCH   5  25
BRANCH   7  27
ATOM     27  O   UNL     1      12.466 -16.615  19.246  1.00  0.00    -0.507 OA
ATOM     28  H   UNL     1      12.476 -16.619  18.237  1.00  0.00     0.293 HD
ENDBRANCH   7  27
TORSDOF 7
ENDMDL
