MODEL 1
REMARK VINA RESULT:    -3.769      0.000      0.000
REMARK INTER + INTRA:          -7.072
REMARK INTER:                  -5.973
REMARK INTRA:                  -1.099
REMARK UNBOUND:                -1.099
REMARK SMILES CCCCCCCCCCCC(=O)[O-]
REMARK SMILES IDX 7 1 8 2 9 3 10 4 11 5 12 6 13 7 14 8 6 9 5 10 4 11 3 12 2 13
REMARK SMILES IDX 1 14
REMARK H PARENT
REMARK Flexibility Score: inf
ROOT
ATOM      1  C   UNL     1       4.527  14.637  12.550  1.00  0.00     0.000 C 
ENDROOT
BRANCH   1   2
ATOM      2  C   UNL     1       5.195  14.171  11.243  1.00  0.00     0.000 C 
BRANCH   2   3
ATOM      3  C   UNL     1       6.191  13.006  11.396  1.00  0.00     0.000 C 
BRANCH   3   4
ATOM      4  C   UNL     1       5.588  11.595  11.243  1.00  0.00     0.006 C 
BRANCH   4   5
ATOM      5  C   UNL     1       4.578  11.469  10.088  1.00  0.00     0.053 C 
BRANCH   5   6
ATOM      6  C   UNL     1       5.079  10.602   8.975  1.00  0.00     0.041 C 
ATOM      7  O   UNL     1       6.285  10.658   8.618  1.00  0.00    -0.550 OA
ATOM      8  O   UNL     1       4.223   9.701   8.352  1.00  0.00    -0.550 OA
ENDBRANCH   5   6
ENDBRANCH   4   5
ENDBRANCH   3   4
ENDBRANCH   2   3
ENDBRANCH   1   2
BRANCH   1   9
ATOM      9  C   UNL     1       2.993  14.608  12.483  1.00  0.00     0.000 C 
BRANCH   9  10
ATOM     10  C   UNL     1       2.514  14.238  11.071  1.00  0.00    -0.000 C 
BRANCH  10  11
ATOM     11  C   UNL     1       1.841  15.412  10.343  1.00  0.00    -0.000 C 
BRANCH  11  12
ATOM     12  C   UNL     1       1.491  15.081   8.883  1.00  0.00    -0.000 C 
BRANCH  12  13
ATOM     13  C   UNL     1       1.905  13.655   8.487  1.00  0.00    -0.003 C 
ATOM     14  C   UNL     1       2.965  13.628   7.386  1.00  0.00     0.004 C 
ENDBRANCH  12  13
ENDBRANCH  11  12
ENDBRANCH  10  11
ENDBRANCH   9  10
ENDBRANCH   1   9
TORSDOF 10
ENDMDL
MODEL 2
REMARK VINA RESULT:    -3.764      2.050      5.088
REMARK INTER + INTRA:          -7.063
REMARK INTER:                  -6.374
REMARK INTRA:                  -0.688
REMARK UNBOUND:                -1.099
REMARK SMILES CCCCCCCCCCCC(=O)[O-]
REMARK SMILES IDX 7 1 8 2 9 3 10 4 11 5 12 6 13 7 14 8 6 9 5 10 4 11 3 12 2 13
REMARK SMILES IDX 1 14
REMARK H PARENT
REMARK Flexibility Score: inf
ROOT
ATOM      1  C   UNL     1       3.001  14.590  12.559  1.00  0.00     0.000 C 
ENDROOT
BRANCH   1   2
ATOM      2  C   UNL     1       2.243  14.355  11.238  1.00  0.00     0.000 C 
BRANCH   2   3
ATOM      3  C   UNL     1       1.790  15.634  10.508  1.00  0.00     0.000 C 
BRANCH   3   4
ATOM      4  C   UNL     1       1.386  15.444   9.033  1.00  0.00     0.006 C 
BRANCH   4   5
ATOM      5  C   UNL     1       1.335  13.972   8.582  1.00  0.00     0.053 C 
BRANCH   5   6
ATOM      6  C   UNL     1       2.344  13.658   7.520  1.00  0.00     0.041 C 
ATOM      7  O   UNL     1       1.988  13.553   6.317  1.00  0.00    -0.550 OA
ATOM      8  O   UNL     1       3.686  13.517   7.853  1.00  0.00    -0.550 OA
ENDBRANCH   5   6
ENDBRANCH   4   5
ENDBRANCH   3   4
ENDBRANCH   2   3
ENDBRANCH   1   2
BRANCH   1   9
ATOM      9  C   UNL     1       4.520  14.696  12.366  1.00  0.00     0.000 C 
BRANCH   9  10
ATOM     10  C   UNL     1       4.991  13.795  11.214  1.00  0.00    -0.000 C 
BRANCH  10  11
ATOM     11  C   UNL     1       6.371  13.171  11.472  1.00  0.00    -0.000 C 
BRANCH  11  12
ATOM     12  C   UNL     1       6.448  12.444  12.825  1.00  0.00    -0.000 C 
BRANCH  12  13
ATOM     13  C   UNL     1       7.884  12.044  13.198  1.00  0.00    -0.003 C 
ATOM     14  C   UNL     1       8.674  11.492  12.011  1.00  0.00     0.004 C 
ENDBRANCH  12  13
ENDBRANCH  11  12
ENDBRANCH  10  11
ENDBRANCH   9  10
ENDBRANCH   1   9
TORSDOF 10
ENDMDL
MODEL 3
REMARK VINA RESULT:    -3.754      1.444      4.394
REMARK INTER + INTRA:          -7.046
REMARK INTER:                  -6.036
REMARK INTRA:                  -1.010
REMARK UNBOUND:                -1.099
REMARK SMILES CCCCCCCCCCCC(=O)[O-]
REMARK SMILES IDX 7 1 8 2 9 3 10 4 11 5 12 6 13 7 14 8 6 9 5 10 4 11 3 12 2 13
REMARK SMILES IDX 1 14
REMARK H PARENT
REMARK Flexibility Score: inf
ROOT
ATOM      1  C   UNL     1       2.245  15.272  11.128  1.00  0.00     0.000 C 
ENDROOT
BRANCH   1   2
ATOM      2  C   UNL     1       1.791  15.326   9.657  1.00  0.00     0.000 C 
BRANCH   2   3
ATOM      3  C   UNL     1       1.644  13.956   8.967  1.00  0.00     0.000 C 
BRANCH   3   4
ATOM      4  C   UNL     1       2.523  13.747   7.719  1.00  0.00     0.006 C 
BRANCH   4   5
ATOM      5  C   UNL     1       3.765  12.872   7.968  1.00  0.00     0.053 C 
BRANCH   5   6
ATOM      6  C   UNL     1       3.422  11.534   8.548  1.00  0.00     0.041 C 
ATOM      7  O   UNL     1       2.642  10.758   7.937  1.00  0.00    -0.550 OA
ATOM      8  O   UNL     1       3.993  11.127   9.748  1.00  0.00    -0.550 OA
ENDBRANCH   5   6
ENDBRANCH   4   5
ENDBRANCH   3   4
ENDBRANCH   2   3
ENDBRANCH   1   2
BRANCH   1   9
ATOM      9  C   UNL     1       3.128  14.053  11.438  1.00  0.00     0.000 C 
BRANCH   9  10
ATOM     10  C   UNL     1       4.508  14.493  11.949  1.00  0.00    -0.000 C 
BRANCH  10  11
ATOM     11  C   UNL     1       5.662  13.951  11.090  1.00  0.00    -0.000 C 
BRANCH  11  12
ATOM     12  C   UNL     1       6.419  12.801  11.775  1.00  0.00    -0.000 C 
BRANCH  12  13
ATOM     13  C   UNL     1       5.874  12.490  13.179  1.00  0.00    -0.003 C 
ATOM     14  C   UNL     1       6.952  11.975  14.133  1.00  0.00     0.004 C 
ENDBRANCH  12  13
ENDBRANCH  11  12
ENDBRANCH  10  11
ENDBRANCH   9  10
ENDBRANCH   1   9
TORSDOF 10
ENDMDL
MODEL 4
REMARK VINA RESULT:    -3.726      2.779      4.675
REMARK INTER + INTRA:          -7.002
REMARK INTER:                  -5.353
REMARK INTRA:                  -1.650
REMARK UNBOUND:                -1.099
REMARK SMILES CCCCCCCCCCCC(=O)[O-]
REMARK SMILES IDX 7 1 8 2 9 3 10 4 11 5 12 6 13 7 14 8 6 9 5 10 4 11 3 12 2 13
REMARK SMILES IDX 1 14
REMARK H PARENT
REMARK Flexibility Score: inf
ROOT
ATOM      1  C   UNL     1       2.338  11.414  10.757  1.00  0.00     0.000 C 
ENDROOT
BRANCH   1   2
ATOM      2  C   UNL     1       3.526  11.156   9.811  1.00  0.00     0.000 C 
BRANCH   2   3
ATOM      3  C   UNL     1       3.687  12.178   8.670  1.00  0.00     0.000 C 
BRANCH   3   4
ATOM      4  C   UNL     1       2.371  12.687   8.047  1.00  0.00     0.006 C 
BRANCH   4   5
ATOM      5  C   UNL     1       2.234  14.220   8.042  1.00  0.00     0.053 C 
BRANCH   5   6
ATOM      6  C   UNL     1       1.070  14.699   8.854  1.00  0.00     0.041 C 
ATOM      7  O   UNL     1       0.215  13.881   9.283  1.00  0.00    -0.550 OA
ATOM      8  O   UNL     1       0.948  16.047   9.171  1.00  0.00    -0.550 OA
ENDBRANCH   5   6
ENDBRANCH   4   5
ENDBRANCH   3   4
ENDBRANCH   2   3
ENDBRANCH   1   2
BRANCH   1   9
ATOM      9  C   UNL     1       2.766  11.997  12.111  1.00  0.00     0.000 C 
BRANCH   9  10
ATOM     10  C   UNL     1       2.290  13.451  12.257  1.00  0.00    -0.000 C 
BRANCH  10  11
ATOM     11  C   UNL     1       3.284  14.464  11.666  1.00  0.00    -0.000 C 
BRANCH  11  12
ATOM     12  C   UNL     1       4.709  14.284  12.214  1.00  0.00    -0.000 C 
BRANCH  12  13
ATOM     13  C   UNL     1       5.732  13.984  11.107  1.00  0.00    -0.003 C 
ATOM     14  C   UNL     1       6.630  12.792  11.437  1.00  0.00     0.004 C 
ENDBRANCH  12  13
ENDBRANCH  11  12
ENDBRANCH  10  11
ENDBRANCH   9  10
ENDBRANCH   1   9
TORSDOF 10
ENDMDL
MODEL 5
REMARK VINA RESULT:    -3.698      1.865      3.738
REMARK INTER + INTRA:          -6.958
REMARK INTER:                  -5.561
REMARK INTRA:                  -1.397
REMARK UNBOUND:                -1.099
REMARK SMILES CCCCCCCCCCCC(=O)[O-]
REMARK SMILES IDX 7 1 8 2 9 3 10 4 11 5 12 6 13 7 14 8 6 9 5 10 4 11 3 12 2 13
REMARK SMILES IDX 1 14
REMARK H PARENT
REMARK Flexibility Score: inf
ROOT
ATOM      1  C   UNL     1       2.554  13.600   7.459  1.00  0.00     0.000 C 
ENDROOT
BRANCH   1   2
ATOM      2  C   UNL     1       3.852  13.084   8.110  1.00  0.00     0.000 C 
BRANCH   2   3
ATOM      3  C   UNL     1       3.953  11.552   8.241  1.00  0.00     0.000 C 
BRANCH   3   4
ATOM      4  C   UNL     1       4.198  11.026   9.669  1.00  0.00     0.006 C 
BRANCH   4   5
ATOM      5  C   UNL     1       2.909  10.769  10.471  1.00  0.00     0.053 C 
BRANCH   5   6
ATOM      6  C   UNL     1       1.940   9.891   9.740  1.00  0.00     0.041 C 
ATOM      7  O   UNL     1       0.792  10.318   9.446  1.00  0.00    -0.550 OA
ATOM      8  O   UNL     1       2.316   8.611   9.350  1.00  0.00    -0.550 OA
ENDBRANCH   5   6
ENDBRANCH   4   5
ENDBRANCH   3   4
ENDBRANCH   2   3
ENDBRANCH   1   2
BRANCH   1   9
ATOM      9  C   UNL     1       1.823  14.638   8.323  1.00  0.00     0.000 C 
BRANCH   9  10
ATOM     10  C   UNL     1       0.780  13.961   9.226  1.00  0.00    -0.000 C 
BRANCH  10  11
ATOM     11  C   UNL     1       1.252  13.824  10.682  1.00  0.00    -0.000 C 
BRANCH  11  12
ATOM     12  C   UNL     1       2.330  14.856  11.053  1.00  0.00    -0.000 C 
BRANCH  12  13
ATOM     13  C   UNL     1       3.597  14.203  11.629  1.00  0.00    -0.003 C 
ATOM     14  C   UNL     1       4.229  15.024  12.753  1.00  0.00     0.004 C 
ENDBRANCH  12  13
ENDBRANCH  11  12
ENDBRANCH  10  11
ENDBRANCH   9  10
ENDBRANCH   1   9
TORSDOF 10
ENDMDL
MODEL 6
REMARK VINA RESULT:    -3.683      1.021      3.788
REMARK INTER + INTRA:          -6.935
REMARK INTER:                  -5.709
REMARK INTRA:                  -1.227
REMARK UNBOUND:                -1.099
REMARK SMILES CCCCCCCCCCCC(=O)[O-]
REMARK SMILES IDX 7 1 8 2 9 3 10 4 11 5 12 6 13 7 14 8 6 9 5 10 4 11 3 12 2 13
REMARK SMILES IDX 1 14
REMARK H PARENT
REMARK Flexibility Score: inf
ROOT
ATOM      1  C   UNL     1       0.705  14.809   9.346  1.00  0.00     0.000 C 
ENDROOT
BRANCH   1   2
ATOM      2  C   UNL     1       1.255  13.673   8.462  1.00  0.00     0.000 C 
BRANCH   2   3
ATOM      3  C   UNL     1       2.492  14.041   7.620  1.00  0.00     0.000 C 
BRANCH   3   4
ATOM      4  C   UNL     1       3.720  13.130   7.817  1.00  0.00     0.006 C 
BRANCH   4   5
ATOM      5  C   UNL     1       3.514  12.020   8.863  1.00  0.00     0.053 C 
BRANCH   5   6
ATOM      6  C   UNL     1       4.336  10.800   8.579  1.00  0.00     0.041 C 
ATOM      7  O   UNL     1       3.777   9.719   8.255  1.00  0.00    -0.550 OA
ATOM      8  O   UNL     1       5.723  10.864   8.637  1.00  0.00    -0.550 OA
ENDBRANCH   5   6
ENDBRANCH   4   5
ENDBRANCH   3   4
ENDBRANCH   2   3
ENDBRANCH   1   2
BRANCH   1   9
ATOM      9  C   UNL     1       1.790  15.485  10.196  1.00  0.00     0.000 C 
BRANCH   9  10
ATOM     10  C   UNL     1       2.250  14.561  11.335  1.00  0.00    -0.000 C 
BRANCH  10  11
ATOM     11  C   UNL     1       3.773  14.580  11.539  1.00  0.00    -0.000 C 
BRANCH  11  12
ATOM     12  C   UNL     1       4.241  13.559  12.589  1.00  0.00    -0.000 C 
BRANCH  12  13
ATOM     13  C   UNL     1       5.704  13.134  12.385  1.00  0.00    -0.003 C 
ATOM     14  C   UNL     1       6.262  13.558  11.027  1.00  0.00     0.004 C 
ENDBRANCH  12  13
ENDBRANCH  11  12
ENDBRANCH  10  11
ENDBRANCH   9  10
ENDBRANCH   1   9
TORSDOF 10
ENDMDL
MODEL 7
REMARK VINA RESULT:    -3.673      4.724      6.240
REMARK INTER + INTRA:          -6.918
REMARK INTER:                  -6.011
REMARK INTRA:                  -0.907
REMARK UNBOUND:                -1.099
REMARK SMILES CCCCCCCCCCCC(=O)[O-]
REMARK SMILES IDX 7 1 8 2 9 3 10 4 11 5 12 6 13 7 14 8 6 9 5 10 4 11 3 12 2 13
REMARK SMILES IDX 1 14
REMARK H PARENT
REMARK Flexibility Score: inf
ROOT
ATOM      1  C   UNL     1       6.864  11.544  11.902  1.00  0.00     0.000 C 
ENDROOT
BRANCH   1   2
ATOM      2  C   UNL     1       7.431  11.943  13.277  1.00  0.00     0.000 C 
BRANCH   2   3
ATOM      3  C   UNL     1       6.400  11.993  14.421  1.00  0.00     0.000 C 
BRANCH   3   4
ATOM      4  C   UNL     1       6.992  12.066  15.842  1.00  0.00     0.006 C 
BRANCH   4   5
ATOM      5  C   UNL     1       8.521  11.891  15.893  1.00  0.00     0.053 C 
BRANCH   5   6
ATOM      6  C   UNL     1       9.022  11.581  17.270  1.00  0.00     0.041 C 
ATOM      7  O   UNL     1      10.229  11.274  17.453  1.00  0.00    -0.550 OA
ATOM      8  O   UNL     1       8.164  11.668  18.360  1.00  0.00    -0.550 OA
ENDBRANCH   5   6
ENDBRANCH   4   5
ENDBRANCH   3   4
ENDBRANCH   2   3
ENDBRANCH   1   2
BRANCH   1   9
ATOM      9  C   UNL     1       6.985  12.662  10.857  1.00  0.00     0.000 C 
BRANCH   9  10
ATOM     10  C   UNL     1       6.009  13.808  11.165  1.00  0.00    -0.000 C 
BRANCH  10  11
ATOM     11  C   UNL     1       4.541  13.422  10.921  1.00  0.00    -0.000 C 
BRANCH  11  12
ATOM     12  C   UNL     1       3.558  14.323  11.688  1.00  0.00    -0.000 C 
BRANCH  12  13
ATOM     13  C   UNL     1       4.208  15.004  12.902  1.00  0.00    -0.003 C 
ATOM     14  C   UNL     1       3.715  14.439  14.234  1.00  0.00     0.004 C 
ENDBRANCH  12  13
ENDBRANCH  11  12
ENDBRANCH  10  11
ENDBRANCH   9  10
ENDBRANCH   1   9
TORSDOF 10
ENDMDL
MODEL 8
REMARK VINA RESULT:    -3.671      1.983      3.662
REMARK INTER + INTRA:          -6.916
REMARK INTER:                  -5.221
REMARK INTRA:                  -1.695
REMARK UNBOUND:                -1.099
REMARK SMILES CCCCCCCCCCCC(=O)[O-]
REMARK SMILES IDX 7 1 8 2 9 3 10 4 11 5 12 6 13 7 14 8 6 9 5 10 4 11 3 12 2 13
REMARK SMILES IDX 1 14
REMARK H PARENT
REMARK Flexibility Score: inf
ROOT
ATOM      1  C   UNL     1       1.912  14.767  10.324  1.00  0.00     0.000 C 
ENDROOT
BRANCH   1   2
ATOM      2  C   UNL     1       1.861  13.746  11.477  1.00  0.00     0.000 C 
BRANCH   2   3
ATOM      3  C   UNL     1       3.230  13.352  12.062  1.00  0.00     0.000 C 
BRANCH   3   4
ATOM      4  C   UNL     1       4.411  14.252  11.647  1.00  0.00     0.006 C 
BRANCH   4   5
ATOM      5  C   UNL     1       5.589  13.487  11.016  1.00  0.00     0.053 C 
BRANCH   5   6
ATOM      6  C   UNL     1       6.077  12.365  11.879  1.00  0.00     0.041 C 
ATOM      7  O   UNL     1       6.082  11.184  11.444  1.00  0.00    -0.550 OA
ATOM      8  O   UNL     1       6.563  12.626  13.155  1.00  0.00    -0.550 OA
ENDBRANCH   5   6
ENDBRANCH   4   5
ENDBRANCH   3   4
ENDBRANCH   2   3
ENDBRANCH   1   2
BRANCH   1   9
ATOM      9  C   UNL     1       1.357  14.209   9.005  1.00  0.00     0.000 C 
BRANCH   9  10
ATOM     10  C   UNL     1       2.434  14.222   7.909  1.00  0.00    -0.000 C 
BRANCH  10  11
ATOM     11  C   UNL     1       3.377  13.011   7.988  1.00  0.00    -0.000 C 
BRANCH  11  12
ATOM     12  C   UNL     1       2.627  11.692   8.237  1.00  0.00    -0.000 C 
BRANCH  12  13
ATOM     13  C   UNL     1       3.241  10.871   9.382  1.00  0.00    -0.003 C 
ATOM     14  C   UNL     1       2.188  10.189  10.254  1.00  0.00     0.004 C 
ENDBRANCH  12  13
ENDBRANCH  11  12
ENDBRANCH  10  11
ENDBRANCH   9  10
ENDBRANCH   1   9
TORSDOF 10
ENDMDL
MODEL 9
REMARK VINA RESULT:    -3.651      1.316      2.012
REMARK INTER + INTRA:          -6.884
REMARK INTER:                  -5.625
REMARK INTRA:                  -1.259
REMARK UNBOUND:                -1.099
REMARK SMILES CCCCCCCCCCCC(=O)[O-]
REMARK SMILES IDX 7 1 8 2 9 3 10 4 11 5 12 6 13 7 14 8 6 9 5 10 4 11 3 12 2 13
REMARK SMILES IDX 1 14
REMARK H PARENT
REMARK Flexibility Score: inf
ROOT
ATOM      1  C   UNL     1       4.089  14.909  12.617  1.00  0.00     0.000 C 
ENDROOT
BRANCH   1   2
ATOM      2  C   UNL     1       5.215  14.309  11.755  1.00  0.00     0.000 C 
BRANCH   2   3
ATOM      3  C   UNL     1       5.693  12.909  12.187  1.00  0.00     0.000 C 
BRANCH   3   4
ATOM      4  C   UNL     1       6.994  12.420  11.520  1.00  0.00     0.006 C 
BRANCH   4   5
ATOM      5  C   UNL     1       6.975  10.931  11.129  1.00  0.00     0.053 C 
BRANCH   5   6
ATOM      6  C   UNL     1       7.284  10.711   9.679  1.00  0.00     0.041 C 
ATOM      7  O   UNL     1       6.422  10.205   8.915  1.00  0.00    -0.550 OA
ATOM      8  O   UNL     1       8.515  11.099   9.162  1.00  0.00    -0.550 OA
ENDBRANCH   5   6
ENDBRANCH   4   5
ENDBRANCH   3   4
ENDBRANCH   2   3
ENDBRANCH   1   2
BRANCH   1   9
ATOM      9  C   UNL     1       2.694  14.409  12.213  1.00  0.00     0.000 C 
BRANCH   9  10
ATOM     10  C   UNL     1       2.249  15.043  10.885  1.00  0.00    -0.000 C 
BRANCH  10  11
ATOM     11  C   UNL     1       1.739  14.005   9.872  1.00  0.00    -0.000 C 
BRANCH  11  12
ATOM     12  C   UNL     1       2.618  13.928   8.613  1.00  0.00    -0.000 C 
BRANCH  12  13
ATOM     13  C   UNL     1       3.738  12.883   8.739  1.00  0.00    -0.003 C 
ATOM     14  C   UNL     1       3.337  11.686   9.602  1.00  0.00     0.004 C 
ENDBRANCH  12  13
ENDBRANCH  11  12
ENDBRANCH  10  11
ENDBRANCH   9  10
ENDBRANCH   1   9
TORSDOF 10
ENDMDL
