MODEL 1
REMARK VINA RESULT:    -5.896      0.000      0.000
REMARK INTER + INTRA:          -7.165
REMARK INTER:                  -6.930
REMARK INTRA:                  -0.235
REMARK UNBOUND:                -0.235
REMARK SMILES O=c1c(O)c(-c2ccc(O)cc2)oc2cc(O)cc(O)c12
REMARK SMILES IDX 5 1 3 2 2 3 1 4 21 5 19 6 18 7 16 8 15 9 14 10 13 11 6 12
REMARK SMILES IDX 7 13 8 14 9 15 12 16 11 17 10 18 4 20 20 22 17 24
REMARK H PARENT 10 19 4 21 20 23 17 25
REMARK Flexibility Score: inf
ROOT
ATOM      1  C   UNL     1      39.559  20.695  -6.137  1.00  0.00     0.180 A 
ATOM      2  C   UNL     1      40.319  19.536  -6.371  1.00  0.00     0.208 A 
ATOM      3  C   UNL     1      41.165  19.060  -5.356  1.00  0.00     0.238 A 
ATOM      4  O   UNL     1      41.898  18.067  -5.598  1.00  0.00    -0.285 OA
ATOM      5  C   UNL     1      41.199  19.716  -4.101  1.00  0.00     0.111 A 
ATOM      6  C   UNL     1      41.985  19.295  -2.986  1.00  0.00     0.134 A 
ATOM      7  C   UNL     1      42.021  20.084  -1.829  1.00  0.00     0.093 A 
ATOM      8  C   UNL     1      41.250  21.240  -1.722  1.00  0.00     0.123 A 
ATOM      9  C   UNL     1      40.436  21.631  -2.785  1.00  0.00     0.094 A 
ATOM     10  C   UNL     1      40.409  20.887  -3.967  1.00  0.00     0.146 A 
ATOM     11  O   UNL     1      39.637  21.307  -4.962  1.00  0.00    -0.452 OA
ENDROOT
BRANCH   1  12
ATOM     12  C   UNL     1      38.656  21.265  -7.162  1.00  0.00     0.021 A 
ATOM     13  C   UNL     1      37.266  21.173  -6.986  1.00  0.00     0.016 A 
ATOM     14  C   UNL     1      36.394  21.725  -7.929  1.00  0.00     0.047 A 
ATOM     15  C   UNL     1      36.902  22.389  -9.054  1.00  0.00     0.115 A 
ATOM     16  C   UNL     1      39.159  21.951  -8.283  1.00  0.00     0.016 A 
ATOM     17  C   UNL     1      38.285  22.504  -9.224  1.00  0.00     0.047 A 
BRANCH  15  18
ATOM     18  O   UNL     1      36.043  22.943 -10.001  1.00  0.00    -0.508 OA
ATOM     19  H   UNL     1      35.709  23.895  -9.920  1.00  0.00     0.293 HD
ENDBRANCH  15  18
ENDBRANCH   1  12
BRANCH   2  20
ATOM     20  O   UNL     1      40.214  18.859  -7.589  1.00  0.00    -0.502 OA
ATOM     21  H   UNL     1      40.286  17.851  -7.659  1.00  0.00     0.293 HD
ENDBRANCH   2  20
BRANCH   6  22
ATOM     22  O   UNL     1      42.725  18.108  -2.951  1.00  0.00    -0.507 OA
ATOM     23  H   UNL     1      43.280  17.752  -3.713  1.00  0.00     0.293 HD
ENDBRANCH   6  22
BRANCH   8  24
ATOM     24  O   UNL     1      41.297  21.991  -0.549  1.00  0.00    -0.508 OA
ATOM     25  H   UNL     1      40.857  22.902  -0.485  1.00  0.00     0.293 HD
ENDBRANCH   8  24
TORSDOF 5
ENDMDL
MODEL 2
REMARK VINA RESULT:    -5.866      2.825      5.271
REMARK INTER + INTRA:          -7.130
REMARK INTER:                  -6.885
REMARK INTRA:                  -0.245
REMARK UNBOUND:                -0.235
REMARK SMILES O=c1c(O)c(-c2ccc(O)cc2)oc2cc(O)cc(O)c12
REMARK SMILES IDX 5 1 3 2 2 3 1 4 21 5 19 6 18 7 16 8 15 9 14 10 13 11 6 12
REMARK SMILES IDX 7 13 8 14 9 15 12 16 11 17 10 18 4 20 20 22 17 24
REMARK H PARENT 10 19 4 21 20 23 17 25
REMARK Flexibility Score: inf
ROOT
ATOM      1  C   UNL     1      41.257  18.108  -5.895  1.00  0.00     0.180 A 
ATOM      2  C   UNL     1      42.009  18.221  -4.714  1.00  0.00     0.208 A 
ATOM      3  C   UNL     1      41.624  19.167  -3.749  1.00  0.00     0.238 A 
ATOM      4  O   UNL     1      42.344  19.314  -2.729  1.00  0.00    -0.285 OA
ATOM      5  C   UNL     1      40.460  19.947  -3.953  1.00  0.00     0.111 A 
ATOM      6  C   UNL     1      39.951  20.903  -3.022  1.00  0.00     0.134 A 
ATOM      7  C   UNL     1      38.851  21.695  -3.377  1.00  0.00     0.093 A 
ATOM      8  C   UNL     1      38.203  21.520  -4.600  1.00  0.00     0.123 A 
ATOM      9  C   UNL     1      38.658  20.550  -5.493  1.00  0.00     0.094 A 
ATOM     10  C   UNL     1      39.776  19.773  -5.184  1.00  0.00     0.146 A 
ATOM     11  O   UNL     1      40.189  18.876  -6.072  1.00  0.00    -0.452 OA
ENDROOT
BRANCH   1  12
ATOM     12  C   UNL     1      41.608  17.145  -6.964  1.00  0.00     0.021 A 
ATOM     13  C   UNL     1      41.271  15.790  -6.812  1.00  0.00     0.016 A 
ATOM     14  C   UNL     1      41.572  14.868  -7.819  1.00  0.00     0.047 A 
ATOM     15  C   UNL     1      42.201  15.292  -8.997  1.00  0.00     0.115 A 
ATOM     16  C   UNL     1      42.220  17.567  -8.159  1.00  0.00     0.016 A 
ATOM     17  C   UNL     1      42.519  16.642  -9.165  1.00  0.00     0.047 A 
BRANCH  15  18
ATOM     18  O   UNL     1      42.506  14.382 -10.007  1.00  0.00    -0.508 OA
ATOM     19  H   UNL     1      43.388  13.884 -10.022  1.00  0.00     0.293 HD
ENDBRANCH  15  18
ENDBRANCH   1  12
BRANCH   2  20
ATOM     20  O   UNL     1      43.110  17.388  -4.497  1.00  0.00    -0.502 OA
ATOM     21  H   UNL     1      44.062  17.733  -4.502  1.00  0.00     0.293 HD
ENDBRANCH   2  20
BRANCH   6  22
ATOM     22  O   UNL     1      40.467  21.098  -1.737  1.00  0.00    -0.507 OA
ATOM     23  H   UNL     1      40.616  21.997  -1.305  1.00  0.00     0.293 HD
ENDBRANCH   6  22
BRANCH   8  24
ATOM     24  O   UNL     1      37.100  22.313  -4.912  1.00  0.00    -0.508 OA
ATOM     25  H   UNL     1      36.156  22.022  -4.684  1.00  0.00     0.293 HD
ENDBRANCH   8  24
TORSDOF 5
ENDMDL
MODEL 3
REMARK VINA RESULT:    -5.811      7.688     12.637
REMARK INTER + INTRA:          -7.064
REMARK INTER:                  -6.936
REMARK INTRA:                  -0.128
REMARK UNBOUND:                -0.235
REMARK SMILES O=c1c(O)c(-c2ccc(O)cc2)oc2cc(O)cc(O)c12
REMARK SMILES IDX 5 1 3 2 2 3 1 4 21 5 19 6 18 7 16 8 15 9 14 10 13 11 6 12
REMARK SMILES IDX 7 13 8 14 9 15 12 16 11 17 10 18 4 20 20 22 17 24
REMARK H PARENT 10 19 4 21 20 23 17 25
REMARK Flexibility Score: inf
ROOT
ATOM      1  C   UNL     1      41.968  20.440   5.715  1.00  0.00     0.180 A 
ATOM      2  C   UNL     1      42.048  21.837   5.849  1.00  0.00     0.208 A 
ATOM      3  C   UNL     1      42.277  22.619   4.706  1.00  0.00     0.238 A 
ATOM      4  O   UNL     1      42.421  23.861   4.844  1.00  0.00    -0.285 OA
ATOM      5  C   UNL     1      42.368  22.000   3.435  1.00  0.00     0.111 A 
ATOM      6  C   UNL     1      42.554  22.699   2.203  1.00  0.00     0.134 A 
ATOM      7  C   UNL     1      42.737  21.974   1.019  1.00  0.00     0.093 A 
ATOM      8  C   UNL     1      42.676  20.581   1.011  1.00  0.00     0.123 A 
ATOM      9  C   UNL     1      42.439  19.891   2.200  1.00  0.00     0.094 A 
ATOM     10  C   UNL     1      42.292  20.584   3.403  1.00  0.00     0.146 A 
ATOM     11  O   UNL     1      42.090  19.886   4.515  1.00  0.00    -0.452 OA
ENDROOT
BRANCH   1  12
ATOM     12  C   UNL     1      41.743  19.548   6.875  1.00  0.00     0.021 A 
ATOM     13  C   UNL     1      40.518  19.603   7.561  1.00  0.00     0.016 A 
ATOM     14  C   UNL     1      40.275  18.753   8.645  1.00  0.00     0.047 A 
ATOM     15  C   UNL     1      41.248  17.828   9.046  1.00  0.00     0.115 A 
ATOM     16  C   UNL     1      42.706  18.602   7.271  1.00  0.00     0.016 A 
ATOM     17  C   UNL     1      42.460  17.753   8.354  1.00  0.00     0.047 A 
BRANCH  15  18
ATOM     18  O   UNL     1      41.016  16.977  10.125  1.00  0.00    -0.508 OA
ATOM     19  H   UNL     1      40.361  16.208  10.061  1.00  0.00     0.293 HD
ENDBRANCH  15  18
ENDBRANCH   1  12
BRANCH   2  20
ATOM     20  O   UNL     1      41.878  22.434   7.102  1.00  0.00    -0.502 OA
ATOM     21  H   UNL     1      42.563  23.065   7.500  1.00  0.00     0.293 HD
ENDBRANCH   2  20
BRANCH   6  22
ATOM     22  O   UNL     1      42.543  24.092   2.083  1.00  0.00    -0.507 OA
ATOM     23  H   UNL     1      43.362  24.680   2.101  1.00  0.00     0.293 HD
ENDBRANCH   6  22
BRANCH   8  24
ATOM     24  O   UNL     1      42.845  19.893  -0.190  1.00  0.00    -0.508 OA
ATOM     25  H   UNL     1      42.163  19.217  -0.513  1.00  0.00     0.293 HD
ENDBRANCH   8  24
TORSDOF 5
ENDMDL
MODEL 4
REMARK VINA RESULT:    -5.562      2.349      7.346
REMARK INTER + INTRA:          -6.772
REMARK INTER:                  -7.089
REMARK INTRA:                   0.316
REMARK UNBOUND:                -0.235
REMARK SMILES O=c1c(O)c(-c2ccc(O)cc2)oc2cc(O)cc(O)c12
REMARK SMILES IDX 5 1 3 2 2 3 1 4 21 5 19 6 18 7 16 8 15 9 14 10 13 11 6 12
REMARK SMILES IDX 7 13 8 14 9 15 12 16 11 17 10 18 4 20 20 22 17 24
REMARK H PARENT 10 19 4 21 20 23 17 25
REMARK Flexibility Score: inf
ROOT
ATOM      1  C   UNL     1      41.392  20.578  -1.478  1.00  0.00     0.180 A 
ATOM      2  C   UNL     1      42.007  19.557  -2.223  1.00  0.00     0.208 A 
ATOM      3  C   UNL     1      41.504  19.247  -3.497  1.00  0.00     0.238 A 
ATOM      4  O   UNL     1      42.011  18.284  -4.127  1.00  0.00    -0.285 OA
ATOM      5  C   UNL     1      40.429  19.998  -4.033  1.00  0.00     0.111 A 
ATOM      6  C   UNL     1      39.869  19.800  -5.332  1.00  0.00     0.134 A 
ATOM      7  C   UNL     1      38.737  20.531  -5.714  1.00  0.00     0.093 A 
ATOM      8  C   UNL     1      38.186  21.497  -4.872  1.00  0.00     0.123 A 
ATOM      9  C   UNL     1      38.759  21.737  -3.623  1.00  0.00     0.094 A 
ATOM     10  C   UNL     1      39.864  20.996  -3.198  1.00  0.00     0.146 A 
ATOM     11  O   UNL     1      40.365  21.242  -1.993  1.00  0.00    -0.452 OA
ENDROOT
BRANCH   1  12
ATOM     12  C   UNL     1      41.855  20.952  -0.122  1.00  0.00     0.021 A 
ATOM     13  C   UNL     1      41.592  22.243   0.365  1.00  0.00     0.016 A 
ATOM     14  C   UNL     1      41.999  22.611   1.651  1.00  0.00     0.047 A 
ATOM     15  C   UNL     1      42.663  21.688   2.471  1.00  0.00     0.115 A 
ATOM     16  C   UNL     1      42.504  20.025   0.714  1.00  0.00     0.016 A 
ATOM     17  C   UNL     1      42.909  20.396   2.000  1.00  0.00     0.047 A 
BRANCH  15  18
ATOM     18  O   UNL     1      43.074  22.044   3.753  1.00  0.00    -0.508 OA
ATOM     19  H   UNL     1      42.407  22.291   4.474  1.00  0.00     0.293 HD
ENDBRANCH  15  18
ENDBRANCH   1  12
BRANCH   2  20
ATOM     20  O   UNL     1      43.115  18.879  -1.708  1.00  0.00    -0.502 OA
ATOM     21  H   UNL     1      43.992  19.345  -1.509  1.00  0.00     0.293 HD
ENDBRANCH   2  20
BRANCH   6  22
ATOM     22  O   UNL     1      40.394  18.924  -6.287  1.00  0.00    -0.507 OA
ATOM     23  H   UNL     1      41.376  18.778  -6.458  1.00  0.00     0.293 HD
ENDBRANCH   6  22
BRANCH   8  24
ATOM     24  O   UNL     1      37.070  22.219  -5.293  1.00  0.00    -0.508 OA
ATOM     25  H   UNL     1      37.056  23.232  -5.275  1.00  0.00     0.293 HD
ENDBRANCH   8  24
TORSDOF 5
ENDMDL
MODEL 5
REMARK VINA RESULT:    -5.240      3.502      8.359
REMARK INTER + INTRA:          -6.393
REMARK INTER:                  -6.622
REMARK INTRA:                   0.228
REMARK UNBOUND:                -0.235
REMARK SMILES O=c1c(O)c(-c2ccc(O)cc2)oc2cc(O)cc(O)c12
REMARK SMILES IDX 5 1 3 2 2 3 1 4 21 5 19 6 18 7 16 8 15 9 14 10 13 11 6 12
REMARK SMILES IDX 7 13 8 14 9 15 12 16 11 17 10 18 4 20 20 22 17 24
REMARK H PARENT 10 19 4 21 20 23 17 25
REMARK Flexibility Score: inf
ROOT
ATOM      1  C   UNL     1      41.790  21.515  -0.239  1.00  0.00     0.180 A 
ATOM      2  C   UNL     1      41.280  22.604  -0.966  1.00  0.00     0.208 A 
ATOM      3  C   UNL     1      41.127  22.482  -2.356  1.00  0.00     0.238 A 
ATOM      4  O   UNL     1      40.740  23.485  -3.010  1.00  0.00    -0.285 OA
ATOM      5  C   UNL     1      41.431  21.254  -2.994  1.00  0.00     0.111 A 
ATOM      6  C   UNL     1      41.270  21.004  -4.391  1.00  0.00     0.134 A 
ATOM      7  C   UNL     1      41.706  19.786  -4.929  1.00  0.00     0.093 A 
ATOM      8  C   UNL     1      42.234  18.787  -4.113  1.00  0.00     0.123 A 
ATOM      9  C   UNL     1      42.344  19.000  -2.738  1.00  0.00     0.094 A 
ATOM     10  C   UNL     1      41.955  20.219  -2.178  1.00  0.00     0.146 A 
ATOM     11  O   UNL     1      42.098  20.388  -0.869  1.00  0.00    -0.452 OA
ENDROOT
BRANCH   1  12
ATOM     12  C   UNL     1      41.995  21.572   1.227  1.00  0.00     0.021 A 
ATOM     13  C   UNL     1      41.852  20.402   1.990  1.00  0.00     0.016 A 
ATOM     14  C   UNL     1      42.063  20.427   3.372  1.00  0.00     0.047 A 
ATOM     15  C   UNL     1      42.434  21.621   4.006  1.00  0.00     0.115 A 
ATOM     16  C   UNL     1      42.387  22.762   1.867  1.00  0.00     0.016 A 
ATOM     17  C   UNL     1      42.599  22.784   3.249  1.00  0.00     0.047 A 
BRANCH  15  18
ATOM     18  O   UNL     1      42.646  21.658   5.382  1.00  0.00    -0.508 OA
ATOM     19  H   UNL     1      42.711  22.535   5.884  1.00  0.00     0.293 HD
ENDBRANCH  15  18
ENDBRANCH   1  12
BRANCH   2  20
ATOM     20  O   UNL     1      40.913  23.781  -0.307  1.00  0.00    -0.502 OA
ATOM     21  H   UNL     1      41.078  24.699  -0.702  1.00  0.00     0.293 HD
ENDBRANCH   2  20
BRANCH   6  22
ATOM     22  O   UNL     1      40.672  21.898  -5.284  1.00  0.00    -0.507 OA
ATOM     23  H   UNL     1      40.470  22.866  -5.084  1.00  0.00     0.293 HD
ENDBRANCH   6  22
BRANCH   8  24
ATOM     24  O   UNL     1      42.640  17.580  -4.679  1.00  0.00    -0.508 OA
ATOM     25  H   UNL     1      43.621  17.358  -4.807  1.00  0.00     0.293 HD
ENDBRANCH   8  24
TORSDOF 5
ENDMDL
MODEL 6
REMARK VINA RESULT:    -5.233      2.614      4.731
REMARK INTER + INTRA:          -6.385
REMARK INTER:                  -6.501
REMARK INTRA:                   0.116
REMARK UNBOUND:                -0.235
REMARK SMILES O=c1c(O)c(-c2ccc(O)cc2)oc2cc(O)cc(O)c12
REMARK SMILES IDX 5 1 3 2 2 3 1 4 21 5 19 6 18 7 16 8 15 9 14 10 13 11 6 12
REMARK SMILES IDX 7 13 8 14 9 15 12 16 11 17 10 18 4 20 20 22 17 24
REMARK H PARENT 10 19 4 21 20 23 17 25
REMARK Flexibility Score: inf
ROOT
ATOM      1  C   UNL     1      40.656  18.860  -5.534  1.00  0.00     0.180 A 
ATOM      2  C   UNL     1      39.566  19.738  -5.660  1.00  0.00     0.208 A 
ATOM      3  C   UNL     1      39.383  20.739  -4.693  1.00  0.00     0.238 A 
ATOM      4  O   UNL     1      38.365  21.473  -4.771  1.00  0.00    -0.285 OA
ATOM      5  C   UNL     1      40.323  20.886  -3.644  1.00  0.00     0.111 A 
ATOM      6  C   UNL     1      40.262  21.894  -2.634  1.00  0.00     0.134 A 
ATOM      7  C   UNL     1      41.188  21.876  -1.583  1.00  0.00     0.093 A 
ATOM      8  C   UNL     1      42.210  20.930  -1.541  1.00  0.00     0.123 A 
ATOM      9  C   UNL     1      42.312  19.974  -2.552  1.00  0.00     0.094 A 
ATOM     10  C   UNL     1      41.381  19.942  -3.591  1.00  0.00     0.146 A 
ATOM     11  O   UNL     1      41.502  19.002  -4.522  1.00  0.00    -0.452 OA
ENDROOT
BRANCH   1  12
ATOM     12  C   UNL     1      40.907  17.771  -6.505  1.00  0.00     0.021 A 
ATOM     13  C   UNL     1      40.863  18.048  -7.882  1.00  0.00     0.016 A 
ATOM     14  C   UNL     1      41.120  17.041  -8.816  1.00  0.00     0.047 A 
ATOM     15  C   UNL     1      41.439  15.746  -8.386  1.00  0.00     0.115 A 
ATOM     16  C   UNL     1      41.249  16.474  -6.080  1.00  0.00     0.016 A 
ATOM     17  C   UNL     1      41.507  15.468  -7.018  1.00  0.00     0.047 A 
BRANCH  15  18
ATOM     18  O   UNL     1      41.696  14.734  -9.308  1.00  0.00    -0.508 OA
ATOM     19  H   UNL     1      41.878  14.939 -10.283  1.00  0.00     0.293 HD
ENDBRANCH  15  18
ENDBRANCH   1  12
BRANCH   2  20
ATOM     20  O   UNL     1      38.693  19.625  -6.746  1.00  0.00    -0.502 OA
ATOM     21  H   UNL     1      38.782  18.894  -7.442  1.00  0.00     0.293 HD
ENDBRANCH   2  20
BRANCH   6  22
ATOM     22  O   UNL     1      39.335  22.942  -2.627  1.00  0.00    -0.507 OA
ATOM     23  H   UNL     1      39.353  23.724  -1.992  1.00  0.00     0.293 HD
ENDBRANCH   6  22
BRANCH   8  24
ATOM     24  O   UNL     1      43.125  20.953  -0.489  1.00  0.00    -0.508 OA
ATOM     25  H   UNL     1      42.973  21.527   0.332  1.00  0.00     0.293 HD
ENDBRANCH   8  24
TORSDOF 5
ENDMDL
MODEL 7
REMARK VINA RESULT:    -5.181      5.241      9.062
REMARK INTER + INTRA:          -6.324
REMARK INTER:                  -6.436
REMARK INTRA:                   0.112
REMARK UNBOUND:                -0.235
REMARK SMILES O=c1c(O)c(-c2ccc(O)cc2)oc2cc(O)cc(O)c12
REMARK SMILES IDX 5 1 3 2 2 3 1 4 21 5 19 6 18 7 16 8 15 9 14 10 13 11 6 12
REMARK SMILES IDX 7 13 8 14 9 15 12 16 11 17 10 18 4 20 20 22 17 24
REMARK H PARENT 10 19 4 21 20 23 17 25
REMARK Flexibility Score: inf
ROOT
ATOM      1  C   UNL     1      42.353  21.029   1.804  1.00  0.00     0.180 A 
ATOM      2  C   UNL     1      42.399  22.326   2.344  1.00  0.00     0.208 A 
ATOM      3  C   UNL     1      42.372  22.483   3.740  1.00  0.00     0.238 A 
ATOM      4  O   UNL     1      42.339  23.647   4.214  1.00  0.00    -0.285 OA
ATOM      5  C   UNL     1      42.356  21.341   4.577  1.00  0.00     0.111 A 
ATOM      6  C   UNL     1      42.373  21.382   6.005  1.00  0.00     0.134 A 
ATOM      7  C   UNL     1      42.246  20.191   6.731  1.00  0.00     0.093 A 
ATOM      8  C   UNL     1      42.168  18.958   6.084  1.00  0.00     0.123 A 
ATOM      9  C   UNL     1      42.206  18.903   4.691  1.00  0.00     0.094 A 
ATOM     10  C   UNL     1      42.293  20.076   3.938  1.00  0.00     0.146 A 
ATOM     11  O   UNL     1      42.305  19.979   2.614  1.00  0.00    -0.452 OA
ENDROOT
BRANCH   1  12
ATOM     12  C   UNL     1      42.363  20.783   0.344  1.00  0.00     0.021 A 
ATOM     13  C   UNL     1      43.115  19.714  -0.172  1.00  0.00     0.016 A 
ATOM     14  C   UNL     1      43.121  19.449  -1.544  1.00  0.00     0.047 A 
ATOM     15  C   UNL     1      42.362  20.241  -2.418  1.00  0.00     0.115 A 
ATOM     16  C   UNL     1      41.588  21.561  -0.536  1.00  0.00     0.016 A 
ATOM     17  C   UNL     1      41.595  21.292  -1.909  1.00  0.00     0.047 A 
BRANCH  15  18
ATOM     18  O   UNL     1      42.361  19.986  -3.787  1.00  0.00    -0.508 OA
ATOM     19  H   UNL     1      42.616  19.078  -4.157  1.00  0.00     0.293 HD
ENDBRANCH  15  18
ENDBRANCH   1  12
BRANCH   2  20
ATOM     20  O   UNL     1      42.493  23.437   1.502  1.00  0.00    -0.502 OA
ATOM     21  H   UNL     1      42.153  24.353   1.770  1.00  0.00     0.293 HD
ENDBRANCH   2  20
BRANCH   6  22
ATOM     22  O   UNL     1      42.536  22.551   6.754  1.00  0.00    -0.507 OA
ATOM     23  H   UNL     1      42.926  23.412   6.403  1.00  0.00     0.293 HD
ENDBRANCH   6  22
BRANCH   8  24
ATOM     24  O   UNL     1      42.061  17.791   6.839  1.00  0.00    -0.508 OA
ATOM     25  H   UNL     1      42.276  17.779   7.830  1.00  0.00     0.293 HD
ENDBRANCH   8  24
TORSDOF 5
ENDMDL
MODEL 8
REMARK VINA RESULT:    -5.146      2.627      6.389
REMARK INTER + INTRA:          -6.284
REMARK INTER:                  -6.247
REMARK INTRA:                  -0.037
REMARK UNBOUND:                -0.235
REMARK SMILES O=c1c(O)c(-c2ccc(O)cc2)oc2cc(O)cc(O)c12
REMARK SMILES IDX 5 1 3 2 2 3 1 4 21 5 19 6 18 7 16 8 15 9 14 10 13 11 6 12
REMARK SMILES IDX 7 13 8 14 9 15 12 16 11 17 10 18 4 20 20 22 17 24
REMARK H PARENT 10 19 4 21 20 23 17 25
REMARK Flexibility Score: inf
ROOT
ATOM      1  C   UNL     1      41.097  19.570  -5.354  1.00  0.00     0.180 A 
ATOM      2  C   UNL     1      40.808  20.234  -6.559  1.00  0.00     0.208 A 
ATOM      3  C   UNL     1      40.748  19.491  -7.749  1.00  0.00     0.238 A 
ATOM      4  O   UNL     1      40.562  20.102  -8.832  1.00  0.00    -0.285 OA
ATOM      5  C   UNL     1      40.923  18.086  -7.711  1.00  0.00     0.111 A 
ATOM      6  C   UNL     1      40.838  17.227  -8.850  1.00  0.00     0.134 A 
ATOM      7  C   UNL     1      41.135  15.865  -8.711  1.00  0.00     0.093 A 
ATOM      8  C   UNL     1      41.449  15.320  -7.467  1.00  0.00     0.123 A 
ATOM      9  C   UNL     1      41.481  16.140  -6.338  1.00  0.00     0.094 A 
ATOM     10  C   UNL     1      41.227  17.509  -6.452  1.00  0.00     0.146 A 
ATOM     11  O   UNL     1      41.289  18.257  -5.356  1.00  0.00    -0.452 OA
ENDROOT
BRANCH   1  12
ATOM     12  C   UNL     1      41.192  20.287  -4.062  1.00  0.00     0.021 A 
ATOM     13  C   UNL     1      40.086  21.016  -3.594  1.00  0.00     0.016 A 
ATOM     14  C   UNL     1      40.144  21.681  -2.366  1.00  0.00     0.047 A 
ATOM     15  C   UNL     1      41.305  21.613  -1.583  1.00  0.00     0.115 A 
ATOM     16  C   UNL     1      42.346  20.206  -3.261  1.00  0.00     0.016 A 
ATOM     17  C   UNL     1      42.401  20.872  -2.032  1.00  0.00     0.047 A 
BRANCH  15  18
ATOM     18  O   UNL     1      41.375  22.272  -0.358  1.00  0.00    -0.508 OA
ATOM     19  H   UNL     1      41.011  23.210  -0.239  1.00  0.00     0.293 HD
ENDBRANCH  15  18
ENDBRANCH   1  12
BRANCH   2  20
ATOM     20  O   UNL     1      40.562  21.610  -6.563  1.00  0.00    -0.502 OA
ATOM     21  H   UNL     1      40.191  22.094  -7.372  1.00  0.00     0.293 HD
ENDBRANCH   2  20
BRANCH   6  22
ATOM     22  O   UNL     1      40.447  17.650 -10.124  1.00  0.00    -0.507 OA
ATOM     23  H   UNL     1      40.537  17.105 -10.967  1.00  0.00     0.293 HD
ENDBRANCH   6  22
BRANCH   8  24
ATOM     24  O   UNL     1      41.722  13.957  -7.363  1.00  0.00    -0.508 OA
ATOM     25  H   UNL     1      41.699  13.349  -8.173  1.00  0.00     0.293 HD
ENDBRANCH   8  24
TORSDOF 5
ENDMDL
MODEL 9
REMARK VINA RESULT:    -4.876      3.512      5.008
REMARK INTER + INTRA:          -5.966
REMARK INTER:                  -5.714
REMARK INTRA:                  -0.252
REMARK UNBOUND:                -0.235
REMARK SMILES O=c1c(O)c(-c2ccc(O)cc2)oc2cc(O)cc(O)c12
REMARK SMILES IDX 5 1 3 2 2 3 1 4 21 5 19 6 18 7 16 8 15 9 14 10 13 11 6 12
REMARK SMILES IDX 7 13 8 14 9 15 12 16 11 17 10 18 4 20 20 22 17 24
REMARK H PARENT 10 19 4 21 20 23 17 25
REMARK Flexibility Score: inf
ROOT
ATOM      1  C   UNL     1      41.585  20.118  -3.542  1.00  0.00     0.180 A 
ATOM      2  C   UNL     1      40.996  21.393  -3.589  1.00  0.00     0.208 A 
ATOM      3  C   UNL     1      40.936  22.160  -2.414  1.00  0.00     0.238 A 
ATOM      4  O   UNL     1      40.341  23.268  -2.447  1.00  0.00    -0.285 OA
ATOM      5  C   UNL     1      41.515  21.665  -1.220  1.00  0.00     0.111 A 
ATOM      6  C   UNL     1      41.552  22.376   0.019  1.00  0.00     0.134 A 
ATOM      7  C   UNL     1      42.056  21.743   1.163  1.00  0.00     0.093 A 
ATOM      8  C   UNL     1      42.583  20.454   1.099  1.00  0.00     0.123 A 
ATOM      9  C   UNL     1      42.602  19.772  -0.117  1.00  0.00     0.094 A 
ATOM     10  C   UNL     1      42.071  20.361  -1.267  1.00  0.00     0.146 A 
ATOM     11  O   UNL     1      42.090  19.669  -2.400  1.00  0.00    -0.452 OA
ENDROOT
BRANCH   1  12
ATOM     12  C   UNL     1      41.673  19.246  -4.734  1.00  0.00     0.021 A 
ATOM     13  C   UNL     1      40.536  18.537  -5.157  1.00  0.00     0.016 A 
ATOM     14  C   UNL     1      40.589  17.725  -6.294  1.00  0.00     0.047 A 
ATOM     15  C   UNL     1      41.777  17.624  -7.032  1.00  0.00     0.115 A 
ATOM     16  C   UNL     1      42.855  19.155  -5.491  1.00  0.00     0.016 A 
ATOM     17  C   UNL     1      42.905  18.343  -6.629  1.00  0.00     0.047 A 
BRANCH  15  18
ATOM     18  O   UNL     1      41.842  16.818  -8.166  1.00  0.00    -0.508 OA
ATOM     19  H   UNL     1      41.052  16.259  -8.465  1.00  0.00     0.293 HD
ENDBRANCH  15  18
ENDBRANCH   1  12
BRANCH   2  20
ATOM     20  O   UNL     1      40.499  21.895  -4.795  1.00  0.00    -0.502 OA
ATOM     21  H   UNL     1      39.903  21.350  -5.406  1.00  0.00     0.293 HD
ENDBRANCH   2  20
BRANCH   6  22
ATOM     22  O   UNL     1      41.133  23.701   0.176  1.00  0.00    -0.507 OA
ATOM     23  H   UNL     1      41.667  24.511  -0.097  1.00  0.00     0.293 HD
ENDBRANCH   6  22
BRANCH   8  24
ATOM     24  O   UNL     1      43.093  19.863   2.254  1.00  0.00    -0.508 OA
ATOM     25  H   UNL     1      42.485  19.557   3.005  1.00  0.00     0.293 HD
ENDBRANCH   8  24
TORSDOF 5
ENDMDL
