MODEL 1
REMARK VINA RESULT:    -4.784      0.000      0.000
REMARK INTER + INTRA:         -11.785
REMARK INTER:                  -9.258
REMARK INTRA:                  -2.527
REMARK UNBOUND:                -2.527
REMARK SMILES CCCCCCCCCCCCCCCCCC(=O)[O-]
REMARK SMILES IDX 10 1 11 2 12 3 13 4 14 5 15 6 16 7 17 8 18 9 19 10 20 11
REMARK SMILES IDX 9 12 8 13 7 14 6 15 5 16 4 17 3 18 2 19 1 20
REMARK H PARENT
REMARK Flexibility Score: inf
ROOT
ATOM      1  C   UNL     1     -22.261  -5.793  17.694  1.00  0.00     0.000 C 
ENDROOT
BRANCH   1   2
ATOM      2  C   UNL     1     -21.288  -5.028  16.783  1.00  0.00     0.000 C 
BRANCH   2   3
ATOM      3  C   UNL     1     -20.905  -5.831  15.526  1.00  0.00     0.000 C 
BRANCH   3   4
ATOM      4  C   UNL     1     -19.531  -5.430  14.965  1.00  0.00     0.000 C 
BRANCH   4   5
ATOM      5  C   UNL     1     -18.610  -6.636  14.729  1.00  0.00     0.000 C 
BRANCH   5   6
ATOM      6  C   UNL     1     -19.125  -7.876  15.475  1.00  0.00     0.000 C 
BRANCH   6   7
ATOM      7  C   UNL     1     -18.116  -8.413  16.502  1.00  0.00     0.006 C 
BRANCH   7   8
ATOM      8  C   UNL     1     -18.796  -9.081  17.704  1.00  0.00     0.053 C 
BRANCH   8   9
ATOM      9  C   UNL     1     -17.811  -9.910  18.466  1.00  0.00     0.041 C 
ATOM     10  O   UNL     1     -18.084 -11.102  18.768  1.00  0.00    -0.550 OA
ATOM     11  O   UNL     1     -16.612  -9.350  18.890  1.00  0.00    -0.550 OA
ENDBRANCH   8   9
ENDBRANCH   7   8
ENDBRANCH   6   7
ENDBRANCH   5   6
ENDBRANCH   4   5
ENDBRANCH   3   4
ENDBRANCH   2   3
ENDBRANCH   1   2
BRANCH   1  12
ATOM     12  C   UNL     1     -21.770  -7.210  18.029  1.00  0.00     0.000 C 
BRANCH  12  13
ATOM     13  C   UNL     1     -22.802  -8.263  17.606  1.00  0.00    -0.000 C 
BRANCH  13  14
ATOM     14  C   UNL     1     -22.241  -9.167  16.498  1.00  0.00    -0.000 C 
BRANCH  14  15
ATOM     15  C   UNL     1     -23.116  -9.168  15.234  1.00  0.00    -0.000 C 
BRANCH  15  16
ATOM     16  C   UNL     1     -23.549  -7.751  14.817  1.00  0.00    -0.000 C 
BRANCH  16  17
ATOM     17  C   UNL     1     -25.072  -7.541  14.899  1.00  0.00    -0.000 C 
BRANCH  17  18
ATOM     18  C   UNL     1     -25.532  -6.479  15.914  1.00  0.00    -0.000 C 
BRANCH  18  19
ATOM     19  C   UNL     1     -26.322  -7.074  17.089  1.00  0.00    -0.003 C 
ATOM     20  C   UNL     1     -25.926  -6.414  18.407  1.00  0.00     0.004 C 
ENDBRANCH  18  19
ENDBRANCH  17  18
ENDBRANCH  16  17
ENDBRANCH  15  16
ENDBRANCH  14  15
ENDBRANCH  13  14
ENDBRANCH  12  13
ENDBRANCH   1  12
TORSDOF 16
ENDMDL
MODEL 2
REMARK VINA RESULT:    -4.646      1.013      1.971
REMARK INTER + INTRA:         -11.518
REMARK INTER:                  -9.192
REMARK INTRA:                  -2.326
REMARK UNBOUND:                -2.527
REMARK SMILES CCCCCCCCCCCCCCCCCC(=O)[O-]
REMARK SMILES IDX 10 1 11 2 12 3 13 4 14 5 15 6 16 7 17 8 18 9 19 10 20 11
REMARK SMILES IDX 9 12 8 13 7 14 6 15 5 16 4 17 3 18 2 19 1 20
REMARK H PARENT
REMARK Flexibility Score: inf
ROOT
ATOM      1  C   UNL     1     -22.291  -5.733  17.597  1.00  0.00     0.000 C 
ENDROOT
BRANCH   1   2
ATOM      2  C   UNL     1     -21.076  -5.049  16.951  1.00  0.00     0.000 C 
BRANCH   2   3
ATOM      3  C   UNL     1     -21.287  -4.771  15.452  1.00  0.00     0.000 C 
BRANCH   3   4
ATOM      4  C   UNL     1     -20.869  -5.956  14.566  1.00  0.00     0.000 C 
BRANCH   4   5
ATOM      5  C   UNL     1     -19.515  -6.555  14.971  1.00  0.00     0.000 C 
BRANCH   5   6
ATOM      6  C   UNL     1     -19.672  -8.016  15.419  1.00  0.00     0.000 C 
BRANCH   6   7
ATOM      7  C   UNL     1     -18.510  -8.495  16.303  1.00  0.00     0.006 C 
BRANCH   7   8
ATOM      8  C   UNL     1     -18.990  -9.181  17.589  1.00  0.00     0.053 C 
BRANCH   8   9
ATOM      9  C   UNL     1     -17.829  -9.745  18.344  1.00  0.00     0.041 C 
ATOM     10  O   UNL     1     -16.776  -9.069  18.487  1.00  0.00    -0.550 OA
ATOM     11  O   UNL     1     -17.889 -11.040  18.846  1.00  0.00    -0.550 OA
ENDBRANCH   8   9
ENDBRANCH   7   8
ENDBRANCH   6   7
ENDBRANCH   5   6
ENDBRANCH   4   5
ENDBRANCH   3   4
ENDBRANCH   2   3
ENDBRANCH   1   2
BRANCH   1  12
ATOM     12  C   UNL     1     -22.005  -7.187  18.006  1.00  0.00     0.000 C 
BRANCH  12  13
ATOM     13  C   UNL     1     -23.131  -8.119  17.541  1.00  0.00    -0.000 C 
BRANCH  13  14
ATOM     14  C   UNL     1     -23.610  -7.740  16.132  1.00  0.00    -0.000 C 
BRANCH  14  15
ATOM     15  C   UNL     1     -25.139  -7.600  16.043  1.00  0.00    -0.000 C 
BRANCH  15  16
ATOM     16  C   UNL     1     -25.815  -7.648  17.424  1.00  0.00    -0.000 C 
BRANCH  16  17
ATOM     17  C   UNL     1     -26.816  -6.499  17.642  1.00  0.00    -0.000 C 
BRANCH  17  18
ATOM     18  C   UNL     1     -26.489  -5.562  18.820  1.00  0.00    -0.000 C 
BRANCH  18  19
ATOM     19  C   UNL     1     -25.329  -6.071  19.688  1.00  0.00    -0.003 C 
ATOM     20  C   UNL     1     -25.518  -5.672  21.148  1.00  0.00     0.004 C 
ENDBRANCH  18  19
ENDBRANCH  17  18
ENDBRANCH  16  17
ENDBRANCH  15  16
ENDBRANCH  14  15
ENDBRANCH  13  14
ENDBRANCH  12  13
ENDBRANCH   1  12
TORSDOF 16
ENDMDL
MODEL 3
REMARK VINA RESULT:    -4.628      1.155      2.520
REMARK INTER + INTRA:         -11.484
REMARK INTER:                  -9.015
REMARK INTRA:                  -2.468
REMARK UNBOUND:                -2.527
REMARK SMILES CCCCCCCCCCCCCCCCCC(=O)[O-]
REMARK SMILES IDX 10 1 11 2 12 3 13 4 14 5 15 6 16 7 17 8 18 9 19 10 20 11
REMARK SMILES IDX 9 12 8 13 7 14 6 15 5 16 4 17 3 18 2 19 1 20
REMARK H PARENT
REMARK Flexibility Score: inf
ROOT
ATOM      1  C   UNL     1     -21.613  -4.962  16.953  1.00  0.00     0.000 C 
ENDROOT
BRANCH   1   2
ATOM      2  C   UNL     1     -21.188  -4.730  15.494  1.00  0.00     0.000 C 
BRANCH   2   3
ATOM      3  C   UNL     1     -20.429  -5.932  14.904  1.00  0.00     0.000 C 
BRANCH   3   4
ATOM      4  C   UNL     1     -18.941  -5.630  14.661  1.00  0.00     0.000 C 
BRANCH   4   5
ATOM      5  C   UNL     1     -18.092  -6.901  14.513  1.00  0.00     0.000 C 
BRANCH   5   6
ATOM      6  C   UNL     1     -18.709  -8.068  15.298  1.00  0.00     0.000 C 
BRANCH   6   7
ATOM      7  C   UNL     1     -18.114  -8.217  16.707  1.00  0.00     0.006 C 
BRANCH   7   8
ATOM      8  C   UNL     1     -18.852  -9.263  17.553  1.00  0.00     0.053 C 
BRANCH   8   9
ATOM      9  C   UNL     1     -17.885 -10.022  18.406  1.00  0.00     0.041 C 
ATOM     10  O   UNL     1     -18.182 -11.167  18.836  1.00  0.00    -0.550 OA
ATOM     11  O   UNL     1     -16.676  -9.441  18.770  1.00  0.00    -0.550 OA
ENDBRANCH   8   9
ENDBRANCH   7   8
ENDBRANCH   6   7
ENDBRANCH   5   6
ENDBRANCH   4   5
ENDBRANCH   3   4
ENDBRANCH   2   3
ENDBRANCH   1   2
BRANCH   1  12
ATOM     12  C   UNL     1     -21.240  -6.363  17.463  1.00  0.00     0.000 C 
BRANCH  12  13
ATOM     13  C   UNL     1     -22.363  -6.948  18.328  1.00  0.00    -0.000 C 
BRANCH  13  14
ATOM     14  C   UNL     1     -23.732  -6.400  17.895  1.00  0.00    -0.000 C 
BRANCH  14  15
ATOM     15  C   UNL     1     -24.903  -7.138  18.563  1.00  0.00    -0.000 C 
BRANCH  15  16
ATOM     16  C   UNL     1     -24.816  -8.664  18.386  1.00  0.00    -0.000 C 
BRANCH  16  17
ATOM     17  C   UNL     1     -24.682  -9.091  16.913  1.00  0.00    -0.000 C 
BRANCH  17  18
ATOM     18  C   UNL     1     -23.501 -10.033  16.611  1.00  0.00    -0.000 C 
BRANCH  18  19
ATOM     19  C   UNL     1     -22.406  -9.369  15.764  1.00  0.00    -0.003 C 
ATOM     20  C   UNL     1     -23.009  -8.439  14.716  1.00  0.00     0.004 C 
ENDBRANCH  18  19
ENDBRANCH  17  18
ENDBRANCH  16  17
ENDBRANCH  15  16
ENDBRANCH  14  15
ENDBRANCH  13  14
ENDBRANCH  12  13
ENDBRANCH   1  12
TORSDOF 16
ENDMDL
MODEL 4
REMARK VINA RESULT:    -4.537      3.134      6.683
REMARK INTER + INTRA:         -11.308
REMARK INTER:                  -9.248
REMARK INTRA:                  -2.060
REMARK UNBOUND:                -2.527
REMARK SMILES CCCCCCCCCCCCCCCCCC(=O)[O-]
REMARK SMILES IDX 10 1 11 2 12 3 13 4 14 5 15 6 16 7 17 8 18 9 19 10 20 11
REMARK SMILES IDX 9 12 8 13 7 14 6 15 5 16 4 17 3 18 2 19 1 20
REMARK H PARENT
REMARK Flexibility Score: inf
ROOT
ATOM      1  C   UNL     1     -21.511  -5.758  17.054  1.00  0.00     0.000 C 
ENDROOT
BRANCH   1   2
ATOM      2  C   UNL     1     -22.204  -6.958  16.388  1.00  0.00     0.000 C 
BRANCH   2   3
ATOM      3  C   UNL     1     -22.299  -8.176  17.324  1.00  0.00     0.000 C 
BRANCH   3   4
ATOM      4  C   UNL     1     -22.611  -9.479  16.570  1.00  0.00     0.000 C 
BRANCH   4   5
ATOM      5  C   UNL     1     -24.080  -9.906  16.701  1.00  0.00     0.000 C 
BRANCH   5   6
ATOM      6  C   UNL     1     -24.805  -9.062  17.760  1.00  0.00     0.000 C 
BRANCH   6   7
ATOM      7  C   UNL     1     -25.985  -8.266  17.180  1.00  0.00     0.006 C 
BRANCH   7   8
ATOM      8  C   UNL     1     -25.731  -6.753  17.173  1.00  0.00     0.053 C 
BRANCH   8   9
ATOM      9  C   UNL     1     -25.848  -6.198  18.557  1.00  0.00     0.041 C 
ATOM     10  O   UNL     1     -26.953  -5.761  18.975  1.00  0.00    -0.550 OA
ATOM     11  O   UNL     1     -24.723  -6.113  19.369  1.00  0.00    -0.550 OA
ENDBRANCH   8   9
ENDBRANCH   7   8
ENDBRANCH   6   7
ENDBRANCH   5   6
ENDBRANCH   4   5
ENDBRANCH   3   4
ENDBRANCH   2   3
ENDBRANCH   1   2
BRANCH   1  12
ATOM     12  C   UNL     1     -21.061  -4.696  16.039  1.00  0.00     0.000 C 
BRANCH  12  13
ATOM     13  C   UNL     1     -20.428  -5.350  14.804  1.00  0.00    -0.000 C 
BRANCH  13  14
ATOM     14  C   UNL     1     -18.955  -5.703  15.065  1.00  0.00    -0.000 C 
BRANCH  14  15
ATOM     15  C   UNL     1     -18.559  -7.067  14.476  1.00  0.00    -0.000 C 
BRANCH  15  16
ATOM     16  C   UNL     1     -19.088  -8.245  15.313  1.00  0.00    -0.000 C 
BRANCH  16  17
ATOM     17  C   UNL     1     -18.412  -8.352  16.693  1.00  0.00    -0.000 C 
BRANCH  17  18
ATOM     18  C   UNL     1     -18.747  -9.629  17.487  1.00  0.00    -0.000 C 
BRANCH  18  19
ATOM     19  C   UNL     1     -17.860  -9.814  18.726  1.00  0.00    -0.003 C 
ATOM     20  C   UNL     1     -16.559  -9.027  18.594  1.00  0.00     0.004 C 
ENDBRANCH  18  19
ENDBRANCH  17  18
ENDBRANCH  16  17
ENDBRANCH  15  16
ENDBRANCH  14  15
ENDBRANCH  13  14
ENDBRANCH  12  13
ENDBRANCH   1  12
TORSDOF 16
ENDMDL
MODEL 5
REMARK VINA RESULT:    -4.501      1.296      2.118
REMARK INTER + INTRA:         -11.238
REMARK INTER:                  -9.492
REMARK INTRA:                  -1.746
REMARK UNBOUND:                -2.527
REMARK SMILES CCCCCCCCCCCCCCCCCC(=O)[O-]
REMARK SMILES IDX 10 1 11 2 12 3 13 4 14 5 15 6 16 7 17 8 18 9 19 10 20 11
REMARK SMILES IDX 9 12 8 13 7 14 6 15 5 16 4 17 3 18 2 19 1 20
REMARK H PARENT
REMARK Flexibility Score: inf
ROOT
ATOM      1  C   UNL     1     -21.724  -5.326  16.942  1.00  0.00     0.000 C 
ENDROOT
BRANCH   1   2
ATOM      2  C   UNL     1     -20.863  -5.570  15.691  1.00  0.00     0.000 C 
BRANCH   2   3
ATOM      3  C   UNL     1     -21.530  -6.539  14.699  1.00  0.00     0.000 C 
BRANCH   3   4
ATOM      4  C   UNL     1     -20.768  -7.868  14.567  1.00  0.00     0.000 C 
BRANCH   4   5
ATOM      5  C   UNL     1     -19.247  -7.675  14.475  1.00  0.00     0.000 C 
BRANCH   5   6
ATOM      6  C   UNL     1     -18.568  -8.018  15.809  1.00  0.00     0.000 C 
BRANCH   6   7
ATOM      7  C   UNL     1     -19.304  -9.122  16.584  1.00  0.00     0.006 C 
BRANCH   7   8
ATOM      8  C   UNL     1     -19.050  -9.053  18.096  1.00  0.00     0.053 C 
BRANCH   8   9
ATOM      9  C   UNL     1     -17.858  -9.879  18.462  1.00  0.00     0.041 C 
ATOM     10  O   UNL     1     -17.970 -11.124  18.611  1.00  0.00    -0.550 OA
ATOM     11  O   UNL     1     -16.632  -9.266  18.693  1.00  0.00    -0.550 OA
ENDBRANCH   8   9
ENDBRANCH   7   8
ENDBRANCH   6   7
ENDBRANCH   5   6
ENDBRANCH   4   5
ENDBRANCH   3   4
ENDBRANCH   2   3
ENDBRANCH   1   2
BRANCH   1  12
ATOM     12  C   UNL     1     -21.754  -6.538  17.885  1.00  0.00     0.000 C 
BRANCH  12  13
ATOM     13  C   UNL     1     -23.189  -7.046  18.080  1.00  0.00    -0.000 C 
BRANCH  13  14
ATOM     14  C   UNL     1     -23.400  -8.386  17.359  1.00  0.00    -0.000 C 
BRANCH  14  15
ATOM     15  C   UNL     1     -24.854  -8.877  17.434  1.00  0.00    -0.000 C 
BRANCH  15  16
ATOM     16  C   UNL     1     -25.862  -7.719  17.542  1.00  0.00    -0.000 C 
BRANCH  16  17
ATOM     17  C   UNL     1     -27.002  -7.817  16.512  1.00  0.00    -0.000 C 
BRANCH  17  18
ATOM     18  C   UNL     1     -27.190  -6.572  15.624  1.00  0.00    -0.000 C 
BRANCH  18  19
ATOM     19  C   UNL     1     -26.555  -6.726  14.234  1.00  0.00    -0.003 C 
ATOM     20  C   UNL     1     -27.564  -7.267  13.225  1.00  0.00     0.004 C 
ENDBRANCH  18  19
ENDBRANCH  17  18
ENDBRANCH  16  17
ENDBRANCH  15  16
ENDBRANCH  14  15
ENDBRANCH  13  14
ENDBRANCH  12  13
ENDBRANCH   1  12
TORSDOF 16
ENDMDL
MODEL 6
REMARK VINA RESULT:    -4.470      2.965      5.347
REMARK INTER + INTRA:         -11.179
REMARK INTER:                  -9.732
REMARK INTRA:                  -1.447
REMARK UNBOUND:                -2.527
REMARK SMILES CCCCCCCCCCCCCCCCCC(=O)[O-]
REMARK SMILES IDX 10 1 11 2 12 3 13 4 14 5 15 6 16 7 17 8 18 9 19 10 20 11
REMARK SMILES IDX 9 12 8 13 7 14 6 15 5 16 4 17 3 18 2 19 1 20
REMARK H PARENT
REMARK Flexibility Score: inf
ROOT
ATOM      1  C   UNL     1     -23.889  -6.499  17.540  1.00  0.00     0.000 C 
ENDROOT
BRANCH   1   2
ATOM      2  C   UNL     1     -22.484  -6.187  18.080  1.00  0.00     0.000 C 
BRANCH   2   3
ATOM      3  C   UNL     1     -21.711  -5.210  17.177  1.00  0.00     0.000 C 
BRANCH   3   4
ATOM      4  C   UNL     1     -21.676  -5.664  15.708  1.00  0.00     0.000 C 
BRANCH   4   5
ATOM      5  C   UNL     1     -20.403  -5.214  14.976  1.00  0.00     0.000 C 
BRANCH   5   6
ATOM      6  C   UNL     1     -19.391  -6.365  14.878  1.00  0.00     0.000 C 
BRANCH   6   7
ATOM      7  C   UNL     1     -17.934  -5.881  14.935  1.00  0.00     0.006 C 
BRANCH   7   8
ATOM      8  C   UNL     1     -17.278  -5.816  13.550  1.00  0.00     0.053 C 
BRANCH   8   9
ATOM      9  C   UNL     1     -16.772  -4.435  13.275  1.00  0.00     0.041 C 
ATOM     10  O   UNL     1     -15.603  -4.109  13.610  1.00  0.00    -0.550 OA
ATOM     11  O   UNL     1     -17.612  -3.490  12.697  1.00  0.00    -0.550 OA
ENDBRANCH   8   9
ENDBRANCH   7   8
ENDBRANCH   6   7
ENDBRANCH   5   6
ENDBRANCH   4   5
ENDBRANCH   3   4
ENDBRANCH   2   3
ENDBRANCH   1   2
BRANCH   1  12
ATOM     12  C   UNL     1     -24.620  -7.564  18.372  1.00  0.00     0.000 C 
BRANCH  12  13
ATOM     13  C   UNL     1     -24.387  -8.966  17.795  1.00  0.00    -0.000 C 
BRANCH  13  14
ATOM     14  C   UNL     1     -23.551  -8.898  16.507  1.00  0.00    -0.000 C 
BRANCH  14  15
ATOM     15  C   UNL     1     -22.257  -9.722  16.596  1.00  0.00    -0.000 C 
BRANCH  15  16
ATOM     16  C   UNL     1     -20.996  -8.861  16.409  1.00  0.00    -0.000 C 
BRANCH  16  17
ATOM     17  C   UNL     1     -20.082  -8.858  17.647  1.00  0.00    -0.000 C 
BRANCH  17  18
ATOM     18  C   UNL     1     -18.637  -9.329  17.395  1.00  0.00    -0.000 C 
BRANCH  18  19
ATOM     19  C   UNL     1     -17.895  -9.705  18.685  1.00  0.00    -0.003 C 
ATOM     20  C   UNL     1     -16.511  -9.063  18.730  1.00  0.00     0.004 C 
ENDBRANCH  18  19
ENDBRANCH  17  18
ENDBRANCH  16  17
ENDBRANCH  15  16
ENDBRANCH  14  15
ENDBRANCH  13  14
ENDBRANCH  12  13
ENDBRANCH   1  12
TORSDOF 16
ENDMDL
MODEL 7
REMARK VINA RESULT:    -4.382      1.909      3.865
REMARK INTER + INTRA:         -11.007
REMARK INTER:                  -9.285
REMARK INTRA:                  -1.722
REMARK UNBOUND:                -2.527
REMARK SMILES CCCCCCCCCCCCCCCCCC(=O)[O-]
REMARK SMILES IDX 10 1 11 2 12 3 13 4 14 5 15 6 16 7 17 8 18 9 19 10 20 11
REMARK SMILES IDX 9 12 8 13 7 14 6 15 5 16 4 17 3 18 2 19 1 20
REMARK H PARENT
REMARK Flexibility Score: inf
ROOT
ATOM      1  C   UNL     1     -22.895  -8.992  16.080  1.00  0.00     0.000 C 
ENDROOT
BRANCH   1   2
ATOM      2  C   UNL     1     -23.010  -8.299  17.448  1.00  0.00     0.000 C 
BRANCH   2   3
ATOM      3  C   UNL     1     -21.789  -7.416  17.764  1.00  0.00     0.000 C 
BRANCH   3   4
ATOM      4  C   UNL     1     -22.156  -5.931  17.915  1.00  0.00     0.000 C 
BRANCH   4   5
ATOM      5  C   UNL     1     -21.429  -5.031  16.906  1.00  0.00     0.000 C 
BRANCH   5   6
ATOM      6  C   UNL     1     -21.011  -5.829  15.661  1.00  0.00     0.000 C 
BRANCH   6   7
ATOM      7  C   UNL     1     -19.734  -5.279  15.005  1.00  0.00     0.006 C 
BRANCH   7   8
ATOM      8  C   UNL     1     -18.660  -6.357  14.809  1.00  0.00     0.053 C 
BRANCH   8   9
ATOM      9  C   UNL     1     -19.272  -7.721  14.870  1.00  0.00     0.041 C 
ATOM     10  O   UNL     1     -19.047  -8.475  15.853  1.00  0.00    -0.550 OA
ATOM     11  O   UNL     1     -20.049  -8.181  13.813  1.00  0.00    -0.550 OA
ENDBRANCH   8   9
ENDBRANCH   7   8
ENDBRANCH   6   7
ENDBRANCH   5   6
ENDBRANCH   4   5
ENDBRANCH   3   4
ENDBRANCH   2   3
ENDBRANCH   1   2
BRANCH   1  12
ATOM     12  C   UNL     1     -23.494  -8.154  14.940  1.00  0.00     0.000 C 
BRANCH  12  13
ATOM     13  C   UNL     1     -24.536  -7.165  15.475  1.00  0.00    -0.000 C 
BRANCH  13  14
ATOM     14  C   UNL     1     -25.716  -7.029  14.500  1.00  0.00    -0.000 C 
BRANCH  14  15
ATOM     15  C   UNL     1     -27.070  -6.924  15.219  1.00  0.00    -0.000 C 
BRANCH  15  16
ATOM     16  C   UNL     1     -27.009  -7.440  16.667  1.00  0.00    -0.000 C 
BRANCH  16  17
ATOM     17  C   UNL     1     -27.206  -6.326  17.711  1.00  0.00    -0.000 C 
BRANCH  17  18
ATOM     18  C   UNL     1     -25.956  -5.980  18.542  1.00  0.00    -0.000 C 
BRANCH  18  19
ATOM     19  C   UNL     1     -26.290  -5.263  19.858  1.00  0.00    -0.003 C 
ATOM     20  C   UNL     1     -25.443  -5.800  21.007  1.00  0.00     0.004 C 
ENDBRANCH  18  19
ENDBRANCH  17  18
ENDBRANCH  16  17
ENDBRANCH  15  16
ENDBRANCH  14  15
ENDBRANCH  13  14
ENDBRANCH  12  13
ENDBRANCH   1  12
TORSDOF 16
ENDMDL
MODEL 8
REMARK VINA RESULT:    -4.351      3.466      7.044
REMARK INTER + INTRA:         -10.948
REMARK INTER:                  -9.136
REMARK INTRA:                  -1.812
REMARK UNBOUND:                -2.527
REMARK SMILES CCCCCCCCCCCCCCCCCC(=O)[O-]
REMARK SMILES IDX 10 1 11 2 12 3 13 4 14 5 15 6 16 7 17 8 18 9 19 10 20 11
REMARK SMILES IDX 9 12 8 13 7 14 6 15 5 16 4 17 3 18 2 19 1 20
REMARK H PARENT
REMARK Flexibility Score: inf
ROOT
ATOM      1  C   UNL     1     -22.580  -6.873  16.677  1.00  0.00     0.000 C 
ENDROOT
BRANCH   1   2
ATOM      2  C   UNL     1     -22.666  -8.149  17.529  1.00  0.00     0.000 C 
BRANCH   2   3
ATOM      3  C   UNL     1     -23.855  -9.042  17.132  1.00  0.00     0.000 C 
BRANCH   3   4
ATOM      4  C   UNL     1     -25.139  -8.694  17.903  1.00  0.00     0.000 C 
BRANCH   4   5
ATOM      5  C   UNL     1     -26.217  -8.061  17.011  1.00  0.00     0.000 C 
BRANCH   5   6
ATOM      6  C   UNL     1     -26.263  -6.538  17.203  1.00  0.00     0.000 C 
BRANCH   6   7
ATOM      7  C   UNL     1     -25.734  -6.096  18.577  1.00  0.00     0.006 C 
BRANCH   7   8
ATOM      8  C   UNL     1     -26.737  -5.223  19.342  1.00  0.00     0.053 C 
BRANCH   8   9
ATOM      9  C   UNL     1     -26.360  -5.140  20.788  1.00  0.00     0.041 C 
ATOM     10  O   UNL     1     -26.925  -4.307  21.544  1.00  0.00    -0.550 OA
ATOM     11  O   UNL     1     -25.344  -5.947  21.288  1.00  0.00    -0.550 OA
ENDBRANCH   8   9
ENDBRANCH   7   8
ENDBRANCH   6   7
ENDBRANCH   5   6
ENDBRANCH   4   5
ENDBRANCH   3   4
ENDBRANCH   2   3
ENDBRANCH   1   2
BRANCH   1  12
ATOM     12  C   UNL     1     -21.828  -5.736  17.387  1.00  0.00     0.000 C 
BRANCH  12  13
ATOM     13  C   UNL     1     -21.275  -4.728  16.372  1.00  0.00    -0.000 C 
BRANCH  13  14
ATOM     14  C   UNL     1     -20.873  -5.428  15.065  1.00  0.00    -0.000 C 
BRANCH  14  15
ATOM     15  C   UNL     1     -19.400  -5.191  14.694  1.00  0.00    -0.000 C 
BRANCH  15  16
ATOM     16  C   UNL     1     -18.564  -6.481  14.748  1.00  0.00    -0.000 C 
BRANCH  16  17
ATOM     17  C   UNL     1     -19.319  -7.659  15.391  1.00  0.00    -0.000 C 
BRANCH  17  18
ATOM     18  C   UNL     1     -18.445  -8.626  16.211  1.00  0.00    -0.000 C 
BRANCH  18  19
ATOM     19  C   UNL     1     -19.122  -9.094  17.508  1.00  0.00    -0.003 C 
ATOM     20  C   UNL     1     -18.105  -9.697  18.472  1.00  0.00     0.004 C 
ENDBRANCH  18  19
ENDBRANCH  17  18
ENDBRANCH  16  17
ENDBRANCH  15  16
ENDBRANCH  14  15
ENDBRANCH  13  14
ENDBRANCH  12  13
ENDBRANCH   1  12
TORSDOF 16
ENDMDL
MODEL 9
REMARK VINA RESULT:    -4.340      2.251      4.532
REMARK INTER + INTRA:         -10.926
REMARK INTER:                  -8.811
REMARK INTRA:                  -2.115
REMARK UNBOUND:                -2.527
REMARK SMILES CCCCCCCCCCCCCCCCCC(=O)[O-]
REMARK SMILES IDX 10 1 11 2 12 3 13 4 14 5 15 6 16 7 17 8 18 9 19 10 20 11
REMARK SMILES IDX 9 12 8 13 7 14 6 15 5 16 4 17 3 18 2 19 1 20
REMARK H PARENT
REMARK Flexibility Score: inf
ROOT
ATOM      1  C   UNL     1     -23.959  -7.733  18.370  1.00  0.00     0.000 C 
ENDROOT
BRANCH   1   2
ATOM      2  C   UNL     1     -24.690  -8.718  17.444  1.00  0.00     0.000 C 
BRANCH   2   3
ATOM      3  C   UNL     1     -23.761  -9.821  16.906  1.00  0.00     0.000 C 
BRANCH   3   4
ATOM      4  C   UNL     1     -22.540  -9.255  16.163  1.00  0.00     0.000 C 
BRANCH   4   5
ATOM      5  C   UNL     1     -22.908  -8.605  14.821  1.00  0.00     0.000 C 
BRANCH   5   6
ATOM      6  C   UNL     1     -22.540  -7.113  14.814  1.00  0.00     0.000 C 
BRANCH   6   7
ATOM      7  C   UNL     1     -21.458  -6.764  15.848  1.00  0.00     0.006 C 
BRANCH   7   8
ATOM      8  C   UNL     1     -20.120  -6.389  15.198  1.00  0.00     0.053 C 
BRANCH   8   9
ATOM      9  C   UNL     1     -19.267  -7.606  15.021  1.00  0.00     0.041 C 
ATOM     10  O   UNL     1     -18.879  -7.947  13.873  1.00  0.00    -0.550 OA
ATOM     11  O   UNL     1     -18.945  -8.395  16.120  1.00  0.00    -0.550 OA
ENDBRANCH   8   9
ENDBRANCH   7   8
ENDBRANCH   6   7
ENDBRANCH   5   6
ENDBRANCH   4   5
ENDBRANCH   3   4
ENDBRANCH   2   3
ENDBRANCH   1   2
BRANCH   1  12
ATOM     12  C   UNL     1     -24.547  -6.315  18.310  1.00  0.00     0.000 C 
BRANCH  12  13
ATOM     13  C   UNL     1     -25.396  -6.021  19.553  1.00  0.00    -0.000 C 
BRANCH  13  14
ATOM     14  C   UNL     1     -26.655  -5.222  19.182  1.00  0.00    -0.000 C 
BRANCH  14  15
ATOM     15  C   UNL     1     -27.644  -6.037  18.333  1.00  0.00    -0.000 C 
BRANCH  15  16
ATOM     16  C   UNL     1     -27.686  -5.568  16.868  1.00  0.00    -0.000 C 
BRANCH  16  17
ATOM     17  C   UNL     1     -27.652  -6.734  15.863  1.00  0.00    -0.000 C 
BRANCH  17  18
ATOM     18  C   UNL     1     -26.592  -6.609  14.753  1.00  0.00    -0.000 C 
BRANCH  18  19
ATOM     19  C   UNL     1     -27.114  -7.038  13.374  1.00  0.00    -0.003 C 
ATOM     20  C   UNL     1     -27.778  -5.871  12.650  1.00  0.00     0.004 C 
ENDBRANCH  18  19
ENDBRANCH  17  18
ENDBRANCH  16  17
ENDBRANCH  15  16
ENDBRANCH  14  15
ENDBRANCH  13  14
ENDBRANCH  12  13
ENDBRANCH   1  12
TORSDOF 16
ENDMDL
