MODEL 1
REMARK VINA RESULT:    -9.285      0.000      0.000
REMARK INTER + INTRA:         -17.447
REMARK INTER:                 -15.256
REMARK INTRA:                  -2.191
REMARK UNBOUND:                -2.191
REMARK SMILES C[C@@H]1O[C@@H](OC[C@H]2O[C@H](Oc3c(-c4ccc(O)c(O)c4)oc4cc(O)cc(O)c4c3=O)[C@@H](O)[C@H](O)[C@H]2O)[C@H](O)[C@H](O)[C@H]1O
REMARK SMILES IDX 7 1 36 2 34 3 32 4 9 5 8 6 6 7 5 8 4 9 1 10 2 11 42 12 3 13
REMARK SMILES IDX 40 14 38 15 43 16 41 18 39 20 37 22 35 24 10 26 11 27 12 28
REMARK SMILES IDX 30 29 21 30 29 31 31 32 22 33 27 34 23 35 26 36 24 37 13 38
REMARK SMILES IDX 20 39 14 40 18 41 15 42 16 43 19 44 17 46 28 48 25 50 33 52
REMARK H PARENT 43 17 41 19 39 21 37 23 35 25 19 45 17 47 28 49 25 51 33 53
REMARK Flexibility Score: inf
ROOT
ATOM      1  C   UNL     1      72.270  63.480 106.842  1.00  0.00     0.180 C 
ATOM      2  C   UNL     1      71.140  63.507 107.903  1.00  0.00     0.177 C 
ATOM      3  C   UNL     1      71.643  62.956 109.253  1.00  0.00     0.180 C 
ATOM      4  C   UNL     1      73.016  63.558 109.634  1.00  0.00     0.214 C 
ATOM      5  C   UNL     1      73.990  63.587 108.442  1.00  0.00     0.339 C 
ATOM      6  O   UNL     1      73.412  64.185 107.293  1.00  0.00    -0.332 OA
ENDROOT
BRANCH   1   7
ATOM      7  C   UNL     1      71.790  64.127 105.539  1.00  0.00     0.198 C 
BRANCH   7   8
ATOM      8  O   UNL     1      72.703  65.138 105.142  1.00  0.00    -0.347 OA
BRANCH   8   9
ATOM      9  C   UNL     1      73.422  64.751 103.986  1.00  0.00     0.281 C 
ATOM     10  C   UNL     1      75.274  62.589 102.948  1.00  0.00     0.041 C 
ATOM     11  C   UNL     1      75.547  64.080 103.206  1.00  0.00     0.150 C 
ATOM     12  C   UNL     1      75.463  64.979 101.942  1.00  0.00     0.174 C 
ATOM     13  O   UNL     1      74.802  64.594 104.300  1.00  0.00    -0.344 OA
ATOM     14  C   UNL     1      74.036  65.497 101.638  1.00  0.00     0.179 C 
ATOM     15  C   UNL     1      73.257  65.851 102.922  1.00  0.00     0.202 C 
BRANCH  12  16
ATOM     16  O   UNL     1      76.321  66.083 102.122  1.00  0.00    -0.388 OA
ATOM     17  H   UNL     1      75.994  66.575 102.923  1.00  0.00     0.211 HD
ENDBRANCH  12  16
BRANCH  14  18
ATOM     18  O   UNL     1      73.332  64.610 100.804  1.00  0.00    -0.387 OA
ATOM     19  H   UNL     1      72.478  64.369 101.244  1.00  0.00     0.211 HD
ENDBRANCH  14  18
BRANCH  15  20
ATOM     20  O   UNL     1      71.896  66.036 102.617  1.00  0.00    -0.385 OA
ATOM     21  H   UNL     1      71.860  66.596 101.799  1.00  0.00     0.211 HD
ENDBRANCH  15  20
ENDBRANCH   8   9
ENDBRANCH   7   8
ENDBRANCH   1   7
BRANCH   2  22
ATOM     22  O   UNL     1      70.688  64.826 108.098  1.00  0.00    -0.387 OA
ATOM     23  H   UNL     1      70.660  64.989 109.075  1.00  0.00     0.211 HD
ENDBRANCH   2  22
BRANCH   3  24
ATOM     24  O   UNL     1      71.670  61.548 109.267  1.00  0.00    -0.387 OA
ATOM     25  H   UNL     1      71.028  61.230 109.949  1.00  0.00     0.211 HD
ENDBRANCH   3  24
BRANCH   5  26
ATOM     26  O   UNL     1      74.495  62.275 108.155  1.00  0.00    -0.454 OA
BRANCH  26  27
ATOM     27  C   UNL     1      75.561  62.080 107.268  1.00  0.00     0.214 A 
ATOM     28  C   UNL     1      75.489  61.105 106.259  1.00  0.00     0.180 A 
ATOM     29  C   UNL     1      76.738  62.830 107.397  1.00  0.00     0.239 A 
ATOM     30  O   UNL     1      76.543  60.859 105.490  1.00  0.00    -0.452 OA
ATOM     31  C   UNL     1      77.830  62.566 106.545  1.00  0.00     0.111 A 
ATOM     32  O   UNL     1      76.801  63.734 108.277  1.00  0.00    -0.285 OA
ATOM     33  C   UNL     1      77.684  61.531 105.588  1.00  0.00     0.146 A 
ATOM     34  C   UNL     1      79.052  63.278 106.612  1.00  0.00     0.134 A 
ATOM     35  C   UNL     1      78.743  61.209 104.733  1.00  0.00     0.094 A 
ATOM     36  C   UNL     1      80.100  62.936 105.742  1.00  0.00     0.093 A 
ATOM     37  C   UNL     1      79.953  61.907 104.809  1.00  0.00     0.123 A 
BRANCH  28  38
ATOM     38  C   UNL     1      74.253  60.341 106.029  1.00  0.00     0.025 A 
ATOM     39  C   UNL     1      73.968  59.197 106.788  1.00  0.00     0.062 A 
ATOM     40  C   UNL     1      73.361  60.745 105.023  1.00  0.00     0.016 A 
ATOM     41  C   UNL     1      72.779  58.488 106.576  1.00  0.00     0.158 A 
ATOM     42  C   UNL     1      72.184  60.026 104.800  1.00  0.00     0.051 A 
ATOM     43  C   UNL     1      71.889  58.894 105.573  1.00  0.00     0.157 A 
BRANCH  41  44
ATOM     44  O   UNL     1      72.465  57.384 107.365  1.00  0.00    -0.504 OA
ATOM     45  H   UNL     1      71.724  56.740 107.112  1.00  0.00     0.293 HD
ENDBRANCH  41  44
BRANCH  43  46
ATOM     46  O   UNL     1      70.718  58.171 105.343  1.00  0.00    -0.504 OA
ATOM     47  H   UNL     1      70.413  57.930 104.406  1.00  0.00     0.293 HD
ENDBRANCH  43  46
ENDBRANCH  28  38
BRANCH  34  48
ATOM     48  O   UNL     1      79.238  64.312 107.530  1.00  0.00    -0.507 OA
ATOM     49  H   UNL     1      79.103  65.285 107.273  1.00  0.00     0.293 HD
ENDBRANCH  34  48
BRANCH  37  50
ATOM     50  O   UNL     1      81.015  61.587 103.965  1.00  0.00    -0.508 OA
ATOM     51  H   UNL     1      81.973  61.773 104.232  1.00  0.00     0.293 HD
ENDBRANCH  37  50
ENDBRANCH  26  27
ENDBRANCH   5  26
BRANCH   4  52
ATOM     52  O   UNL     1      72.845  64.870 110.107  1.00  0.00    -0.384 OA
ATOM     53  H   UNL     1      71.876  64.988 110.296  1.00  0.00     0.211 HD
ENDBRANCH   4  52
TORSDOF 16
ENDMDL
MODEL 2
REMARK VINA RESULT:    -9.070      1.565      4.503
REMARK INTER + INTRA:         -17.093
REMARK INTER:                 -15.176
REMARK INTRA:                  -1.917
REMARK UNBOUND:                -2.191
REMARK SMILES C[C@@H]1O[C@@H](OC[C@H]2O[C@H](Oc3c(-c4ccc(O)c(O)c4)oc4cc(O)cc(O)c4c3=O)[C@@H](O)[C@H](O)[C@H]2O)[C@H](O)[C@H](O)[C@H]1O
REMARK SMILES IDX 7 1 36 2 34 3 32 4 9 5 8 6 6 7 5 8 4 9 1 10 2 11 42 12 3 13
REMARK SMILES IDX 40 14 38 15 43 16 41 18 39 20 37 22 35 24 10 26 11 27 12 28
REMARK SMILES IDX 30 29 21 30 29 31 31 32 22 33 27 34 23 35 26 36 24 37 13 38
REMARK SMILES IDX 20 39 14 40 18 41 15 42 16 43 19 44 17 46 28 48 25 50 33 52
REMARK H PARENT 43 17 41 19 39 21 37 23 35 25 19 45 17 47 28 49 25 51 33 53
REMARK Flexibility Score: inf
ROOT
ATOM      1  C   UNL     1      74.545  64.350 107.705  1.00  0.00     0.180 C 
ATOM      2  C   UNL     1      73.951  64.830 109.054  1.00  0.00     0.177 C 
ATOM      3  C   UNL     1      72.507  64.318 109.229  1.00  0.00     0.180 C 
ATOM      4  C   UNL     1      72.391  62.817 108.873  1.00  0.00     0.214 C 
ATOM      5  C   UNL     1      73.144  62.466 107.576  1.00  0.00     0.339 C 
ATOM      6  O   UNL     1      74.480  62.941 107.590  1.00  0.00    -0.332 OA
ENDROOT
BRANCH   1   7
ATOM      7  C   UNL     1      76.013  64.775 107.591  1.00  0.00     0.198 C 
BRANCH   7   8
ATOM      8  O   UNL     1      76.396  64.806 106.225  1.00  0.00    -0.347 OA
BRANCH   8   9
ATOM      9  C   UNL     1      77.145  63.656 105.880  1.00  0.00     0.281 C 
ATOM     10  C   UNL     1      77.619  60.784 106.722  1.00  0.00     0.041 C 
ATOM     11  C   UNL     1      78.574  61.988 106.748  1.00  0.00     0.150 C 
ATOM     12  C   UNL     1      79.545  62.068 105.538  1.00  0.00     0.174 C 
ATOM     13  O   UNL     1      77.905  63.216 107.001  1.00  0.00    -0.344 OA
ATOM     14  C   UNL     1      78.957  62.812 104.314  1.00  0.00     0.179 C 
ATOM     15  C   UNL     1      78.095  64.023 104.726  1.00  0.00     0.202 C 
BRANCH  12  16
ATOM     16  O   UNL     1      80.721  62.726 105.951  1.00  0.00    -0.388 OA
ATOM     17  H   UNL     1      80.560  63.049 106.879  1.00  0.00     0.211 HD
ENDBRANCH  12  16
BRANCH  14  18
ATOM     18  O   UNL     1      78.279  61.933 103.452  1.00  0.00    -0.387 OA
ATOM     19  H   UNL     1      77.580  61.457 103.966  1.00  0.00     0.211 HD
ENDBRANCH  14  18
BRANCH  15  20
ATOM     20  O   UNL     1      77.361  64.484 103.617  1.00  0.00    -0.385 OA
ATOM     21  H   UNL     1      76.691  63.783 103.407  1.00  0.00     0.211 HD
ENDBRANCH  15  20
ENDBRANCH   8   9
ENDBRANCH   7   8
ENDBRANCH   1   7
BRANCH   2  22
ATOM     22  O   UNL     1      74.729  64.351 110.125  1.00  0.00    -0.387 OA
ATOM     23  H   UNL     1      74.122  64.222 110.899  1.00  0.00     0.211 HD
ENDBRANCH   2  22
BRANCH   3  24
ATOM     24  O   UNL     1      71.583  65.096 108.505  1.00  0.00    -0.387 OA
ATOM     25  H   UNL     1      72.053  65.506 107.738  1.00  0.00     0.211 HD
ENDBRANCH   3  24
BRANCH   5  26
ATOM     26  O   UNL     1      72.432  62.932 106.422  1.00  0.00    -0.454 OA
BRANCH  26  27
ATOM     27  C   UNL     1      72.993  62.868 105.141  1.00  0.00     0.214 A 
ATOM     28  C   UNL     1      73.337  61.633 104.567  1.00  0.00     0.180 A 
ATOM     29  C   UNL     1      73.259  64.043 104.423  1.00  0.00     0.239 A 
ATOM     30  O   UNL     1      73.962  61.591 103.395  1.00  0.00    -0.452 OA
ATOM     31  C   UNL     1      73.897  63.964 103.168  1.00  0.00     0.111 A 
ATOM     32  O   UNL     1      72.923  65.156 104.914  1.00  0.00    -0.285 OA
ATOM     33  C   UNL     1      74.251  62.677 102.689  1.00  0.00     0.146 A 
ATOM     34  C   UNL     1      74.200  65.101 102.381  1.00  0.00     0.134 A 
ATOM     35  C   UNL     1      74.906  62.540 101.461  1.00  0.00     0.094 A 
ATOM     36  C   UNL     1      74.858  64.937 101.152  1.00  0.00     0.093 A 
ATOM     37  C   UNL     1      75.214  63.668 100.692  1.00  0.00     0.123 A 
BRANCH  28  38
ATOM     38  C   UNL     1      73.012  60.366 105.240  1.00  0.00     0.025 A 
ATOM     39  C   UNL     1      71.800  59.710 104.981  1.00  0.00     0.062 A 
ATOM     40  C   UNL     1      73.911  59.820 106.169  1.00  0.00     0.016 A 
ATOM     41  C   UNL     1      71.508  58.494 105.610  1.00  0.00     0.158 A 
ATOM     42  C   UNL     1      73.610  58.616 106.811  1.00  0.00     0.051 A 
ATOM     43  C   UNL     1      72.408  57.949 106.537  1.00  0.00     0.157 A 
BRANCH  41  44
ATOM     44  O   UNL     1      70.331  57.811 105.315  1.00  0.00    -0.504 OA
ATOM     45  H   UNL     1      69.432  58.116 105.671  1.00  0.00     0.293 HD
ENDBRANCH  41  44
BRANCH  43  46
ATOM     46  O   UNL     1      72.104  56.752 107.184  1.00  0.00    -0.504 OA
ATOM     47  H   UNL     1      72.476  56.529 108.102  1.00  0.00     0.293 HD
ENDBRANCH  43  46
ENDBRANCH  28  38
BRANCH  34  48
ATOM     48  O   UNL     1      73.861  66.386 102.807  1.00  0.00    -0.507 OA
ATOM     49  H   UNL     1      72.928  66.763 102.677  1.00  0.00     0.293 HD
ENDBRANCH  34  48
BRANCH  37  50
ATOM     50  O   UNL     1      75.874  63.538  99.470  1.00  0.00    -0.508 OA
ATOM     51  H   UNL     1      76.333  64.328  99.036  1.00  0.00     0.293 HD
ENDBRANCH  37  50
ENDBRANCH  26  27
ENDBRANCH   5  26
BRANCH   4  52
ATOM     52  O   UNL     1      72.911  62.038 109.921  1.00  0.00    -0.384 OA
ATOM     53  H   UNL     1      72.786  61.086 109.666  1.00  0.00     0.211 HD
ENDBRANCH   4  52
TORSDOF 16
ENDMDL
MODEL 3
REMARK VINA RESULT:    -8.803      2.269      7.101
REMARK INTER + INTRA:         -16.654
REMARK INTER:                 -14.281
REMARK INTRA:                  -2.373
REMARK UNBOUND:                -2.191
REMARK SMILES C[C@@H]1O[C@@H](OC[C@H]2O[C@H](Oc3c(-c4ccc(O)c(O)c4)oc4cc(O)cc(O)c4c3=O)[C@@H](O)[C@H](O)[C@H]2O)[C@H](O)[C@H](O)[C@H]1O
REMARK SMILES IDX 7 1 36 2 34 3 32 4 9 5 8 6 6 7 5 8 4 9 1 10 2 11 42 12 3 13
REMARK SMILES IDX 40 14 38 15 43 16 41 18 39 20 37 22 35 24 10 26 11 27 12 28
REMARK SMILES IDX 30 29 21 30 29 31 31 32 22 33 27 34 23 35 26 36 24 37 13 38
REMARK SMILES IDX 20 39 14 40 18 41 15 42 16 43 19 44 17 46 28 48 25 50 33 52
REMARK H PARENT 43 17 41 19 39 21 37 23 35 25 19 45 17 47 28 49 25 51 33 53
REMARK Flexibility Score: inf
ROOT
ATOM      1  C   UNL     1      76.103  66.153 104.525  1.00  0.00     0.180 C 
ATOM      2  C   UNL     1      76.580  66.658 103.139  1.00  0.00     0.177 C 
ATOM      3  C   UNL     1      76.548  65.518 102.101  1.00  0.00     0.180 C 
ATOM      4  C   UNL     1      75.223  64.724 102.172  1.00  0.00     0.214 C 
ATOM      5  C   UNL     1      74.809  64.410 103.622  1.00  0.00     0.339 C 
ATOM      6  O   UNL     1      74.818  65.567 104.442  1.00  0.00    -0.332 OA
ENDROOT
BRANCH   1   7
ATOM      7  C   UNL     1      76.038  67.317 105.520  1.00  0.00     0.198 C 
BRANCH   7   8
ATOM      8  O   UNL     1      76.691  66.951 106.726  1.00  0.00    -0.347 OA
BRANCH   8   9
ATOM      9  C   UNL     1      75.752  66.658 107.744  1.00  0.00     0.281 C 
ATOM     10  C   UNL     1      73.203  65.104 108.255  1.00  0.00     0.041 C 
ATOM     11  C   UNL     1      73.446  66.621 108.248  1.00  0.00     0.150 C 
ATOM     12  C   UNL     1      73.654  67.247 109.655  1.00  0.00     0.174 C 
ATOM     13  O   UNL     1      74.442  67.015 107.315  1.00  0.00    -0.344 OA
ATOM     14  C   UNL     1      75.124  67.214 110.141  1.00  0.00     0.179 C 
ATOM     15  C   UNL     1      76.124  67.474 108.995  1.00  0.00     0.202 C 
BRANCH  12  16
ATOM     16  O   UNL     1      73.217  68.587 109.616  1.00  0.00    -0.388 OA
ATOM     17  H   UNL     1      74.028  69.152 109.504  1.00  0.00     0.211 HD
ENDBRANCH  12  16
BRANCH  14  18
ATOM     18  O   UNL     1      75.406  66.033 110.849  1.00  0.00    -0.387 OA
ATOM     19  H   UNL     1      74.989  65.269 110.376  1.00  0.00     0.211 HD
ENDBRANCH  14  18
BRANCH  15  20
ATOM     20  O   UNL     1      77.427  67.152 109.419  1.00  0.00    -0.385 OA
ATOM     21  H   UNL     1      77.883  68.010 109.619  1.00  0.00     0.211 HD
ENDBRANCH  15  20
ENDBRANCH   8   9
ENDBRANCH   7   8
ENDBRANCH   1   7
BRANCH   2  22
ATOM     22  O   UNL     1      75.744  67.698 102.688  1.00  0.00    -0.387 OA
ATOM     23  H   UNL     1      74.807  67.385 102.773  1.00  0.00     0.211 HD
ENDBRANCH   2  22
BRANCH   3  24
ATOM     24  O   UNL     1      77.668  64.672 102.216  1.00  0.00    -0.387 OA
ATOM     25  H   UNL     1      77.365  63.799 102.567  1.00  0.00     0.211 HD
ENDBRANCH   3  24
BRANCH   5  26
ATOM     26  O   UNL     1      75.621  63.366 104.177  1.00  0.00    -0.454 OA
BRANCH  26  27
ATOM     27  C   UNL     1      75.055  62.296 104.881  1.00  0.00     0.214 A 
ATOM     28  C   UNL     1      75.548  61.924 106.143  1.00  0.00     0.180 A 
ATOM     29  C   UNL     1      74.009  61.550 104.319  1.00  0.00     0.239 A 
ATOM     30  O   UNL     1      75.071  60.845 106.756  1.00  0.00    -0.452 OA
ATOM     31  C   UNL     1      73.504  60.428 105.008  1.00  0.00     0.111 A 
ATOM     32  O   UNL     1      73.535  61.896 103.201  1.00  0.00    -0.285 OA
ATOM     33  C   UNL     1      74.095  60.099 106.254  1.00  0.00     0.146 A 
ATOM     34  C   UNL     1      72.451  59.624 104.509  1.00  0.00     0.134 A 
ATOM     35  C   UNL     1      73.651  58.983 106.970  1.00  0.00     0.094 A 
ATOM     36  C   UNL     1      72.023  58.509 105.247  1.00  0.00     0.093 A 
ATOM     37  C   UNL     1      72.617  58.184 106.468  1.00  0.00     0.123 A 
BRANCH  28  38
ATOM     38  C   UNL     1      76.590  62.714 106.814  1.00  0.00     0.025 A 
ATOM     39  C   UNL     1      76.456  63.076 108.163  1.00  0.00     0.062 A 
ATOM     40  C   UNL     1      77.719  63.135 106.094  1.00  0.00     0.016 A 
ATOM     41  C   UNL     1      77.464  63.811 108.800  1.00  0.00     0.158 A 
ATOM     42  C   UNL     1      78.714  63.884 106.726  1.00  0.00     0.051 A 
ATOM     43  C   UNL     1      78.591  64.227 108.079  1.00  0.00     0.157 A 
BRANCH  41  44
ATOM     44  O   UNL     1      77.361  64.124 110.153  1.00  0.00    -0.504 OA
ATOM     45  H   UNL     1      77.286  65.082 110.475  1.00  0.00     0.293 HD
ENDBRANCH  41  44
BRANCH  43  46
ATOM     46  O   UNL     1      79.581  64.984 108.707  1.00  0.00    -0.504 OA
ATOM     47  H   UNL     1      80.024  65.773 108.247  1.00  0.00     0.293 HD
ENDBRANCH  43  46
ENDBRANCH  28  38
BRANCH  34  48
ATOM     48  O   UNL     1      71.832  59.916 103.293  1.00  0.00    -0.507 OA
ATOM     49  H   UNL     1      72.340  59.888 102.415  1.00  0.00     0.293 HD
ENDBRANCH  34  48
BRANCH  37  50
ATOM     50  O   UNL     1      72.175  57.066 107.173  1.00  0.00    -0.508 OA
ATOM     51  H   UNL     1      71.567  57.159 107.977  1.00  0.00     0.293 HD
ENDBRANCH  37  50
ENDBRANCH  26  27
ENDBRANCH   5  26
BRANCH   4  52
ATOM     52  O   UNL     1      74.194  65.459 101.560  1.00  0.00    -0.384 OA
ATOM     53  H   UNL     1      73.344  64.975 101.739  1.00  0.00     0.211 HD
ENDBRANCH   4  52
TORSDOF 16
ENDMDL
MODEL 4
REMARK VINA RESULT:    -8.793      2.104      7.123
REMARK INTER + INTRA:         -16.637
REMARK INTER:                 -14.313
REMARK INTRA:                  -2.324
REMARK UNBOUND:                -2.191
REMARK SMILES C[C@@H]1O[C@@H](OC[C@H]2O[C@H](Oc3c(-c4ccc(O)c(O)c4)oc4cc(O)cc(O)c4c3=O)[C@@H](O)[C@H](O)[C@H]2O)[C@H](O)[C@H](O)[C@H]1O
REMARK SMILES IDX 7 1 36 2 34 3 32 4 9 5 8 6 6 7 5 8 4 9 1 10 2 11 42 12 3 13
REMARK SMILES IDX 40 14 38 15 43 16 41 18 39 20 37 22 35 24 10 26 11 27 12 28
REMARK SMILES IDX 30 29 21 30 29 31 31 32 22 33 27 34 23 35 26 36 24 37 13 38
REMARK SMILES IDX 20 39 14 40 18 41 15 42 16 43 19 44 17 46 28 48 25 50 33 52
REMARK H PARENT 43 17 41 19 39 21 37 23 35 25 19 45 17 47 28 49 25 51 33 53
REMARK Flexibility Score: inf
ROOT
ATOM      1  C   UNL     1      76.711  65.506 103.970  1.00  0.00     0.180 C 
ATOM      2  C   UNL     1      76.984  66.082 102.557  1.00  0.00     0.177 C 
ATOM      3  C   UNL     1      76.622  65.053 101.467  1.00  0.00     0.180 C 
ATOM      4  C   UNL     1      75.245  64.402 101.737  1.00  0.00     0.214 C 
ATOM      5  C   UNL     1      75.068  64.003 103.213  1.00  0.00     0.339 C 
ATOM      6  O   UNL     1      75.370  65.072 104.095  1.00  0.00    -0.332 OA
ENDROOT
BRANCH   1   7
ATOM      7  C   UNL     1      76.973  66.573 105.038  1.00  0.00     0.198 C 
BRANCH   7   8
ATOM      8  O   UNL     1      77.217  65.948 106.289  1.00  0.00    -0.347 OA
BRANCH   8   9
ATOM      9  C   UNL     1      76.288  66.381 107.264  1.00  0.00     0.281 C 
ATOM     10  C   UNL     1      75.383  68.859 108.755  1.00  0.00     0.041 C 
ATOM     11  C   UNL     1      76.075  67.592 109.281  1.00  0.00     0.150 C 
ATOM     12  C   UNL     1      75.114  66.545 109.909  1.00  0.00     0.174 C 
ATOM     13  O   UNL     1      76.971  67.022 108.336  1.00  0.00    -0.344 OA
ATOM     14  C   UNL     1      74.515  65.553 108.883  1.00  0.00     0.179 C 
ATOM     15  C   UNL     1      75.534  65.149 107.797  1.00  0.00     0.202 C 
BRANCH  12  16
ATOM     16  O   UNL     1      75.824  65.818 110.887  1.00  0.00    -0.388 OA
ATOM     17  H   UNL     1      75.517  64.874 110.824  1.00  0.00     0.211 HD
ENDBRANCH  12  16
BRANCH  14  18
ATOM     18  O   UNL     1      73.310  66.033 108.343  1.00  0.00    -0.387 OA
ATOM     19  H   UNL     1      72.836  66.559 109.036  1.00  0.00     0.211 HD
ENDBRANCH  14  18
BRANCH  15  20
ATOM     20  O   UNL     1      74.872  64.489 106.746  1.00  0.00    -0.385 OA
ATOM     21  H   UNL     1      74.456  63.677 107.135  1.00  0.00     0.211 HD
ENDBRANCH  15  20
ENDBRANCH   8   9
ENDBRANCH   7   8
ENDBRANCH   1   7
BRANCH   2  22
ATOM     22  O   UNL     1      76.215  67.243 102.349  1.00  0.00    -0.387 OA
ATOM     23  H   UNL     1      75.393  67.158 102.898  1.00  0.00     0.211 HD
ENDBRANCH   2  22
BRANCH   3  24
ATOM     24  O   UNL     1      77.632  64.084 101.305  1.00  0.00    -0.387 OA
ATOM     25  H   UNL     1      78.396  64.504 100.839  1.00  0.00     0.211 HD
ENDBRANCH   3  24
BRANCH   5  26
ATOM     26  O   UNL     1      75.833  62.831 103.527  1.00  0.00    -0.454 OA
BRANCH  26  27
ATOM     27  C   UNL     1      75.334  61.839 104.381  1.00  0.00     0.214 A 
ATOM     28  C   UNL     1      76.173  61.202 105.311  1.00  0.00     0.180 A 
ATOM     29  C   UNL     1      73.994  61.436 104.295  1.00  0.00     0.239 A 
ATOM     30  O   UNL     1      75.714  60.194 106.045  1.00  0.00    -0.452 OA
ATOM     31  C   UNL     1      73.529  60.383 105.108  1.00  0.00     0.111 A 
ATOM     32  O   UNL     1      73.223  62.026 103.487  1.00  0.00    -0.285 OA
ATOM     33  C   UNL     1      74.459  59.766 105.983  1.00  0.00     0.146 A 
ATOM     34  C   UNL     1      72.193  59.917 105.081  1.00  0.00     0.134 A 
ATOM     35  C   UNL     1      74.059  58.701 106.796  1.00  0.00     0.094 A 
ATOM     36  C   UNL     1      71.816  58.846 105.907  1.00  0.00     0.093 A 
ATOM     37  C   UNL     1      72.740  58.236 106.758  1.00  0.00     0.123 A 
BRANCH  28  38
ATOM     38  C   UNL     1      77.566  61.635 105.499  1.00  0.00     0.025 A 
ATOM     39  C   UNL     1      77.870  62.726 106.328  1.00  0.00     0.062 A 
ATOM     40  C   UNL     1      78.600  60.970 104.823  1.00  0.00     0.016 A 
ATOM     41  C   UNL     1      79.200  63.118 106.517  1.00  0.00     0.158 A 
ATOM     42  C   UNL     1      79.926  61.375 104.999  1.00  0.00     0.051 A 
ATOM     43  C   UNL     1      80.232  62.450 105.843  1.00  0.00     0.157 A 
BRANCH  41  44
ATOM     44  O   UNL     1      79.512  64.164 107.383  1.00  0.00    -0.504 OA
ATOM     45  H   UNL     1      80.064  64.959 107.083  1.00  0.00     0.293 HD
ENDBRANCH  41  44
BRANCH  43  46
ATOM     46  O   UNL     1      81.555  62.860 106.010  1.00  0.00    -0.504 OA
ATOM     47  H   UNL     1      82.274  62.641 105.328  1.00  0.00     0.293 HD
ENDBRANCH  43  46
ENDBRANCH  28  38
BRANCH  34  48
ATOM     48  O   UNL     1      71.240  60.500 104.244  1.00  0.00    -0.507 OA
ATOM     49  H   UNL     1      70.671  59.944 103.615  1.00  0.00     0.293 HD
ENDBRANCH  34  48
BRANCH  37  50
ATOM     50  O   UNL     1      72.337  57.169 107.561  1.00  0.00    -0.508 OA
ATOM     51  H   UNL     1      72.885  56.321 107.621  1.00  0.00     0.293 HD
ENDBRANCH  37  50
ENDBRANCH  26  27
ENDBRANCH   5  26
BRANCH   4  52
ATOM     52  O   UNL     1      74.220  65.298 101.387  1.00  0.00    -0.384 OA
ATOM     53  H   UNL     1      74.627  66.203 101.341  1.00  0.00     0.211 HD
ENDBRANCH   4  52
TORSDOF 16
ENDMDL
MODEL 5
REMARK VINA RESULT:    -8.784      2.975      6.925
REMARK INTER + INTRA:         -16.623
REMARK INTER:                 -13.847
REMARK INTRA:                  -2.777
REMARK UNBOUND:                -2.191
REMARK SMILES C[C@@H]1O[C@@H](OC[C@H]2O[C@H](Oc3c(-c4ccc(O)c(O)c4)oc4cc(O)cc(O)c4c3=O)[C@@H](O)[C@H](O)[C@H]2O)[C@H](O)[C@H](O)[C@H]1O
REMARK SMILES IDX 7 1 36 2 34 3 32 4 9 5 8 6 6 7 5 8 4 9 1 10 2 11 42 12 3 13
REMARK SMILES IDX 40 14 38 15 43 16 41 18 39 20 37 22 35 24 10 26 11 27 12 28
REMARK SMILES IDX 30 29 21 30 29 31 31 32 22 33 27 34 23 35 26 36 24 37 13 38
REMARK SMILES IDX 20 39 14 40 18 41 15 42 16 43 19 44 17 46 28 48 25 50 33 52
REMARK H PARENT 43 17 41 19 39 21 37 23 35 25 19 45 17 47 28 49 25 51 33 53
REMARK Flexibility Score: inf
ROOT
ATOM      1  C   UNL     1      76.472  66.002 104.010  1.00  0.00     0.180 C 
ATOM      2  C   UNL     1      76.636  66.426 102.528  1.00  0.00     0.177 C 
ATOM      3  C   UNL     1      76.167  65.302 101.582  1.00  0.00     0.180 C 
ATOM      4  C   UNL     1      74.806  64.717 102.028  1.00  0.00     0.214 C 
ATOM      5  C   UNL     1      74.747  64.472 103.547  1.00  0.00     0.339 C 
ATOM      6  O   UNL     1      75.139  65.617 104.288  1.00  0.00    -0.332 OA
ENDROOT
BRANCH   1   7
ATOM      7  C   UNL     1      76.841  67.163 104.938  1.00  0.00     0.198 C 
BRANCH   7   8
ATOM      8  O   UNL     1      75.665  67.695 105.528  1.00  0.00    -0.347 OA
BRANCH   8   9
ATOM      9  C   UNL     1      75.346  68.959 104.976  1.00  0.00     0.281 C 
ATOM     10  C   UNL     1      76.570  71.657 104.341  1.00  0.00     0.041 C 
ATOM     11  C   UNL     1      75.477  71.286 105.356  1.00  0.00     0.150 C 
ATOM     12  C   UNL     1      74.026  71.536 104.860  1.00  0.00     0.174 C 
ATOM     13  O   UNL     1      75.656  69.990 105.908  1.00  0.00    -0.344 OA
ATOM     14  C   UNL     1      73.421  70.348 104.074  1.00  0.00     0.179 C 
ATOM     15  C   UNL     1      73.839  68.985 104.662  1.00  0.00     0.202 C 
BRANCH  12  16
ATOM     16  O   UNL     1      73.212  71.804 105.980  1.00  0.00    -0.388 OA
ATOM     17  H   UNL     1      73.669  72.514 106.506  1.00  0.00     0.211 HD
ENDBRANCH  12  16
BRANCH  14  18
ATOM     18  O   UNL     1      73.691  70.450 102.698  1.00  0.00    -0.387 OA
ATOM     19  H   UNL     1      72.981  70.993 102.272  1.00  0.00     0.211 HD
ENDBRANCH  14  18
BRANCH  15  20
ATOM     20  O   UNL     1      73.511  67.956 103.760  1.00  0.00    -0.385 OA
ATOM     21  H   UNL     1      72.524  67.973 103.653  1.00  0.00     0.211 HD
ENDBRANCH  15  20
ENDBRANCH   8   9
ENDBRANCH   7   8
ENDBRANCH   1   7
BRANCH   2  22
ATOM     22  O   UNL     1      75.872  67.580 102.266  1.00  0.00    -0.387 OA
ATOM     23  H   UNL     1      76.497  68.349 102.235  1.00  0.00     0.211 HD
ENDBRANCH   2  22
BRANCH   3  24
ATOM     24  O   UNL     1      77.142  64.297 101.437  1.00  0.00    -0.387 OA
ATOM     25  H   UNL     1      76.692  63.417 101.468  1.00  0.00     0.211 HD
ENDBRANCH   3  24
BRANCH   5  26
ATOM     26  O   UNL     1      75.515  63.319 103.915  1.00  0.00    -0.454 OA
BRANCH  26  27
ATOM     27  C   UNL     1      74.965  62.290 104.690  1.00  0.00     0.214 A 
ATOM     28  C   UNL     1      75.445  62.029 105.984  1.00  0.00     0.180 A 
ATOM     29  C   UNL     1      73.948  61.476 104.171  1.00  0.00     0.239 A 
ATOM     30  O   UNL     1      74.986  60.988 106.670  1.00  0.00    -0.452 OA
ATOM     31  C   UNL     1      73.459  60.397 104.935  1.00  0.00     0.111 A 
ATOM     32  O   UNL     1      73.484  61.724 103.023  1.00  0.00    -0.285 OA
ATOM     33  C   UNL     1      74.037  60.180 106.212  1.00  0.00     0.146 A 
ATOM     34  C   UNL     1      72.436  59.530 104.484  1.00  0.00     0.134 A 
ATOM     35  C   UNL     1      73.609  59.110 107.004  1.00  0.00     0.094 A 
ATOM     36  C   UNL     1      72.023  58.463 105.298  1.00  0.00     0.093 A 
ATOM     37  C   UNL     1      72.605  58.248 106.549  1.00  0.00     0.123 A 
BRANCH  28  38
ATOM     38  C   UNL     1      76.456  62.895 106.608  1.00  0.00     0.025 A 
ATOM     39  C   UNL     1      76.076  64.070 107.275  1.00  0.00     0.062 A 
ATOM     40  C   UNL     1      77.815  62.560 106.516  1.00  0.00     0.016 A 
ATOM     41  C   UNL     1      77.043  64.879 107.885  1.00  0.00     0.158 A 
ATOM     42  C   UNL     1      78.780  63.378 107.109  1.00  0.00     0.051 A 
ATOM     43  C   UNL     1      78.400  64.541 107.793  1.00  0.00     0.157 A 
BRANCH  41  44
ATOM     44  O   UNL     1      76.667  66.016 108.595  1.00  0.00    -0.504 OA
ATOM     45  H   UNL     1      77.351  66.634 109.015  1.00  0.00     0.293 HD
ENDBRANCH  41  44
BRANCH  43  46
ATOM     46  O   UNL     1      79.365  65.362 108.376  1.00  0.00    -0.504 OA
ATOM     47  H   UNL     1      80.079  64.992 108.996  1.00  0.00     0.293 HD
ENDBRANCH  43  46
ENDBRANCH  28  38
BRANCH  34  48
ATOM     48  O   UNL     1      71.830  59.712 103.240  1.00  0.00    -0.507 OA
ATOM     49  H   UNL     1      70.871  59.429 103.066  1.00  0.00     0.293 HD
ENDBRANCH  34  48
BRANCH  37  50
ATOM     50  O   UNL     1      72.178  57.175 107.331  1.00  0.00    -0.508 OA
ATOM     51  H   UNL     1      72.837  56.507 107.709  1.00  0.00     0.293 HD
ENDBRANCH  37  50
ENDBRANCH  26  27
ENDBRANCH   5  26
BRANCH   4  52
ATOM     52  O   UNL     1      73.771  65.599 101.673  1.00  0.00    -0.384 OA
ATOM     53  H   UNL     1      73.159  65.658 102.454  1.00  0.00     0.211 HD
ENDBRANCH   4  52
TORSDOF 16
ENDMDL
MODEL 6
REMARK VINA RESULT:    -8.695      1.783      4.526
REMARK INTER + INTRA:         -16.477
REMARK INTER:                 -14.656
REMARK INTRA:                  -1.821
REMARK UNBOUND:                -2.191
REMARK SMILES C[C@@H]1O[C@@H](OC[C@H]2O[C@H](Oc3c(-c4ccc(O)c(O)c4)oc4cc(O)cc(O)c4c3=O)[C@@H](O)[C@H](O)[C@H]2O)[C@H](O)[C@H](O)[C@H]1O
REMARK SMILES IDX 7 1 36 2 34 3 32 4 9 5 8 6 6 7 5 8 4 9 1 10 2 11 42 12 3 13
REMARK SMILES IDX 40 14 38 15 43 16 41 18 39 20 37 22 35 24 10 26 11 27 12 28
REMARK SMILES IDX 30 29 21 30 29 31 31 32 22 33 27 34 23 35 26 36 24 37 13 38
REMARK SMILES IDX 20 39 14 40 18 41 15 42 16 43 19 44 17 46 28 48 25 50 33 52
REMARK H PARENT 43 17 41 19 39 21 37 23 35 25 19 45 17 47 28 49 25 51 33 53
REMARK Flexibility Score: inf
ROOT
ATOM      1  C   UNL     1      73.444  64.664 108.459  1.00  0.00     0.180 C 
ATOM      2  C   UNL     1      72.378  64.711 109.583  1.00  0.00     0.177 C 
ATOM      3  C   UNL     1      71.194  63.779 109.255  1.00  0.00     0.180 C 
ATOM      4  C   UNL     1      71.682  62.394 108.770  1.00  0.00     0.214 C 
ATOM      5  C   UNL     1      72.834  62.505 107.754  1.00  0.00     0.339 C 
ATOM      6  O   UNL     1      73.881  63.338 108.225  1.00  0.00    -0.332 OA
ENDROOT
BRANCH   1   7
ATOM      7  C   UNL     1      74.661  65.510 108.846  1.00  0.00     0.198 C 
BRANCH   7   8
ATOM      8  O   UNL     1      75.284  66.014 107.675  1.00  0.00    -0.347 OA
BRANCH   8   9
ATOM      9  C   UNL     1      76.474  65.303 107.385  1.00  0.00     0.281 C 
ATOM     10  C   UNL     1      78.077  64.189 105.069  1.00  0.00     0.041 C 
ATOM     11  C   UNL     1      77.342  63.454 106.201  1.00  0.00     0.150 C 
ATOM     12  C   UNL     1      78.251  63.014 107.381  1.00  0.00     0.174 C 
ATOM     13  O   UNL     1      76.171  64.135 106.630  1.00  0.00    -0.344 OA
ATOM     14  C   UNL     1      78.430  64.100 108.470  1.00  0.00     0.179 C 
ATOM     15  C   UNL     1      77.133  64.899 108.717  1.00  0.00     0.202 C 
BRANCH  12  16
ATOM     16  O   UNL     1      77.690  61.864 107.972  1.00  0.00    -0.388 OA
ATOM     17  H   UNL     1      77.118  61.434 107.280  1.00  0.00     0.211 HD
ENDBRANCH  12  16
BRANCH  14  18
ATOM     18  O   UNL     1      79.532  64.929 108.197  1.00  0.00    -0.387 OA
ATOM     19  H   UNL     1      79.322  65.849 108.496  1.00  0.00     0.211 HD
ENDBRANCH  14  18
BRANCH  15  20
ATOM     20  O   UNL     1      77.417  66.041 109.488  1.00  0.00    -0.385 OA
ATOM     21  H   UNL     1      76.658  66.158 110.116  1.00  0.00     0.211 HD
ENDBRANCH  15  20
ENDBRANCH   8   9
ENDBRANCH   7   8
ENDBRANCH   1   7
BRANCH   2  22
ATOM     22  O   UNL     1      72.943  64.303 110.807  1.00  0.00    -0.387 OA
ATOM     23  H   UNL     1      73.857  64.685 110.853  1.00  0.00     0.211 HD
ENDBRANCH   2  22
BRANCH   3  24
ATOM     24  O   UNL     1      70.302  64.367 108.337  1.00  0.00    -0.387 OA
ATOM     25  H   UNL     1      70.435  63.940 107.455  1.00  0.00     0.211 HD
ENDBRANCH   3  24
BRANCH   5  26
ATOM     26  O   UNL     1      72.355  62.934 106.473  1.00  0.00    -0.454 OA
BRANCH  26  27
ATOM     27  C   UNL     1      73.180  62.920 105.341  1.00  0.00     0.214 A 
ATOM     28  C   UNL     1      73.680  61.710 104.830  1.00  0.00     0.180 A 
ATOM     29  C   UNL     1      73.555  64.120 104.721  1.00  0.00     0.239 A 
ATOM     30  O   UNL     1      74.542  61.717 103.820  1.00  0.00    -0.452 OA
ATOM     31  C   UNL     1      74.448  64.092 103.631  1.00  0.00     0.111 A 
ATOM     32  O   UNL     1      73.084  65.210 105.150  1.00  0.00    -0.285 OA
ATOM     33  C   UNL     1      74.939  62.830 103.213  1.00  0.00     0.146 A 
ATOM     34  C   UNL     1      74.876  65.258 102.951  1.00  0.00     0.134 A 
ATOM     35  C   UNL     1      75.847  62.743 102.153  1.00  0.00     0.094 A 
ATOM     36  C   UNL     1      75.787  65.146 101.889  1.00  0.00     0.093 A 
ATOM     37  C   UNL     1      76.275  63.899 101.491  1.00  0.00     0.123 A 
BRANCH  28  38
ATOM     38  C   UNL     1      73.261  60.418 105.392  1.00  0.00     0.025 A 
ATOM     39  C   UNL     1      72.076  59.801 104.960  1.00  0.00     0.062 A 
ATOM     40  C   UNL     1      74.037  59.806 106.388  1.00  0.00     0.016 A 
ATOM     41  C   UNL     1      71.696  58.560 105.486  1.00  0.00     0.158 A 
ATOM     42  C   UNL     1      73.645  58.577 106.925  1.00  0.00     0.051 A 
ATOM     43  C   UNL     1      72.474  57.950 106.479  1.00  0.00     0.157 A 
BRANCH  41  44
ATOM     44  O   UNL     1      70.551  57.918 105.021  1.00  0.00    -0.504 OA
ATOM     45  H   UNL     1      69.890  57.480 105.652  1.00  0.00     0.293 HD
ENDBRANCH  41  44
BRANCH  43  46
ATOM     46  O   UNL     1      72.079  56.727 107.022  1.00  0.00    -0.504 OA
ATOM     47  H   UNL     1      71.238  56.637 107.584  1.00  0.00     0.293 HD
ENDBRANCH  43  46
ENDBRANCH  28  38
BRANCH  34  48
ATOM     48  O   UNL     1      74.410  66.522 103.319  1.00  0.00    -0.507 OA
ATOM     49  H   UNL     1      73.447  66.675 103.599  1.00  0.00     0.293 HD
ENDBRANCH  34  48
BRANCH  37  50
ATOM     50  O   UNL     1      77.186  63.821 100.438  1.00  0.00    -0.508 OA
ATOM     51  H   UNL     1      77.286  64.578  99.773  1.00  0.00     0.293 HD
ENDBRANCH  37  50
ENDBRANCH  26  27
ENDBRANCH   5  26
BRANCH   4  52
ATOM     52  O   UNL     1      72.119  61.633 109.867  1.00  0.00    -0.384 OA
ATOM     53  H   UNL     1      72.578  60.831 109.500  1.00  0.00     0.211 HD
ENDBRANCH   4  52
TORSDOF 16
ENDMDL
MODEL 7
REMARK VINA RESULT:    -8.662      1.774      6.834
REMARK INTER + INTRA:         -16.422
REMARK INTER:                 -13.875
REMARK INTRA:                  -2.547
REMARK UNBOUND:                -2.191
REMARK SMILES C[C@@H]1O[C@@H](OC[C@H]2O[C@H](Oc3c(-c4ccc(O)c(O)c4)oc4cc(O)cc(O)c4c3=O)[C@@H](O)[C@H](O)[C@H]2O)[C@H](O)[C@H](O)[C@H]1O
REMARK SMILES IDX 7 1 36 2 34 3 32 4 9 5 8 6 6 7 5 8 4 9 1 10 2 11 42 12 3 13
REMARK SMILES IDX 40 14 38 15 43 16 41 18 39 20 37 22 35 24 10 26 11 27 12 28
REMARK SMILES IDX 30 29 21 30 29 31 31 32 22 33 27 34 23 35 26 36 24 37 13 38
REMARK SMILES IDX 20 39 14 40 18 41 15 42 16 43 19 44 17 46 28 48 25 50 33 52
REMARK H PARENT 43 17 41 19 39 21 37 23 35 25 19 45 17 47 28 49 25 51 33 53
REMARK Flexibility Score: inf
ROOT
ATOM      1  C   UNL     1      74.663  65.854 105.710  1.00  0.00     0.180 C 
ATOM      2  C   UNL     1      75.396  67.049 105.049  1.00  0.00     0.177 C 
ATOM      3  C   UNL     1      76.208  66.584 103.824  1.00  0.00     0.180 C 
ATOM      4  C   UNL     1      75.377  65.645 102.917  1.00  0.00     0.214 C 
ATOM      5  C   UNL     1      74.599  64.592 103.727  1.00  0.00     0.339 C 
ATOM      6  O   UNL     1      73.844  65.176 104.776  1.00  0.00    -0.332 OA
ENDROOT
BRANCH   1   7
ATOM      7  C   UNL     1      73.777  66.345 106.860  1.00  0.00     0.198 C 
BRANCH   7   8
ATOM      8  O   UNL     1      72.565  65.606 106.878  1.00  0.00    -0.347 OA
BRANCH   8   9
ATOM      9  C   UNL     1      72.434  64.872 108.081  1.00  0.00     0.281 C 
ATOM     10  C   UNL     1      72.075  65.242 111.067  1.00  0.00     0.041 C 
ATOM     11  C   UNL     1      73.266  64.669 110.282  1.00  0.00     0.150 C 
ATOM     12  C   UNL     1      73.308  63.118 110.216  1.00  0.00     0.174 C 
ATOM     13  O   UNL     1      73.433  65.281 109.011  1.00  0.00    -0.344 OA
ATOM     14  C   UNL     1      72.500  62.521 109.039  1.00  0.00     0.179 C 
ATOM     15  C   UNL     1      72.612  63.377 107.760  1.00  0.00     0.202 C 
BRANCH  12  16
ATOM     16  O   UNL     1      74.653  62.713 110.098  1.00  0.00    -0.388 OA
ATOM     17  H   UNL     1      74.820  62.544 109.132  1.00  0.00     0.211 HD
ENDBRANCH  12  16
BRANCH  14  18
ATOM     18  O   UNL     1      71.167  62.265 109.404  1.00  0.00    -0.387 OA
ATOM     19  H   UNL     1      71.107  61.348 109.773  1.00  0.00     0.211 HD
ENDBRANCH  14  18
BRANCH  15  20
ATOM     20  O   UNL     1      71.648  62.962 106.823  1.00  0.00    -0.385 OA
ATOM     21  H   UNL     1      71.983  62.118 106.422  1.00  0.00     0.211 HD
ENDBRANCH  15  20
ENDBRANCH   8   9
ENDBRANCH   7   8
ENDBRANCH   1   7
BRANCH   2  22
ATOM     22  O   UNL     1      74.464  68.017 104.628  1.00  0.00    -0.387 OA
ATOM     23  H   UNL     1      74.324  67.891 103.654  1.00  0.00     0.211 HD
ENDBRANCH   2  22
BRANCH   3  24
ATOM     24  O   UNL     1      77.432  65.996 104.198  1.00  0.00    -0.387 OA
ATOM     25  H   UNL     1      77.253  65.320 104.897  1.00  0.00     0.211 HD
ENDBRANCH   3  24
BRANCH   5  26
ATOM     26  O   UNL     1      75.473  63.566 104.216  1.00  0.00    -0.454 OA
BRANCH  26  27
ATOM     27  C   UNL     1      74.981  62.461 104.921  1.00  0.00     0.214 A 
ATOM     28  C   UNL     1      75.554  62.073 106.144  1.00  0.00     0.180 A 
ATOM     29  C   UNL     1      73.929  61.696 104.397  1.00  0.00     0.239 A 
ATOM     30  O   UNL     1      75.146  60.965 106.753  1.00  0.00    -0.452 OA
ATOM     31  C   UNL     1      73.498  60.541 105.082  1.00  0.00     0.111 A 
ATOM     32  O   UNL     1      73.383  62.055 103.317  1.00  0.00    -0.285 OA
ATOM     33  C   UNL     1      74.167  60.200 106.285  1.00  0.00     0.146 A 
ATOM     34  C   UNL     1      72.444  59.716 104.621  1.00  0.00     0.134 A 
ATOM     35  C   UNL     1      73.798  59.053 106.994  1.00  0.00     0.094 A 
ATOM     36  C   UNL     1      72.092  58.570 105.350  1.00  0.00     0.093 A 
ATOM     37  C   UNL     1      72.763  58.233 106.528  1.00  0.00     0.123 A 
BRANCH  28  38
ATOM     38  C   UNL     1      76.607  62.880 106.778  1.00  0.00     0.025 A 
ATOM     39  C   UNL     1      76.298  63.766 107.821  1.00  0.00     0.062 A 
ATOM     40  C   UNL     1      77.930  62.784 106.320  1.00  0.00     0.016 A 
ATOM     41  C   UNL     1      77.311  64.515 108.433  1.00  0.00     0.158 A 
ATOM     42  C   UNL     1      78.936  63.546 106.920  1.00  0.00     0.051 A 
ATOM     43  C   UNL     1      78.631  64.416 107.976  1.00  0.00     0.157 A 
BRANCH  41  44
ATOM     44  O   UNL     1      77.018  65.355 109.505  1.00  0.00    -0.504 OA
ATOM     45  H   UNL     1      76.765  66.327 109.370  1.00  0.00     0.293 HD
ENDBRANCH  41  44
BRANCH  43  46
ATOM     46  O   UNL     1      79.635  65.184 108.568  1.00  0.00    -0.504 OA
ATOM     47  H   UNL     1      80.617  65.035 108.358  1.00  0.00     0.293 HD
ENDBRANCH  43  46
ENDBRANCH  28  38
BRANCH  34  48
ATOM     48  O   UNL     1      71.750  60.018 103.448  1.00  0.00    -0.507 OA
ATOM     49  H   UNL     1      71.791  59.416 102.633  1.00  0.00     0.293 HD
ENDBRANCH  34  48
BRANCH  37  50
ATOM     50  O   UNL     1      72.395  57.084 107.226  1.00  0.00    -0.508 OA
ATOM     51  H   UNL     1      72.366  57.071 108.237  1.00  0.00     0.293 HD
ENDBRANCH  37  50
ENDBRANCH  26  27
ENDBRANCH   5  26
BRANCH   4  52
ATOM     52  O   UNL     1      74.463  66.400 102.163  1.00  0.00    -0.384 OA
ATOM     53  H   UNL     1      74.737  66.322 101.211  1.00  0.00     0.211 HD
ENDBRANCH   4  52
TORSDOF 16
ENDMDL
MODEL 8
REMARK VINA RESULT:    -8.581      2.701      6.953
REMARK INTER + INTRA:         -16.290
REMARK INTER:                 -14.821
REMARK INTRA:                  -1.469
REMARK UNBOUND:                -2.191
REMARK SMILES C[C@@H]1O[C@@H](OC[C@H]2O[C@H](Oc3c(-c4ccc(O)c(O)c4)oc4cc(O)cc(O)c4c3=O)[C@@H](O)[C@H](O)[C@H]2O)[C@H](O)[C@H](O)[C@H]1O
REMARK SMILES IDX 7 1 36 2 34 3 32 4 9 5 8 6 6 7 5 8 4 9 1 10 2 11 42 12 3 13
REMARK SMILES IDX 40 14 38 15 43 16 41 18 39 20 37 22 35 24 10 26 11 27 12 28
REMARK SMILES IDX 30 29 21 30 29 31 31 32 22 33 27 34 23 35 26 36 24 37 13 38
REMARK SMILES IDX 20 39 14 40 18 41 15 42 16 43 19 44 17 46 28 48 25 50 33 52
REMARK H PARENT 43 17 41 19 39 21 37 23 35 25 19 45 17 47 28 49 25 51 33 53
REMARK Flexibility Score: inf
ROOT
ATOM      1  C   UNL     1      77.163  65.163 102.838  1.00  0.00     0.180 C 
ATOM      2  C   UNL     1      78.404  64.276 102.562  1.00  0.00     0.177 C 
ATOM      3  C   UNL     1      78.159  62.828 103.033  1.00  0.00     0.180 C 
ATOM      4  C   UNL     1      76.775  62.311 102.575  1.00  0.00     0.214 C 
ATOM      5  C   UNL     1      75.662  63.353 102.791  1.00  0.00     0.339 C 
ATOM      6  O   UNL     1      76.001  64.617 102.243  1.00  0.00    -0.332 OA
ENDROOT
BRANCH   1   7
ATOM      7  C   UNL     1      77.378  66.569 102.271  1.00  0.00     0.198 C 
BRANCH   7   8
ATOM      8  O   UNL     1      76.134  67.115 101.861  1.00  0.00    -0.347 OA
BRANCH   8   9
ATOM      9  C   UNL     1      75.796  68.249 102.637  1.00  0.00     0.281 C 
ATOM     10  C   UNL     1      76.603  71.129 103.122  1.00  0.00     0.041 C 
ATOM     11  C   UNL     1      76.684  69.913 104.058  1.00  0.00     0.150 C 
ATOM     12  C   UNL     1      75.510  69.799 105.069  1.00  0.00     0.174 C 
ATOM     13  O   UNL     1      76.934  68.699 103.364  1.00  0.00    -0.344 OA
ATOM     14  C   UNL     1      74.280  69.041 104.514  1.00  0.00     0.179 C 
ATOM     15  C   UNL     1      74.682  67.848 103.621  1.00  0.00     0.202 C 
BRANCH  12  16
ATOM     16  O   UNL     1      75.976  69.132 106.221  1.00  0.00    -0.388 OA
ATOM     17  H   UNL     1      75.887  68.156 106.045  1.00  0.00     0.211 HD
ENDBRANCH  12  16
BRANCH  14  18
ATOM     18  O   UNL     1      73.379  69.913 103.879  1.00  0.00    -0.387 OA
ATOM     19  H   UNL     1      73.191  69.572 102.969  1.00  0.00     0.211 HD
ENDBRANCH  14  18
BRANCH  15  20
ATOM     20  O   UNL     1      73.557  67.378 102.920  1.00  0.00    -0.385 OA
ATOM     21  H   UNL     1      73.525  67.876 102.063  1.00  0.00     0.211 HD
ENDBRANCH  15  20
ENDBRANCH   8   9
ENDBRANCH   7   8
ENDBRANCH   1   7
BRANCH   2  22
ATOM     22  O   UNL     1      78.689  64.256 101.183  1.00  0.00    -0.387 OA
ATOM     23  H   UNL     1      77.837  64.077 100.706  1.00  0.00     0.211 HD
ENDBRANCH   2  22
BRANCH   3  24
ATOM     24  O   UNL     1      78.330  62.693 104.424  1.00  0.00    -0.387 OA
ATOM     25  H   UNL     1      77.788  61.926 104.732  1.00  0.00     0.211 HD
ENDBRANCH   3  24
BRANCH   5  26
ATOM     26  O   UNL     1      75.313  63.457 104.178  1.00  0.00    -0.454 OA
BRANCH  26  27
ATOM     27  C   UNL     1      74.788  62.368 104.884  1.00  0.00     0.214 A 
ATOM     28  C   UNL     1      75.240  62.064 106.179  1.00  0.00     0.180 A 
ATOM     29  C   UNL     1      73.825  61.537 104.293  1.00  0.00     0.239 A 
ATOM     30  O   UNL     1      74.809  60.970 106.798  1.00  0.00    -0.452 OA
ATOM     31  C   UNL     1      73.364  60.400 104.988  1.00  0.00     0.111 A 
ATOM     32  O   UNL     1      73.385  61.821 103.144  1.00  0.00    -0.285 OA
ATOM     33  C   UNL     1      73.913  60.145 106.270  1.00  0.00     0.146 A 
ATOM     34  C   UNL     1      72.396  59.512 104.463  1.00  0.00     0.134 A 
ATOM     35  C   UNL     1      73.511  59.019 106.996  1.00  0.00     0.094 A 
ATOM     36  C   UNL     1      72.009  58.388 105.210  1.00  0.00     0.093 A 
ATOM     37  C   UNL     1      72.561  58.137 106.467  1.00  0.00     0.123 A 
BRANCH  28  38
ATOM     38  C   UNL     1      76.191  62.942 106.877  1.00  0.00     0.025 A 
ATOM     39  C   UNL     1      76.140  64.333 106.699  1.00  0.00     0.062 A 
ATOM     40  C   UNL     1      77.174  62.385 107.708  1.00  0.00     0.016 A 
ATOM     41  C   UNL     1      77.036  65.164 107.384  1.00  0.00     0.158 A 
ATOM     42  C   UNL     1      78.079  63.214 108.376  1.00  0.00     0.051 A 
ATOM     43  C   UNL     1      78.016  64.605 108.216  1.00  0.00     0.157 A 
BRANCH  41  44
ATOM     44  O   UNL     1      76.955  66.548 107.255  1.00  0.00    -0.504 OA
ATOM     45  H   UNL     1      76.253  67.090 107.745  1.00  0.00     0.293 HD
ENDBRANCH  41  44
BRANCH  43  46
ATOM     46  O   UNL     1      78.926  65.432 108.876  1.00  0.00    -0.504 OA
ATOM     47  H   UNL     1      78.934  65.519 109.887  1.00  0.00     0.293 HD
ENDBRANCH  43  46
ENDBRANCH  28  38
BRANCH  34  48
ATOM     48  O   UNL     1      71.820  59.729 103.210  1.00  0.00    -0.507 OA
ATOM     49  H   UNL     1      71.916  59.058 102.454  1.00  0.00     0.293 HD
ENDBRANCH  34  48
BRANCH  37  50
ATOM     50  O   UNL     1      72.161  57.009 107.182  1.00  0.00    -0.508 OA
ATOM     51  H   UNL     1      72.157  57.002 108.194  1.00  0.00     0.293 HD
ENDBRANCH  37  50
ENDBRANCH  26  27
ENDBRANCH   5  26
BRANCH   4  52
ATOM     52  O   UNL     1      76.820  61.976 101.211  1.00  0.00    -0.384 OA
ATOM     53  H   UNL     1      77.423  62.631 100.770  1.00  0.00     0.211 HD
ENDBRANCH   4  52
TORSDOF 16
ENDMDL
MODEL 9
REMARK VINA RESULT:    -8.534      1.949      4.625
REMARK INTER + INTRA:         -16.212
REMARK INTER:                 -14.286
REMARK INTRA:                  -1.927
REMARK UNBOUND:                -2.191
REMARK SMILES C[C@@H]1O[C@@H](OC[C@H]2O[C@H](Oc3c(-c4ccc(O)c(O)c4)oc4cc(O)cc(O)c4c3=O)[C@@H](O)[C@H](O)[C@H]2O)[C@H](O)[C@H](O)[C@H]1O
REMARK SMILES IDX 7 1 36 2 34 3 32 4 9 5 8 6 6 7 5 8 4 9 1 10 2 11 42 12 3 13
REMARK SMILES IDX 40 14 38 15 43 16 41 18 39 20 37 22 35 24 10 26 11 27 12 28
REMARK SMILES IDX 30 29 21 30 29 31 31 32 22 33 27 34 23 35 26 36 24 37 13 38
REMARK SMILES IDX 20 39 14 40 18 41 15 42 16 43 19 44 17 46 28 48 25 50 33 52
REMARK H PARENT 43 17 41 19 39 21 37 23 35 25 19 45 17 47 28 49 25 51 33 53
REMARK Flexibility Score: inf
ROOT
ATOM      1  C   UNL     1      73.649  65.717 106.479  1.00  0.00     0.180 C 
ATOM      2  C   UNL     1      72.348  66.471 106.852  1.00  0.00     0.177 C 
ATOM      3  C   UNL     1      71.141  65.895 106.083  1.00  0.00     0.180 C 
ATOM      4  C   UNL     1      71.127  64.349 106.128  1.00  0.00     0.214 C 
ATOM      5  C   UNL     1      72.520  63.746 105.870  1.00  0.00     0.339 C 
ATOM      6  O   UNL     1      73.515  64.325 106.699  1.00  0.00    -0.332 OA
ENDROOT
BRANCH   1   7
ATOM      7  C   UNL     1      74.820  66.227 107.326  1.00  0.00     0.198 C 
BRANCH   7   8
ATOM      8  O   UNL     1      76.013  66.200 106.558  1.00  0.00    -0.347 OA
BRANCH   8   9
ATOM      9  C   UNL     1      76.989  65.374 107.163  1.00  0.00     0.281 C 
ATOM     10  C   UNL     1      78.575  62.833 106.702  1.00  0.00     0.041 C 
ATOM     11  C   UNL     1      77.491  63.141 107.748  1.00  0.00     0.150 C 
ATOM     12  C   UNL     1      78.039  63.539 109.146  1.00  0.00     0.174 C 
ATOM     13  O   UNL     1      76.502  64.040 107.266  1.00  0.00    -0.344 OA
ATOM     14  C   UNL     1      78.332  65.052 109.294  1.00  0.00     0.179 C 
ATOM     15  C   UNL     1      77.285  65.924 108.570  1.00  0.00     0.202 C 
BRANCH  12  16
ATOM     16  O   UNL     1      77.093  63.160 110.120  1.00  0.00    -0.388 OA
ATOM     17  H   UNL     1      76.236  63.605 109.879  1.00  0.00     0.211 HD
ENDBRANCH  12  16
BRANCH  14  18
ATOM     18  O   UNL     1      79.650  65.361 108.915  1.00  0.00    -0.387 OA
ATOM     19  H   UNL     1      79.687  65.449 107.930  1.00  0.00     0.211 HD
ENDBRANCH  14  18
BRANCH  15  20
ATOM     20  O   UNL     1      77.746  67.251 108.489  1.00  0.00    -0.385 OA
ATOM     21  H   UNL     1      77.355  67.639 107.663  1.00  0.00     0.211 HD
ENDBRANCH  15  20
ENDBRANCH   8   9
ENDBRANCH   7   8
ENDBRANCH   1   7
BRANCH   2  22
ATOM     22  O   UNL     1      72.097  66.354 108.232  1.00  0.00    -0.387 OA
ATOM     23  H   UNL     1      71.418  67.037 108.471  1.00  0.00     0.211 HD
ENDBRANCH   2  22
BRANCH   3  24
ATOM     24  O   UNL     1      71.083  66.377 104.761  1.00  0.00    -0.387 OA
ATOM     25  H   UNL     1      70.243  66.888 104.652  1.00  0.00     0.211 HD
ENDBRANCH   3  24
BRANCH   5  26
ATOM     26  O   UNL     1      72.874  63.836 104.483  1.00  0.00    -0.454 OA
BRANCH  26  27
ATOM     27  C   UNL     1      74.174  63.562 104.040  1.00  0.00     0.214 A 
ATOM     28  C   UNL     1      74.731  62.281 104.192  1.00  0.00     0.180 A 
ATOM     29  C   UNL     1      74.959  64.576 103.472  1.00  0.00     0.239 A 
ATOM     30  O   UNL     1      75.998  62.060 103.862  1.00  0.00    -0.452 OA
ATOM     31  C   UNL     1      76.292  64.301 103.104  1.00  0.00     0.111 A 
ATOM     32  O   UNL     1      74.457  65.721 103.299  1.00  0.00    -0.285 OA
ATOM     33  C   UNL     1      76.784  62.993 103.338  1.00  0.00     0.146 A 
ATOM     34  C   UNL     1      77.149  65.268 102.525  1.00  0.00     0.134 A 
ATOM     35  C   UNL     1      78.106  62.670 103.015  1.00  0.00     0.094 A 
ATOM     36  C   UNL     1      78.472  64.920 102.210  1.00  0.00     0.093 A 
ATOM     37  C   UNL     1      78.954  63.632 102.453  1.00  0.00     0.123 A 
BRANCH  28  38
ATOM     38  C   UNL     1      73.930  61.162 104.710  1.00  0.00     0.025 A 
ATOM     39  C   UNL     1      74.340  60.460 105.854  1.00  0.00     0.062 A 
ATOM     40  C   UNL     1      72.758  60.774 104.042  1.00  0.00     0.016 A 
ATOM     41  C   UNL     1      73.560  59.409 106.353  1.00  0.00     0.158 A 
ATOM     42  C   UNL     1      71.992  59.713 104.531  1.00  0.00     0.051 A 
ATOM     43  C   UNL     1      72.390  59.025 105.685  1.00  0.00     0.157 A 
BRANCH  41  44
ATOM     44  O   UNL     1      73.934  58.745 107.519  1.00  0.00    -0.504 OA
ATOM     45  H   UNL     1      74.797  58.961 108.003  1.00  0.00     0.293 HD
ENDBRANCH  41  44
BRANCH  43  46
ATOM     46  O   UNL     1      71.629  57.959 106.167  1.00  0.00    -0.504 OA
ATOM     47  H   UNL     1      71.676  57.035 105.750  1.00  0.00     0.293 HD
ENDBRANCH  43  46
ENDBRANCH  28  38
BRANCH  34  48
ATOM     48  O   UNL     1      76.705  66.566 102.266  1.00  0.00    -0.507 OA
ATOM     49  H   UNL     1      75.732  66.765 102.055  1.00  0.00     0.293 HD
ENDBRANCH  34  48
BRANCH  37  50
ATOM     50  O   UNL     1      80.274  63.319 102.135  1.00  0.00    -0.508 OA
ATOM     51  H   UNL     1      80.501  62.509 101.573  1.00  0.00     0.293 HD
ENDBRANCH  37  50
ENDBRANCH  26  27
ENDBRANCH   5  26
BRANCH   4  52
ATOM     52  O   UNL     1      70.674  63.914 107.385  1.00  0.00    -0.384 OA
ATOM     53  H   UNL     1      70.401  64.724 107.892  1.00  0.00     0.211 HD
ENDBRANCH   4  52
TORSDOF 16
ENDMDL
