MODEL 1
REMARK VINA RESULT:    -3.483      0.000      0.000
REMARK INTER + INTRA:          -9.599
REMARK INTER:                  -6.740
REMARK INTRA:                  -2.859
REMARK UNBOUND:                -2.859
REMARK SMILES CCCCCCCCCCCCCCCCCC(=O)[O-]
REMARK SMILES IDX 10 1 11 2 12 3 13 4 14 5 15 6 16 7 17 8 18 9 19 10 20 11
REMARK SMILES IDX 9 12 8 13 7 14 6 15 5 16 4 17 3 18 2 19 1 20
REMARK H PARENT
REMARK Flexibility Score: inf
ROOT
ATOM      1  C   UNL     1      36.394 -49.446   1.663  1.00  0.00     0.000 C 
ENDROOT
BRANCH   1   2
ATOM      2  C   UNL     1      35.460 -50.275   2.570  1.00  0.00     0.000 C 
BRANCH   2   3
ATOM      3  C   UNL     1      33.994 -50.347   2.103  1.00  0.00     0.000 C 
BRANCH   3   4
ATOM      4  C   UNL     1      33.716 -49.719   0.723  1.00  0.00     0.000 C 
BRANCH   4   5
ATOM      5  C   UNL     1      33.117 -48.301   0.758  1.00  0.00     0.000 C 
BRANCH   5   6
ATOM      6  C   UNL     1      33.293 -47.545  -0.571  1.00  0.00     0.000 C 
BRANCH   6   7
ATOM      7  C   UNL     1      34.757 -47.151  -0.842  1.00  0.00     0.006 C 
BRANCH   7   8
ATOM      8  C   UNL     1      35.454 -48.001  -1.917  1.00  0.00     0.053 C 
BRANCH   8   9
ATOM      9  C   UNL     1      35.069 -47.584  -3.303  1.00  0.00     0.041 C 
ATOM     10  O   UNL     1      35.818 -46.816  -3.963  1.00  0.00    -0.550 OA
ATOM     11  O   UNL     1      33.901 -48.068  -3.876  1.00  0.00    -0.550 OA
ENDBRANCH   8   9
ENDBRANCH   7   8
ENDBRANCH   6   7
ENDBRANCH   5   6
ENDBRANCH   4   5
ENDBRANCH   3   4
ENDBRANCH   2   3
ENDBRANCH   1   2
BRANCH   1  12
ATOM     12  C   UNL     1      36.789 -48.069   2.224  1.00  0.00     0.000 C 
BRANCH  12  13
ATOM     13  C   UNL     1      36.205 -47.800   3.619  1.00  0.00    -0.000 C 
BRANCH  13  14
ATOM     14  C   UNL     1      35.074 -46.767   3.551  1.00  0.00    -0.000 C 
BRANCH  14  15
ATOM     15  C   UNL     1      35.294 -45.784   2.392  1.00  0.00    -0.000 C 
BRANCH  15  16
ATOM     16  C   UNL     1      34.398 -44.537   2.487  1.00  0.00    -0.000 C 
BRANCH  16  17
ATOM     17  C   UNL     1      32.972 -44.715   1.928  1.00  0.00    -0.000 C 
BRANCH  17  18
ATOM     18  C   UNL     1      32.726 -44.082   0.544  1.00  0.00    -0.000 C 
BRANCH  18  19
ATOM     19  C   UNL     1      33.950 -43.379  -0.072  1.00  0.00    -0.003 C 
ATOM     20  C   UNL     1      34.011 -43.515  -1.592  1.00  0.00     0.004 C 
ENDBRANCH  18  19
ENDBRANCH  17  18
ENDBRANCH  16  17
ENDBRANCH  15  16
ENDBRANCH  14  15
ENDBRANCH  13  14
ENDBRANCH  12  13
ENDBRANCH   1  12
TORSDOF 16
ENDMDL
MODEL 2
REMARK VINA RESULT:    -3.428      3.240      4.510
REMARK INTER + INTRA:          -9.493
REMARK INTER:                  -6.635
REMARK INTRA:                  -2.858
REMARK UNBOUND:                -2.859
REMARK SMILES CCCCCCCCCCCCCCCCCC(=O)[O-]
REMARK SMILES IDX 10 1 11 2 12 3 13 4 14 5 15 6 16 7 17 8 18 9 19 10 20 11
REMARK SMILES IDX 9 12 8 13 7 14 6 15 5 16 4 17 3 18 2 19 1 20
REMARK H PARENT
REMARK Flexibility Score: inf
ROOT
ATOM      1  C   UNL     1      36.433 -48.058  -0.878  1.00  0.00     0.000 C 
ENDROOT
BRANCH   1   2
ATOM      2  C   UNL     1      35.115 -48.835  -1.076  1.00  0.00     0.000 C 
BRANCH   2   3
ATOM      3  C   UNL     1      33.835 -48.045  -0.742  1.00  0.00     0.000 C 
BRANCH   3   4
ATOM      4  C   UNL     1      33.087 -48.519   0.521  1.00  0.00     0.000 C 
BRANCH   4   5
ATOM      5  C   UNL     1      33.557 -49.868   1.093  1.00  0.00     0.000 C 
BRANCH   5   6
ATOM      6  C   UNL     1      34.259 -49.728   2.455  1.00  0.00     0.000 C 
BRANCH   6   7
ATOM      7  C   UNL     1      35.144 -50.941   2.796  1.00  0.00     0.006 C 
BRANCH   7   8
ATOM      8  C   UNL     1      36.597 -50.585   3.153  1.00  0.00     0.053 C 
BRANCH   8   9
ATOM      9  C   UNL     1      36.719 -50.048   4.546  1.00  0.00     0.041 C 
ATOM     10  O   UNL     1      36.490 -50.794   5.534  1.00  0.00    -0.550 OA
ATOM     11  O   UNL     1      37.117 -48.734   4.753  1.00  0.00    -0.550 OA
ENDBRANCH   8   9
ENDBRANCH   7   8
ENDBRANCH   6   7
ENDBRANCH   5   6
ENDBRANCH   4   5
ENDBRANCH   3   4
ENDBRANCH   2   3
ENDBRANCH   1   2
BRANCH   1  12
ATOM     12  C   UNL     1      36.341 -46.858   0.083  1.00  0.00     0.000 C 
BRANCH  12  13
ATOM     13  C   UNL     1      36.804 -47.197   1.508  1.00  0.00    -0.000 C 
BRANCH  13  14
ATOM     14  C   UNL     1      36.391 -46.099   2.495  1.00  0.00    -0.000 C 
BRANCH  14  15
ATOM     15  C   UNL     1      34.884 -46.157   2.785  1.00  0.00    -0.000 C 
BRANCH  15  16
ATOM     16  C   UNL     1      34.177 -44.812   2.543  1.00  0.00    -0.000 C 
BRANCH  16  17
ATOM     17  C   UNL     1      33.215 -44.790   1.338  1.00  0.00    -0.000 C 
BRANCH  17  18
ATOM     18  C   UNL     1      33.589 -43.797   0.218  1.00  0.00    -0.000 C 
BRANCH  18  19
ATOM     19  C   UNL     1      35.086 -43.451   0.136  1.00  0.00    -0.003 C 
ATOM     20  C   UNL     1      35.375 -41.985   0.451  1.00  0.00     0.004 C 
ENDBRANCH  18  19
ENDBRANCH  17  18
ENDBRANCH  16  17
ENDBRANCH  15  16
ENDBRANCH  14  15
ENDBRANCH  13  14
ENDBRANCH  12  13
ENDBRANCH   1  12
TORSDOF 16
ENDMDL
MODEL 3
REMARK VINA RESULT:    -3.417      2.919      5.426
REMARK INTER + INTRA:          -9.472
REMARK INTER:                  -6.528
REMARK INTRA:                  -2.943
REMARK UNBOUND:                -2.859
REMARK SMILES CCCCCCCCCCCCCCCCCC(=O)[O-]
REMARK SMILES IDX 10 1 11 2 12 3 13 4 14 5 15 6 16 7 17 8 18 9 19 10 20 11
REMARK SMILES IDX 9 12 8 13 7 14 6 15 5 16 4 17 3 18 2 19 1 20
REMARK H PARENT
REMARK Flexibility Score: inf
ROOT
ATOM      1  C   UNL     1      33.743 -43.402  -0.381  1.00  0.00     0.000 C 
ENDROOT
BRANCH   1   2
ATOM      2  C   UNL     1      32.722 -44.074   0.559  1.00  0.00     0.000 C 
BRANCH   2   3
ATOM      3  C   UNL     1      33.290 -44.540   1.913  1.00  0.00     0.000 C 
BRANCH   3   4
ATOM      4  C   UNL     1      33.743 -46.013   1.958  1.00  0.00     0.000 C 
BRANCH   4   5
ATOM      5  C   UNL     1      34.950 -46.299   2.870  1.00  0.00     0.000 C 
BRANCH   5   6
ATOM      6  C   UNL     1      35.087 -47.788   3.231  1.00  0.00     0.000 C 
BRANCH   6   7
ATOM      7  C   UNL     1      34.467 -48.717   2.170  1.00  0.00     0.006 C 
BRANCH   7   8
ATOM      8  C   UNL     1      34.643 -50.217   2.459  1.00  0.00     0.053 C 
BRANCH   8   9
ATOM      9  C   UNL     1      36.019 -50.536   2.960  1.00  0.00     0.041 C 
ATOM     10  O   UNL     1      36.173 -51.073   4.088  1.00  0.00    -0.550 OA
ATOM     11  O   UNL     1      37.127 -50.270   2.167  1.00  0.00    -0.550 OA
ENDBRANCH   8   9
ENDBRANCH   7   8
ENDBRANCH   6   7
ENDBRANCH   5   6
ENDBRANCH   4   5
ENDBRANCH   3   4
ENDBRANCH   2   3
ENDBRANCH   1   2
BRANCH   1  12
ATOM     12  C   UNL     1      35.046 -42.943   0.297  1.00  0.00     0.000 C 
BRANCH  12  13
ATOM     13  C   UNL     1      36.303 -43.331  -0.497  1.00  0.00    -0.000 C 
BRANCH  13  14
ATOM     14  C   UNL     1      36.120 -44.688  -1.186  1.00  0.00    -0.000 C 
BRANCH  14  15
ATOM     15  C   UNL     1      36.593 -45.834  -0.280  1.00  0.00    -0.000 C 
BRANCH  15  16
ATOM     16  C   UNL     1      36.123 -47.216  -0.767  1.00  0.00    -0.000 C 
BRANCH  16  17
ATOM     17  C   UNL     1      35.045 -47.186  -1.869  1.00  0.00    -0.000 C 
BRANCH  17  18
ATOM     18  C   UNL     1      33.597 -47.380  -1.376  1.00  0.00    -0.000 C 
BRANCH  18  19
ATOM     19  C   UNL     1      32.547 -46.515  -2.097  1.00  0.00    -0.003 C 
ATOM     20  C   UNL     1      33.129 -45.730  -3.271  1.00  0.00     0.004 C 
ENDBRANCH  18  19
ENDBRANCH  17  18
ENDBRANCH  16  17
ENDBRANCH  15  16
ENDBRANCH  14  15
ENDBRANCH  13  14
ENDBRANCH  12  13
ENDBRANCH   1  12
TORSDOF 16
ENDMDL
MODEL 4
REMARK VINA RESULT:    -3.368      3.050      5.862
REMARK INTER + INTRA:          -9.378
REMARK INTER:                  -6.285
REMARK INTRA:                  -3.093
REMARK UNBOUND:                -2.859
REMARK SMILES CCCCCCCCCCCCCCCCCC(=O)[O-]
REMARK SMILES IDX 10 1 11 2 12 3 13 4 14 5 15 6 16 7 17 8 18 9 19 10 20 11
REMARK SMILES IDX 9 12 8 13 7 14 6 15 5 16 4 17 3 18 2 19 1 20
REMARK H PARENT
REMARK Flexibility Score: inf
ROOT
ATOM      1  C   UNL     1      34.880 -44.489  -3.137  1.00  0.00     0.000 C 
ENDROOT
BRANCH   1   2
ATOM      2  C   UNL     1      34.906 -44.363  -1.600  1.00  0.00     0.000 C 
BRANCH   2   3
ATOM      3  C   UNL     1      34.139 -43.153  -1.032  1.00  0.00     0.000 C 
BRANCH   3   4
ATOM      4  C   UNL     1      32.905 -43.504  -0.178  1.00  0.00     0.000 C 
BRANCH   4   5
ATOM      5  C   UNL     1      32.904 -44.924   0.418  1.00  0.00     0.000 C 
BRANCH   5   6
ATOM      6  C   UNL     1      33.249 -44.943   1.917  1.00  0.00     0.000 C 
BRANCH   6   7
ATOM      7  C   UNL     1      34.354 -45.959   2.261  1.00  0.00     0.006 C 
BRANCH   7   8
ATOM      8  C   UNL     1      34.640 -46.985   1.152  1.00  0.00     0.053 C 
BRANCH   8   9
ATOM      9  C   UNL     1      34.000 -48.310   1.432  1.00  0.00     0.041 C 
ATOM     10  O   UNL     1      33.076 -48.736   0.691  1.00  0.00    -0.550 OA
ATOM     11  O   UNL     1      34.447 -49.088   2.492  1.00  0.00    -0.550 OA
ENDBRANCH   8   9
ENDBRANCH   7   8
ENDBRANCH   6   7
ENDBRANCH   5   6
ENDBRANCH   4   5
ENDBRANCH   3   4
ENDBRANCH   2   3
ENDBRANCH   1   2
BRANCH   1  12
ATOM     12  C   UNL     1      34.330 -45.824  -3.670  1.00  0.00     0.000 C 
BRANCH  12  13
ATOM     13  C   UNL     1      34.106 -46.864  -2.562  1.00  0.00    -0.000 C 
BRANCH  13  14
ATOM     14  C   UNL     1      32.622 -47.230  -2.444  1.00  0.00    -0.000 C 
BRANCH  14  15
ATOM     15  C   UNL     1      31.774 -46.424  -3.439  1.00  0.00    -0.000 C 
BRANCH  15  16
ATOM     16  C   UNL     1      30.888 -45.370  -2.752  1.00  0.00    -0.000 C 
BRANCH  16  17
ATOM     17  C   UNL     1      31.018 -43.941  -3.319  1.00  0.00    -0.000 C 
BRANCH  17  18
ATOM     18  C   UNL     1      31.326 -43.859  -4.827  1.00  0.00    -0.000 C 
BRANCH  18  19
ATOM     19  C   UNL     1      32.368 -42.795  -5.217  1.00  0.00    -0.003 C 
ATOM     20  C   UNL     1      32.979 -43.038  -6.595  1.00  0.00     0.004 C 
ENDBRANCH  18  19
ENDBRANCH  17  18
ENDBRANCH  16  17
ENDBRANCH  15  16
ENDBRANCH  14  15
ENDBRANCH  13  14
ENDBRANCH  12  13
ENDBRANCH   1  12
TORSDOF 16
ENDMDL
MODEL 5
REMARK VINA RESULT:    -3.362      1.833      2.365
REMARK INTER + INTRA:          -9.366
REMARK INTER:                  -6.653
REMARK INTRA:                  -2.712
REMARK UNBOUND:                -2.859
REMARK SMILES CCCCCCCCCCCCCCCCCC(=O)[O-]
REMARK SMILES IDX 10 1 11 2 12 3 13 4 14 5 15 6 16 7 17 8 18 9 19 10 20 11
REMARK SMILES IDX 9 12 8 13 7 14 6 15 5 16 4 17 3 18 2 19 1 20
REMARK H PARENT
REMARK Flexibility Score: inf
ROOT
ATOM      1  C   UNL     1      36.363 -49.058   3.221  1.00  0.00     0.000 C 
ENDROOT
BRANCH   1   2
ATOM      2  C   UNL     1      35.621 -50.138   2.408  1.00  0.00     0.000 C 
BRANCH   2   3
ATOM      3  C   UNL     1      34.117 -49.877   2.197  1.00  0.00     0.000 C 
BRANCH   3   4
ATOM      4  C   UNL     1      33.721 -49.470   0.763  1.00  0.00     0.000 C 
BRANCH   4   5
ATOM      5  C   UNL     1      34.881 -48.980  -0.123  1.00  0.00     0.000 C 
BRANCH   5   6
ATOM      6  C   UNL     1      34.441 -48.665  -1.563  1.00  0.00     0.000 C 
BRANCH   6   7
ATOM      7  C   UNL     1      33.479 -47.465  -1.643  1.00  0.00     0.006 C 
BRANCH   7   8
ATOM      8  C   UNL     1      32.420 -47.574  -2.753  1.00  0.00     0.053 C 
BRANCH   8   9
ATOM      9  C   UNL     1      31.777 -46.253  -3.048  1.00  0.00     0.041 C 
ATOM     10  O   UNL     1      31.587 -45.421  -2.123  1.00  0.00    -0.550 OA
ATOM     11  O   UNL     1      31.418 -45.930  -4.350  1.00  0.00    -0.550 OA
ENDBRANCH   8   9
ENDBRANCH   7   8
ENDBRANCH   6   7
ENDBRANCH   5   6
ENDBRANCH   4   5
ENDBRANCH   3   4
ENDBRANCH   2   3
ENDBRANCH   1   2
BRANCH   1  12
ATOM     12  C   UNL     1      35.505 -47.847   3.629  1.00  0.00     0.000 C 
BRANCH  12  13
ATOM     13  C   UNL     1      35.789 -46.600   2.778  1.00  0.00    -0.000 C 
BRANCH  13  14
ATOM     14  C   UNL     1      34.606 -45.625   2.820  1.00  0.00    -0.000 C 
BRANCH  14  15
ATOM     15  C   UNL     1      33.605 -45.925   1.695  1.00  0.00    -0.000 C 
BRANCH  15  16
ATOM     16  C   UNL     1      32.898 -44.663   1.171  1.00  0.00    -0.000 C 
BRANCH  16  17
ATOM     17  C   UNL     1      33.833 -43.597   0.565  1.00  0.00    -0.000 C 
BRANCH  17  18
ATOM     18  C   UNL     1      34.585 -44.032  -0.709  1.00  0.00    -0.000 C 
BRANCH  18  19
ATOM     19  C   UNL     1      36.107 -44.187  -0.538  1.00  0.00    -0.003 C 
ATOM     20  C   UNL     1      36.582 -45.627  -0.722  1.00  0.00     0.004 C 
ENDBRANCH  18  19
ENDBRANCH  17  18
ENDBRANCH  16  17
ENDBRANCH  15  16
ENDBRANCH  14  15
ENDBRANCH  13  14
ENDBRANCH  12  13
ENDBRANCH   1  12
TORSDOF 16
ENDMDL
MODEL 6
REMARK VINA RESULT:    -3.347      2.710      5.186
REMARK INTER + INTRA:          -9.337
REMARK INTER:                  -6.377
REMARK INTRA:                  -2.961
REMARK UNBOUND:                -2.859
REMARK SMILES CCCCCCCCCCCCCCCCCC(=O)[O-]
REMARK SMILES IDX 10 1 11 2 12 3 13 4 14 5 15 6 16 7 17 8 18 9 19 10 20 11
REMARK SMILES IDX 9 12 8 13 7 14 6 15 5 16 4 17 3 18 2 19 1 20
REMARK H PARENT
REMARK Flexibility Score: inf
ROOT
ATOM      1  C   UNL     1      35.788 -43.545  -0.775  1.00  0.00     0.000 C 
ENDROOT
BRANCH   1   2
ATOM      2  C   UNL     1      34.715 -42.946   0.156  1.00  0.00     0.000 C 
BRANCH   2   3
ATOM      3  C   UNL     1      33.345 -43.651   0.110  1.00  0.00     0.000 C 
BRANCH   3   4
ATOM      4  C   UNL     1      33.130 -44.731   1.189  1.00  0.00     0.000 C 
BRANCH   4   5
ATOM      5  C   UNL     1      34.010 -44.587   2.444  1.00  0.00     0.000 C 
BRANCH   5   6
ATOM      6  C   UNL     1      34.804 -45.865   2.767  1.00  0.00     0.000 C 
BRANCH   6   7
ATOM      7  C   UNL     1      34.133 -47.138   2.218  1.00  0.00     0.006 C 
BRANCH   7   8
ATOM      8  C   UNL     1      35.041 -48.379   2.206  1.00  0.00     0.053 C 
BRANCH   8   9
ATOM      9  C   UNL     1      34.274 -49.634   1.922  1.00  0.00     0.041 C 
ATOM     10  O   UNL     1      34.467 -50.665   2.618  1.00  0.00    -0.550 OA
ATOM     11  O   UNL     1      33.325 -49.655   0.909  1.00  0.00    -0.550 OA
ENDBRANCH   8   9
ENDBRANCH   7   8
ENDBRANCH   6   7
ENDBRANCH   5   6
ENDBRANCH   4   5
ENDBRANCH   3   4
ENDBRANCH   2   3
ENDBRANCH   1   2
BRANCH   1  12
ATOM     12  C   UNL     1      36.792 -44.487  -0.087  1.00  0.00     0.000 C 
BRANCH  12  13
ATOM     13  C   UNL     1      36.564 -45.965  -0.440  1.00  0.00    -0.000 C 
BRANCH  13  14
ATOM     14  C   UNL     1      35.579 -46.105  -1.607  1.00  0.00    -0.000 C 
BRANCH  14  15
ATOM     15  C   UNL     1      34.569 -47.231  -1.344  1.00  0.00    -0.000 C 
BRANCH  15  16
ATOM     16  C   UNL     1      33.449 -47.289  -2.398  1.00  0.00    -0.000 C 
BRANCH  16  17
ATOM     17  C   UNL     1      32.357 -46.211  -2.248  1.00  0.00    -0.000 C 
BRANCH  17  18
ATOM     18  C   UNL     1      32.255 -45.214  -3.420  1.00  0.00    -0.000 C 
BRANCH  18  19
ATOM     19  C   UNL     1      31.441 -43.942  -3.118  1.00  0.00    -0.003 C 
ATOM     20  C   UNL     1      30.155 -44.230  -2.346  1.00  0.00     0.004 C 
ENDBRANCH  18  19
ENDBRANCH  17  18
ENDBRANCH  16  17
ENDBRANCH  15  16
ENDBRANCH  14  15
ENDBRANCH  13  14
ENDBRANCH  12  13
ENDBRANCH   1  12
TORSDOF 16
ENDMDL
MODEL 7
REMARK VINA RESULT:    -3.323      1.335      2.612
REMARK INTER + INTRA:          -9.290
REMARK INTER:                  -6.396
REMARK INTRA:                  -2.894
REMARK UNBOUND:                -2.859
REMARK SMILES CCCCCCCCCCCCCCCCCC(=O)[O-]
REMARK SMILES IDX 10 1 11 2 12 3 13 4 14 5 15 6 16 7 17 8 18 9 19 10 20 11
REMARK SMILES IDX 9 12 8 13 7 14 6 15 5 16 4 17 3 18 2 19 1 20
REMARK H PARENT
REMARK Flexibility Score: inf
ROOT
ATOM      1  C   UNL     1      36.834 -47.230   1.965  1.00  0.00     0.000 C 
ENDROOT
BRANCH   1   2
ATOM      2  C   UNL     1      36.553 -47.642   3.424  1.00  0.00     0.000 C 
BRANCH   2   3
ATOM      3  C   UNL     1      35.510 -48.763   3.596  1.00  0.00     0.000 C 
BRANCH   3   4
ATOM      4  C   UNL     1      35.471 -49.799   2.455  1.00  0.00     0.000 C 
BRANCH   4   5
ATOM      5  C   UNL     1      34.067 -50.307   2.080  1.00  0.00     0.000 C 
BRANCH   5   6
ATOM      6  C   UNL     1      33.342 -49.383   1.087  1.00  0.00     0.000 C 
BRANCH   6   7
ATOM      7  C   UNL     1      34.165 -49.117  -0.188  1.00  0.00     0.006 C 
BRANCH   7   8
ATOM      8  C   UNL     1      33.763 -47.843  -0.949  1.00  0.00     0.053 C 
BRANCH   8   9
ATOM      9  C   UNL     1      34.903 -47.273  -1.736  1.00  0.00     0.041 C 
ATOM     10  O   UNL     1      34.743 -46.224  -2.414  1.00  0.00    -0.550 OA
ATOM     11  O   UNL     1      36.150 -47.883  -1.695  1.00  0.00    -0.550 OA
ENDBRANCH   8   9
ENDBRANCH   7   8
ENDBRANCH   6   7
ENDBRANCH   5   6
ENDBRANCH   4   5
ENDBRANCH   3   4
ENDBRANCH   2   3
ENDBRANCH   1   2
BRANCH   1  12
ATOM     12  C   UNL     1      36.140 -45.934   1.510  1.00  0.00     0.000 C 
BRANCH  12  13
ATOM     13  C   UNL     1      35.106 -45.422   2.525  1.00  0.00    -0.000 C 
BRANCH  13  14
ATOM     14  C   UNL     1      33.685 -45.824   2.111  1.00  0.00    -0.000 C 
BRANCH  14  15
ATOM     15  C   UNL     1      32.889 -44.606   1.619  1.00  0.00    -0.000 C 
BRANCH  15  16
ATOM     16  C   UNL     1      33.015 -44.382   0.102  1.00  0.00    -0.000 C 
BRANCH  16  17
ATOM     17  C   UNL     1      33.698 -43.062  -0.307  1.00  0.00    -0.000 C 
BRANCH  17  18
ATOM     18  C   UNL     1      35.211 -43.167  -0.587  1.00  0.00    -0.000 C 
BRANCH  18  19
ATOM     19  C   UNL     1      36.086 -42.189   0.218  1.00  0.00    -0.003 C 
ATOM     20  C   UNL     1      35.537 -41.914   1.616  1.00  0.00     0.004 C 
ENDBRANCH  18  19
ENDBRANCH  17  18
ENDBRANCH  16  17
ENDBRANCH  15  16
ENDBRANCH  14  15
ENDBRANCH  13  14
ENDBRANCH  12  13
ENDBRANCH   1  12
TORSDOF 16
ENDMDL
MODEL 8
REMARK VINA RESULT:    -3.308      2.673      5.252
REMARK INTER + INTRA:          -9.261
REMARK INTER:                  -6.398
REMARK INTRA:                  -2.862
REMARK UNBOUND:                -2.859
REMARK SMILES CCCCCCCCCCCCCCCCCC(=O)[O-]
REMARK SMILES IDX 10 1 11 2 12 3 13 4 14 5 15 6 16 7 17 8 18 9 19 10 20 11
REMARK SMILES IDX 9 12 8 13 7 14 6 15 5 16 4 17 3 18 2 19 1 20
REMARK H PARENT
REMARK Flexibility Score: inf
ROOT
ATOM      1  C   UNL     1      33.246 -43.554  -0.346  1.00  0.00     0.000 C 
ENDROOT
BRANCH   1   2
ATOM      2  C   UNL     1      34.225 -43.739  -1.525  1.00  0.00     0.000 C 
BRANCH   2   3
ATOM      3  C   UNL     1      34.525 -45.203  -1.900  1.00  0.00     0.000 C 
BRANCH   3   4
ATOM      4  C   UNL     1      34.437 -45.522  -3.406  1.00  0.00     0.000 C 
BRANCH   4   5
ATOM      5  C   UNL     1      33.294 -46.472  -3.807  1.00  0.00     0.000 C 
BRANCH   5   6
ATOM      6  C   UNL     1      32.109 -46.428  -2.828  1.00  0.00     0.000 C 
BRANCH   6   7
ATOM      7  C   UNL     1      30.888 -45.687  -3.405  1.00  0.00     0.006 C 
BRANCH   7   8
ATOM      8  C   UNL     1      30.934 -44.159  -3.236  1.00  0.00     0.053 C 
BRANCH   8   9
ATOM      9  C   UNL     1      31.148 -43.455  -4.541  1.00  0.00     0.041 C 
ATOM     10  O   UNL     1      30.173 -43.224  -5.302  1.00  0.00    -0.550 OA
ATOM     11  O   UNL     1      32.419 -43.025  -4.899  1.00  0.00    -0.550 OA
ENDBRANCH   8   9
ENDBRANCH   7   8
ENDBRANCH   6   7
ENDBRANCH   5   6
ENDBRANCH   4   5
ENDBRANCH   3   4
ENDBRANCH   2   3
ENDBRANCH   1   2
BRANCH   1  12
ATOM     12  C   UNL     1      32.906 -44.843   0.423  1.00  0.00     0.000 C 
BRANCH  12  13
ATOM     13  C   UNL     1      32.876 -44.640   1.945  1.00  0.00    -0.000 C 
BRANCH  13  14
ATOM     14  C   UNL     1      34.272 -44.826   2.553  1.00  0.00    -0.000 C 
BRANCH  14  15
ATOM     15  C   UNL     1      34.980 -46.044   1.942  1.00  0.00    -0.000 C 
BRANCH  15  16
ATOM     16  C   UNL     1      34.785 -47.327   2.770  1.00  0.00    -0.000 C 
BRANCH  16  17
ATOM     17  C   UNL     1      34.575 -48.611   1.942  1.00  0.00    -0.000 C 
BRANCH  17  18
ATOM     18  C   UNL     1      33.349 -48.594   1.006  1.00  0.00    -0.000 C 
BRANCH  18  19
ATOM     19  C   UNL     1      33.683 -48.578  -0.496  1.00  0.00    -0.003 C 
ATOM     20  C   UNL     1      35.167 -48.805  -0.777  1.00  0.00     0.004 C 
ENDBRANCH  18  19
ENDBRANCH  17  18
ENDBRANCH  16  17
ENDBRANCH  15  16
ENDBRANCH  14  15
ENDBRANCH  13  14
ENDBRANCH  12  13
ENDBRANCH   1  12
TORSDOF 16
ENDMDL
MODEL 9
REMARK VINA RESULT:    -3.301      5.375      8.584
REMARK INTER + INTRA:          -9.247
REMARK INTER:                  -6.522
REMARK INTRA:                  -2.725
REMARK UNBOUND:                -2.859
REMARK SMILES CCCCCCCCCCCCCCCCCC(=O)[O-]
REMARK SMILES IDX 10 1 11 2 12 3 13 4 14 5 15 6 16 7 17 8 18 9 19 10 20 11
REMARK SMILES IDX 9 12 8 13 7 14 6 15 5 16 4 17 3 18 2 19 1 20
REMARK H PARENT
REMARK Flexibility Score: inf
ROOT
ATOM      1  C   UNL     1      34.107 -44.761  -5.281  1.00  0.00     0.000 C 
ENDROOT
BRANCH   1   2
ATOM      2  C   UNL     1      34.986 -44.252  -4.120  1.00  0.00     0.000 C 
BRANCH   2   3
ATOM      3  C   UNL     1      34.555 -44.725  -2.719  1.00  0.00     0.000 C 
BRANCH   3   4
ATOM      4  C   UNL     1      34.050 -43.610  -1.780  1.00  0.00     0.000 C 
BRANCH   4   5
ATOM      5  C   UNL     1      32.666 -43.859  -1.154  1.00  0.00     0.000 C 
BRANCH   5   6
ATOM      6  C   UNL     1      31.785 -44.794  -2.001  1.00  0.00     0.000 C 
BRANCH   6   7
ATOM      7  C   UNL     1      30.874 -44.028  -2.979  1.00  0.00     0.006 C 
BRANCH   7   8
ATOM      8  C   UNL     1      29.484 -44.657  -3.174  1.00  0.00     0.053 C 
BRANCH   8   9
ATOM      9  C   UNL     1      28.418 -43.904  -2.438  1.00  0.00     0.041 C 
ATOM     10  O   UNL     1      27.323 -43.642  -3.003  1.00  0.00    -0.550 OA
ATOM     11  O   UNL     1      28.621 -43.521  -1.119  1.00  0.00    -0.550 OA
ENDBRANCH   8   9
ENDBRANCH   7   8
ENDBRANCH   6   7
ENDBRANCH   5   6
ENDBRANCH   4   5
ENDBRANCH   3   4
ENDBRANCH   2   3
ENDBRANCH   1   2
BRANCH   1  12
ATOM     12  C   UNL     1      33.128 -43.723  -5.858  1.00  0.00     0.000 C 
BRANCH  12  13
ATOM     13  C   UNL     1      33.240 -42.352  -5.175  1.00  0.00    -0.000 C 
BRANCH  13  14
ATOM     14  C   UNL     1      33.294 -41.224  -6.212  1.00  0.00    -0.000 C 
BRANCH  14  15
ATOM     15  C   UNL     1      33.415 -41.788  -7.635  1.00  0.00    -0.000 C 
BRANCH  15  16
ATOM     16  C   UNL     1      32.265 -41.343  -8.556  1.00  0.00    -0.000 C 
BRANCH  16  17
ATOM     17  C   UNL     1      31.122 -42.366  -8.710  1.00  0.00    -0.000 C 
BRANCH  17  18
ATOM     18  C   UNL     1      29.809 -41.996  -7.991  1.00  0.00    -0.000 C 
BRANCH  18  19
ATOM     19  C   UNL     1      29.707 -42.491  -6.537  1.00  0.00    -0.003 C 
ATOM     20  C   UNL     1      29.640 -41.350  -5.524  1.00  0.00     0.004 C 
ENDBRANCH  18  19
ENDBRANCH  17  18
ENDBRANCH  16  17
ENDBRANCH  15  16
ENDBRANCH  14  15
ENDBRANCH  13  14
ENDBRANCH  12  13
ENDBRANCH   1  12
TORSDOF 16
ENDMDL
