MODEL 1
REMARK VINA RESULT:    -4.569      0.000      0.000
REMARK INTER + INTRA:          -9.106
REMARK INTER:                  -8.309
REMARK INTRA:                  -0.797
REMARK UNBOUND:                -0.797
REMARK SMILES CCCCCCCCCCCCCCCC(=O)[O-]
REMARK SMILES IDX 9 1 10 2 11 3 12 4 13 5 14 6 15 7 16 8 17 9 18 10 8 11 7 12
REMARK SMILES IDX 6 13 5 14 4 15 3 16 2 17 1 18
REMARK H PARENT
REMARK Flexibility Score: inf
ROOT
ATOM      1  C   UNL     1      59.509  -7.074  82.609  1.00  0.00     0.000 C 
ENDROOT
BRANCH   1   2
ATOM      2  C   UNL     1      58.913  -5.664  82.766  1.00  0.00     0.000 C 
BRANCH   2   3
ATOM      3  C   UNL     1      59.840  -4.569  82.209  1.00  0.00     0.000 C 
BRANCH   3   4
ATOM      4  C   UNL     1      59.503  -3.174  82.767  1.00  0.00     0.000 C 
BRANCH   4   5
ATOM      5  C   UNL     1      58.254  -2.564  82.112  1.00  0.00     0.000 C 
BRANCH   5   6
ATOM      6  C   UNL     1      57.588  -1.489  82.991  1.00  0.00     0.006 C 
BRANCH   6   7
ATOM      7  C   UNL     1      56.113  -1.805  83.271  1.00  0.00     0.053 C 
BRANCH   7   8
ATOM      8  C   UNL     1      55.345  -0.578  83.653  1.00  0.00     0.041 C 
ATOM      9  O   UNL     1      54.222  -0.345  83.134  1.00  0.00    -0.550 OA
ATOM     10  O   UNL     1      55.886   0.329  84.557  1.00  0.00    -0.550 OA
ENDBRANCH   7   8
ENDBRANCH   6   7
ENDBRANCH   5   6
ENDBRANCH   4   5
ENDBRANCH   3   4
ENDBRANCH   2   3
ENDBRANCH   1   2
BRANCH   1  11
ATOM     11  C   UNL     1      61.019  -7.120  82.898  1.00  0.00     0.000 C 
BRANCH  11  12
ATOM     12  C   UNL     1      61.928  -7.125  81.651  1.00  0.00    -0.000 C 
BRANCH  12  13
ATOM     13  C   UNL     1      61.330  -7.806  80.407  1.00  0.00    -0.000 C 
BRANCH  13  14
ATOM     14  C   UNL     1      61.731  -9.283  80.222  1.00  0.00    -0.000 C 
BRANCH  14  15
ATOM     15  C   UNL     1      60.538 -10.261  80.265  1.00  0.00    -0.000 C 
BRANCH  15  16
ATOM     16  C   UNL     1      60.951 -11.677  80.691  1.00  0.00    -0.000 C 
BRANCH  16  17
ATOM     17  C   UNL     1      61.642 -11.661  82.058  1.00  0.00    -0.003 C 
ATOM     18  C   UNL     1      60.656 -11.978  83.179  1.00  0.00     0.004 C 
ENDBRANCH  16  17
ENDBRANCH  15  16
ENDBRANCH  14  15
ENDBRANCH  13  14
ENDBRANCH  12  13
ENDBRANCH  11  12
ENDBRANCH   1  11
TORSDOF 14
ENDMDL
MODEL 2
REMARK VINA RESULT:    -4.569     11.525     14.045
REMARK INTER + INTRA:          -9.105
REMARK INTER:                  -7.546
REMARK INTRA:                  -1.560
REMARK UNBOUND:                -0.797
REMARK SMILES CCCCCCCCCCCCCCCC(=O)[O-]
REMARK SMILES IDX 9 1 10 2 11 3 12 4 13 5 14 6 15 7 16 8 17 9 18 10 8 11 7 12
REMARK SMILES IDX 6 13 5 14 4 15 3 16 2 17 1 18
REMARK H PARENT
REMARK Flexibility Score: inf
ROOT
ATOM      1  C   UNL     1      48.303   0.636  75.180  1.00  0.00     0.000 C 
ENDROOT
BRANCH   1   2
ATOM      2  C   UNL     1      47.529   0.279  73.899  1.00  0.00     0.000 C 
BRANCH   2   3
ATOM      3  C   UNL     1      48.299   0.658  72.622  1.00  0.00     0.000 C 
BRANCH   3   4
ATOM      4  C   UNL     1      48.336  -0.488  71.595  1.00  0.00     0.000 C 
BRANCH   4   5
ATOM      5  C   UNL     1      49.396  -1.549  71.934  1.00  0.00     0.000 C 
BRANCH   5   6
ATOM      6  C   UNL     1      50.755  -0.931  72.308  1.00  0.00     0.006 C 
BRANCH   6   7
ATOM      7  C   UNL     1      51.798  -2.001  72.661  1.00  0.00     0.053 C 
BRANCH   7   8
ATOM      8  C   UNL     1      53.119  -1.724  72.012  1.00  0.00     0.041 C 
ATOM      9  O   UNL     1      53.370  -0.581  71.549  1.00  0.00    -0.550 OA
ATOM     10  O   UNL     1      54.058  -2.740  71.886  1.00  0.00    -0.550 OA
ENDBRANCH   7   8
ENDBRANCH   6   7
ENDBRANCH   5   6
ENDBRANCH   4   5
ENDBRANCH   3   4
ENDBRANCH   2   3
ENDBRANCH   1   2
BRANCH   1  11
ATOM     11  C   UNL     1      48.409  -0.543  76.162  1.00  0.00     0.000 C 
BRANCH  11  12
ATOM     12  C   UNL     1      48.854  -1.883  75.538  1.00  0.00    -0.000 C 
BRANCH  12  13
ATOM     13  C   UNL     1      50.254  -2.368  75.958  1.00  0.00    -0.000 C 
BRANCH  13  14
ATOM     14  C   UNL     1      50.323  -3.845  76.394  1.00  0.00    -0.000 C 
BRANCH  14  15
ATOM     15  C   UNL     1      50.156  -4.053  77.914  1.00  0.00    -0.000 C 
BRANCH  15  16
ATOM     16  C   UNL     1      49.655  -5.461  78.265  1.00  0.00    -0.000 C 
BRANCH  16  17
ATOM     17  C   UNL     1      48.175  -5.434  78.662  1.00  0.00    -0.003 C 
ATOM     18  C   UNL     1      47.742  -4.033  79.084  1.00  0.00     0.004 C 
ENDBRANCH  16  17
ENDBRANCH  15  16
ENDBRANCH  14  15
ENDBRANCH  13  14
ENDBRANCH  12  13
ENDBRANCH  11  12
ENDBRANCH   1  11
TORSDOF 14
ENDMDL
MODEL 3
REMARK VINA RESULT:    -4.560     13.901     16.199
REMARK INTER + INTRA:          -9.089
REMARK INTER:                  -7.355
REMARK INTRA:                  -1.734
REMARK UNBOUND:                -0.797
REMARK SMILES CCCCCCCCCCCCCCCC(=O)[O-]
REMARK SMILES IDX 9 1 10 2 11 3 12 4 13 5 14 6 15 7 16 8 17 9 18 10 8 11 7 12
REMARK SMILES IDX 6 13 5 14 4 15 3 16 2 17 1 18
REMARK H PARENT
REMARK Flexibility Score: inf
ROOT
ATOM      1  C   UNL     1      49.422  -4.327  72.570  1.00  0.00     0.000 C 
ENDROOT
BRANCH   1   2
ATOM      2  C   UNL     1      47.958  -3.872  72.693  1.00  0.00     0.000 C 
BRANCH   2   3
ATOM      3  C   UNL     1      47.071  -4.921  73.386  1.00  0.00     0.000 C 
BRANCH   3   4
ATOM      4  C   UNL     1      46.741  -6.112  72.468  1.00  0.00     0.000 C 
BRANCH   4   5
ATOM      5  C   UNL     1      45.587  -6.971  73.011  1.00  0.00     0.000 C 
BRANCH   5   6
ATOM      6  C   UNL     1      44.666  -6.192  73.967  1.00  0.00     0.006 C 
BRANCH   6   7
ATOM      7  C   UNL     1      44.046  -7.099  75.038  1.00  0.00     0.053 C 
BRANCH   7   8
ATOM      8  C   UNL     1      45.057  -8.030  75.631  1.00  0.00     0.041 C 
ATOM      9  O   UNL     1      44.896  -9.276  75.551  1.00  0.00    -0.550 OA
ATOM     10  O   UNL     1      46.160  -7.522  76.306  1.00  0.00    -0.550 OA
ENDBRANCH   7   8
ENDBRANCH   6   7
ENDBRANCH   5   6
ENDBRANCH   4   5
ENDBRANCH   3   4
ENDBRANCH   2   3
ENDBRANCH   1   2
BRANCH   1  11
ATOM     11  C   UNL     1      50.277  -3.370  71.722  1.00  0.00     0.000 C 
BRANCH  11  12
ATOM     12  C   UNL     1      51.065  -2.309  72.518  1.00  0.00    -0.000 C 
BRANCH  12  13
ATOM     13  C   UNL     1      50.602  -0.855  72.308  1.00  0.00    -0.000 C 
BRANCH  13  14
ATOM     14  C   UNL     1      49.249  -0.705  71.584  1.00  0.00    -0.000 C 
BRANCH  14  15
ATOM     15  C   UNL     1      48.126  -0.139  72.479  1.00  0.00    -0.000 C 
BRANCH  15  16
ATOM     16  C   UNL     1      48.589   0.108  73.921  1.00  0.00    -0.000 C 
BRANCH  16  17
ATOM     17  C   UNL     1      47.926  -0.880  74.888  1.00  0.00    -0.003 C 
ATOM     18  C   UNL     1      48.965  -1.757  75.579  1.00  0.00     0.004 C 
ENDBRANCH  16  17
ENDBRANCH  15  16
ENDBRANCH  14  15
ENDBRANCH  13  14
ENDBRANCH  12  13
ENDBRANCH  11  12
ENDBRANCH   1  11
TORSDOF 14
ENDMDL
MODEL 4
REMARK VINA RESULT:    -4.546     11.800     14.546
REMARK INTER + INTRA:          -9.065
REMARK INTER:                  -6.840
REMARK INTRA:                  -2.225
REMARK UNBOUND:                -0.797
REMARK SMILES CCCCCCCCCCCCCCCC(=O)[O-]
REMARK SMILES IDX 9 1 10 2 11 3 12 4 13 5 14 6 15 7 16 8 17 9 18 10 8 11 7 12
REMARK SMILES IDX 6 13 5 14 4 15 3 16 2 17 1 18
REMARK H PARENT
REMARK Flexibility Score: inf
ROOT
ATOM      1  C   UNL     1      48.264   0.699  73.725  1.00  0.00     0.000 C 
ENDROOT
BRANCH   1   2
ATOM      2  C   UNL     1      49.275   0.388  72.608  1.00  0.00     0.000 C 
BRANCH   2   3
ATOM      3  C   UNL     1      48.903  -0.875  71.812  1.00  0.00     0.000 C 
BRANCH   3   4
ATOM      4  C   UNL     1      50.019  -1.935  71.835  1.00  0.00     0.000 C 
BRANCH   4   5
ATOM      5  C   UNL     1      51.352  -1.375  72.356  1.00  0.00     0.000 C 
BRANCH   5   6
ATOM      6  C   UNL     1      52.087  -2.359  73.283  1.00  0.00     0.006 C 
BRANCH   6   7
ATOM      7  C   UNL     1      53.399  -2.864  72.666  1.00  0.00     0.053 C 
BRANCH   7   8
ATOM      8  C   UNL     1      53.952  -4.035  73.417  1.00  0.00     0.041 C 
ATOM      9  O   UNL     1      55.196  -4.217  73.481  1.00  0.00    -0.550 OA
ATOM     10  O   UNL     1      53.091  -4.948  74.016  1.00  0.00    -0.550 OA
ENDBRANCH   7   8
ENDBRANCH   6   7
ENDBRANCH   5   6
ENDBRANCH   4   5
ENDBRANCH   3   4
ENDBRANCH   2   3
ENDBRANCH   1   2
BRANCH   1  11
ATOM     11  C   UNL     1      47.872  -0.546  74.540  1.00  0.00     0.000 C 
BRANCH  11  12
ATOM     12  C   UNL     1      48.999  -1.146  75.408  1.00  0.00    -0.000 C 
BRANCH  12  13
ATOM     13  C   UNL     1      48.995  -2.682  75.515  1.00  0.00    -0.000 C 
BRANCH  13  14
ATOM     14  C   UNL     1      47.617  -3.307  75.810  1.00  0.00    -0.000 C 
BRANCH  14  15
ATOM     15  C   UNL     1      47.215  -4.420  74.819  1.00  0.00    -0.000 C 
BRANCH  15  16
ATOM     16  C   UNL     1      47.526  -4.051  73.361  1.00  0.00    -0.000 C 
BRANCH  16  17
ATOM     17  C   UNL     1      48.239  -5.203  72.643  1.00  0.00    -0.003 C 
ATOM     18  C   UNL     1      49.663  -5.378  73.163  1.00  0.00     0.004 C 
ENDBRANCH  16  17
ENDBRANCH  15  16
ENDBRANCH  14  15
ENDBRANCH  13  14
ENDBRANCH  12  13
ENDBRANCH  11  12
ENDBRANCH   1  11
TORSDOF 14
ENDMDL
MODEL 5
REMARK VINA RESULT:    -4.520     12.147     14.055
REMARK INTER + INTRA:          -9.017
REMARK INTER:                  -7.641
REMARK INTRA:                  -1.376
REMARK UNBOUND:                -0.797
REMARK SMILES CCCCCCCCCCCCCCCC(=O)[O-]
REMARK SMILES IDX 9 1 10 2 11 3 12 4 13 5 14 6 15 7 16 8 17 9 18 10 8 11 7 12
REMARK SMILES IDX 6 13 5 14 4 15 3 16 2 17 1 18
REMARK H PARENT
REMARK Flexibility Score: inf
ROOT
ATOM      1  C   UNL     1      47.034  -4.513  74.847  1.00  0.00     0.000 C 
ENDROOT
BRANCH   1   2
ATOM      2  C   UNL     1      47.895  -3.597  73.961  1.00  0.00     0.000 C 
BRANCH   2   3
ATOM      3  C   UNL     1      48.411  -4.313  72.701  1.00  0.00     0.000 C 
BRANCH   3   4
ATOM      4  C   UNL     1      49.598  -3.580  72.052  1.00  0.00     0.000 C 
BRANCH   4   5
ATOM      5  C   UNL     1      49.420  -2.052  72.057  1.00  0.00     0.000 C 
BRANCH   5   6
ATOM      6  C   UNL     1      50.724  -1.304  72.388  1.00  0.00     0.006 C 
BRANCH   6   7
ATOM      7  C   UNL     1      51.793  -2.237  72.974  1.00  0.00     0.053 C 
BRANCH   7   8
ATOM      8  C   UNL     1      53.118  -2.056  72.300  1.00  0.00     0.041 C 
ATOM      9  O   UNL     1      53.957  -2.994  72.288  1.00  0.00    -0.550 OA
ATOM     10  O   UNL     1      53.442  -0.836  71.718  1.00  0.00    -0.550 OA
ENDBRANCH   7   8
ENDBRANCH   6   7
ENDBRANCH   5   6
ENDBRANCH   4   5
ENDBRANCH   3   4
ENDBRANCH   2   3
ENDBRANCH   1   2
BRANCH   1  11
ATOM     11  C   UNL     1      47.275  -6.008  74.574  1.00  0.00     0.000 C 
BRANCH  11  12
ATOM     12  C   UNL     1      46.312  -6.973  75.298  1.00  0.00    -0.000 C 
BRANCH  12  13
ATOM     13  C   UNL     1      46.959  -8.266  75.830  1.00  0.00    -0.000 C 
BRANCH  13  14
ATOM     14  C   UNL     1      46.504  -8.683  77.243  1.00  0.00    -0.000 C 
BRANCH  14  15
ATOM     15  C   UNL     1      47.225  -7.925  78.377  1.00  0.00    -0.000 C 
BRANCH  15  16
ATOM     16  C   UNL     1      48.716  -7.702  78.082  1.00  0.00    -0.000 C 
BRANCH  16  17
ATOM     17  C   UNL     1      49.102  -6.232  78.281  1.00  0.00    -0.003 C 
ATOM     18  C   UNL     1      47.884  -5.386  78.641  1.00  0.00     0.004 C 
ENDBRANCH  16  17
ENDBRANCH  15  16
ENDBRANCH  14  15
ENDBRANCH  13  14
ENDBRANCH  12  13
ENDBRANCH  11  12
ENDBRANCH   1  11
TORSDOF 14
ENDMDL
MODEL 6
REMARK VINA RESULT:    -4.481     12.244     14.812
REMARK INTER + INTRA:          -8.946
REMARK INTER:                  -7.266
REMARK INTRA:                  -1.680
REMARK UNBOUND:                -0.797
REMARK SMILES CCCCCCCCCCCCCCCC(=O)[O-]
REMARK SMILES IDX 9 1 10 2 11 3 12 4 13 5 14 6 15 7 16 8 17 9 18 10 8 11 7 12
REMARK SMILES IDX 6 13 5 14 4 15 3 16 2 17 1 18
REMARK H PARENT
REMARK Flexibility Score: inf
ROOT
ATOM      1  C   UNL     1      46.779  -4.201  75.087  1.00  0.00     0.000 C 
ENDROOT
BRANCH   1   2
ATOM      2  C   UNL     1      48.012  -3.405  75.547  1.00  0.00     0.000 C 
BRANCH   2   3
ATOM      3  C   UNL     1      49.102  -4.306  76.154  1.00  0.00     0.000 C 
BRANCH   3   4
ATOM      4  C   UNL     1      49.057  -4.328  77.692  1.00  0.00     0.000 C 
BRANCH   4   5
ATOM      5  C   UNL     1      49.147  -5.752  78.263  1.00  0.00     0.000 C 
BRANCH   5   6
ATOM      6  C   UNL     1      47.768  -6.423  78.405  1.00  0.00     0.006 C 
BRANCH   6   7
ATOM      7  C   UNL     1      47.417  -7.285  77.185  1.00  0.00     0.053 C 
BRANCH   7   8
ATOM      8  C   UNL     1      46.691  -8.534  77.578  1.00  0.00     0.041 C 
ATOM      9  O   UNL     1      45.965  -9.135  76.744  1.00  0.00    -0.550 OA
ATOM     10  O   UNL     1      46.788  -9.016  78.878  1.00  0.00    -0.550 OA
ENDBRANCH   7   8
ENDBRANCH   6   7
ENDBRANCH   5   6
ENDBRANCH   4   5
ENDBRANCH   3   4
ENDBRANCH   2   3
ENDBRANCH   1   2
BRANCH   1  11
ATOM     11  C   UNL     1      47.077  -5.134  73.901  1.00  0.00     0.000 C 
BRANCH  11  12
ATOM     12  C   UNL     1      47.724  -4.455  72.676  1.00  0.00    -0.000 C 
BRANCH  12  13
ATOM     13  C   UNL     1      49.166  -4.900  72.365  1.00  0.00    -0.000 C 
BRANCH  13  14
ATOM     14  C   UNL     1      50.066  -3.804  71.761  1.00  0.00    -0.000 C 
BRANCH  14  15
ATOM     15  C   UNL     1      50.671  -2.849  72.812  1.00  0.00    -0.000 C 
BRANCH  15  16
ATOM     16  C   UNL     1      50.453  -1.371  72.460  1.00  0.00    -0.000 C 
BRANCH  16  17
ATOM     17  C   UNL     1      49.166  -1.183  71.649  1.00  0.00    -0.003 C 
ATOM     18  C   UNL     1      48.170  -0.298  72.392  1.00  0.00     0.004 C 
ENDBRANCH  16  17
ENDBRANCH  15  16
ENDBRANCH  14  15
ENDBRANCH  13  14
ENDBRANCH  12  13
ENDBRANCH  11  12
ENDBRANCH   1  11
TORSDOF 14
ENDMDL
MODEL 7
REMARK VINA RESULT:    -4.457     13.710     16.098
REMARK INTER + INTRA:          -8.902
REMARK INTER:                  -7.087
REMARK INTRA:                  -1.814
REMARK UNBOUND:                -0.797
REMARK SMILES CCCCCCCCCCCCCCCC(=O)[O-]
REMARK SMILES IDX 9 1 10 2 11 3 12 4 13 5 14 6 15 7 16 8 17 9 18 10 8 11 7 12
REMARK SMILES IDX 6 13 5 14 4 15 3 16 2 17 1 18
REMARK H PARENT
REMARK Flexibility Score: inf
ROOT
ATOM      1  C   UNL     1      51.025  -2.512  73.237  1.00  0.00     0.000 C 
ENDROOT
BRANCH   1   2
ATOM      2  C   UNL     1      51.043  -3.874  72.522  1.00  0.00     0.000 C 
BRANCH   2   3
ATOM      3  C   UNL     1      49.660  -4.270  71.976  1.00  0.00     0.000 C 
BRANCH   3   4
ATOM      4  C   UNL     1      48.510  -3.778  72.873  1.00  0.00     0.000 C 
BRANCH   4   5
ATOM      5  C   UNL     1      47.287  -4.708  72.825  1.00  0.00     0.000 C 
BRANCH   5   6
ATOM      6  C   UNL     1      47.639  -6.128  72.347  1.00  0.00     0.006 C 
BRANCH   6   7
ATOM      7  C   UNL     1      46.405  -7.037  72.278  1.00  0.00     0.053 C 
BRANCH   7   8
ATOM      8  C   UNL     1      45.731  -7.162  73.609  1.00  0.00     0.041 C 
ATOM      9  O   UNL     1      46.302  -7.766  74.555  1.00  0.00    -0.550 OA
ATOM     10  O   UNL     1      44.455  -6.642  73.795  1.00  0.00    -0.550 OA
ENDBRANCH   7   8
ENDBRANCH   6   7
ENDBRANCH   5   6
ENDBRANCH   4   5
ENDBRANCH   3   4
ENDBRANCH   2   3
ENDBRANCH   1   2
BRANCH   1  11
ATOM     11  C   UNL     1      51.603  -1.377  72.375  1.00  0.00     0.000 C 
BRANCH  11  12
ATOM     12  C   UNL     1      50.636  -0.207  72.092  1.00  0.00    -0.000 C 
BRANCH  12  13
ATOM     13  C   UNL     1      49.304  -0.604  71.431  1.00  0.00    -0.000 C 
BRANCH  13  14
ATOM     14  C   UNL     1      48.043  -0.087  72.152  1.00  0.00    -0.000 C 
BRANCH  14  15
ATOM     15  C   UNL     1      48.339   0.969  73.238  1.00  0.00    -0.000 C 
BRANCH  15  16
ATOM     16  C   UNL     1      47.604   0.683  74.555  1.00  0.00    -0.000 C 
BRANCH  16  17
ATOM     17  C   UNL     1      48.537   0.019  75.573  1.00  0.00    -0.003 C 
ATOM     18  C   UNL     1      48.297  -1.487  75.641  1.00  0.00     0.004 C 
ENDBRANCH  16  17
ENDBRANCH  15  16
ENDBRANCH  14  15
ENDBRANCH  13  14
ENDBRANCH  12  13
ENDBRANCH  11  12
ENDBRANCH   1  11
TORSDOF 14
ENDMDL
MODEL 8
REMARK VINA RESULT:    -4.447     13.170     14.980
REMARK INTER + INTRA:          -8.885
REMARK INTER:                  -7.164
REMARK INTRA:                  -1.720
REMARK UNBOUND:                -0.797
REMARK SMILES CCCCCCCCCCCCCCCC(=O)[O-]
REMARK SMILES IDX 9 1 10 2 11 3 12 4 13 5 14 6 15 7 16 8 17 9 18 10 8 11 7 12
REMARK SMILES IDX 6 13 5 14 4 15 3 16 2 17 1 18
REMARK H PARENT
REMARK Flexibility Score: inf
ROOT
ATOM      1  C   UNL     1      48.683   0.872  72.742  1.00  0.00     0.000 C 
ENDROOT
BRANCH   1   2
ATOM      2  C   UNL     1      47.728   0.290  73.798  1.00  0.00     0.000 C 
BRANCH   2   3
ATOM      3  C   UNL     1      48.367   0.221  75.196  1.00  0.00     0.000 C 
BRANCH   3   4
ATOM      4  C   UNL     1      47.752  -0.887  76.070  1.00  0.00     0.000 C 
BRANCH   4   5
ATOM      5  C   UNL     1      48.356  -2.270  75.777  1.00  0.00     0.000 C 
BRANCH   5   6
ATOM      6  C   UNL     1      47.301  -3.295  75.324  1.00  0.00     0.006 C 
BRANCH   6   7
ATOM      7  C   UNL     1      47.901  -4.381  74.420  1.00  0.00     0.053 C 
BRANCH   7   8
ATOM      8  C   UNL     1      46.865  -5.005  73.539  1.00  0.00     0.041 C 
ATOM      9  O   UNL     1      45.740  -5.319  74.007  1.00  0.00    -0.550 OA
ATOM     10  O   UNL     1      47.155  -5.275  72.207  1.00  0.00    -0.550 OA
ENDBRANCH   7   8
ENDBRANCH   6   7
ENDBRANCH   5   6
ENDBRANCH   4   5
ENDBRANCH   3   4
ENDBRANCH   2   3
ENDBRANCH   1   2
BRANCH   1  11
ATOM     11  C   UNL     1      49.608  -0.190  72.123  1.00  0.00     0.000 C 
BRANCH  11  12
ATOM     12  C   UNL     1      48.988  -1.595  71.970  1.00  0.00    -0.000 C 
BRANCH  12  13
ATOM     13  C   UNL     1      49.985  -2.764  72.064  1.00  0.00    -0.000 C 
BRANCH  13  14
ATOM     14  C   UNL     1      51.147  -2.547  73.054  1.00  0.00    -0.000 C 
BRANCH  14  15
ATOM     15  C   UNL     1      52.446  -3.280  72.657  1.00  0.00    -0.000 C 
BRANCH  15  16
ATOM     16  C   UNL     1      53.503  -2.332  72.072  1.00  0.00    -0.000 C 
BRANCH  16  17
ATOM     17  C   UNL     1      52.966  -0.900  71.978  1.00  0.00    -0.003 C 
ATOM     18  C   UNL     1      53.834  -0.045  71.060  1.00  0.00     0.004 C 
ENDBRANCH  16  17
ENDBRANCH  15  16
ENDBRANCH  14  15
ENDBRANCH  13  14
ENDBRANCH  12  13
ENDBRANCH  11  12
ENDBRANCH   1  11
TORSDOF 14
ENDMDL
MODEL 9
REMARK VINA RESULT:    -4.430     12.676     15.340
REMARK INTER + INTRA:          -8.853
REMARK INTER:                  -7.054
REMARK INTRA:                  -1.799
REMARK UNBOUND:                -0.797
REMARK SMILES CCCCCCCCCCCCCCCC(=O)[O-]
REMARK SMILES IDX 9 1 10 2 11 3 12 4 13 5 14 6 15 7 16 8 17 9 18 10 8 11 7 12
REMARK SMILES IDX 6 13 5 14 4 15 3 16 2 17 1 18
REMARK H PARENT
REMARK Flexibility Score: inf
ROOT
ATOM      1  C   UNL     1      48.967  -1.178  75.362  1.00  0.00     0.000 C 
ENDROOT
BRANCH   1   2
ATOM      2  C   UNL     1      47.875  -2.218  75.055  1.00  0.00     0.000 C 
BRANCH   2   3
ATOM      3  C   UNL     1      48.438  -3.483  74.386  1.00  0.00     0.000 C 
BRANCH   3   4
ATOM      4  C   UNL     1      47.931  -3.662  72.944  1.00  0.00     0.000 C 
BRANCH   4   5
ATOM      5  C   UNL     1      48.197  -5.074  72.397  1.00  0.00     0.000 C 
BRANCH   5   6
ATOM      6  C   UNL     1      46.913  -5.915  72.279  1.00  0.00     0.006 C 
BRANCH   6   7
ATOM      7  C   UNL     1      46.748  -6.886  73.456  1.00  0.00     0.053 C 
BRANCH   7   8
ATOM      8  C   UNL     1      45.652  -6.456  74.381  1.00  0.00     0.041 C 
ATOM      9  O   UNL     1      45.057  -5.362  74.194  1.00  0.00    -0.550 OA
ATOM     10  O   UNL     1      45.312  -7.246  75.473  1.00  0.00    -0.550 OA
ENDBRANCH   7   8
ENDBRANCH   6   7
ENDBRANCH   5   6
ENDBRANCH   4   5
ENDBRANCH   3   4
ENDBRANCH   2   3
ENDBRANCH   1   2
BRANCH   1  11
ATOM     11  C   UNL     1      48.815   0.110  74.535  1.00  0.00     0.000 C 
BRANCH  11  12
ATOM     12  C   UNL     1      47.881   0.001  73.312  1.00  0.00    -0.000 C 
BRANCH  12  13
ATOM     13  C   UNL     1      48.593  -0.157  71.956  1.00  0.00    -0.000 C 
BRANCH  13  14
ATOM     14  C   UNL     1      50.133  -0.166  72.030  1.00  0.00    -0.000 C 
BRANCH  14  15
ATOM     15  C   UNL     1      50.746  -1.582  72.039  1.00  0.00    -0.000 C 
BRANCH  15  16
ATOM     16  C   UNL     1      52.210  -1.589  72.502  1.00  0.00    -0.000 C 
BRANCH  16  17
ATOM     17  C   UNL     1      52.433  -2.631  73.603  1.00  0.00    -0.003 C 
ATOM     18  C   UNL     1      53.695  -3.448  73.341  1.00  0.00     0.004 C 
ENDBRANCH  16  17
ENDBRANCH  15  16
ENDBRANCH  14  15
ENDBRANCH  13  14
ENDBRANCH  12  13
ENDBRANCH  11  12
ENDBRANCH   1  11
TORSDOF 14
ENDMDL
