MODEL 1
REMARK VINA RESULT:    -0.534      0.000      0.000
REMARK INTER + INTRA:          -2.145
REMARK INTER:                  -1.346
REMARK INTRA:                  -0.799
REMARK UNBOUND:                -0.799
REMARK SMILES CCCCCCCCCCCCCCCCCCCCCCCCCCCC(=O)[O-]
REMARK SMILES IDX 15 1 16 2 17 3 18 4 19 5 20 6 21 7 22 8 23 9 24 10 25 11
REMARK SMILES IDX 26 12 27 13 28 14 29 15 30 16 14 17 13 18 12 19 11 20 10 21
REMARK SMILES IDX 9 22 8 23 7 24 6 25 5 26 4 27 3 28 2 29 1 30
REMARK H PARENT
REMARK Flexibility Score: inf
ROOT
ATOM      1  C   UNL     1       5.021 -34.764  23.492  1.00  0.00     0.000 C 
ENDROOT
BRANCH   1   2
ATOM      2  C   UNL     1       6.124 -35.796  23.803  1.00  0.00     0.000 C 
BRANCH   2   3
ATOM      3  C   UNL     1       6.004 -36.511  25.167  1.00  0.00     0.000 C 
BRANCH   3   4
ATOM      4  C   UNL     1       4.625 -37.134  25.443  1.00  0.00     0.000 C 
BRANCH   4   5
ATOM      5  C   UNL     1       4.563 -38.613  25.028  1.00  0.00     0.000 C 
BRANCH   5   6
ATOM      6  C   UNL     1       3.889 -38.814  23.659  1.00  0.00     0.000 C 
BRANCH   6   7
ATOM      7  C   UNL     1       4.404 -40.034  22.868  1.00  0.00     0.000 C 
BRANCH   7   8
ATOM      8  C   UNL     1       5.770 -39.842  22.172  1.00  0.00     0.000 C 
BRANCH   8   9
ATOM      9  C   UNL     1       5.707 -39.291  20.735  1.00  0.00     0.000 C 
BRANCH   9  10
ATOM     10  C   UNL     1       5.876 -37.766  20.668  1.00  0.00     0.000 C 
BRANCH  10  11
ATOM     11  C   UNL     1       4.589 -37.095  20.172  1.00  0.00     0.000 C 
BRANCH  11  12
ATOM     12  C   UNL     1       3.515 -38.136  19.838  1.00  0.00     0.006 C 
BRANCH  12  13
ATOM     13  C   UNL     1       2.806 -37.799  18.519  1.00  0.00     0.053 C 
BRANCH  13  14
ATOM     14  C   UNL     1       1.313 -37.848  18.663  1.00  0.00     0.041 C 
ATOM     15  O   UNL     1       0.581 -36.998  18.085  1.00  0.00    -0.550 OA
ATOM     16  O   UNL     1       0.725 -38.875  19.390  1.00  0.00    -0.550 OA
ENDBRANCH  13  14
ENDBRANCH  12  13
ENDBRANCH  11  12
ENDBRANCH  10  11
ENDBRANCH   9  10
ENDBRANCH   8   9
ENDBRANCH   7   8
ENDBRANCH   6   7
ENDBRANCH   5   6
ENDBRANCH   4   5
ENDBRANCH   3   4
ENDBRANCH   2   3
ENDBRANCH   1   2
BRANCH   1  17
ATOM     17  C   UNL     1       5.575 -33.371  23.150  1.00  0.00     0.000 C 
BRANCH  17  18
ATOM     18  C   UNL     1       4.656 -32.604  22.171  1.00  0.00     0.000 C 
BRANCH  18  19
ATOM     19  C   UNL     1       3.653 -33.532  21.466  1.00  0.00     0.000 C 
BRANCH  19  20
ATOM     20  C   UNL     1       4.365 -34.552  20.556  1.00  0.00     0.000 C 
BRANCH  20  21
ATOM     21  C   UNL     1       5.542 -33.942  19.777  1.00  0.00     0.000 C 
BRANCH  21  22
ATOM     22  C   UNL     1       5.597 -34.328  18.289  1.00  0.00    -0.000 C 
BRANCH  22  23
ATOM     23  C   UNL     1       4.204 -34.380  17.635  1.00  0.00    -0.000 C 
BRANCH  23  24
ATOM     24  C   UNL     1       3.873 -35.762  17.049  1.00  0.00    -0.000 C 
BRANCH  24  25
ATOM     25  C   UNL     1       2.800 -35.698  15.948  1.00  0.00    -0.000 C 
BRANCH  25  26
ATOM     26  C   UNL     1       3.389 -35.913  14.544  1.00  0.00    -0.000 C 
BRANCH  26  27
ATOM     27  C   UNL     1       2.899 -37.218  13.889  1.00  0.00    -0.000 C 
BRANCH  27  28
ATOM     28  C   UNL     1       3.552 -38.466  14.505  1.00  0.00    -0.000 C 
BRANCH  28  29
ATOM     29  C   UNL     1       4.916 -38.786  13.876  1.00  0.00    -0.003 C 
ATOM     30  C   UNL     1       5.194 -40.288  13.894  1.00  0.00     0.004 C 
ENDBRANCH  28  29
ENDBRANCH  27  28
ENDBRANCH  26  27
ENDBRANCH  25  26
ENDBRANCH  24  25
ENDBRANCH  23  24
ENDBRANCH  22  23
ENDBRANCH  21  22
ENDBRANCH  20  21
ENDBRANCH  19  20
ENDBRANCH  18  19
ENDBRANCH  17  18
ENDBRANCH   1  17
TORSDOF 26
ENDMDL
MODEL 2
REMARK VINA RESULT:    -0.279      0.953      2.130
REMARK INTER + INTRA:          -1.503
REMARK INTER:                  -0.707
REMARK INTRA:                  -0.797
REMARK UNBOUND:                -0.799
REMARK SMILES CCCCCCCCCCCCCCCCCCCCCCCCCCCC(=O)[O-]
REMARK SMILES IDX 15 1 16 2 17 3 18 4 19 5 20 6 21 7 22 8 23 9 24 10 25 11
REMARK SMILES IDX 26 12 27 13 28 14 29 15 30 16 14 17 13 18 12 19 11 20 10 21
REMARK SMILES IDX 9 22 8 23 7 24 6 25 5 26 4 27 3 28 2 29 1 30
REMARK H PARENT
REMARK Flexibility Score: inf
ROOT
ATOM      1  C   UNL     1       5.148 -35.740  25.780  1.00  0.00     0.000 C 
ENDROOT
BRANCH   1   2
ATOM      2  C   UNL     1       4.838 -37.250  25.740  1.00  0.00     0.000 C 
BRANCH   2   3
ATOM      3  C   UNL     1       4.973 -37.922  24.355  1.00  0.00     0.000 C 
BRANCH   3   4
ATOM      4  C   UNL     1       4.268 -39.283  24.234  1.00  0.00     0.000 C 
BRANCH   4   5
ATOM      5  C   UNL     1       4.909 -40.176  23.160  1.00  0.00     0.000 C 
BRANCH   5   6
ATOM      6  C   UNL     1       5.887 -39.403  22.257  1.00  0.00     0.000 C 
BRANCH   6   7
ATOM      7  C   UNL     1       6.071 -40.011  20.851  1.00  0.00     0.000 C 
BRANCH   7   8
ATOM      8  C   UNL     1       5.701 -39.080  19.675  1.00  0.00     0.000 C 
BRANCH   8   9
ATOM      9  C   UNL     1       5.714 -37.574  19.996  1.00  0.00     0.000 C 
BRANCH   9  10
ATOM     10  C   UNL     1       4.969 -37.229  21.294  1.00  0.00     0.000 C 
BRANCH  10  11
ATOM     11  C   UNL     1       3.453 -37.368  21.107  1.00  0.00     0.000 C 
BRANCH  11  12
ATOM     12  C   UNL     1       3.103 -37.707  19.654  1.00  0.00     0.006 C 
BRANCH  12  13
ATOM     13  C   UNL     1       1.879 -36.913  19.178  1.00  0.00     0.053 C 
BRANCH  13  14
ATOM     14  C   UNL     1       0.767 -37.817  18.737  1.00  0.00     0.041 C 
ATOM     15  O   UNL     1      -0.314 -37.342  18.292  1.00  0.00    -0.550 OA
ATOM     16  O   UNL     1       0.948 -39.194  18.762  1.00  0.00    -0.550 OA
ENDBRANCH  13  14
ENDBRANCH  12  13
ENDBRANCH  11  12
ENDBRANCH  10  11
ENDBRANCH   9  10
ENDBRANCH   8   9
ENDBRANCH   7   8
ENDBRANCH   6   7
ENDBRANCH   5   6
ENDBRANCH   4   5
ENDBRANCH   3   4
ENDBRANCH   2   3
ENDBRANCH   1   2
BRANCH   1  17
ATOM     17  C   UNL     1       6.101 -35.287  24.661  1.00  0.00     0.000 C 
BRANCH  17  18
ATOM     18  C   UNL     1       6.123 -33.749  24.503  1.00  0.00     0.000 C 
BRANCH  18  19
ATOM     19  C   UNL     1       5.885 -33.309  23.049  1.00  0.00     0.000 C 
BRANCH  19  20
ATOM     20  C   UNL     1       5.084 -34.364  22.260  1.00  0.00     0.000 C 
BRANCH  20  21
ATOM     21  C   UNL     1       3.852 -33.775  21.554  1.00  0.00     0.000 C 
BRANCH  21  22
ATOM     22  C   UNL     1       4.041 -33.502  20.052  1.00  0.00    -0.000 C 
BRANCH  22  23
ATOM     23  C   UNL     1       5.380 -34.037  19.513  1.00  0.00    -0.000 C 
BRANCH  23  24
ATOM     24  C   UNL     1       5.241 -34.711  18.137  1.00  0.00    -0.000 C 
BRANCH  24  25
ATOM     25  C   UNL     1       3.780 -35.042  17.784  1.00  0.00    -0.000 C 
BRANCH  25  26
ATOM     26  C   UNL     1       3.598 -35.368  16.293  1.00  0.00    -0.000 C 
BRANCH  26  27
ATOM     27  C   UNL     1       2.243 -36.039  15.994  1.00  0.00    -0.000 C 
BRANCH  27  28
ATOM     28  C   UNL     1       2.292 -36.927  14.740  1.00  0.00    -0.000 C 
BRANCH  28  29
ATOM     29  C   UNL     1       3.707 -37.035  14.151  1.00  0.00    -0.003 C 
ATOM     30  C   UNL     1       4.203 -38.479  14.167  1.00  0.00     0.004 C 
ENDBRANCH  28  29
ENDBRANCH  27  28
ENDBRANCH  26  27
ENDBRANCH  25  26
ENDBRANCH  24  25
ENDBRANCH  23  24
ENDBRANCH  22  23
ENDBRANCH  21  22
ENDBRANCH  20  21
ENDBRANCH  19  20
ENDBRANCH  18  19
ENDBRANCH  17  18
ENDBRANCH   1  17
TORSDOF 26
ENDMDL
MODEL 3
REMARK VINA RESULT:     0.637      3.500      5.177
REMARK INTER + INTRA:           0.807
REMARK INTER:                   1.649
REMARK INTRA:                  -0.842
REMARK UNBOUND:                -0.799
REMARK SMILES CCCCCCCCCCCCCCCCCCCCCCCCCCCC(=O)[O-]
REMARK SMILES IDX 15 1 16 2 17 3 18 4 19 5 20 6 21 7 22 8 23 9 24 10 25 11
REMARK SMILES IDX 26 12 27 13 28 14 29 15 30 16 14 17 13 18 12 19 11 20 10 21
REMARK SMILES IDX 9 22 8 23 7 24 6 25 5 26 4 27 3 28 2 29 1 30
REMARK H PARENT
REMARK Flexibility Score: inf
ROOT
ATOM      1  C   UNL     1       5.851 -34.509  24.006  1.00  0.00     0.000 C 
ENDROOT
BRANCH   1   2
ATOM      2  C   UNL     1       6.104 -35.872  23.331  1.00  0.00     0.000 C 
BRANCH   2   3
ATOM      3  C   UNL     1       4.943 -36.415  22.468  1.00  0.00     0.000 C 
BRANCH   3   4
ATOM      4  C   UNL     1       5.384 -37.128  21.179  1.00  0.00     0.000 C 
BRANCH   4   5
ATOM      5  C   UNL     1       5.231 -38.654  21.278  1.00  0.00     0.000 C 
BRANCH   5   6
ATOM      6  C   UNL     1       4.256 -39.079  22.389  1.00  0.00     0.000 C 
BRANCH   6   7
ATOM      7  C   UNL     1       4.923 -39.793  23.584  1.00  0.00     0.000 C 
BRANCH   7   8
ATOM      8  C   UNL     1       4.880 -39.022  24.922  1.00  0.00     0.000 C 
BRANCH   8   9
ATOM      9  C   UNL     1       3.814 -37.913  25.011  1.00  0.00     0.000 C 
BRANCH   9  10
ATOM     10  C   UNL     1       3.662 -37.337  26.426  1.00  0.00     0.000 C 
BRANCH  10  11
ATOM     11  C   UNL     1       2.214 -37.463  26.915  1.00  0.00     0.000 C 
BRANCH  11  12
ATOM     12  C   UNL     1       2.013 -36.729  28.245  1.00  0.00     0.006 C 
BRANCH  12  13
ATOM     13  C   UNL     1       1.796 -35.226  28.022  1.00  0.00     0.053 C 
BRANCH  13  14
ATOM     14  C   UNL     1       1.547 -34.503  29.313  1.00  0.00     0.041 C 
ATOM     15  O   UNL     1       0.385 -34.126  29.628  1.00  0.00    -0.550 OA
ATOM     16  O   UNL     1       2.596 -34.298  30.200  1.00  0.00    -0.550 OA
ENDBRANCH  13  14
ENDBRANCH  12  13
ENDBRANCH  11  12
ENDBRANCH  10  11
ENDBRANCH   9  10
ENDBRANCH   8   9
ENDBRANCH   7   8
ENDBRANCH   6   7
ENDBRANCH   5   6
ENDBRANCH   4   5
ENDBRANCH   3   4
ENDBRANCH   2   3
ENDBRANCH   1   2
BRANCH   1  17
ATOM     17  C   UNL     1       5.666 -33.360  23.000  1.00  0.00     0.000 C 
BRANCH  17  18
ATOM     18  C   UNL     1       4.292 -33.421  22.293  1.00  0.00     0.000 C 
BRANCH  18  19
ATOM     19  C   UNL     1       4.428 -33.535  20.766  1.00  0.00     0.000 C 
BRANCH  19  20
ATOM     20  C   UNL     1       5.872 -33.872  20.347  1.00  0.00     0.000 C 
BRANCH  20  21
ATOM     21  C   UNL     1       5.964 -34.445  18.923  1.00  0.00     0.000 C 
BRANCH  21  22
ATOM     22  C   UNL     1       4.715 -34.214  18.054  1.00  0.00    -0.000 C 
BRANCH  22  23
ATOM     23  C   UNL     1       4.064 -35.528  17.588  1.00  0.00    -0.000 C 
BRANCH  23  24
ATOM     24  C   UNL     1       3.585 -36.404  18.758  1.00  0.00    -0.000 C 
BRANCH  24  25
ATOM     25  C   UNL     1       2.397 -37.306  18.376  1.00  0.00    -0.000 C 
BRANCH  25  26
ATOM     26  C   UNL     1       2.325 -37.569  16.863  1.00  0.00    -0.000 C 
BRANCH  26  27
ATOM     27  C   UNL     1       1.771 -36.364  16.079  1.00  0.00    -0.000 C 
BRANCH  27  28
ATOM     28  C   UNL     1       2.061 -36.460  14.572  1.00  0.00    -0.000 C 
BRANCH  28  29
ATOM     29  C   UNL     1       3.563 -36.571  14.269  1.00  0.00    -0.003 C 
ATOM     30  C   UNL     1       4.005 -38.031  14.198  1.00  0.00     0.004 C 
ENDBRANCH  28  29
ENDBRANCH  27  28
ENDBRANCH  26  27
ENDBRANCH  25  26
ENDBRANCH  24  25
ENDBRANCH  23  24
ENDBRANCH  22  23
ENDBRANCH  21  22
ENDBRANCH  20  21
ENDBRANCH  19  20
ENDBRANCH  18  19
ENDBRANCH  17  18
ENDBRANCH   1  17
TORSDOF 26
ENDMDL
MODEL 4
REMARK VINA RESULT:     1.154      2.281      8.109
REMARK INTER + INTRA:           2.108
REMARK INTER:                   2.558
REMARK INTRA:                  -0.451
REMARK UNBOUND:                -0.799
REMARK SMILES CCCCCCCCCCCCCCCCCCCCCCCCCCCC(=O)[O-]
REMARK SMILES IDX 15 1 16 2 17 3 18 4 19 5 20 6 21 7 22 8 23 9 24 10 25 11
REMARK SMILES IDX 26 12 27 13 28 14 29 15 30 16 14 17 13 18 12 19 11 20 10 21
REMARK SMILES IDX 9 22 8 23 7 24 6 25 5 26 4 27 3 28 2 29 1 30
REMARK H PARENT
REMARK Flexibility Score: inf
ROOT
ATOM      1  C   UNL     1       5.045 -35.647  23.315  1.00  0.00     0.000 C 
ENDROOT
BRANCH   1   2
ATOM      2  C   UNL     1       5.758 -34.344  23.728  1.00  0.00     0.000 C 
BRANCH   2   3
ATOM      3  C   UNL     1       5.420 -33.100  22.877  1.00  0.00     0.000 C 
BRANCH   3   4
ATOM      4  C   UNL     1       4.078 -33.183  22.129  1.00  0.00     0.000 C 
BRANCH   4   5
ATOM      5  C   UNL     1       4.261 -33.561  20.651  1.00  0.00     0.000 C 
BRANCH   5   6
ATOM      6  C   UNL     1       5.703 -33.982  20.322  1.00  0.00     0.000 C 
BRANCH   6   7
ATOM      7  C   UNL     1       5.955 -34.286  18.831  1.00  0.00     0.000 C 
BRANCH   7   8
ATOM      8  C   UNL     1       4.717 -34.165  17.914  1.00  0.00     0.000 C 
BRANCH   8   9
ATOM      9  C   UNL     1       4.135 -35.501  17.413  1.00  0.00     0.000 C 
BRANCH   9  10
ATOM     10  C   UNL     1       3.313 -35.353  16.124  1.00  0.00     0.000 C 
BRANCH  10  11
ATOM     11  C   UNL     1       3.170 -36.702  15.409  1.00  0.00     0.000 C 
BRANCH  11  12
ATOM     12  C   UNL     1       2.458 -37.726  16.299  1.00  0.00     0.006 C 
BRANCH  12  13
ATOM     13  C   UNL     1       1.280 -37.087  17.049  1.00  0.00     0.053 C 
BRANCH  13  14
ATOM     14  C   UNL     1       1.250 -37.499  18.491  1.00  0.00     0.041 C 
ATOM     15  O   UNL     1       2.305 -37.865  19.080  1.00  0.00    -0.550 OA
ATOM     16  O   UNL     1       0.062 -37.420  19.205  1.00  0.00    -0.550 OA
ENDBRANCH  13  14
ENDBRANCH  12  13
ENDBRANCH  11  12
ENDBRANCH  10  11
ENDBRANCH   9  10
ENDBRANCH   8   9
ENDBRANCH   7   8
ENDBRANCH   6   7
ENDBRANCH   5   6
ENDBRANCH   4   5
ENDBRANCH   3   4
ENDBRANCH   2   3
ENDBRANCH   1   2
BRANCH   1  17
ATOM     17  C   UNL     1       5.844 -36.478  22.298  1.00  0.00     0.000 C 
BRANCH  17  18
ATOM     18  C   UNL     1       4.931 -37.125  21.230  1.00  0.00     0.000 C 
BRANCH  18  19
ATOM     19  C   UNL     1       5.452 -38.496  20.772  1.00  0.00     0.000 C 
BRANCH  19  20
ATOM     20  C   UNL     1       5.329 -39.553  21.887  1.00  0.00     0.000 C 
BRANCH  20  21
ATOM     21  C   UNL     1       4.225 -39.223  22.905  1.00  0.00     0.000 C 
BRANCH  21  22
ATOM     22  C   UNL     1       4.685 -39.223  24.374  1.00  0.00    -0.000 C 
BRANCH  22  23
ATOM     23  C   UNL     1       4.995 -37.811  24.901  1.00  0.00    -0.000 C 
BRANCH  23  24
ATOM     24  C   UNL     1       4.220 -37.471  26.184  1.00  0.00    -0.000 C 
BRANCH  24  25
ATOM     25  C   UNL     1       2.849 -38.168  26.251  1.00  0.00    -0.000 C 
BRANCH  25  26
ATOM     26  C   UNL     1       1.862 -37.432  27.171  1.00  0.00    -0.000 C 
BRANCH  26  27
ATOM     27  C   UNL     1       2.427 -36.100  27.702  1.00  0.00    -0.000 C 
BRANCH  27  28
ATOM     28  C   UNL     1       1.551 -35.489  28.808  1.00  0.00    -0.000 C 
BRANCH  28  29
ATOM     29  C   UNL     1       1.992 -34.067  29.187  1.00  0.00    -0.003 C 
ATOM     30  C   UNL     1       1.521 -33.700  30.593  1.00  0.00     0.004 C 
ENDBRANCH  28  29
ENDBRANCH  27  28
ENDBRANCH  26  27
ENDBRANCH  25  26
ENDBRANCH  24  25
ENDBRANCH  23  24
ENDBRANCH  22  23
ENDBRANCH  21  22
ENDBRANCH  20  21
ENDBRANCH  19  20
ENDBRANCH  18  19
ENDBRANCH  17  18
ENDBRANCH   1  17
TORSDOF 26
ENDMDL
MODEL 5
REMARK VINA RESULT:     1.348      2.779      8.351
REMARK INTER + INTRA:           2.598
REMARK INTER:                   3.972
REMARK INTRA:                  -1.374
REMARK UNBOUND:                -0.799
REMARK SMILES CCCCCCCCCCCCCCCCCCCCCCCCCCCC(=O)[O-]
REMARK SMILES IDX 15 1 16 2 17 3 18 4 19 5 20 6 21 7 22 8 23 9 24 10 25 11
REMARK SMILES IDX 26 12 27 13 28 14 29 15 30 16 14 17 13 18 12 19 11 20 10 21
REMARK SMILES IDX 9 22 8 23 7 24 6 25 5 26 4 27 3 28 2 29 1 30
REMARK H PARENT
REMARK Flexibility Score: inf
ROOT
ATOM      1  C   UNL     1       5.414 -35.538  23.450  1.00  0.00     0.000 C 
ENDROOT
BRANCH   1   2
ATOM      2  C   UNL     1       5.881 -34.072  23.557  1.00  0.00     0.000 C 
BRANCH   2   3
ATOM      3  C   UNL     1       5.350 -33.122  22.461  1.00  0.00     0.000 C 
BRANCH   3   4
ATOM      4  C   UNL     1       3.944 -33.467  21.941  1.00  0.00     0.000 C 
BRANCH   4   5
ATOM      5  C   UNL     1       3.945 -33.791  20.439  1.00  0.00     0.000 C 
BRANCH   5   6
ATOM      6  C   UNL     1       5.365 -33.959  19.871  1.00  0.00     0.000 C 
BRANCH   6   7
ATOM      7  C   UNL     1       5.414 -34.488  18.423  1.00  0.00     0.000 C 
BRANCH   7   8
ATOM      8  C   UNL     1       4.074 -35.022  17.868  1.00  0.00     0.000 C 
BRANCH   8   9
ATOM      9  C   UNL     1       3.854 -36.539  18.022  1.00  0.00     0.000 C 
BRANCH   9  10
ATOM     10  C   UNL     1       2.555 -37.028  17.365  1.00  0.00     0.000 C 
BRANCH  10  11
ATOM     11  C   UNL     1       1.893 -35.904  16.559  1.00  0.00     0.000 C 
BRANCH  11  12
ATOM     12  C   UNL     1       2.101 -36.106  15.054  1.00  0.00     0.006 C 
BRANCH  12  13
ATOM     13  C   UNL     1       2.492 -37.556  14.738  1.00  0.00     0.053 C 
BRANCH  13  14
ATOM     14  C   UNL     1       3.899 -37.653  14.227  1.00  0.00     0.041 C 
ATOM     15  O   UNL     1       4.543 -36.615  13.908  1.00  0.00    -0.550 OA
ATOM     16  O   UNL     1       4.523 -38.892  14.160  1.00  0.00    -0.550 OA
ENDBRANCH  13  14
ENDBRANCH  12  13
ENDBRANCH  11  12
ENDBRANCH  10  11
ENDBRANCH   9  10
ENDBRANCH   8   9
ENDBRANCH   7   8
ENDBRANCH   6   7
ENDBRANCH   5   6
ENDBRANCH   4   5
ENDBRANCH   3   4
ENDBRANCH   2   3
ENDBRANCH   1   2
BRANCH   1  17
ATOM     17  C   UNL     1       6.071 -36.299  22.285  1.00  0.00     0.000 C 
BRANCH  17  18
ATOM     18  C   UNL     1       5.024 -36.894  21.315  1.00  0.00     0.000 C 
BRANCH  18  19
ATOM     19  C   UNL     1       5.499 -38.212  20.683  1.00  0.00     0.000 C 
BRANCH  19  20
ATOM     20  C   UNL     1       5.402 -39.387  21.675  1.00  0.00     0.000 C 
BRANCH  20  21
ATOM     21  C   UNL     1       4.339 -39.165  22.764  1.00  0.00     0.000 C 
BRANCH  21  22
ATOM     22  C   UNL     1       4.900 -39.004  24.187  1.00  0.00    -0.000 C 
BRANCH  22  23
ATOM     23  C   UNL     1       4.383 -37.737  24.892  1.00  0.00    -0.000 C 
BRANCH  23  24
ATOM     24  C   UNL     1       3.891 -38.010  26.323  1.00  0.00    -0.000 C 
BRANCH  24  25
ATOM     25  C   UNL     1       2.356 -38.003  26.434  1.00  0.00    -0.000 C 
BRANCH  25  26
ATOM     26  C   UNL     1       1.867 -37.356  27.741  1.00  0.00    -0.000 C 
BRANCH  26  27
ATOM     27  C   UNL     1       1.966 -35.819  27.714  1.00  0.00    -0.000 C 
BRANCH  27  28
ATOM     28  C   UNL     1       2.212 -35.222  29.110  1.00  0.00    -0.000 C 
BRANCH  28  29
ATOM     29  C   UNL     1       1.770 -33.753  29.206  1.00  0.00    -0.003 C 
ATOM     30  C   UNL     1       1.070 -33.474  30.534  1.00  0.00     0.004 C 
ENDBRANCH  28  29
ENDBRANCH  27  28
ENDBRANCH  26  27
ENDBRANCH  25  26
ENDBRANCH  24  25
ENDBRANCH  23  24
ENDBRANCH  22  23
ENDBRANCH  21  22
ENDBRANCH  20  21
ENDBRANCH  19  20
ENDBRANCH  18  19
ENDBRANCH  17  18
ENDBRANCH   1  17
TORSDOF 26
ENDMDL
MODEL 6
REMARK VINA RESULT:     1.367      2.323      7.933
REMARK INTER + INTRA:           2.646
REMARK INTER:                   3.383
REMARK INTRA:                  -0.737
REMARK UNBOUND:                -0.799
REMARK SMILES CCCCCCCCCCCCCCCCCCCCCCCCCCCC(=O)[O-]
REMARK SMILES IDX 15 1 16 2 17 3 18 4 19 5 20 6 21 7 22 8 23 9 24 10 25 11
REMARK SMILES IDX 26 12 27 13 28 14 29 15 30 16 14 17 13 18 12 19 11 20 10 21
REMARK SMILES IDX 9 22 8 23 7 24 6 25 5 26 4 27 3 28 2 29 1 30
REMARK H PARENT
REMARK Flexibility Score: inf
ROOT
ATOM      1  C   UNL     1       4.072 -36.528  21.356  1.00  0.00     0.000 C 
ENDROOT
BRANCH   1   2
ATOM      2  C   UNL     1       5.591 -36.269  21.407  1.00  0.00     0.000 C 
BRANCH   2   3
ATOM      3  C   UNL     1       6.119 -35.652  22.721  1.00  0.00     0.000 C 
BRANCH   3   4
ATOM      4  C   UNL     1       5.221 -34.555  23.317  1.00  0.00     0.000 C 
BRANCH   4   5
ATOM      5  C   UNL     1       5.069 -33.352  22.373  1.00  0.00     0.000 C 
BRANCH   5   6
ATOM      6  C   UNL     1       3.680 -33.292  21.712  1.00  0.00     0.000 C 
BRANCH   6   7
ATOM      7  C   UNL     1       3.675 -33.636  20.208  1.00  0.00     0.000 C 
BRANCH   7   8
ATOM      8  C   UNL     1       5.069 -33.799  19.562  1.00  0.00     0.000 C 
BRANCH   8   9
ATOM      9  C   UNL     1       5.076 -34.431  18.156  1.00  0.00     0.000 C 
BRANCH   9  10
ATOM     10  C   UNL     1       3.946 -35.451  17.951  1.00  0.00     0.000 C 
BRANCH  10  11
ATOM     11  C   UNL     1       3.153 -35.138  16.676  1.00  0.00     0.000 C 
BRANCH  11  12
ATOM     12  C   UNL     1       2.316 -36.344  16.236  1.00  0.00     0.006 C 
BRANCH  12  13
ATOM     13  C   UNL     1       3.173 -37.614  16.152  1.00  0.00     0.053 C 
BRANCH  13  14
ATOM     14  C   UNL     1       3.782 -37.784  14.791  1.00  0.00     0.041 C 
ATOM     15  O   UNL     1       3.916 -38.932  14.283  1.00  0.00    -0.550 OA
ATOM     16  O   UNL     1       4.148 -36.665  14.056  1.00  0.00    -0.550 OA
ENDBRANCH  13  14
ENDBRANCH  12  13
ENDBRANCH  11  12
ENDBRANCH  10  11
ENDBRANCH   9  10
ENDBRANCH   8   9
ENDBRANCH   7   8
ENDBRANCH   6   7
ENDBRANCH   5   6
ENDBRANCH   4   5
ENDBRANCH   3   4
ENDBRANCH   2   3
ENDBRANCH   1   2
BRANCH   1  17
ATOM     17  C   UNL     1       3.696 -37.766  20.524  1.00  0.00     0.000 C 
BRANCH  17  18
ATOM     18  C   UNL     1       4.816 -38.165  19.536  1.00  0.00     0.000 C 
BRANCH  18  19
ATOM     19  C   UNL     1       6.112 -38.568  20.257  1.00  0.00     0.000 C 
BRANCH  19  20
ATOM     20  C   UNL     1       5.994 -39.963  20.903  1.00  0.00     0.000 C 
BRANCH  20  21
ATOM     21  C   UNL     1       5.720 -39.902  22.414  1.00  0.00     0.000 C 
BRANCH  21  22
ATOM     22  C   UNL     1       4.231 -39.833  22.795  1.00  0.00    -0.000 C 
BRANCH  22  23
ATOM     23  C   UNL     1       4.001 -39.228  24.192  1.00  0.00    -0.000 C 
BRANCH  23  24
ATOM     24  C   UNL     1       4.978 -38.084  24.512  1.00  0.00    -0.000 C 
BRANCH  24  25
ATOM     25  C   UNL     1       4.418 -37.101  25.556  1.00  0.00    -0.000 C 
BRANCH  25  26
ATOM     26  C   UNL     1       3.498 -37.792  26.577  1.00  0.00    -0.000 C 
BRANCH  26  27
ATOM     27  C   UNL     1       2.306 -36.910  26.993  1.00  0.00    -0.000 C 
BRANCH  27  28
ATOM     28  C   UNL     1       2.649 -35.972  28.162  1.00  0.00    -0.000 C 
BRANCH  28  29
ATOM     29  C   UNL     1       1.442 -35.141  28.621  1.00  0.00    -0.003 C 
ATOM     30  C   UNL     1       1.843 -34.133  29.697  1.00  0.00     0.004 C 
ENDBRANCH  28  29
ENDBRANCH  27  28
ENDBRANCH  26  27
ENDBRANCH  25  26
ENDBRANCH  24  25
ENDBRANCH  23  24
ENDBRANCH  22  23
ENDBRANCH  21  22
ENDBRANCH  20  21
ENDBRANCH  19  20
ENDBRANCH  18  19
ENDBRANCH  17  18
ENDBRANCH   1  17
TORSDOF 26
ENDMDL
MODEL 7
REMARK VINA RESULT:     1.514      3.445      6.973
REMARK INTER + INTRA:           3.015
REMARK INTER:                   5.508
REMARK INTRA:                  -2.493
REMARK UNBOUND:                -0.799
REMARK SMILES CCCCCCCCCCCCCCCCCCCCCCCCCCCC(=O)[O-]
REMARK SMILES IDX 15 1 16 2 17 3 18 4 19 5 20 6 21 7 22 8 23 9 24 10 25 11
REMARK SMILES IDX 26 12 27 13 28 14 29 15 30 16 14 17 13 18 12 19 11 20 10 21
REMARK SMILES IDX 9 22 8 23 7 24 6 25 5 26 4 27 3 28 2 29 1 30
REMARK H PARENT
REMARK Flexibility Score: inf
ROOT
ATOM      1  C   UNL     1       5.562 -34.231  18.402  1.00  0.00     0.000 C 
ENDROOT
BRANCH   1   2
ATOM      2  C   UNL     1       5.540 -34.332  19.941  1.00  0.00     0.000 C 
BRANCH   2   3
ATOM      3  C   UNL     1       4.147 -34.202  20.598  1.00  0.00     0.000 C 
BRANCH   3   4
ATOM      4  C   UNL     1       4.177 -33.958  22.116  1.00  0.00     0.000 C 
BRANCH   4   5
ATOM      5  C   UNL     1       5.577 -33.566  22.614  1.00  0.00     0.000 C 
BRANCH   5   6
ATOM      6  C   UNL     1       6.119 -34.537  23.677  1.00  0.00     0.000 C 
BRANCH   6   7
ATOM      7  C   UNL     1       5.324 -35.854  23.802  1.00  0.00     0.000 C 
BRANCH   7   8
ATOM      8  C   UNL     1       4.454 -35.982  25.073  1.00  0.00     0.000 C 
BRANCH   8   9
ATOM      9  C   UNL     1       4.936 -37.024  26.100  1.00  0.00     0.000 C 
BRANCH   9  10
ATOM     10  C   UNL     1       3.839 -38.018  26.509  1.00  0.00     0.000 C 
BRANCH  10  11
ATOM     11  C   UNL     1       2.488 -37.308  26.660  1.00  0.00     0.000 C 
BRANCH  11  12
ATOM     12  C   UNL     1       2.350 -36.670  28.046  1.00  0.00     0.006 C 
BRANCH  12  13
ATOM     13  C   UNL     1       1.712 -35.277  27.955  1.00  0.00     0.053 C 
BRANCH  13  14
ATOM     14  C   UNL     1       1.634 -34.612  29.298  1.00  0.00     0.041 C 
ATOM     15  O   UNL     1       2.684 -34.307  29.928  1.00  0.00    -0.550 OA
ATOM     16  O   UNL     1       0.396 -34.273  29.827  1.00  0.00    -0.550 OA
ENDBRANCH  13  14
ENDBRANCH  12  13
ENDBRANCH  11  12
ENDBRANCH  10  11
ENDBRANCH   9  10
ENDBRANCH   8   9
ENDBRANCH   7   8
ENDBRANCH   6   7
ENDBRANCH   5   6
ENDBRANCH   4   5
ENDBRANCH   3   4
ENDBRANCH   2   3
ENDBRANCH   1   2
BRANCH   1  17
ATOM     17  C   UNL     1       4.170 -34.378  17.765  1.00  0.00     0.000 C 
BRANCH  17  18
ATOM     18  C   UNL     1       3.952 -35.786  17.163  1.00  0.00     0.000 C 
BRANCH  18  19
ATOM     19  C   UNL     1       3.157 -35.740  15.849  1.00  0.00     0.000 C 
BRANCH  19  20
ATOM     20  C   UNL     1       1.641 -35.870  16.096  1.00  0.00     0.000 C 
BRANCH  20  21
ATOM     21  C   UNL     1       1.259 -37.183  16.797  1.00  0.00     0.000 C 
BRANCH  21  22
ATOM     22  C   UNL     1       0.961 -37.046  18.301  1.00  0.00    -0.000 C 
BRANCH  22  23
ATOM     23  C   UNL     1       1.629 -38.148  19.143  1.00  0.00    -0.000 C 
BRANCH  23  24
ATOM     24  C   UNL     1       2.846 -37.639  19.933  1.00  0.00    -0.000 C 
BRANCH  24  25
ATOM     25  C   UNL     1       4.156 -37.734  19.131  1.00  0.00    -0.000 C 
BRANCH  25  26
ATOM     26  C   UNL     1       5.397 -37.766  20.039  1.00  0.00    -0.000 C 
BRANCH  26  27
ATOM     27  C   UNL     1       5.957 -39.188  20.226  1.00  0.00    -0.000 C 
BRANCH  27  28
ATOM     28  C   UNL     1       5.914 -39.649  21.692  1.00  0.00    -0.000 C 
BRANCH  28  29
ATOM     29  C   UNL     1       5.040 -38.738  22.568  1.00  0.00    -0.003 C 
ATOM     30  C   UNL     1       4.145 -39.557  23.496  1.00  0.00     0.004 C 
ENDBRANCH  28  29
ENDBRANCH  27  28
ENDBRANCH  26  27
ENDBRANCH  25  26
ENDBRANCH  24  25
ENDBRANCH  23  24
ENDBRANCH  22  23
ENDBRANCH  21  22
ENDBRANCH  20  21
ENDBRANCH  19  20
ENDBRANCH  18  19
ENDBRANCH  17  18
ENDBRANCH   1  17
TORSDOF 26
ENDMDL
