MODEL 1
REMARK VINA RESULT:    -4.003      0.000      0.000
REMARK INTER + INTRA:          -4.120
REMARK INTER:                  -4.120
REMARK INTRA:                   0.000
REMARK UNBOUND:                 0.000
REMARK SMILES O=c1ccc2ccc(O)cc2o1
REMARK SMILES IDX 6 1 7 2 8 3 10 4 11 5 5 6 4 7 3 8 2 9 1 10 12 11 9 12
REMARK H PARENT 9 13
REMARK Flexibility Score: inf
ROOT
ATOM      1  C   UNL     1      63.733  43.867  15.029  1.00  0.00     0.016 A 
ATOM      2  C   UNL     1      64.394  42.656  14.798  1.00  0.00     0.047 A 
ATOM      3  C   UNL     1      64.395  41.653  15.775  1.00  0.00     0.119 A 
ATOM      4  C   UNL     1      63.732  41.862  16.993  1.00  0.00     0.094 A 
ATOM      5  C   UNL     1      63.067  43.070  17.234  1.00  0.00     0.142 A 
ATOM      6  C   UNL     1      63.068  44.079  16.245  1.00  0.00     0.018 A 
ATOM      7  C   UNL     1      62.396  45.276  16.514  1.00  0.00     0.019 A 
ATOM      8  C   UNL     1      61.751  45.437  17.739  1.00  0.00     0.094 A 
ATOM      9  C   UNL     1      61.792  44.395  18.670  1.00  0.00     0.336 A 
ATOM     10  O   UNL     1      61.215  44.522  19.782  1.00  0.00    -0.246 OA
ATOM     11  O   UNL     1      62.439  43.266  18.390  1.00  0.00    -0.423 OA
ENDROOT
BRANCH   3  12
ATOM     12  O   UNL     1      65.059  40.454  15.527  1.00  0.00    -0.508 OA
ATOM     13  H   UNL     1      65.988  40.278  15.889  1.00  0.00     0.293 HD
ENDBRANCH   3  12
TORSDOF 1
ENDMDL
MODEL 2
REMARK VINA RESULT:    -4.000     18.875     18.970
REMARK INTER + INTRA:          -4.117
REMARK INTER:                  -4.117
REMARK INTRA:                   0.000
REMARK UNBOUND:                 0.000
REMARK SMILES O=c1ccc2ccc(O)cc2o1
REMARK SMILES IDX 6 1 7 2 8 3 10 4 11 5 5 6 4 7 3 8 2 9 1 10 12 11 9 12
REMARK H PARENT 9 13
REMARK Flexibility Score: inf
ROOT
ATOM      1  C   UNL     1      45.966  34.982   8.899  1.00  0.00     0.016 A 
ATOM      2  C   UNL     1      46.255  34.563   7.596  1.00  0.00     0.047 A 
ATOM      3  C   UNL     1      47.584  34.418   7.177  1.00  0.00     0.119 A 
ATOM      4  C   UNL     1      48.632  34.695   8.066  1.00  0.00     0.094 A 
ATOM      5  C   UNL     1      48.353  35.116   9.372  1.00  0.00     0.142 A 
ATOM      6  C   UNL     1      47.012  35.260   9.790  1.00  0.00     0.018 A 
ATOM      7  C   UNL     1      46.765  35.682  11.101  1.00  0.00     0.019 A 
ATOM      8  C   UNL     1      47.840  35.945  11.949  1.00  0.00     0.094 A 
ATOM      9  C   UNL     1      49.142  35.780  11.465  1.00  0.00     0.336 A 
ATOM     10  O   UNL     1      50.125  36.014  12.216  1.00  0.00    -0.246 OA
ATOM     11  O   UNL     1      49.349  35.378  10.213  1.00  0.00    -0.423 OA
ENDROOT
BRANCH   3  12
ATOM     12  O   UNL     1      47.851  33.999   5.875  1.00  0.00    -0.508 OA
ATOM     13  H   UNL     1      48.180  34.645   5.168  1.00  0.00     0.293 HD
ENDBRANCH   3  12
TORSDOF 1
ENDMDL
MODEL 3
REMARK VINA RESULT:    -3.829      0.797      4.223
REMARK INTER + INTRA:          -3.941
REMARK INTER:                  -3.941
REMARK INTRA:                   0.000
REMARK UNBOUND:                 0.000
REMARK SMILES O=c1ccc2ccc(O)cc2o1
REMARK SMILES IDX 6 1 7 2 8 3 10 4 11 5 5 6 4 7 3 8 2 9 1 10 12 11 9 12
REMARK H PARENT 9 13
REMARK Flexibility Score: inf
ROOT
ATOM      1  C   UNL     1      62.728  45.460  16.374  1.00  0.00     0.016 A 
ATOM      2  C   UNL     1      62.043  45.787  17.549  1.00  0.00     0.047 A 
ATOM      3  C   UNL     1      61.862  44.827  18.553  1.00  0.00     0.119 A 
ATOM      4  C   UNL     1      62.368  43.531  18.381  1.00  0.00     0.094 A 
ATOM      5  C   UNL     1      63.055  43.194  17.209  1.00  0.00     0.142 A 
ATOM      6  C   UNL     1      63.236  44.165  16.199  1.00  0.00     0.018 A 
ATOM      7  C   UNL     1      63.925  43.799  15.039  1.00  0.00     0.019 A 
ATOM      8  C   UNL     1      64.410  42.498  14.913  1.00  0.00     0.094 A 
ATOM      9  C   UNL     1      64.194  41.590  15.954  1.00  0.00     0.336 A 
ATOM     10  O   UNL     1      64.624  40.411  15.859  1.00  0.00    -0.246 OA
ATOM     11  O   UNL     1      63.534  41.964  17.048  1.00  0.00    -0.423 OA
ENDROOT
BRANCH   3  12
ATOM     12  O   UNL     1      61.178  45.172  19.717  1.00  0.00    -0.508 OA
ATOM     13  H   UNL     1      61.137  44.546  20.512  1.00  0.00     0.293 HD
ENDBRANCH   3  12
TORSDOF 1
ENDMDL
MODEL 4
REMARK VINA RESULT:    -3.789     19.147     19.173
REMARK INTER + INTRA:          -3.900
REMARK INTER:                  -3.900
REMARK INTRA:                   0.000
REMARK UNBOUND:                 0.000
REMARK SMILES O=c1ccc2ccc(O)cc2o1
REMARK SMILES IDX 6 1 7 2 8 3 10 4 11 5 5 6 4 7 3 8 2 9 1 10 12 11 9 12
REMARK H PARENT 9 13
REMARK Flexibility Score: inf
ROOT
ATOM      1  C   UNL     1      46.307  35.129   8.142  1.00  0.00     0.016 A 
ATOM      2  C   UNL     1      47.510  34.789   7.514  1.00  0.00     0.047 A 
ATOM      3  C   UNL     1      48.708  34.775   8.240  1.00  0.00     0.119 A 
ATOM      4  C   UNL     1      48.704  35.104   9.603  1.00  0.00     0.094 A 
ATOM      5  C   UNL     1      47.506  35.446  10.240  1.00  0.00     0.142 A 
ATOM      6  C   UNL     1      46.300  35.458   9.504  1.00  0.00     0.018 A 
ATOM      7  C   UNL     1      45.118  35.804  10.168  1.00  0.00     0.019 A 
ATOM      8  C   UNL     1      45.164  36.124  11.524  1.00  0.00     0.094 A 
ATOM      9  C   UNL     1      46.395  36.090  12.188  1.00  0.00     0.336 A 
ATOM     10  O   UNL     1      46.456  36.376  13.412  1.00  0.00    -0.246 OA
ATOM     11  O   UNL     1      47.505  35.758  11.533  1.00  0.00    -0.423 OA
ENDROOT
BRANCH   3  12
ATOM     12  O   UNL     1      49.896  34.433   7.597  1.00  0.00    -0.508 OA
ATOM     13  H   UNL     1      49.906  33.809   6.799  1.00  0.00     0.293 HD
ENDBRANCH   3  12
TORSDOF 1
ENDMDL
MODEL 5
REMARK VINA RESULT:    -3.714     13.818     14.760
REMARK INTER + INTRA:          -3.823
REMARK INTER:                  -3.823
REMARK INTRA:                   0.000
REMARK UNBOUND:                 0.000
REMARK SMILES O=c1ccc2ccc(O)cc2o1
REMARK SMILES IDX 6 1 7 2 8 3 10 4 11 5 5 6 4 7 3 8 2 9 1 10 12 11 9 12
REMARK H PARENT 9 13
REMARK Flexibility Score: inf
ROOT
ATOM      1  C   UNL     1      50.276  44.698  14.822  1.00  0.00     0.016 A 
ATOM      2  C   UNL     1      49.333  43.988  15.572  1.00  0.00     0.047 A 
ATOM      3  C   UNL     1      48.132  44.595  15.960  1.00  0.00     0.119 A 
ATOM      4  C   UNL     1      47.872  45.925  15.597  1.00  0.00     0.094 A 
ATOM      5  C   UNL     1      48.809  46.645  14.846  1.00  0.00     0.142 A 
ATOM      6  C   UNL     1      50.018  46.027  14.457  1.00  0.00     0.018 A 
ATOM      7  C   UNL     1      50.935  46.772  13.708  1.00  0.00     0.019 A 
ATOM      8  C   UNL     1      50.632  48.090  13.370  1.00  0.00     0.094 A 
ATOM      9  C   UNL     1      49.414  48.636  13.791  1.00  0.00     0.336 A 
ATOM     10  O   UNL     1      49.123  49.824  13.496  1.00  0.00    -0.246 OA
ATOM     11  O   UNL     1      48.560  47.905  14.503  1.00  0.00    -0.423 OA
ENDROOT
BRANCH   3  12
ATOM     12  O   UNL     1      47.206  43.871  16.707  1.00  0.00    -0.508 OA
ATOM     13  H   UNL     1      47.342  43.698  17.695  1.00  0.00     0.293 HD
ENDBRANCH   3  12
TORSDOF 1
ENDMDL
MODEL 6
REMARK VINA RESULT:    -3.662     14.029     15.514
REMARK INTER + INTRA:          -3.769
REMARK INTER:                  -3.769
REMARK INTRA:                   0.000
REMARK UNBOUND:                 0.000
REMARK SMILES O=c1ccc2ccc(O)cc2o1
REMARK SMILES IDX 6 1 7 2 8 3 10 4 11 5 5 6 4 7 3 8 2 9 1 10 12 11 9 12
REMARK H PARENT 9 13
REMARK Flexibility Score: inf
ROOT
ATOM      1  C   UNL     1      50.100  44.874  14.551  1.00  0.00     0.016 A 
ATOM      2  C   UNL     1      50.554  46.183  14.743  1.00  0.00     0.047 A 
ATOM      3  C   UNL     1      49.674  47.182  15.177  1.00  0.00     0.119 A 
ATOM      4  C   UNL     1      48.328  46.871  15.419  1.00  0.00     0.094 A 
ATOM      5  C   UNL     1      47.864  45.564  15.230  1.00  0.00     0.142 A 
ATOM      6  C   UNL     1      48.756  44.559  14.793  1.00  0.00     0.018 A 
ATOM      7  C   UNL     1      48.263  43.263  14.612  1.00  0.00     0.019 A 
ATOM      8  C   UNL     1      46.917  43.002  14.866  1.00  0.00     0.094 A 
ATOM      9  C   UNL     1      46.092  44.046  15.297  1.00  0.00     0.336 A 
ATOM     10  O   UNL     1      44.875  43.829  15.531  1.00  0.00    -0.246 OA
ATOM     11  O   UNL     1      46.587  45.271  15.461  1.00  0.00    -0.423 OA
ENDROOT
BRANCH   3  12
ATOM     12  O   UNL     1      50.145  48.479  15.363  1.00  0.00    -0.508 OA
ATOM     13  H   UNL     1      50.830  48.697  16.076  1.00  0.00     0.293 HD
ENDBRANCH   3  12
TORSDOF 1
ENDMDL
MODEL 7
REMARK VINA RESULT:    -3.651     13.320     14.302
REMARK INTER + INTRA:          -3.757
REMARK INTER:                  -3.757
REMARK INTRA:                   0.000
REMARK UNBOUND:                 0.000
REMARK SMILES O=c1ccc2ccc(O)cc2o1
REMARK SMILES IDX 6 1 7 2 8 3 10 4 11 5 5 6 4 7 3 8 2 9 1 10 12 11 9 12
REMARK H PARENT 9 13
REMARK Flexibility Score: inf
ROOT
ATOM      1  C   UNL     1      48.099  46.703  15.333  1.00  0.00     0.016 A 
ATOM      2  C   UNL     1      48.062  45.356  15.705  1.00  0.00     0.047 A 
ATOM      3  C   UNL     1      49.070  44.478  15.287  1.00  0.00     0.119 A 
ATOM      4  C   UNL     1      50.123  44.950  14.490  1.00  0.00     0.094 A 
ATOM      5  C   UNL     1      50.169  46.297  14.113  1.00  0.00     0.142 A 
ATOM      6  C   UNL     1      49.150  47.179  14.537  1.00  0.00     0.018 A 
ATOM      7  C   UNL     1      49.223  48.519  14.143  1.00  0.00     0.019 A 
ATOM      8  C   UNL     1      50.289  48.942  13.351  1.00  0.00     0.094 A 
ATOM      9  C   UNL     1      51.262  48.012  12.969  1.00  0.00     0.336 A 
ATOM     10  O   UNL     1      52.232  48.376  12.254  1.00  0.00    -0.246 OA
ATOM     11  O   UNL     1      51.169  46.743  13.357  1.00  0.00    -0.423 OA
ENDROOT
BRANCH   3  12
ATOM     12  O   UNL     1      49.016  43.139  15.668  1.00  0.00    -0.508 OA
ATOM     13  H   UNL     1      48.947  42.868  16.642  1.00  0.00     0.293 HD
ENDBRANCH   3  12
TORSDOF 1
ENDMDL
MODEL 8
REMARK VINA RESULT:    -3.644     13.957     15.310
REMARK INTER + INTRA:          -3.751
REMARK INTER:                  -3.751
REMARK INTRA:                   0.000
REMARK UNBOUND:                 0.000
REMARK SMILES O=c1ccc2ccc(O)cc2o1
REMARK SMILES IDX 6 1 7 2 8 3 10 4 11 5 5 6 4 7 3 8 2 9 1 10 12 11 9 12
REMARK H PARENT 9 13
REMARK Flexibility Score: inf
ROOT
ATOM      1  C   UNL     1      48.111  46.564  15.578  1.00  0.00     0.016 A 
ATOM      2  C   UNL     1      49.436  46.936  15.328  1.00  0.00     0.047 A 
ATOM      3  C   UNL     1      50.342  46.014  14.789  1.00  0.00     0.119 A 
ATOM      4  C   UNL     1      49.920  44.708  14.498  1.00  0.00     0.094 A 
ATOM      5  C   UNL     1      48.596  44.325  14.744  1.00  0.00     0.142 A 
ATOM      6  C   UNL     1      47.686  45.260  15.287  1.00  0.00     0.018 A 
ATOM      7  C   UNL     1      46.371  44.849  15.523  1.00  0.00     0.019 A 
ATOM      8  C   UNL     1      45.998  43.540  15.217  1.00  0.00     0.094 A 
ATOM      9  C   UNL     1      46.953  42.670  14.681  1.00  0.00     0.336 A 
ATOM     10  O   UNL     1      46.635  41.486  14.399  1.00  0.00    -0.246 OA
ATOM     11  O   UNL     1      48.199  43.087  14.467  1.00  0.00    -0.423 OA
ENDROOT
BRANCH   3  12
ATOM     12  O   UNL     1      51.657  46.403  14.547  1.00  0.00    -0.508 OA
ATOM     13  H   UNL     1      52.088  47.162  15.062  1.00  0.00     0.293 HD
ENDBRANCH   3  12
TORSDOF 1
ENDMDL
