MODEL 1
REMARK VINA RESULT:    -3.740      0.000      0.000
REMARK INTER + INTRA:         -13.294
REMARK INTER:                  -9.862
REMARK INTRA:                  -3.432
REMARK UNBOUND:                -3.432
REMARK SMILES CCCCCCCCCCCCCCCCCCCCCCCCCCCCCC(=O)[O-]
REMARK SMILES IDX 16 1 17 2 18 3 19 4 20 5 21 6 22 7 23 8 24 9 25 10 26 11
REMARK SMILES IDX 27 12 28 13 29 14 30 15 31 16 32 17 15 18 14 19 13 20 12 21
REMARK SMILES IDX 11 22 10 23 9 24 8 25 7 26 6 27 5 28 4 29 3 30 2 31 1 32
REMARK H PARENT
REMARK Flexibility Score: inf
ROOT
ATOM      1  C   UNL     1     -15.563 -24.352  23.912  1.00  0.00     0.000 C 
ENDROOT
BRANCH   1   2
ATOM      2  C   UNL     1     -16.793 -24.988  24.590  1.00  0.00     0.000 C 
BRANCH   2   3
ATOM      3  C   UNL     1     -18.143 -24.315  24.269  1.00  0.00     0.000 C 
BRANCH   3   4
ATOM      4  C   UNL     1     -19.071 -24.226  25.493  1.00  0.00     0.000 C 
BRANCH   4   5
ATOM      5  C   UNL     1     -18.356 -23.684  26.748  1.00  0.00     0.000 C 
BRANCH   5   6
ATOM      6  C   UNL     1     -18.241 -22.147  26.800  1.00  0.00     0.000 C 
BRANCH   6   7
ATOM      7  C   UNL     1     -16.919 -21.594  27.368  1.00  0.00     0.000 C 
BRANCH   7   8
ATOM      8  C   UNL     1     -15.845 -22.655  27.681  1.00  0.00     0.000 C 
BRANCH   8   9
ATOM      9  C   UNL     1     -14.414 -22.102  27.601  1.00  0.00     0.000 C 
BRANCH   9  10
ATOM     10  C   UNL     1     -14.403 -20.685  27.017  1.00  0.00     0.000 C 
BRANCH  10  11
ATOM     11  C   UNL     1     -12.966 -20.206  26.764  1.00  0.00     0.000 C 
BRANCH  11  12
ATOM     12  C   UNL     1     -12.855 -18.678  26.647  1.00  0.00     0.000 C 
BRANCH  12  13
ATOM     13  C   UNL     1     -13.022 -18.181  25.203  1.00  0.00     0.006 C 
BRANCH  13  14
ATOM     14  C   UNL     1     -12.641 -19.267  24.194  1.00  0.00     0.053 C 
BRANCH  14  15
ATOM     15  C   UNL     1     -11.968 -18.660  23.003  1.00  0.00     0.041 C 
ATOM     16  O   UNL     1     -12.278 -17.498  22.623  1.00  0.00    -0.550 OA
ATOM     17  O   UNL     1     -11.056 -19.405  22.267  1.00  0.00    -0.550 OA
ENDBRANCH  14  15
ENDBRANCH  13  14
ENDBRANCH  12  13
ENDBRANCH  11  12
ENDBRANCH  10  11
ENDBRANCH   9  10
ENDBRANCH   8   9
ENDBRANCH   7   8
ENDBRANCH   6   7
ENDBRANCH   5   6
ENDBRANCH   4   5
ENDBRANCH   3   4
ENDBRANCH   2   3
ENDBRANCH   1   2
BRANCH   1  18
ATOM     18  C   UNL     1     -15.481 -22.831  24.124  1.00  0.00     0.000 C 
BRANCH  18  19
ATOM     19  C   UNL     1     -14.484 -22.140  23.174  1.00  0.00     0.000 C 
BRANCH  19  20
ATOM     20  C   UNL     1     -13.798 -23.064  22.145  1.00  0.00     0.000 C 
BRANCH  20  21
ATOM     21  C   UNL     1     -12.722 -22.395  21.270  1.00  0.00     0.000 C 
BRANCH  21  22
ATOM     22  C   UNL     1     -12.957 -22.605  19.764  1.00  0.00     0.000 C 
BRANCH  22  23
ATOM     23  C   UNL     1     -13.086 -21.280  18.996  1.00  0.00     0.000 C 
BRANCH  23  24
ATOM     24  C   UNL     1     -13.708 -20.121  19.799  1.00  0.00    -0.000 C 
BRANCH  24  25
ATOM     25  C   UNL     1     -13.089 -18.743  19.484  1.00  0.00    -0.000 C 
BRANCH  25  26
ATOM     26  C   UNL     1     -11.726 -18.862  18.778  1.00  0.00    -0.000 C 
BRANCH  26  27
ATOM     27  C   UNL     1     -11.327 -17.566  18.044  1.00  0.00    -0.000 C 
BRANCH  27  28
ATOM     28  C   UNL     1     -11.774 -17.519  16.570  1.00  0.00    -0.000 C 
BRANCH  28  29
ATOM     29  C   UNL     1     -11.429 -16.181  15.893  1.00  0.00    -0.000 C 
BRANCH  29  30
ATOM     30  C   UNL     1     -12.161 -15.991  14.554  1.00  0.00    -0.000 C 
BRANCH  30  31
ATOM     31  C   UNL     1     -12.548 -14.528  14.289  1.00  0.00    -0.003 C 
ATOM     32  C   UNL     1     -12.300 -13.664  15.521  1.00  0.00     0.004 C 
ENDBRANCH  30  31
ENDBRANCH  29  30
ENDBRANCH  28  29
ENDBRANCH  27  28
ENDBRANCH  26  27
ENDBRANCH  25  26
ENDBRANCH  24  25
ENDBRANCH  23  24
ENDBRANCH  22  23
ENDBRANCH  21  22
ENDBRANCH  20  21
ENDBRANCH  19  20
ENDBRANCH  18  19
ENDBRANCH   1  18
TORSDOF 28
ENDMDL
MODEL 2
REMARK VINA RESULT:    -3.705      3.167      6.279
REMARK INTER + INTRA:         -13.203
REMARK INTER:                  -7.577
REMARK INTRA:                  -5.626
REMARK UNBOUND:                -3.432
REMARK SMILES CCCCCCCCCCCCCCCCCCCCCCCCCCCCCC(=O)[O-]
REMARK SMILES IDX 16 1 17 2 18 3 19 4 20 5 21 6 22 7 23 8 24 9 25 10 26 11
REMARK SMILES IDX 27 12 28 13 29 14 30 15 31 16 32 17 15 18 14 19 13 20 12 21
REMARK SMILES IDX 11 22 10 23 9 24 8 25 7 26 6 27 5 28 4 29 3 30 2 31 1 32
REMARK H PARENT
REMARK Flexibility Score: inf
ROOT
ATOM      1  C   UNL     1     -14.293 -21.977  23.484  1.00  0.00     0.000 C 
ENDROOT
BRANCH   1   2
ATOM      2  C   UNL     1     -15.158 -22.153  24.749  1.00  0.00     0.000 C 
BRANCH   2   3
ATOM      3  C   UNL     1     -14.417 -22.713  25.980  1.00  0.00     0.000 C 
BRANCH   3   4
ATOM      4  C   UNL     1     -15.302 -22.765  27.237  1.00  0.00     0.000 C 
BRANCH   4   5
ATOM      5  C   UNL     1     -16.423 -21.705  27.224  1.00  0.00     0.000 C 
BRANCH   5   6
ATOM      6  C   UNL     1     -17.823 -22.255  27.566  1.00  0.00     0.000 C 
BRANCH   6   7
ATOM      7  C   UNL     1     -18.707 -22.628  26.360  1.00  0.00     0.000 C 
BRANCH   7   8
ATOM      8  C   UNL     1     -18.534 -24.069  25.841  1.00  0.00     0.000 C 
BRANCH   8   9
ATOM      9  C   UNL     1     -18.114 -24.128  24.364  1.00  0.00     0.000 C 
BRANCH   9  10
ATOM     10  C   UNL     1     -17.412 -25.453  24.045  1.00  0.00     0.000 C 
BRANCH  10  11
ATOM     11  C   UNL     1     -16.681 -25.999  25.282  1.00  0.00     0.000 C 
BRANCH  11  12
ATOM     12  C   UNL     1     -15.176 -26.203  25.047  1.00  0.00     0.000 C 
BRANCH  12  13
ATOM     13  C   UNL     1     -14.706 -25.646  23.694  1.00  0.00     0.006 C 
BRANCH  13  14
ATOM     14  C   UNL     1     -13.742 -26.612  23.001  1.00  0.00     0.053 C 
BRANCH  14  15
ATOM     15  C   UNL     1     -12.526 -26.830  23.845  1.00  0.00     0.041 C 
ATOM     16  O   UNL     1     -11.946 -25.851  24.388  1.00  0.00    -0.550 OA
ATOM     17  O   UNL     1     -11.988 -28.105  23.970  1.00  0.00    -0.550 OA
ENDBRANCH  14  15
ENDBRANCH  13  14
ENDBRANCH  12  13
ENDBRANCH  11  12
ENDBRANCH  10  11
ENDBRANCH   9  10
ENDBRANCH   8   9
ENDBRANCH   7   8
ENDBRANCH   6   7
ENDBRANCH   5   6
ENDBRANCH   4   5
ENDBRANCH   3   4
ENDBRANCH   2   3
ENDBRANCH   1   2
BRANCH   1  18
ATOM     18  C   UNL     1     -12.836 -22.427  23.686  1.00  0.00     0.000 C 
BRANCH  18  19
ATOM     19  C   UNL     1     -12.189 -22.975  22.400  1.00  0.00     0.000 C 
BRANCH  19  20
ATOM     20  C   UNL     1     -13.139 -23.139  21.195  1.00  0.00     0.000 C 
BRANCH  20  21
ATOM     21  C   UNL     1     -12.582 -22.661  19.842  1.00  0.00     0.000 C 
BRANCH  21  22
ATOM     22  C   UNL     1     -13.482 -21.622  19.155  1.00  0.00     0.000 C 
BRANCH  22  23
ATOM     23  C   UNL     1     -13.781 -20.411  20.055  1.00  0.00     0.000 C 
BRANCH  23  24
ATOM     24  C   UNL     1     -13.229 -19.067  19.541  1.00  0.00    -0.000 C 
BRANCH  24  25
ATOM     25  C   UNL     1     -12.396 -18.296  20.587  1.00  0.00    -0.000 C 
BRANCH  25  26
ATOM     26  C   UNL     1     -11.317 -19.178  21.240  1.00  0.00    -0.000 C 
BRANCH  26  27
ATOM     27  C   UNL     1     -11.420 -19.193  22.778  1.00  0.00    -0.000 C 
BRANCH  27  28
ATOM     28  C   UNL     1     -12.758 -18.655  23.321  1.00  0.00    -0.000 C 
BRANCH  28  29
ATOM     29  C   UNL     1     -12.652 -18.174  24.778  1.00  0.00    -0.000 C 
BRANCH  29  30
ATOM     30  C   UNL     1     -13.221 -19.192  25.780  1.00  0.00    -0.000 C 
BRANCH  30  31
ATOM     31  C   UNL     1     -13.484 -18.583  27.165  1.00  0.00    -0.003 C 
ATOM     32  C   UNL     1     -14.109 -17.196  27.044  1.00  0.00     0.004 C 
ENDBRANCH  30  31
ENDBRANCH  29  30
ENDBRANCH  28  29
ENDBRANCH  27  28
ENDBRANCH  26  27
ENDBRANCH  25  26
ENDBRANCH  24  25
ENDBRANCH  23  24
ENDBRANCH  22  23
ENDBRANCH  21  22
ENDBRANCH  20  21
ENDBRANCH  19  20
ENDBRANCH  18  19
ENDBRANCH   1  18
TORSDOF 28
ENDMDL
MODEL 3
REMARK VINA RESULT:    -3.697      2.512      7.833
REMARK INTER + INTRA:         -13.181
REMARK INTER:                  -7.187
REMARK INTRA:                  -5.993
REMARK UNBOUND:                -3.432
REMARK SMILES CCCCCCCCCCCCCCCCCCCCCCCCCCCCCC(=O)[O-]
REMARK SMILES IDX 16 1 17 2 18 3 19 4 20 5 21 6 22 7 23 8 24 9 25 10 26 11
REMARK SMILES IDX 27 12 28 13 29 14 30 15 31 16 32 17 15 18 14 19 13 20 12 21
REMARK SMILES IDX 11 22 10 23 9 24 8 25 7 26 6 27 5 28 4 29 3 30 2 31 1 32
REMARK H PARENT
REMARK Flexibility Score: inf
ROOT
ATOM      1  C   UNL     1     -13.926 -22.158  22.126  1.00  0.00     0.000 C 
ENDROOT
BRANCH   1   2
ATOM      2  C   UNL     1     -13.195 -21.344  23.212  1.00  0.00     0.000 C 
BRANCH   2   3
ATOM      3  C   UNL     1     -11.655 -21.422  23.167  1.00  0.00     0.000 C 
BRANCH   3   4
ATOM      4  C   UNL     1     -11.011 -21.314  24.561  1.00  0.00     0.000 C 
BRANCH   4   5
ATOM      5  C   UNL     1     -11.920 -21.857  25.683  1.00  0.00     0.000 C 
BRANCH   5   6
ATOM      6  C   UNL     1     -12.193 -20.853  26.821  1.00  0.00     0.000 C 
BRANCH   6   7
ATOM      7  C   UNL     1     -13.374 -19.890  26.594  1.00  0.00     0.000 C 
BRANCH   7   8
ATOM      8  C   UNL     1     -12.983 -18.423  26.327  1.00  0.00     0.000 C 
BRANCH   8   9
ATOM      9  C   UNL     1     -12.890 -18.089  24.831  1.00  0.00     0.000 C 
BRANCH   9  10
ATOM     10  C   UNL     1     -11.477 -17.626  24.457  1.00  0.00     0.000 C 
BRANCH  10  11
ATOM     11  C   UNL     1     -11.205 -17.846  22.961  1.00  0.00     0.000 C 
BRANCH  11  12
ATOM     12  C   UNL     1     -12.343 -17.337  22.064  1.00  0.00     0.000 C 
BRANCH  12  13
ATOM     13  C   UNL     1     -12.750 -18.355  20.988  1.00  0.00     0.006 C 
BRANCH  13  14
ATOM     14  C   UNL     1     -11.533 -18.843  20.198  1.00  0.00     0.053 C 
BRANCH  14  15
ATOM     15  C   UNL     1     -11.874 -18.982  18.747  1.00  0.00     0.041 C 
ATOM     16  O   UNL     1     -11.659 -20.069  18.146  1.00  0.00    -0.550 OA
ATOM     17  O   UNL     1     -12.358 -17.888  18.041  1.00  0.00    -0.550 OA
ENDBRANCH  14  15
ENDBRANCH  13  14
ENDBRANCH  12  13
ENDBRANCH  11  12
ENDBRANCH  10  11
ENDBRANCH   9  10
ENDBRANCH   8   9
ENDBRANCH   7   8
ENDBRANCH   6   7
ENDBRANCH   5   6
ENDBRANCH   4   5
ENDBRANCH   3   4
ENDBRANCH   2   3
ENDBRANCH   1   2
BRANCH   1  18
ATOM     18  C   UNL     1     -13.328 -21.961  20.723  1.00  0.00     0.000 C 
BRANCH  18  19
ATOM     19  C   UNL     1     -12.750 -23.258  20.124  1.00  0.00     0.000 C 
BRANCH  19  20
ATOM     20  C   UNL     1     -12.786 -24.491  21.051  1.00  0.00     0.000 C 
BRANCH  20  21
ATOM     21  C   UNL     1     -11.452 -24.845  21.734  1.00  0.00     0.000 C 
BRANCH  21  22
ATOM     22  C   UNL     1     -11.605 -25.132  23.237  1.00  0.00     0.000 C 
BRANCH  22  23
ATOM     23  C   UNL     1     -13.049 -25.487  23.627  1.00  0.00     0.000 C 
BRANCH  23  24
ATOM     24  C   UNL     1     -13.454 -25.084  25.058  1.00  0.00    -0.000 C 
BRANCH  24  25
ATOM     25  C   UNL     1     -14.716 -24.198  25.122  1.00  0.00    -0.000 C 
BRANCH  25  26
ATOM     26  C   UNL     1     -15.829 -24.698  24.183  1.00  0.00    -0.000 C 
BRANCH  26  27
ATOM     27  C   UNL     1     -16.909 -23.629  23.928  1.00  0.00    -0.000 C 
BRANCH  27  28
ATOM     28  C   UNL     1     -18.351 -24.134  24.129  1.00  0.00    -0.000 C 
BRANCH  28  29
ATOM     29  C   UNL     1     -18.807 -24.046  25.596  1.00  0.00    -0.000 C 
BRANCH  29  30
ATOM     30  C   UNL     1     -18.484 -22.684  26.233  1.00  0.00    -0.000 C 
BRANCH  30  31
ATOM     31  C   UNL     1     -17.607 -22.807  27.489  1.00  0.00    -0.003 C 
ATOM     32  C   UNL     1     -16.464 -21.798  27.459  1.00  0.00     0.004 C 
ENDBRANCH  30  31
ENDBRANCH  29  30
ENDBRANCH  28  29
ENDBRANCH  27  28
ENDBRANCH  26  27
ENDBRANCH  25  26
ENDBRANCH  24  25
ENDBRANCH  23  24
ENDBRANCH  22  23
ENDBRANCH  21  22
ENDBRANCH  20  21
ENDBRANCH  19  20
ENDBRANCH  18  19
ENDBRANCH   1  18
TORSDOF 28
ENDMDL
MODEL 4
REMARK VINA RESULT:    -3.627      3.226      5.657
REMARK INTER + INTRA:         -12.996
REMARK INTER:                  -7.943
REMARK INTRA:                  -5.053
REMARK UNBOUND:                -3.432
REMARK SMILES CCCCCCCCCCCCCCCCCCCCCCCCCCCCCC(=O)[O-]
REMARK SMILES IDX 16 1 17 2 18 3 19 4 20 5 21 6 22 7 23 8 24 9 25 10 26 11
REMARK SMILES IDX 27 12 28 13 29 14 30 15 31 16 32 17 15 18 14 19 13 20 12 21
REMARK SMILES IDX 11 22 10 23 9 24 8 25 7 26 6 27 5 28 4 29 3 30 2 31 1 32
REMARK H PARENT
REMARK Flexibility Score: inf
ROOT
ATOM      1  C   UNL     1     -15.671 -23.049  23.603  1.00  0.00     0.000 C 
ENDROOT
BRANCH   1   2
ATOM      2  C   UNL     1     -17.110 -22.986  24.153  1.00  0.00     0.000 C 
BRANCH   2   3
ATOM      3  C   UNL     1     -17.251 -22.370  25.559  1.00  0.00     0.000 C 
BRANCH   3   4
ATOM      4  C   UNL     1     -18.412 -22.979  26.365  1.00  0.00     0.000 C 
BRANCH   4   5
ATOM      5  C   UNL     1     -19.057 -24.191  25.661  1.00  0.00     0.000 C 
BRANCH   5   6
ATOM      6  C   UNL     1     -19.127 -25.466  26.526  1.00  0.00     0.000 C 
BRANCH   6   7
ATOM      7  C   UNL     1     -18.432 -26.710  25.940  1.00  0.00     0.000 C 
BRANCH   7   8
ATOM      8  C   UNL     1     -17.286 -26.417  24.952  1.00  0.00     0.000 C 
BRANCH   8   9
ATOM      9  C   UNL     1     -15.897 -26.705  25.542  1.00  0.00     0.000 C 
BRANCH   9  10
ATOM     10  C   UNL     1     -15.394 -25.517  26.369  1.00  0.00     0.000 C 
BRANCH  10  11
ATOM     11  C   UNL     1     -13.895 -25.277  26.130  1.00  0.00     0.000 C 
BRANCH  11  12
ATOM     12  C   UNL     1     -13.313 -26.174  25.027  1.00  0.00     0.000 C 
BRANCH  12  13
ATOM     13  C   UNL     1     -12.957 -25.391  23.753  1.00  0.00     0.006 C 
BRANCH  13  14
ATOM     14  C   UNL     1     -12.247 -26.285  22.733  1.00  0.00     0.053 C 
BRANCH  14  15
ATOM     15  C   UNL     1     -13.210 -26.749  21.687  1.00  0.00     0.041 C 
ATOM     16  O   UNL     1     -13.062 -26.394  20.485  1.00  0.00    -0.550 OA
ATOM     17  O   UNL     1     -14.315 -27.509  22.049  1.00  0.00    -0.550 OA
ENDBRANCH  14  15
ENDBRANCH  13  14
ENDBRANCH  12  13
ENDBRANCH  11  12
ENDBRANCH  10  11
ENDBRANCH   9  10
ENDBRANCH   8   9
ENDBRANCH   7   8
ENDBRANCH   6   7
ENDBRANCH   5   6
ENDBRANCH   4   5
ENDBRANCH   3   4
ENDBRANCH   2   3
ENDBRANCH   1   2
BRANCH   1  18
ATOM     18  C   UNL     1     -14.700 -22.123  24.355  1.00  0.00     0.000 C 
BRANCH  18  19
ATOM     19  C   UNL     1     -13.531 -21.633  23.480  1.00  0.00     0.000 C 
BRANCH  19  20
ATOM     20  C   UNL     1     -13.718 -21.814  21.959  1.00  0.00     0.000 C 
BRANCH  20  21
ATOM     21  C   UNL     1     -12.612 -22.615  21.247  1.00  0.00     0.000 C 
BRANCH  21  22
ATOM     22  C   UNL     1     -12.957 -22.948  19.786  1.00  0.00     0.000 C 
BRANCH  22  23
ATOM     23  C   UNL     1     -13.341 -21.702  18.971  1.00  0.00     0.000 C 
BRANCH  23  24
ATOM     24  C   UNL     1     -12.162 -20.985  18.285  1.00  0.00    -0.000 C 
BRANCH  24  25
ATOM     25  C   UNL     1     -12.079 -19.478  18.604  1.00  0.00    -0.000 C 
BRANCH  25  26
ATOM     26  C   UNL     1     -13.157 -19.033  19.609  1.00  0.00    -0.000 C 
BRANCH  26  27
ATOM     27  C   UNL     1     -12.577 -18.187  20.760  1.00  0.00    -0.000 C 
BRANCH  27  28
ATOM     28  C   UNL     1     -11.540 -18.931  21.623  1.00  0.00    -0.000 C 
BRANCH  28  29
ATOM     29  C   UNL     1     -11.299 -18.243  22.978  1.00  0.00    -0.000 C 
BRANCH  29  30
ATOM     30  C   UNL     1     -12.600 -18.014  23.763  1.00  0.00    -0.000 C 
BRANCH  30  31
ATOM     31  C   UNL     1     -12.382 -17.987  25.284  1.00  0.00    -0.003 C 
ATOM     32  C   UNL     1     -13.206 -19.068  25.976  1.00  0.00     0.004 C 
ENDBRANCH  30  31
ENDBRANCH  29  30
ENDBRANCH  28  29
ENDBRANCH  27  28
ENDBRANCH  26  27
ENDBRANCH  25  26
ENDBRANCH  24  25
ENDBRANCH  23  24
ENDBRANCH  22  23
ENDBRANCH  21  22
ENDBRANCH  20  21
ENDBRANCH  19  20
ENDBRANCH  18  19
ENDBRANCH   1  18
TORSDOF 28
ENDMDL
MODEL 5
REMARK VINA RESULT:    -3.614      3.428      6.581
REMARK INTER + INTRA:         -12.963
REMARK INTER:                  -6.683
REMARK INTRA:                  -6.280
REMARK UNBOUND:                -3.432
REMARK SMILES CCCCCCCCCCCCCCCCCCCCCCCCCCCCCC(=O)[O-]
REMARK SMILES IDX 16 1 17 2 18 3 19 4 20 5 21 6 22 7 23 8 24 9 25 10 26 11
REMARK SMILES IDX 27 12 28 13 29 14 30 15 31 16 32 17 15 18 14 19 13 20 12 21
REMARK SMILES IDX 11 22 10 23 9 24 8 25 7 26 6 27 5 28 4 29 3 30 2 31 1 32
REMARK H PARENT
REMARK Flexibility Score: inf
ROOT
ATOM      1  C   UNL     1     -15.719 -23.056  23.676  1.00  0.00     0.000 C 
ENDROOT
BRANCH   1   2
ATOM      2  C   UNL     1     -16.140 -22.336  24.974  1.00  0.00     0.000 C 
BRANCH   2   3
ATOM      3  C   UNL     1     -14.987 -21.711  25.784  1.00  0.00     0.000 C 
BRANCH   3   4
ATOM      4  C   UNL     1     -14.758 -22.411  27.135  1.00  0.00     0.000 C 
BRANCH   4   5
ATOM      5  C   UNL     1     -13.304 -22.896  27.318  1.00  0.00     0.000 C 
BRANCH   5   6
ATOM      6  C   UNL     1     -12.351 -22.494  26.174  1.00  0.00     0.000 C 
BRANCH   6   7
ATOM      7  C   UNL     1     -11.746 -23.659  25.369  1.00  0.00     0.000 C 
BRANCH   7   8
ATOM      8  C   UNL     1     -12.295 -25.055  25.720  1.00  0.00     0.000 C 
BRANCH   8   9
ATOM      9  C   UNL     1     -12.663 -25.886  24.481  1.00  0.00     0.000 C 
BRANCH   9  10
ATOM     10  C   UNL     1     -14.146 -26.274  24.499  1.00  0.00     0.000 C 
BRANCH  10  11
ATOM     11  C   UNL     1     -14.734 -26.130  25.911  1.00  0.00     0.000 C 
BRANCH  11  12
ATOM     12  C   UNL     1     -16.248 -25.868  25.906  1.00  0.00     0.000 C 
BRANCH  12  13
ATOM     13  C   UNL     1     -16.812 -25.626  27.315  1.00  0.00     0.006 C 
BRANCH  13  14
ATOM     14  C   UNL     1     -17.850 -24.501  27.311  1.00  0.00     0.053 C 
BRANCH  14  15
ATOM     15  C   UNL     1     -18.965 -24.823  26.365  1.00  0.00     0.041 C 
ATOM     16  O   UNL     1     -19.674 -25.850  26.547  1.00  0.00    -0.550 OA
ATOM     17  O   UNL     1     -19.171 -24.034  25.241  1.00  0.00    -0.550 OA
ENDBRANCH  14  15
ENDBRANCH  13  14
ENDBRANCH  12  13
ENDBRANCH  11  12
ENDBRANCH  10  11
ENDBRANCH   9  10
ENDBRANCH   8   9
ENDBRANCH   7   8
ENDBRANCH   6   7
ENDBRANCH   5   6
ENDBRANCH   4   5
ENDBRANCH   3   4
ENDBRANCH   2   3
ENDBRANCH   1   2
BRANCH   1  18
ATOM     18  C   UNL     1     -14.585 -22.332  22.930  1.00  0.00     0.000 C 
BRANCH  18  19
ATOM     19  C   UNL     1     -13.667 -23.291  22.148  1.00  0.00     0.000 C 
BRANCH  19  20
ATOM     20  C   UNL     1     -12.222 -22.798  21.931  1.00  0.00     0.000 C 
BRANCH  20  21
ATOM     21  C   UNL     1     -11.865 -22.412  20.484  1.00  0.00     0.000 C 
BRANCH  21  22
ATOM     22  C   UNL     1     -13.052 -22.549  19.515  1.00  0.00     0.000 C 
BRANCH  22  23
ATOM     23  C   UNL     1     -13.502 -21.197  18.937  1.00  0.00     0.000 C 
BRANCH  23  24
ATOM     24  C   UNL     1     -12.385 -20.144  18.802  1.00  0.00    -0.000 C 
BRANCH  24  25
ATOM     25  C   UNL     1     -12.825 -18.718  19.196  1.00  0.00    -0.000 C 
BRANCH  25  26
ATOM     26  C   UNL     1     -11.821 -18.038  20.146  1.00  0.00    -0.000 C 
BRANCH  26  27
ATOM     27  C   UNL     1     -11.629 -18.822  21.459  1.00  0.00    -0.000 C 
BRANCH  27  28
ATOM     28  C   UNL     1     -12.918 -18.977  22.290  1.00  0.00    -0.000 C 
BRANCH  28  29
ATOM     29  C   UNL     1     -12.643 -19.500  23.710  1.00  0.00    -0.000 C 
BRANCH  29  30
ATOM     30  C   UNL     1     -12.936 -18.448  24.793  1.00  0.00    -0.000 C 
BRANCH  30  31
ATOM     31  C   UNL     1     -12.333 -18.814  26.158  1.00  0.00    -0.003 C 
ATOM     32  C   UNL     1     -13.386 -18.738  27.260  1.00  0.00     0.004 C 
ENDBRANCH  30  31
ENDBRANCH  29  30
ENDBRANCH  28  29
ENDBRANCH  27  28
ENDBRANCH  26  27
ENDBRANCH  25  26
ENDBRANCH  24  25
ENDBRANCH  23  24
ENDBRANCH  22  23
ENDBRANCH  21  22
ENDBRANCH  20  21
ENDBRANCH  19  20
ENDBRANCH  18  19
ENDBRANCH   1  18
TORSDOF 28
ENDMDL
MODEL 6
REMARK VINA RESULT:    -3.601      2.665      8.517
REMARK INTER + INTRA:         -12.929
REMARK INTER:                  -6.697
REMARK INTRA:                  -6.231
REMARK UNBOUND:                -3.432
REMARK SMILES CCCCCCCCCCCCCCCCCCCCCCCCCCCCCC(=O)[O-]
REMARK SMILES IDX 16 1 17 2 18 3 19 4 20 5 21 6 22 7 23 8 24 9 25 10 26 11
REMARK SMILES IDX 27 12 28 13 29 14 30 15 31 16 32 17 15 18 14 19 13 20 12 21
REMARK SMILES IDX 11 22 10 23 9 24 8 25 7 26 6 27 5 28 4 29 3 30 2 31 1 32
REMARK H PARENT
REMARK Flexibility Score: inf
ROOT
ATOM      1  C   UNL     1     -13.874 -21.437  23.785  1.00  0.00     0.000 C 
ENDROOT
BRANCH   1   2
ATOM      2  C   UNL     1     -12.449 -21.662  23.240  1.00  0.00     0.000 C 
BRANCH   2   3
ATOM      3  C   UNL     1     -11.314 -21.465  24.265  1.00  0.00     0.000 C 
BRANCH   3   4
ATOM      4  C   UNL     1     -11.782 -21.654  25.719  1.00  0.00     0.000 C 
BRANCH   4   5
ATOM      5  C   UNL     1     -10.965 -20.817  26.724  1.00  0.00     0.000 C 
BRANCH   5   6
ATOM      6  C   UNL     1     -11.731 -19.621  27.327  1.00  0.00     0.000 C 
BRANCH   6   7
ATOM      7  C   UNL     1     -13.089 -19.300  26.673  1.00  0.00     0.000 C 
BRANCH   7   8
ATOM      8  C   UNL     1     -13.093 -18.074  25.740  1.00  0.00     0.000 C 
BRANCH   8   9
ATOM      9  C   UNL     1     -11.682 -17.573  25.398  1.00  0.00     0.000 C 
BRANCH   9  10
ATOM     10  C   UNL     1     -11.400 -17.701  23.897  1.00  0.00     0.000 C 
BRANCH  10  11
ATOM     11  C   UNL     1     -12.690 -18.008  23.121  1.00  0.00     0.000 C 
BRANCH  11  12
ATOM     12  C   UNL     1     -12.577 -17.692  21.621  1.00  0.00     0.000 C 
BRANCH  12  13
ATOM     13  C   UNL     1     -13.085 -18.839  20.734  1.00  0.00     0.006 C 
BRANCH  13  14
ATOM     14  C   UNL     1     -11.924 -19.564  20.047  1.00  0.00     0.053 C 
BRANCH  14  15
ATOM     15  C   UNL     1     -11.953 -19.313  18.572  1.00  0.00     0.041 C 
ATOM     16  O   UNL     1     -11.685 -20.245  17.765  1.00  0.00    -0.550 OA
ATOM     17  O   UNL     1     -12.200 -18.034  18.090  1.00  0.00    -0.550 OA
ENDBRANCH  14  15
ENDBRANCH  13  14
ENDBRANCH  12  13
ENDBRANCH  11  12
ENDBRANCH  10  11
ENDBRANCH   9  10
ENDBRANCH   8   9
ENDBRANCH   7   8
ENDBRANCH   6   7
ENDBRANCH   5   6
ENDBRANCH   4   5
ENDBRANCH   3   4
ENDBRANCH   2   3
ENDBRANCH   1   2
BRANCH   1  18
ATOM     18  C   UNL     1     -14.876 -22.498  23.299  1.00  0.00     0.000 C 
BRANCH  18  19
ATOM     19  C   UNL     1     -14.245 -23.892  23.126  1.00  0.00     0.000 C 
BRANCH  19  20
ATOM     20  C   UNL     1     -14.632 -24.934  24.197  1.00  0.00     0.000 C 
BRANCH  20  21
ATOM     21  C   UNL     1     -13.980 -24.738  25.578  1.00  0.00     0.000 C 
BRANCH  21  22
ATOM     22  C   UNL     1     -14.848 -25.268  26.732  1.00  0.00     0.000 C 
BRANCH  22  23
ATOM     23  C   UNL     1     -15.326 -24.150  27.672  1.00  0.00     0.000 C 
BRANCH  23  24
ATOM     24  C   UNL     1     -14.768 -22.749  27.354  1.00  0.00    -0.000 C 
BRANCH  24  25
ATOM     25  C   UNL     1     -15.824 -21.626  27.431  1.00  0.00    -0.000 C 
BRANCH  25  26
ATOM     26  C   UNL     1     -17.252 -22.149  27.187  1.00  0.00    -0.000 C 
BRANCH  26  27
ATOM     27  C   UNL     1     -17.634 -22.142  25.694  1.00  0.00    -0.000 C 
BRANCH  27  28
ATOM     28  C   UNL     1     -18.008 -23.530  25.137  1.00  0.00    -0.000 C 
BRANCH  28  29
ATOM     29  C   UNL     1     -18.787 -24.382  26.153  1.00  0.00    -0.000 C 
BRANCH  29  30
ATOM     30  C   UNL     1     -18.462 -25.880  26.041  1.00  0.00    -0.000 C 
BRANCH  30  31
ATOM     31  C   UNL     1     -18.019 -26.289  24.628  1.00  0.00    -0.003 C 
ATOM     32  C   UNL     1     -17.260 -27.613  24.654  1.00  0.00     0.004 C 
ENDBRANCH  30  31
ENDBRANCH  29  30
ENDBRANCH  28  29
ENDBRANCH  27  28
ENDBRANCH  26  27
ENDBRANCH  25  26
ENDBRANCH  24  25
ENDBRANCH  23  24
ENDBRANCH  22  23
ENDBRANCH  21  22
ENDBRANCH  20  21
ENDBRANCH  19  20
ENDBRANCH  18  19
ENDBRANCH   1  18
TORSDOF 28
ENDMDL
MODEL 7
REMARK VINA RESULT:    -3.542      2.367      8.678
REMARK INTER + INTRA:         -12.773
REMARK INTER:                  -7.687
REMARK INTRA:                  -5.085
REMARK UNBOUND:                -3.432
REMARK SMILES CCCCCCCCCCCCCCCCCCCCCCCCCCCCCC(=O)[O-]
REMARK SMILES IDX 16 1 17 2 18 3 19 4 20 5 21 6 22 7 23 8 24 9 25 10 26 11
REMARK SMILES IDX 27 12 28 13 29 14 30 15 31 16 32 17 15 18 14 19 13 20 12 21
REMARK SMILES IDX 11 22 10 23 9 24 8 25 7 26 6 27 5 28 4 29 3 30 2 31 1 32
REMARK H PARENT
REMARK Flexibility Score: inf
ROOT
ATOM      1  C   UNL     1     -11.978 -20.997  18.616  1.00  0.00     0.000 C 
ENDROOT
BRANCH   1   2
ATOM      2  C   UNL     1     -11.524 -19.648  18.023  1.00  0.00     0.000 C 
BRANCH   2   3
ATOM      3  C   UNL     1     -12.347 -18.423  18.469  1.00  0.00     0.000 C 
BRANCH   3   4
ATOM      4  C   UNL     1     -11.548 -17.461  19.365  1.00  0.00     0.000 C 
BRANCH   4   5
ATOM      5  C   UNL     1     -11.331 -18.012  20.790  1.00  0.00     0.000 C 
BRANCH   5   6
ATOM      6  C   UNL     1     -12.556 -17.875  21.717  1.00  0.00     0.000 C 
BRANCH   6   7
ATOM      7  C   UNL     1     -12.593 -18.836  22.921  1.00  0.00     0.000 C 
BRANCH   7   8
ATOM      8  C   UNL     1     -11.327 -19.693  23.116  1.00  0.00     0.000 C 
BRANCH   8   9
ATOM      9  C   UNL     1     -11.296 -20.421  24.469  1.00  0.00     0.000 C 
BRANCH   9  10
ATOM     10  C   UNL     1     -12.683 -20.963  24.834  1.00  0.00     0.000 C 
BRANCH  10  11
ATOM     11  C   UNL     1     -12.603 -21.903  26.046  1.00  0.00     0.000 C 
BRANCH  11  12
ATOM     12  C   UNL     1     -13.490 -21.448  27.216  1.00  0.00     0.000 C 
BRANCH  12  13
ATOM     13  C   UNL     1     -14.308 -20.190  26.886  1.00  0.00     0.006 C 
BRANCH  13  14
ATOM     14  C   UNL     1     -13.961 -19.038  27.832  1.00  0.00     0.053 C 
BRANCH  14  15
ATOM     15  C   UNL     1     -13.699 -17.786  27.056  1.00  0.00     0.041 C 
ATOM     16  O   UNL     1     -14.539 -16.845  27.067  1.00  0.00    -0.550 OA
ATOM     17  O   UNL     1     -12.565 -17.688  26.259  1.00  0.00    -0.550 OA
ENDBRANCH  14  15
ENDBRANCH  13  14
ENDBRANCH  12  13
ENDBRANCH  11  12
ENDBRANCH  10  11
ENDBRANCH   9  10
ENDBRANCH   8   9
ENDBRANCH   7   8
ENDBRANCH   6   7
ENDBRANCH   5   6
ENDBRANCH   4   5
ENDBRANCH   3   4
ENDBRANCH   2   3
ENDBRANCH   1   2
BRANCH   1  18
ATOM     18  C   UNL     1     -13.431 -20.973  19.118  1.00  0.00     0.000 C 
BRANCH  18  19
ATOM     19  C   UNL     1     -13.569 -21.399  20.592  1.00  0.00     0.000 C 
BRANCH  19  20
ATOM     20  C   UNL     1     -12.564 -22.467  21.072  1.00  0.00     0.000 C 
BRANCH  20  21
ATOM     21  C   UNL     1     -12.858 -23.907  20.613  1.00  0.00     0.000 C 
BRANCH  21  22
ATOM     22  C   UNL     1     -13.058 -24.883  21.784  1.00  0.00     0.000 C 
BRANCH  22  23
ATOM     23  C   UNL     1     -13.338 -24.161  23.113  1.00  0.00     0.000 C 
BRANCH  23  24
ATOM     24  C   UNL     1     -14.799 -24.234  23.598  1.00  0.00    -0.000 C 
BRANCH  24  25
ATOM     25  C   UNL     1     -15.460 -22.853  23.789  1.00  0.00    -0.000 C 
BRANCH  25  26
ATOM     26  C   UNL     1     -16.933 -22.965  24.223  1.00  0.00    -0.000 C 
BRANCH  26  27
ATOM     27  C   UNL     1     -17.245 -22.120  25.474  1.00  0.00    -0.000 C 
BRANCH  27  28
ATOM     28  C   UNL     1     -18.240 -22.784  26.445  1.00  0.00    -0.000 C 
BRANCH  28  29
ATOM     29  C   UNL     1     -17.549 -23.374  27.686  1.00  0.00    -0.000 C 
BRANCH  29  30
ATOM     30  C   UNL     1     -17.682 -24.904  27.765  1.00  0.00    -0.000 C 
BRANCH  30  31
ATOM     31  C   UNL     1     -16.429 -25.638  27.262  1.00  0.00    -0.003 C 
ATOM     32  C   UNL     1     -15.213 -24.718  27.275  1.00  0.00     0.004 C 
ENDBRANCH  30  31
ENDBRANCH  29  30
ENDBRANCH  28  29
ENDBRANCH  27  28
ENDBRANCH  26  27
ENDBRANCH  25  26
ENDBRANCH  24  25
ENDBRANCH  23  24
ENDBRANCH  22  23
ENDBRANCH  21  22
ENDBRANCH  20  21
ENDBRANCH  19  20
ENDBRANCH  18  19
ENDBRANCH   1  18
TORSDOF 28
ENDMDL
MODEL 8
REMARK VINA RESULT:    -3.510      3.124      5.830
REMARK INTER + INTRA:         -12.687
REMARK INTER:                  -6.952
REMARK INTRA:                  -5.735
REMARK UNBOUND:                -3.432
REMARK SMILES CCCCCCCCCCCCCCCCCCCCCCCCCCCCCC(=O)[O-]
REMARK SMILES IDX 16 1 17 2 18 3 19 4 20 5 21 6 22 7 23 8 24 9 25 10 26 11
REMARK SMILES IDX 27 12 28 13 29 14 30 15 31 16 32 17 15 18 14 19 13 20 12 21
REMARK SMILES IDX 11 22 10 23 9 24 8 25 7 26 6 27 5 28 4 29 3 30 2 31 1 32
REMARK H PARENT
REMARK Flexibility Score: inf
ROOT
ATOM      1  C   UNL     1     -18.762 -23.278  26.238  1.00  0.00     0.000 C 
ENDROOT
BRANCH   1   2
ATOM      2  C   UNL     1     -18.195 -24.008  25.004  1.00  0.00     0.000 C 
BRANCH   2   3
ATOM      3  C   UNL     1     -17.567 -25.387  25.285  1.00  0.00     0.000 C 
BRANCH   3   4
ATOM      4  C   UNL     1     -17.137 -26.121  24.003  1.00  0.00     0.000 C 
BRANCH   4   5
ATOM      5  C   UNL     1     -15.604 -26.208  23.849  1.00  0.00     0.000 C 
BRANCH   5   6
ATOM      6  C   UNL     1     -14.814 -25.346  24.856  1.00  0.00     0.000 C 
BRANCH   6   7
ATOM      7  C   UNL     1     -14.067 -24.138  24.259  1.00  0.00     0.000 C 
BRANCH   7   8
ATOM      8  C   UNL     1     -14.912 -23.229  23.346  1.00  0.00     0.000 C 
BRANCH   8   9
ATOM      9  C   UNL     1     -14.412 -21.777  23.314  1.00  0.00     0.000 C 
BRANCH   9  10
ATOM     10  C   UNL     1     -13.726 -21.461  21.980  1.00  0.00     0.000 C 
BRANCH  10  11
ATOM     11  C   UNL     1     -12.198 -21.526  22.119  1.00  0.00     0.000 C 
BRANCH  11  12
ATOM     12  C   UNL     1     -11.577 -22.710  21.361  1.00  0.00     0.000 C 
BRANCH  12  13
ATOM     13  C   UNL     1     -12.574 -23.397  20.415  1.00  0.00     0.006 C 
BRANCH  13  14
ATOM     14  C   UNL     1     -12.815 -24.852  20.825  1.00  0.00     0.053 C 
BRANCH  14  15
ATOM     15  C   UNL     1     -12.223 -25.784  19.815  1.00  0.00     0.041 C 
ATOM     16  O   UNL     1     -11.018 -25.656  19.463  1.00  0.00    -0.550 OA
ATOM     17  O   UNL     1     -13.020 -26.743  19.205  1.00  0.00    -0.550 OA
ENDBRANCH  14  15
ENDBRANCH  13  14
ENDBRANCH  12  13
ENDBRANCH  11  12
ENDBRANCH  10  11
ENDBRANCH   9  10
ENDBRANCH   8   9
ENDBRANCH   7   8
ENDBRANCH   6   7
ENDBRANCH   5   6
ENDBRANCH   4   5
ENDBRANCH   3   4
ENDBRANCH   2   3
ENDBRANCH   1   2
BRANCH   1  18
ATOM     18  C   UNL     1     -18.012 -21.975  26.561  1.00  0.00     0.000 C 
BRANCH  18  19
ATOM     19  C   UNL     1     -16.485 -22.099  26.398  1.00  0.00     0.000 C 
BRANCH  19  20
ATOM     20  C   UNL     1     -15.751 -22.826  27.544  1.00  0.00     0.000 C 
BRANCH  20  21
ATOM     21  C   UNL     1     -14.233 -22.582  27.617  1.00  0.00     0.000 C 
BRANCH  21  22
ATOM     22  C   UNL     1     -13.794 -21.299  26.890  1.00  0.00     0.000 C 
BRANCH  22  23
ATOM     23  C   UNL     1     -12.365 -21.396  26.332  1.00  0.00     0.000 C 
BRANCH  23  24
ATOM     24  C   UNL     1     -11.881 -20.150  25.564  1.00  0.00    -0.000 C 
BRANCH  24  25
ATOM     25  C   UNL     1     -12.908 -18.998  25.539  1.00  0.00    -0.000 C 
BRANCH  25  26
ATOM     26  C   UNL     1     -12.858 -18.199  24.224  1.00  0.00    -0.000 C 
BRANCH  26  27
ATOM     27  C   UNL     1     -11.418 -17.987  23.717  1.00  0.00    -0.000 C 
BRANCH  27  28
ATOM     28  C   UNL     1     -11.333 -17.329  22.327  1.00  0.00    -0.000 C 
BRANCH  28  29
ATOM     29  C   UNL     1     -12.406 -17.857  21.359  1.00  0.00    -0.000 C 
BRANCH  29  30
ATOM     30  C   UNL     1     -11.806 -18.413  20.058  1.00  0.00    -0.000 C 
BRANCH  30  31
ATOM     31  C   UNL     1     -12.826 -19.198  19.218  1.00  0.00    -0.003 C 
ATOM     32  C   UNL     1     -12.141 -20.298  18.413  1.00  0.00     0.004 C 
ENDBRANCH  30  31
ENDBRANCH  29  30
ENDBRANCH  28  29
ENDBRANCH  27  28
ENDBRANCH  26  27
ENDBRANCH  25  26
ENDBRANCH  24  25
ENDBRANCH  23  24
ENDBRANCH  22  23
ENDBRANCH  21  22
ENDBRANCH  20  21
ENDBRANCH  19  20
ENDBRANCH  18  19
ENDBRANCH   1  18
TORSDOF 28
ENDMDL
MODEL 9
REMARK VINA RESULT:    -3.501      2.646      7.579
REMARK INTER + INTRA:         -12.665
REMARK INTER:                  -7.105
REMARK INTRA:                  -5.561
REMARK UNBOUND:                -3.432
REMARK SMILES CCCCCCCCCCCCCCCCCCCCCCCCCCCCCC(=O)[O-]
REMARK SMILES IDX 16 1 17 2 18 3 19 4 20 5 21 6 22 7 23 8 24 9 25 10 26 11
REMARK SMILES IDX 27 12 28 13 29 14 30 15 31 16 32 17 15 18 14 19 13 20 12 21
REMARK SMILES IDX 11 22 10 23 9 24 8 25 7 26 6 27 5 28 4 29 3 30 2 31 1 32
REMARK H PARENT
REMARK Flexibility Score: inf
ROOT
ATOM      1  C   UNL     1     -17.078 -24.269  24.075  1.00  0.00     0.000 C 
ENDROOT
BRANCH   1   2
ATOM      2  C   UNL     1     -16.401 -22.961  23.621  1.00  0.00     0.000 C 
BRANCH   2   3
ATOM      3  C   UNL     1     -14.914 -23.089  23.234  1.00  0.00     0.000 C 
BRANCH   3   4
ATOM      4  C   UNL     1     -14.241 -21.727  22.986  1.00  0.00     0.000 C 
BRANCH   4   5
ATOM      5  C   UNL     1     -12.704 -21.828  22.890  1.00  0.00     0.000 C 
BRANCH   5   6
ATOM      6  C   UNL     1     -11.947 -21.076  24.003  1.00  0.00     0.000 C 
BRANCH   6   7
ATOM      7  C   UNL     1     -12.823 -20.484  25.125  1.00  0.00     0.000 C 
BRANCH   7   8
ATOM      8  C   UNL     1     -12.586 -18.991  25.424  1.00  0.00     0.000 C 
BRANCH   8   9
ATOM      9  C   UNL     1     -12.743 -18.098  24.183  1.00  0.00     0.000 C 
BRANCH   9  10
ATOM     10  C   UNL     1     -11.394 -17.507  23.757  1.00  0.00     0.000 C 
BRANCH  10  11
ATOM     11  C   UNL     1     -11.366 -17.237  22.245  1.00  0.00     0.000 C 
BRANCH  11  12
ATOM     12  C   UNL     1     -11.580 -18.506  21.405  1.00  0.00     0.000 C 
BRANCH  12  13
ATOM     13  C   UNL     1     -12.858 -18.445  20.554  1.00  0.00     0.006 C 
BRANCH  13  14
ATOM     14  C   UNL     1     -12.604 -18.961  19.135  1.00  0.00     0.053 C 
BRANCH  14  15
ATOM     15  C   UNL     1     -12.703 -20.454  19.098  1.00  0.00     0.041 C 
ATOM     16  O   UNL     1     -11.705 -21.148  18.762  1.00  0.00    -0.550 OA
ATOM     17  O   UNL     1     -13.918 -21.075  19.359  1.00  0.00    -0.550 OA
ENDBRANCH  14  15
ENDBRANCH  13  14
ENDBRANCH  12  13
ENDBRANCH  11  12
ENDBRANCH  10  11
ENDBRANCH   9  10
ENDBRANCH   8   9
ENDBRANCH   7   8
ENDBRANCH   6   7
ENDBRANCH   5   6
ENDBRANCH   4   5
ENDBRANCH   3   4
ENDBRANCH   2   3
ENDBRANCH   1   2
BRANCH   1  18
ATOM     18  C   UNL     1     -18.494 -24.050  24.633  1.00  0.00     0.000 C 
BRANCH  18  19
ATOM     19  C   UNL     1     -18.520 -23.851  26.160  1.00  0.00     0.000 C 
BRANCH  19  20
ATOM     20  C   UNL     1     -18.439 -22.388  26.641  1.00  0.00     0.000 C 
BRANCH  20  21
ATOM     21  C   UNL     1     -17.616 -22.156  27.921  1.00  0.00     0.000 C 
BRANCH  21  22
ATOM     22  C   UNL     1     -16.335 -21.342  27.672  1.00  0.00     0.000 C 
BRANCH  22  23
ATOM     23  C   UNL     1     -15.305 -22.107  26.825  1.00  0.00     0.000 C 
BRANCH  23  24
ATOM     24  C   UNL     1     -14.538 -23.213  27.576  1.00  0.00    -0.000 C 
BRANCH  24  25
ATOM     25  C   UNL     1     -14.825 -24.636  27.050  1.00  0.00    -0.000 C 
BRANCH  25  26
ATOM     26  C   UNL     1     -13.869 -25.042  25.914  1.00  0.00    -0.000 C 
BRANCH  26  27
ATOM     27  C   UNL     1     -12.546 -24.252  25.946  1.00  0.00    -0.000 C 
BRANCH  27  28
ATOM     28  C   UNL     1     -11.488 -24.762  24.948  1.00  0.00    -0.000 C 
BRANCH  28  29
ATOM     29  C   UNL     1     -12.086 -25.693  23.880  1.00  0.00    -0.000 C 
BRANCH  29  30
ATOM     30  C   UNL     1     -11.693 -25.283  22.451  1.00  0.00    -0.000 C 
BRANCH  30  31
ATOM     31  C   UNL     1     -12.853 -25.416  21.452  1.00  0.00    -0.003 C 
ATOM     32  C   UNL     1     -12.708 -24.415  20.310  1.00  0.00     0.004 C 
ENDBRANCH  30  31
ENDBRANCH  29  30
ENDBRANCH  28  29
ENDBRANCH  27  28
ENDBRANCH  26  27
ENDBRANCH  25  26
ENDBRANCH  24  25
ENDBRANCH  23  24
ENDBRANCH  22  23
ENDBRANCH  21  22
ENDBRANCH  20  21
ENDBRANCH  19  20
ENDBRANCH  18  19
ENDBRANCH   1  18
TORSDOF 28
ENDMDL
