MODEL 1
REMARK VINA RESULT:    -3.305      0.000      0.000
REMARK INTER + INTRA:         -10.389
REMARK INTER:                  -7.169
REMARK INTRA:                  -3.220
REMARK UNBOUND:                -3.220
REMARK SMILES CCCCCCCCCCCCCCCCCCCCCC(=O)[O-]
REMARK SMILES IDX 12 1 11 2 10 3 9 4 8 5 7 6 6 7 5 8 4 9 3 10 2 11 1 12 13 13
REMARK SMILES IDX 14 14 15 15 16 16 17 17 18 18 19 19 20 20 21 21 22 22 23 23
REMARK SMILES IDX 24 24
REMARK H PARENT
REMARK Flexibility Score: inf
ROOT
ATOM      1  C   UNL     1       8.625  -0.273  -6.530  1.00  0.00     0.000 C 
ENDROOT
BRANCH   1   2
ATOM      2  C   UNL     1       7.530  -0.780  -5.571  1.00  0.00     0.000 C 
BRANCH   2   3
ATOM      3  C   UNL     1       6.361  -1.513  -6.255  1.00  0.00     0.000 C 
BRANCH   3   4
ATOM      4  C   UNL     1       6.400  -1.397  -7.786  1.00  0.00    -0.000 C 
BRANCH   4   5
ATOM      5  C   UNL     1       4.986  -1.493  -8.381  1.00  0.00    -0.000 C 
BRANCH   5   6
ATOM      6  C   UNL     1       4.802  -0.599  -9.617  1.00  0.00    -0.000 C 
BRANCH   6   7
ATOM      7  C   UNL     1       5.683   0.660  -9.576  1.00  0.00    -0.000 C 
BRANCH   7   8
ATOM      8  C   UNL     1       4.869   1.944  -9.300  1.00  0.00    -0.000 C 
BRANCH   8   9
ATOM      9  C   UNL     1       5.593   2.953  -8.391  1.00  0.00    -0.000 C 
BRANCH   9  10
ATOM     10  C   UNL     1       6.176   2.352  -7.100  1.00  0.00    -0.000 C 
BRANCH  10  11
ATOM     11  C   UNL     1       5.107   2.004  -6.038  1.00  0.00    -0.003 C 
ATOM     12  C   UNL     1       4.258   3.206  -5.628  1.00  0.00     0.004 C 
ENDBRANCH  10  11
ENDBRANCH   9  10
ENDBRANCH   8   9
ENDBRANCH   7   8
ENDBRANCH   6   7
ENDBRANCH   5   6
ENDBRANCH   4   5
ENDBRANCH   3   4
ENDBRANCH   2   3
ENDBRANCH   1   2
BRANCH   1  13
ATOM     13  C   UNL     1       9.478   0.895  -5.994  1.00  0.00     0.000 C 
BRANCH  13  14
ATOM     14  C   UNL     1       9.958   1.900  -7.058  1.00  0.00     0.000 C 
BRANCH  14  15
ATOM     15  C   UNL     1       9.672   3.360  -6.673  1.00  0.00     0.000 C 
BRANCH  15  16
ATOM     16  C   UNL     1       9.688   4.310  -7.882  1.00  0.00     0.000 C 
BRANCH  16  17
ATOM     17  C   UNL     1       8.625   5.427  -7.807  1.00  0.00     0.000 C 
BRANCH  17  18
ATOM     18  C   UNL     1       8.071   5.604  -6.383  1.00  0.00     0.000 C 
BRANCH  18  19
ATOM     19  C   UNL     1       6.589   6.010  -6.372  1.00  0.00     0.000 C 
BRANCH  19  20
ATOM     20  C   UNL     1       6.260   7.013  -5.251  1.00  0.00     0.006 C 
BRANCH  20  21
ATOM     21  C   UNL     1       6.464   6.409  -3.855  1.00  0.00     0.053 C 
BRANCH  21  22
ATOM     22  C   UNL     1       6.348   7.446  -2.781  1.00  0.00     0.041 C 
ATOM     23  O   UNL     1       6.109   8.645  -3.079  1.00  0.00    -0.550 OA
ATOM     24  O   UNL     1       6.547   7.095  -1.450  1.00  0.00    -0.550 OA
ENDBRANCH  21  22
ENDBRANCH  20  21
ENDBRANCH  19  20
ENDBRANCH  18  19
ENDBRANCH  17  18
ENDBRANCH  16  17
ENDBRANCH  15  16
ENDBRANCH  14  15
ENDBRANCH  13  14
ENDBRANCH   1  13
TORSDOF 20
ENDMDL
MODEL 2
REMARK VINA RESULT:    -3.262      3.685      7.431
REMARK INTER + INTRA:         -10.296
REMARK INTER:                  -6.676
REMARK INTRA:                  -3.620
REMARK UNBOUND:                -3.220
REMARK SMILES CCCCCCCCCCCCCCCCCCCCCC(=O)[O-]
REMARK SMILES IDX 12 1 11 2 10 3 9 4 8 5 7 6 6 7 5 8 4 9 3 10 2 11 1 12 13 13
REMARK SMILES IDX 14 14 15 15 16 16 17 17 18 18 19 19 20 20 21 21 22 22 23 23
REMARK SMILES IDX 24 24
REMARK H PARENT
REMARK Flexibility Score: inf
ROOT
ATOM      1  C   UNL     1       4.671   3.493  -6.839  1.00  0.00     0.000 C 
ENDROOT
BRANCH   1   2
ATOM      2  C   UNL     1       5.629   4.560  -6.272  1.00  0.00     0.000 C 
BRANCH   2   3
ATOM      3  C   UNL     1       5.947   5.720  -7.233  1.00  0.00     0.000 C 
BRANCH   3   4
ATOM      4  C   UNL     1       7.430   5.775  -7.629  1.00  0.00    -0.000 C 
BRANCH   4   5
ATOM      5  C   UNL     1       8.329   5.374  -6.449  1.00  0.00    -0.000 C 
BRANCH   5   6
ATOM      6  C   UNL     1       9.247   6.517  -5.989  1.00  0.00    -0.000 C 
BRANCH   6   7
ATOM      7  C   UNL     1       8.601   7.397  -4.908  1.00  0.00    -0.000 C 
BRANCH   7   8
ATOM      8  C   UNL     1       8.041   6.572  -3.727  1.00  0.00    -0.000 C 
BRANCH   8   9
ATOM      9  C   UNL     1       6.537   6.788  -3.478  1.00  0.00    -0.000 C 
BRANCH   9  10
ATOM     10  C   UNL     1       5.942   8.024  -4.175  1.00  0.00    -0.000 C 
BRANCH  10  11
ATOM     11  C   UNL     1       5.159   8.958  -3.224  1.00  0.00    -0.003 C 
ATOM     12  C   UNL     1       5.746   9.003  -1.813  1.00  0.00     0.004 C 
ENDBRANCH  10  11
ENDBRANCH   9  10
ENDBRANCH   8   9
ENDBRANCH   7   8
ENDBRANCH   6   7
ENDBRANCH   5   6
ENDBRANCH   4   5
ENDBRANCH   3   4
ENDBRANCH   2   3
ENDBRANCH   1   2
BRANCH   1  13
ATOM     13  C   UNL     1       4.308   3.662  -8.329  1.00  0.00     0.000 C 
BRANCH  13  14
ATOM     14  C   UNL     1       4.937   2.626  -9.279  1.00  0.00     0.000 C 
BRANCH  14  15
ATOM     15  C   UNL     1       6.099   3.200 -10.105  1.00  0.00     0.000 C 
BRANCH  15  16
ATOM     16  C   UNL     1       7.477   2.785  -9.562  1.00  0.00     0.000 C 
BRANCH  16  17
ATOM     17  C   UNL     1       7.454   1.473  -8.748  1.00  0.00     0.000 C 
BRANCH  17  18
ATOM     18  C   UNL     1       7.876   1.692  -7.285  1.00  0.00     0.000 C 
BRANCH  18  19
ATOM     19  C   UNL     1       7.470   0.525  -6.372  1.00  0.00     0.000 C 
BRANCH  19  20
ATOM     20  C   UNL     1       6.003   0.102  -6.571  1.00  0.00     0.006 C 
BRANCH  20  21
ATOM     21  C   UNL     1       5.871  -1.389  -6.911  1.00  0.00     0.053 C 
BRANCH  21  22
ATOM     22  C   UNL     1       5.657  -1.605  -8.377  1.00  0.00     0.041 C 
ATOM     23  O   UNL     1       6.526  -2.201  -9.065  1.00  0.00    -0.550 OA
ATOM     24  O   UNL     1       4.514  -1.110  -8.994  1.00  0.00    -0.550 OA
ENDBRANCH  21  22
ENDBRANCH  20  21
ENDBRANCH  19  20
ENDBRANCH  18  19
ENDBRANCH  17  18
ENDBRANCH  16  17
ENDBRANCH  15  16
ENDBRANCH  14  15
ENDBRANCH  13  14
ENDBRANCH   1  13
TORSDOF 20
ENDMDL
MODEL 3
REMARK VINA RESULT:    -3.182      1.635      4.338
REMARK INTER + INTRA:         -10.121
REMARK INTER:                  -7.249
REMARK INTRA:                  -2.873
REMARK UNBOUND:                -3.220
REMARK SMILES CCCCCCCCCCCCCCCCCCCCCC(=O)[O-]
REMARK SMILES IDX 12 1 11 2 10 3 9 4 8 5 7 6 6 7 5 8 4 9 3 10 2 11 1 12 13 13
REMARK SMILES IDX 14 14 15 15 16 16 17 17 18 18 19 19 20 20 21 21 22 22 23 23
REMARK SMILES IDX 24 24
REMARK H PARENT
REMARK Flexibility Score: inf
ROOT
ATOM      1  C   UNL     1       5.044   3.550  -6.438  1.00  0.00     0.000 C 
ENDROOT
BRANCH   1   2
ATOM      2  C   UNL     1       4.432   3.662  -7.848  1.00  0.00     0.000 C 
BRANCH   2   3
ATOM      3  C   UNL     1       4.937   2.616  -8.857  1.00  0.00     0.000 C 
BRANCH   3   4
ATOM      4  C   UNL     1       6.291   2.993  -9.477  1.00  0.00    -0.000 C 
BRANCH   4   5
ATOM      5  C   UNL     1       7.248   1.790  -9.481  1.00  0.00    -0.000 C 
BRANCH   5   6
ATOM      6  C   UNL     1       8.464   1.997  -8.565  1.00  0.00    -0.000 C 
BRANCH   6   7
ATOM      7  C   UNL     1       8.114   1.857  -7.075  1.00  0.00    -0.000 C 
BRANCH   7   8
ATOM      8  C   UNL     1       7.836   0.392  -6.667  1.00  0.00    -0.000 C 
BRANCH   8   9
ATOM      9  C   UNL     1       6.368   0.122  -6.292  1.00  0.00    -0.000 C 
BRANCH   9  10
ATOM     10  C   UNL     1       5.795  -1.194  -6.847  1.00  0.00    -0.000 C 
BRANCH  10  11
ATOM     11  C   UNL     1       5.282  -1.084  -8.301  1.00  0.00    -0.003 C 
ATOM     12  C   UNL     1       4.344  -2.226  -8.693  1.00  0.00     0.004 C 
ENDBRANCH  10  11
ENDBRANCH   9  10
ENDBRANCH   8   9
ENDBRANCH   7   8
ENDBRANCH   6   7
ENDBRANCH   5   6
ENDBRANCH   4   5
ENDBRANCH   3   4
ENDBRANCH   2   3
ENDBRANCH   1   2
BRANCH   1  13
ATOM     13  C   UNL     1       5.628   4.859  -5.869  1.00  0.00     0.000 C 
BRANCH  13  14
ATOM     14  C   UNL     1       6.770   5.482  -6.693  1.00  0.00     0.000 C 
BRANCH  14  15
ATOM     15  C   UNL     1       6.378   6.820  -7.340  1.00  0.00     0.000 C 
BRANCH  15  16
ATOM     16  C   UNL     1       7.077   8.025  -6.688  1.00  0.00     0.000 C 
BRANCH  16  17
ATOM     17  C   UNL     1       6.116   8.960  -5.923  1.00  0.00     0.000 C 
BRANCH  17  18
ATOM     18  C   UNL     1       6.455   9.037  -4.425  1.00  0.00     0.000 C 
BRANCH  18  19
ATOM     19  C   UNL     1       5.653   8.030  -3.585  1.00  0.00     0.000 C 
BRANCH  19  20
ATOM     20  C   UNL     1       6.557   7.047  -2.819  1.00  0.00     0.006 C 
BRANCH  20  21
ATOM     21  C   UNL     1       7.445   7.759  -1.790  1.00  0.00     0.053 C 
BRANCH  21  22
ATOM     22  C   UNL     1       6.786   7.834  -0.447  1.00  0.00     0.041 C 
ATOM     23  O   UNL     1       6.983   6.931   0.408  1.00  0.00    -0.550 OA
ATOM     24  O   UNL     1       5.919   8.879  -0.154  1.00  0.00    -0.550 OA
ENDBRANCH  21  22
ENDBRANCH  20  21
ENDBRANCH  19  20
ENDBRANCH  18  19
ENDBRANCH  17  18
ENDBRANCH  16  17
ENDBRANCH  15  16
ENDBRANCH  14  15
ENDBRANCH  13  14
ENDBRANCH   1  13
TORSDOF 20
ENDMDL
MODEL 4
REMARK VINA RESULT:    -3.161      1.797      4.690
REMARK INTER + INTRA:         -10.077
REMARK INTER:                  -7.295
REMARK INTRA:                  -2.782
REMARK UNBOUND:                -3.220
REMARK SMILES CCCCCCCCCCCCCCCCCCCCCC(=O)[O-]
REMARK SMILES IDX 12 1 11 2 10 3 9 4 8 5 7 6 6 7 5 8 4 9 3 10 2 11 1 12 13 13
REMARK SMILES IDX 14 14 15 15 16 16 17 17 18 18 19 19 20 20 21 21 22 22 23 23
REMARK SMILES IDX 24 24
REMARK H PARENT
REMARK Flexibility Score: inf
ROOT
ATOM      1  C   UNL     1       8.445   5.061  -6.708  1.00  0.00     0.000 C 
ENDROOT
BRANCH   1   2
ATOM      2  C   UNL     1       7.459   6.046  -7.368  1.00  0.00     0.000 C 
BRANCH   2   3
ATOM      3  C   UNL     1       5.972   5.688  -7.192  1.00  0.00     0.000 C 
BRANCH   3   4
ATOM      4  C   UNL     1       5.758   4.471  -6.279  1.00  0.00    -0.000 C 
BRANCH   4   5
ATOM      5  C   UNL     1       4.583   3.613  -6.774  1.00  0.00    -0.000 C 
BRANCH   5   6
ATOM      6  C   UNL     1       4.832   3.015  -8.168  1.00  0.00    -0.000 C 
BRANCH   6   7
ATOM      7  C   UNL     1       6.032   2.055  -8.195  1.00  0.00    -0.000 C 
BRANCH   7   8
ATOM      8  C   UNL     1       5.615   0.593  -8.470  1.00  0.00    -0.000 C 
BRANCH   8   9
ATOM      9  C   UNL     1       5.591  -0.291  -7.210  1.00  0.00    -0.000 C 
BRANCH   9  10
ATOM     10  C   UNL     1       6.342   0.293  -6.000  1.00  0.00    -0.000 C 
BRANCH  10  11
ATOM     11  C   UNL     1       7.676  -0.424  -5.691  1.00  0.00    -0.003 C 
ATOM     12  C   UNL     1       8.575  -0.570  -6.919  1.00  0.00     0.004 C 
ENDBRANCH  10  11
ENDBRANCH   9  10
ENDBRANCH   8   9
ENDBRANCH   7   8
ENDBRANCH   6   7
ENDBRANCH   5   6
ENDBRANCH   4   5
ENDBRANCH   3   4
ENDBRANCH   2   3
ENDBRANCH   1   2
BRANCH   1  13
ATOM     13  C   UNL     1       9.295   5.649  -5.564  1.00  0.00     0.000 C 
BRANCH  13  14
ATOM     14  C   UNL     1       9.332   7.188  -5.497  1.00  0.00     0.000 C 
BRANCH  14  15
ATOM     15  C   UNL     1       8.746   7.743  -4.189  1.00  0.00     0.000 C 
BRANCH  15  16
ATOM     16  C   UNL     1       7.977   6.683  -3.383  1.00  0.00     0.000 C 
BRANCH  16  17
ATOM     17  C   UNL     1       6.443   6.805  -3.504  1.00  0.00     0.000 C 
BRANCH  17  18
ATOM     18  C   UNL     1       6.010   8.196  -3.998  1.00  0.00     0.000 C 
BRANCH  18  19
ATOM     19  C   UNL     1       5.197   8.969  -2.948  1.00  0.00     0.000 C 
BRANCH  19  20
ATOM     20  C   UNL     1       6.087   9.622  -1.874  1.00  0.00     0.006 C 
BRANCH  20  21
ATOM     21  C   UNL     1       5.624   9.280  -0.451  1.00  0.00     0.053 C 
BRANCH  21  22
ATOM     22  C   UNL     1       6.639   8.456   0.279  1.00  0.00     0.041 C 
ATOM     23  O   UNL     1       7.362   8.978   1.167  1.00  0.00    -0.550 OA
ATOM     24  O   UNL     1       6.818   7.118  -0.053  1.00  0.00    -0.550 OA
ENDBRANCH  21  22
ENDBRANCH  20  21
ENDBRANCH  19  20
ENDBRANCH  18  19
ENDBRANCH  17  18
ENDBRANCH  16  17
ENDBRANCH  15  16
ENDBRANCH  14  15
ENDBRANCH  13  14
ENDBRANCH   1  13
TORSDOF 20
ENDMDL
MODEL 5
REMARK VINA RESULT:    -3.156      1.753      4.698
REMARK INTER + INTRA:         -10.065
REMARK INTER:                  -7.330
REMARK INTRA:                  -2.735
REMARK UNBOUND:                -3.220
REMARK SMILES CCCCCCCCCCCCCCCCCCCCCC(=O)[O-]
REMARK SMILES IDX 12 1 11 2 10 3 9 4 8 5 7 6 6 7 5 8 4 9 3 10 2 11 1 12 13 13
REMARK SMILES IDX 14 14 15 15 16 16 17 17 18 18 19 19 20 20 21 21 22 22 23 23
REMARK SMILES IDX 24 24
REMARK H PARENT
REMARK Flexibility Score: inf
ROOT
ATOM      1  C   UNL     1       9.104   5.559  -5.775  1.00  0.00     0.000 C 
ENDROOT
BRANCH   1   2
ATOM      2  C   UNL     1       9.786   4.221  -6.121  1.00  0.00     0.000 C 
BRANCH   2   3
ATOM      3  C   UNL     1       9.507   3.702  -7.543  1.00  0.00     0.000 C 
BRANCH   3   4
ATOM      4  C   UNL     1       9.595   2.171  -7.646  1.00  0.00    -0.000 C 
BRANCH   4   5
ATOM      5  C   UNL     1       9.613   1.527  -6.251  1.00  0.00    -0.000 C 
BRANCH   5   6
ATOM      6  C   UNL     1       8.580   0.398  -6.108  1.00  0.00    -0.000 C 
BRANCH   6   7
ATOM      7  C   UNL     1       7.986  -0.038  -7.457  1.00  0.00    -0.000 C 
BRANCH   7   8
ATOM      8  C   UNL     1       6.455   0.159  -7.522  1.00  0.00    -0.000 C 
BRANCH   8   9
ATOM      9  C   UNL     1       5.937   1.292  -6.618  1.00  0.00    -0.000 C 
BRANCH   9  10
ATOM     10  C   UNL     1       5.927   2.684  -7.274  1.00  0.00    -0.000 C 
BRANCH  10  11
ATOM     11  C   UNL     1       4.643   3.496  -6.988  1.00  0.00    -0.003 C 
ATOM     12  C   UNL     1       4.075   3.246  -5.591  1.00  0.00     0.004 C 
ENDBRANCH  10  11
ENDBRANCH   9  10
ENDBRANCH   8   9
ENDBRANCH   7   8
ENDBRANCH   6   7
ENDBRANCH   5   6
ENDBRANCH   4   5
ENDBRANCH   3   4
ENDBRANCH   2   3
ENDBRANCH   1   2
BRANCH   1  13
ATOM     13  C   UNL     1       7.752   5.808  -6.474  1.00  0.00     0.000 C 
BRANCH  13  14
ATOM     14  C   UNL     1       6.798   6.766  -5.738  1.00  0.00     0.000 C 
BRANCH  14  15
ATOM     15  C   UNL     1       6.224   6.164  -4.446  1.00  0.00     0.000 C 
BRANCH  15  16
ATOM     16  C   UNL     1       6.800   6.815  -3.177  1.00  0.00     0.000 C 
BRANCH  16  17
ATOM     17  C   UNL     1       7.330   8.247  -3.402  1.00  0.00     0.000 C 
BRANCH  17  18
ATOM     18  C   UNL     1       6.312   9.316  -2.968  1.00  0.00     0.000 C 
BRANCH  18  19
ATOM     19  C   UNL     1       5.644   8.985  -1.625  1.00  0.00     0.000 C 
BRANCH  19  20
ATOM     20  C   UNL     1       6.254   9.772  -0.451  1.00  0.00     0.006 C 
BRANCH  20  21
ATOM     21  C   UNL     1       6.459   8.894   0.791  1.00  0.00     0.053 C 
BRANCH  21  22
ATOM     22  C   UNL     1       7.341   7.720   0.499  1.00  0.00     0.041 C 
ATOM     23  O   UNL     1       6.981   6.558   0.824  1.00  0.00    -0.550 OA
ATOM     24  O   UNL     1       8.583   7.913  -0.094  1.00  0.00    -0.550 OA
ENDBRANCH  21  22
ENDBRANCH  20  21
ENDBRANCH  19  20
ENDBRANCH  18  19
ENDBRANCH  17  18
ENDBRANCH  16  17
ENDBRANCH  15  16
ENDBRANCH  14  15
ENDBRANCH  13  14
ENDBRANCH   1  13
TORSDOF 20
ENDMDL
MODEL 6
REMARK VINA RESULT:    -3.108      2.775      6.846
REMARK INTER + INTRA:          -9.963
REMARK INTER:                  -7.172
REMARK INTRA:                  -2.790
REMARK UNBOUND:                -3.220
REMARK SMILES CCCCCCCCCCCCCCCCCCCCCC(=O)[O-]
REMARK SMILES IDX 12 1 11 2 10 3 9 4 8 5 7 6 6 7 5 8 4 9 3 10 2 11 1 12 13 13
REMARK SMILES IDX 14 14 15 15 16 16 17 17 18 18 19 19 20 20 21 21 22 22 23 23
REMARK SMILES IDX 24 24
REMARK H PARENT
REMARK Flexibility Score: inf
ROOT
ATOM      1  C   UNL     1       4.879   2.233  -8.986  1.00  0.00     0.000 C 
ENDROOT
BRANCH   1   2
ATOM      2  C   UNL     1       4.479   3.567  -8.324  1.00  0.00     0.000 C 
BRANCH   2   3
ATOM      3  C   UNL     1       4.257   3.492  -6.803  1.00  0.00     0.000 C 
BRANCH   3   4
ATOM      4  C   UNL     1       5.322   4.261  -6.007  1.00  0.00    -0.000 C 
BRANCH   4   5
ATOM      5  C   UNL     1       5.986   5.339  -6.878  1.00  0.00    -0.000 C 
BRANCH   5   6
ATOM      6  C   UNL     1       7.178   6.013  -6.179  1.00  0.00    -0.000 C 
BRANCH   6   7
ATOM      7  C   UNL     1       6.742   7.027  -5.110  1.00  0.00    -0.000 C 
BRANCH   7   8
ATOM      8  C   UNL     1       7.304   6.691  -3.710  1.00  0.00    -0.000 C 
BRANCH   8   9
ATOM      9  C   UNL     1       6.421   7.189  -2.552  1.00  0.00    -0.000 C 
BRANCH   9  10
ATOM     10  C   UNL     1       5.594   8.448  -2.870  1.00  0.00    -0.000 C 
BRANCH  10  11
ATOM     11  C   UNL     1       5.398   9.386  -1.657  1.00  0.00    -0.003 C 
ATOM     12  C   UNL     1       6.219   8.967  -0.438  1.00  0.00     0.004 C 
ENDBRANCH  10  11
ENDBRANCH   9  10
ENDBRANCH   8   9
ENDBRANCH   7   8
ENDBRANCH   6   7
ENDBRANCH   5   6
ENDBRANCH   4   5
ENDBRANCH   3   4
ENDBRANCH   2   3
ENDBRANCH   1   2
BRANCH   1  13
ATOM     13  C   UNL     1       6.137   2.292  -9.876  1.00  0.00     0.000 C 
BRANCH  13  14
ATOM     14  C   UNL     1       7.175   3.357  -9.476  1.00  0.00     0.000 C 
BRANCH  14  15
ATOM     15  C   UNL     1       8.467   2.749  -8.906  1.00  0.00     0.000 C 
BRANCH  15  16
ATOM     16  C   UNL     1       8.461   2.670  -7.370  1.00  0.00     0.000 C 
BRANCH  16  17
ATOM     17  C   UNL     1       9.327   1.524  -6.806  1.00  0.00     0.000 C 
BRANCH  17  18
ATOM     18  C   UNL     1       9.530   0.394  -7.829  1.00  0.00     0.000 C 
BRANCH  18  19
ATOM     19  C   UNL     1       8.658  -0.836  -7.532  1.00  0.00     0.000 C 
BRANCH  19  20
ATOM     20  C   UNL     1       7.271  -0.752  -8.195  1.00  0.00     0.006 C 
BRANCH  20  21
ATOM     21  C   UNL     1       6.146  -1.179  -7.242  1.00  0.00     0.053 C 
BRANCH  21  22
ATOM     22  C   UNL     1       6.262  -0.503  -5.910  1.00  0.00     0.041 C 
ATOM     23  O   UNL     1       5.976   0.717  -5.791  1.00  0.00    -0.550 OA
ATOM     24  O   UNL     1       6.729  -1.210  -4.808  1.00  0.00    -0.550 OA
ENDBRANCH  21  22
ENDBRANCH  20  21
ENDBRANCH  19  20
ENDBRANCH  18  19
ENDBRANCH  17  18
ENDBRANCH  16  17
ENDBRANCH  15  16
ENDBRANCH  14  15
ENDBRANCH  13  14
ENDBRANCH   1  13
TORSDOF 20
ENDMDL
MODEL 7
REMARK VINA RESULT:    -3.105      3.583      8.263
REMARK INTER + INTRA:          -9.955
REMARK INTER:                  -7.884
REMARK INTRA:                  -2.070
REMARK UNBOUND:                -3.220
REMARK SMILES CCCCCCCCCCCCCCCCCCCCCC(=O)[O-]
REMARK SMILES IDX 12 1 11 2 10 3 9 4 8 5 7 6 6 7 5 8 4 9 3 10 2 11 1 12 13 13
REMARK SMILES IDX 14 14 15 15 16 16 17 17 18 18 19 19 20 20 21 21 22 22 23 23
REMARK SMILES IDX 24 24
REMARK H PARENT
REMARK Flexibility Score: inf
ROOT
ATOM      1  C   UNL     1       5.708   4.663  -6.487  1.00  0.00     0.000 C 
ENDROOT
BRANCH   1   2
ATOM      2  C   UNL     1       6.439   5.993  -6.758  1.00  0.00     0.000 C 
BRANCH   2   3
ATOM      3  C   UNL     1       6.411   6.995  -5.589  1.00  0.00     0.000 C 
BRANCH   3   4
ATOM      4  C   UNL     1       6.422   6.308  -4.215  1.00  0.00    -0.000 C 
BRANCH   4   5
ATOM      5  C   UNL     1       6.210   7.330  -3.088  1.00  0.00    -0.000 C 
BRANCH   5   6
ATOM      6  C   UNL     1       5.566   8.634  -3.584  1.00  0.00    -0.000 C 
BRANCH   6   7
ATOM      7  C   UNL     1       4.949   9.461  -2.446  1.00  0.00    -0.000 C 
BRANCH   7   8
ATOM      8  C   UNL     1       5.978   9.824  -1.351  1.00  0.00    -0.000 C 
BRANCH   8   9
ATOM      9  C   UNL     1       5.489   9.531   0.079  1.00  0.00    -0.000 C 
BRANCH   9  10
ATOM     10  C   UNL     1       6.561   8.950   1.019  1.00  0.00    -0.000 C 
BRANCH  10  11
ATOM     11  C   UNL     1       7.110   7.579   0.563  1.00  0.00    -0.003 C 
ATOM     12  C   UNL     1       8.579   7.632   0.144  1.00  0.00     0.004 C 
ENDBRANCH  10  11
ENDBRANCH   9  10
ENDBRANCH   8   9
ENDBRANCH   7   8
ENDBRANCH   6   7
ENDBRANCH   5   6
ENDBRANCH   4   5
ENDBRANCH   3   4
ENDBRANCH   2   3
ENDBRANCH   1   2
BRANCH   1  13
ATOM     13  C   UNL     1       5.987   3.541  -7.507  1.00  0.00     0.000 C 
BRANCH  13  14
ATOM     14  C   UNL     1       7.023   3.884  -8.595  1.00  0.00     0.000 C 
BRANCH  14  15
ATOM     15  C   UNL     1       8.306   3.046  -8.484  1.00  0.00     0.000 C 
BRANCH  15  16
ATOM     16  C   UNL     1       8.907   3.061  -7.068  1.00  0.00     0.000 C 
BRANCH  16  17
ATOM     17  C   UNL     1       9.414   1.681  -6.596  1.00  0.00     0.000 C 
BRANCH  17  18
ATOM     18  C   UNL     1       9.131   0.576  -7.628  1.00  0.00     0.000 C 
BRANCH  18  19
ATOM     19  C   UNL     1       8.417  -0.637  -7.014  1.00  0.00     0.000 C 
BRANCH  19  20
ATOM     20  C   UNL     1       7.597  -0.271  -5.763  1.00  0.00     0.006 C 
BRANCH  20  21
ATOM     21  C   UNL     1       6.154   0.118  -6.111  1.00  0.00     0.053 C 
BRANCH  21  22
ATOM     22  C   UNL     1       5.642  -0.650  -7.291  1.00  0.00     0.041 C 
ATOM     23  O   UNL     1       5.292  -1.852  -7.162  1.00  0.00    -0.550 OA
ATOM     24  O   UNL     1       5.594  -0.050  -8.543  1.00  0.00    -0.550 OA
ENDBRANCH  21  22
ENDBRANCH  20  21
ENDBRANCH  19  20
ENDBRANCH  18  19
ENDBRANCH  17  18
ENDBRANCH  16  17
ENDBRANCH  15  16
ENDBRANCH  14  15
ENDBRANCH  13  14
ENDBRANCH   1  13
TORSDOF 20
ENDMDL
MODEL 8
REMARK VINA RESULT:    -3.063      1.144      3.664
REMARK INTER + INTRA:          -9.864
REMARK INTER:                  -6.885
REMARK INTRA:                  -2.980
REMARK UNBOUND:                -3.220
REMARK SMILES CCCCCCCCCCCCCCCCCCCCCC(=O)[O-]
REMARK SMILES IDX 12 1 11 2 10 3 9 4 8 5 7 6 6 7 5 8 4 9 3 10 2 11 1 12 13 13
REMARK SMILES IDX 14 14 15 15 16 16 17 17 18 18 19 19 20 20 21 21 22 22 23 23
REMARK SMILES IDX 24 24
REMARK H PARENT
REMARK Flexibility Score: inf
ROOT
ATOM      1  C   UNL     1       5.411   2.555  -7.459  1.00  0.00     0.000 C 
ENDROOT
BRANCH   1   2
ATOM      2  C   UNL     1       4.818   2.726  -8.872  1.00  0.00     0.000 C 
BRANCH   2   3
ATOM      3  C   UNL     1       4.712   1.427  -9.690  1.00  0.00     0.000 C 
BRANCH   3   4
ATOM      4  C   UNL     1       5.965   0.544  -9.571  1.00  0.00    -0.000 C 
BRANCH   4   5
ATOM      5  C   UNL     1       5.586  -0.902  -9.215  1.00  0.00    -0.000 C 
BRANCH   5   6
ATOM      6  C   UNL     1       6.399  -1.453  -8.032  1.00  0.00    -0.000 C 
BRANCH   6   7
ATOM      7  C   UNL     1       5.912  -0.915  -6.677  1.00  0.00    -0.000 C 
BRANCH   7   8
ATOM      8  C   UNL     1       7.072  -0.411  -5.788  1.00  0.00    -0.000 C 
BRANCH   8   9
ATOM      9  C   UNL     1       8.421  -0.318  -6.523  1.00  0.00    -0.000 C 
BRANCH   9  10
ATOM     10  C   UNL     1       9.414   0.690  -5.920  1.00  0.00    -0.000 C 
BRANCH  10  11
ATOM     11  C   UNL     1       9.498   2.022  -6.699  1.00  0.00    -0.003 C 
ATOM     12  C   UNL     1       8.990   1.908  -8.136  1.00  0.00     0.004 C 
ENDBRANCH  10  11
ENDBRANCH   9  10
ENDBRANCH   8   9
ENDBRANCH   7   8
ENDBRANCH   6   7
ENDBRANCH   5   6
ENDBRANCH   4   5
ENDBRANCH   3   4
ENDBRANCH   2   3
ENDBRANCH   1   2
BRANCH   1  13
ATOM     13  C   UNL     1       4.974   3.618  -6.430  1.00  0.00     0.000 C 
BRANCH  13  14
ATOM     14  C   UNL     1       5.685   4.979  -6.550  1.00  0.00     0.000 C 
BRANCH  14  15
ATOM     15  C   UNL     1       7.202   4.846  -6.752  1.00  0.00     0.000 C 
BRANCH  15  16
ATOM     16  C   UNL     1       7.867   6.171  -7.164  1.00  0.00     0.000 C 
BRANCH  16  17
ATOM     17  C   UNL     1       8.947   6.656  -6.173  1.00  0.00     0.000 C 
BRANCH  17  18
ATOM     18  C   UNL     1       8.879   5.909  -4.831  1.00  0.00     0.000 C 
BRANCH  18  19
ATOM     19  C   UNL     1       8.369   6.797  -3.685  1.00  0.00     0.000 C 
BRANCH  19  20
ATOM     20  C   UNL     1       6.853   6.656  -3.457  1.00  0.00     0.006 C 
BRANCH  20  21
ATOM     21  C   UNL     1       6.064   7.820  -4.071  1.00  0.00     0.053 C 
BRANCH  21  22
ATOM     22  C   UNL     1       5.435   8.679  -3.018  1.00  0.00     0.041 C 
ATOM     23  O   UNL     1       5.732   8.518  -1.806  1.00  0.00    -0.550 OA
ATOM     24  O   UNL     1       4.484   9.630  -3.372  1.00  0.00    -0.550 OA
ENDBRANCH  21  22
ENDBRANCH  20  21
ENDBRANCH  19  20
ENDBRANCH  18  19
ENDBRANCH  17  18
ENDBRANCH  16  17
ENDBRANCH  15  16
ENDBRANCH  14  15
ENDBRANCH  13  14
ENDBRANCH   1  13
TORSDOF 20
ENDMDL
MODEL 9
REMARK VINA RESULT:    -3.058      1.822      4.186
REMARK INTER + INTRA:          -9.854
REMARK INTER:                  -6.375
REMARK INTRA:                  -3.479
REMARK UNBOUND:                -3.220
REMARK SMILES CCCCCCCCCCCCCCCCCCCCCC(=O)[O-]
REMARK SMILES IDX 12 1 11 2 10 3 9 4 8 5 7 6 6 7 5 8 4 9 3 10 2 11 1 12 13 13
REMARK SMILES IDX 14 14 15 15 16 16 17 17 18 18 19 19 20 20 21 21 22 22 23 23
REMARK SMILES IDX 24 24
REMARK H PARENT
REMARK Flexibility Score: inf
ROOT
ATOM      1  C   UNL     1       5.508   3.843  -6.356  1.00  0.00     0.000 C 
ENDROOT
BRANCH   1   2
ATOM      2  C   UNL     1       4.352   3.718  -7.369  1.00  0.00     0.000 C 
BRANCH   2   3
ATOM      3  C   UNL     1       4.738   3.078  -8.714  1.00  0.00     0.000 C 
BRANCH   3   4
ATOM      4  C   UNL     1       5.360   4.085  -9.695  1.00  0.00    -0.000 C 
BRANCH   4   5
ATOM      5  C   UNL     1       6.882   3.893  -9.788  1.00  0.00    -0.000 C 
BRANCH   5   6
ATOM      6  C   UNL     1       7.318   2.453  -9.476  1.00  0.00    -0.000 C 
BRANCH   6   7
ATOM      7  C   UNL     1       8.311   2.375  -8.306  1.00  0.00    -0.000 C 
BRANCH   7   8
ATOM      8  C   UNL     1       8.358   0.971  -7.661  1.00  0.00    -0.000 C 
BRANCH   8   9
ATOM      9  C   UNL     1       7.318   0.768  -6.544  1.00  0.00    -0.000 C 
BRANCH   9  10
ATOM     10  C   UNL     1       6.059  -0.008  -6.972  1.00  0.00    -0.000 C 
BRANCH  10  11
ATOM     11  C   UNL     1       6.078  -1.498  -6.563  1.00  0.00    -0.003 C 
ATOM     12  C   UNL     1       6.862  -1.755  -5.276  1.00  0.00     0.004 C 
ENDBRANCH  10  11
ENDBRANCH   9  10
ENDBRANCH   8   9
ENDBRANCH   7   8
ENDBRANCH   6   7
ENDBRANCH   5   6
ENDBRANCH   4   5
ENDBRANCH   3   4
ENDBRANCH   2   3
ENDBRANCH   1   2
BRANCH   1  13
ATOM     13  C   UNL     1       5.980   5.284  -6.073  1.00  0.00     0.000 C 
BRANCH  13  14
ATOM     14  C   UNL     1       7.438   5.587  -6.467  1.00  0.00     0.000 C 
BRANCH  14  15
ATOM     15  C   UNL     1       7.551   6.635  -7.585  1.00  0.00     0.000 C 
BRANCH  15  16
ATOM     16  C   UNL     1       6.246   7.420  -7.799  1.00  0.00     0.000 C 
BRANCH  16  17
ATOM     17  C   UNL     1       6.467   8.913  -8.124  1.00  0.00     0.000 C 
BRANCH  17  18
ATOM     18  C   UNL     1       6.560   9.774  -6.853  1.00  0.00     0.000 C 
BRANCH  18  19
ATOM     19  C   UNL     1       5.649   9.265  -5.725  1.00  0.00     0.000 C 
BRANCH  19  20
ATOM     20  C   UNL     1       6.412   9.028  -4.409  1.00  0.00     0.006 C 
BRANCH  20  21
ATOM     21  C   UNL     1       5.732   7.971  -3.528  1.00  0.00     0.053 C 
BRANCH  21  22
ATOM     22  C   UNL     1       6.721   7.255  -2.661  1.00  0.00     0.041 C 
ATOM     23  O   UNL     1       6.503   7.119  -1.428  1.00  0.00    -0.550 OA
ATOM     24  O   UNL     1       7.906   6.774  -3.206  1.00  0.00    -0.550 OA
ENDBRANCH  21  22
ENDBRANCH  20  21
ENDBRANCH  19  20
ENDBRANCH  18  19
ENDBRANCH  17  18
ENDBRANCH  16  17
ENDBRANCH  15  16
ENDBRANCH  14  15
ENDBRANCH  13  14
ENDBRANCH   1  13
TORSDOF 20
ENDMDL
