MODEL 1
REMARK VINA RESULT:    -6.398      0.000      0.000
REMARK INTER + INTRA:          -6.585
REMARK INTER:                  -6.585
REMARK INTRA:                   0.000
REMARK UNBOUND:                 0.000
REMARK SMILES O=c1ccc2ccc(O)cc2o1
REMARK SMILES IDX 6 1 7 2 8 3 10 4 11 5 5 6 4 7 3 8 2 9 1 10 12 11 9 12
REMARK H PARENT 9 13
REMARK Flexibility Score: inf
ROOT
ATOM      1  C   UNL     1      55.188  17.144   1.956  1.00  0.00     0.016 A 
ATOM      2  C   UNL     1      56.101  16.952   0.913  1.00  0.00     0.047 A 
ATOM      3  C   UNL     1      55.683  17.042  -0.420  1.00  0.00     0.119 A 
ATOM      4  C   UNL     1      54.342  17.327  -0.715  1.00  0.00     0.094 A 
ATOM      5  C   UNL     1      53.421  17.521   0.321  1.00  0.00     0.142 A 
ATOM      6  C   UNL     1      53.846  17.429   1.665  1.00  0.00     0.018 A 
ATOM      7  C   UNL     1      52.903  17.627   2.678  1.00  0.00     0.019 A 
ATOM      8  C   UNL     1      51.580  17.909   2.336  1.00  0.00     0.094 A 
ATOM      9  C   UNL     1      51.231  17.985   0.983  1.00  0.00     0.336 A 
ATOM     10  O   UNL     1      50.043  18.238   0.655  1.00  0.00    -0.246 OA
ATOM     11  O   UNL     1      52.149  17.791   0.038  1.00  0.00    -0.423 OA
ENDROOT
BRANCH   3  12
ATOM     12  O   UNL     1      56.608  16.848  -1.443  1.00  0.00    -0.508 OA
ATOM     13  H   UNL     1      57.549  16.523  -1.252  1.00  0.00     0.293 HD
ENDBRANCH   3  12
TORSDOF 1
ENDMDL
MODEL 2
REMARK VINA RESULT:    -6.285      2.532      3.271
REMARK INTER + INTRA:          -6.469
REMARK INTER:                  -6.469
REMARK INTRA:                   0.000
REMARK UNBOUND:                 0.000
REMARK SMILES O=c1ccc2ccc(O)cc2o1
REMARK SMILES IDX 6 1 7 2 8 3 10 4 11 5 5 6 4 7 3 8 2 9 1 10 12 11 9 12
REMARK H PARENT 9 13
REMARK Flexibility Score: inf
ROOT
ATOM      1  C   UNL     1      53.628  15.067  -1.408  1.00  0.00     0.016 A 
ATOM      2  C   UNL     1      54.205  14.255  -0.426  1.00  0.00     0.047 A 
ATOM      3  C   UNL     1      53.991  14.525   0.931  1.00  0.00     0.119 A 
ATOM      4  C   UNL     1      53.195  15.615   1.310  1.00  0.00     0.094 A 
ATOM      5  C   UNL     1      52.614  16.433   0.334  1.00  0.00     0.142 A 
ATOM      6  C   UNL     1      52.831  16.157  -1.034  1.00  0.00     0.018 A 
ATOM      7  C   UNL     1      52.238  16.993  -1.986  1.00  0.00     0.019 A 
ATOM      8  C   UNL     1      51.453  18.065  -1.560  1.00  0.00     0.094 A 
ATOM      9  C   UNL     1      51.281  18.277  -0.188  1.00  0.00     0.336 A 
ATOM     10  O   UNL     1      50.577  19.240   0.215  1.00  0.00    -0.246 OA
ATOM     11  O   UNL     1      51.858  17.467   0.697  1.00  0.00    -0.423 OA
ENDROOT
BRANCH   3  12
ATOM     12  O   UNL     1      54.574  13.705   1.894  1.00  0.00    -0.508 OA
ATOM     13  H   UNL     1      55.402  13.991   2.403  1.00  0.00     0.293 HD
ENDBRANCH   3  12
TORSDOF 1
ENDMDL
MODEL 3
REMARK VINA RESULT:    -6.232      2.087      5.001
REMARK INTER + INTRA:          -6.414
REMARK INTER:                  -6.414
REMARK INTRA:                   0.000
REMARK UNBOUND:                 0.000
REMARK SMILES O=c1ccc2ccc(O)cc2o1
REMARK SMILES IDX 6 1 7 2 8 3 10 4 11 5 5 6 4 7 3 8 2 9 1 10 12 11 9 12
REMARK H PARENT 9 13
REMARK Flexibility Score: inf
ROOT
ATOM      1  C   UNL     1      54.675  17.653   1.887  1.00  0.00     0.016 A 
ATOM      2  C   UNL     1      53.345  17.257   2.067  1.00  0.00     0.047 A 
ATOM      3  C   UNL     1      52.931  15.974   1.687  1.00  0.00     0.119 A 
ATOM      4  C   UNL     1      53.852  15.080   1.123  1.00  0.00     0.094 A 
ATOM      5  C   UNL     1      55.184  15.467   0.939  1.00  0.00     0.142 A 
ATOM      6  C   UNL     1      55.599  16.762   1.324  1.00  0.00     0.018 A 
ATOM      7  C   UNL     1      56.936  17.120   1.128  1.00  0.00     0.019 A 
ATOM      8  C   UNL     1      57.816  16.196   0.564  1.00  0.00     0.094 A 
ATOM      9  C   UNL     1      57.335  14.932   0.207  1.00  0.00     0.336 A 
ATOM     10  O   UNL     1      58.114  14.085  -0.304  1.00  0.00    -0.246 OA
ATOM     11  O   UNL     1      56.057  14.617   0.404  1.00  0.00    -0.423 OA
ENDROOT
BRANCH   3  12
ATOM     12  O   UNL     1      51.603  15.599   1.874  1.00  0.00    -0.508 OA
ATOM     13  H   UNL     1      51.287  15.183   2.743  1.00  0.00     0.293 HD
ENDBRANCH   3  12
TORSDOF 1
ENDMDL
MODEL 4
REMARK VINA RESULT:    -6.210      2.697      5.031
REMARK INTER + INTRA:          -6.391
REMARK INTER:                  -6.391
REMARK INTRA:                   0.000
REMARK UNBOUND:                 0.000
REMARK SMILES O=c1ccc2ccc(O)cc2o1
REMARK SMILES IDX 6 1 7 2 8 3 10 4 11 5 5 6 4 7 3 8 2 9 1 10 12 11 9 12
REMARK H PARENT 9 13
REMARK Flexibility Score: inf
ROOT
ATOM      1  C   UNL     1      53.084  15.216  -1.078  1.00  0.00     0.016 A 
ATOM      2  C   UNL     1      52.890  16.587  -1.284  1.00  0.00     0.047 A 
ATOM      3  C   UNL     1      53.920  17.496  -1.015  1.00  0.00     0.119 A 
ATOM      4  C   UNL     1      55.154  17.033  -0.536  1.00  0.00     0.094 A 
ATOM      5  C   UNL     1      55.358  15.664  -0.327  1.00  0.00     0.142 A 
ATOM      6  C   UNL     1      54.316  14.750  -0.600  1.00  0.00     0.018 A 
ATOM      7  C   UNL     1      54.549  13.388  -0.381  1.00  0.00     0.019 A 
ATOM      8  C   UNL     1      55.794  12.976   0.096  1.00  0.00     0.094 A 
ATOM      9  C   UNL     1      56.779  13.938   0.344  1.00  0.00     0.336 A 
ATOM     10  O   UNL     1      57.907  13.585   0.775  1.00  0.00    -0.246 OA
ATOM     11  O   UNL     1      56.530  15.228   0.127  1.00  0.00    -0.423 OA
ENDROOT
BRANCH   3  12
ATOM     12  O   UNL     1      53.707  18.856  -1.227  1.00  0.00    -0.508 OA
ATOM     13  H   UNL     1      54.455  19.532  -1.124  1.00  0.00     0.293 HD
ENDBRANCH   3  12
TORSDOF 1
ENDMDL
MODEL 5
REMARK VINA RESULT:    -5.773      2.701      4.297
REMARK INTER + INTRA:          -5.942
REMARK INTER:                  -5.942
REMARK INTRA:                   0.000
REMARK UNBOUND:                 0.000
REMARK SMILES O=c1ccc2ccc(O)cc2o1
REMARK SMILES IDX 6 1 7 2 8 3 10 4 11 5 5 6 4 7 3 8 2 9 1 10 12 11 9 12
REMARK H PARENT 9 13
REMARK Flexibility Score: inf
ROOT
ATOM      1  C   UNL     1      52.306  17.303   0.726  1.00  0.00     0.016 A 
ATOM      2  C   UNL     1      51.740  17.997  -0.348  1.00  0.00     0.047 A 
ATOM      3  C   UNL     1      51.905  17.530  -1.658  1.00  0.00     0.119 A 
ATOM      4  C   UNL     1      52.640  16.361  -1.897  1.00  0.00     0.094 A 
ATOM      5  C   UNL     1      53.210  15.659  -0.828  1.00  0.00     0.142 A 
ATOM      6  C   UNL     1      53.042  16.133   0.492  1.00  0.00     0.018 A 
ATOM      7  C   UNL     1      53.624  15.411   1.539  1.00  0.00     0.019 A 
ATOM      8  C   UNL     1      54.346  14.252   1.252  1.00  0.00     0.094 A 
ATOM      9  C   UNL     1      54.471  13.843  -0.080  1.00  0.00     0.336 A 
ATOM     10  O   UNL     1      55.119  12.801  -0.358  1.00  0.00    -0.246 OA
ATOM     11  O   UNL     1      53.908  14.549  -1.057  1.00  0.00    -0.423 OA
ENDROOT
BRANCH   3  12
ATOM     12  O   UNL     1      51.333  18.236  -2.714  1.00  0.00    -0.508 OA
ATOM     13  H   UNL     1      51.375  19.247  -2.760  1.00  0.00     0.293 HD
ENDBRANCH   3  12
TORSDOF 1
ENDMDL
MODEL 6
REMARK VINA RESULT:    -5.754      1.548      4.760
REMARK INTER + INTRA:          -5.923
REMARK INTER:                  -5.923
REMARK INTRA:                   0.000
REMARK UNBOUND:                 0.000
REMARK SMILES O=c1ccc2ccc(O)cc2o1
REMARK SMILES IDX 6 1 7 2 8 3 10 4 11 5 5 6 4 7 3 8 2 9 1 10 12 11 9 12
REMARK H PARENT 9 13
REMARK Flexibility Score: inf
ROOT
ATOM      1  C   UNL     1      52.261  17.629  -0.167  1.00  0.00     0.016 A 
ATOM      2  C   UNL     1      51.416  17.852   0.927  1.00  0.00     0.047 A 
ATOM      3  C   UNL     1      51.921  17.802   2.232  1.00  0.00     0.119 A 
ATOM      4  C   UNL     1      53.279  17.528   2.447  1.00  0.00     0.094 A 
ATOM      5  C   UNL     1      54.131  17.304   1.360  1.00  0.00     0.142 A 
ATOM      6  C   UNL     1      53.619  17.355   0.044  1.00  0.00     0.018 A 
ATOM      7  C   UNL     1      54.495  17.127  -1.022  1.00  0.00     0.019 A 
ATOM      8  C   UNL     1      55.838  16.859  -0.758  1.00  0.00     0.094 A 
ATOM      9  C   UNL     1      56.275  16.824   0.570  1.00  0.00     0.336 A 
ATOM     10  O   UNL     1      57.483  16.583   0.828  1.00  0.00    -0.246 OA
ATOM     11  O   UNL     1      55.420  17.044   1.567  1.00  0.00    -0.423 OA
ENDROOT
BRANCH   3  12
ATOM     12  O   UNL     1      51.064  18.027   3.307  1.00  0.00    -0.508 OA
ATOM     13  H   UNL     1      50.990  17.367   4.072  1.00  0.00     0.293 HD
ENDBRANCH   3  12
TORSDOF 1
ENDMDL
MODEL 7
REMARK VINA RESULT:    -5.750      2.527      4.704
REMARK INTER + INTRA:          -5.918
REMARK INTER:                  -5.918
REMARK INTRA:                   0.000
REMARK UNBOUND:                 0.000
REMARK SMILES O=c1ccc2ccc(O)cc2o1
REMARK SMILES IDX 6 1 7 2 8 3 10 4 11 5 5 6 4 7 3 8 2 9 1 10 12 11 9 12
REMARK H PARENT 9 13
REMARK Flexibility Score: inf
ROOT
ATOM      1  C   UNL     1      52.118  17.102  -2.009  1.00  0.00     0.016 A 
ATOM      2  C   UNL     1      51.441  18.188  -1.443  1.00  0.00     0.047 A 
ATOM      3  C   UNL     1      51.455  18.386  -0.057  1.00  0.00     0.119 A 
ATOM      4  C   UNL     1      52.150  17.492   0.770  1.00  0.00     0.094 A 
ATOM      5  C   UNL     1      52.831  16.404   0.213  1.00  0.00     0.142 A 
ATOM      6  C   UNL     1      52.814  16.207  -1.186  1.00  0.00     0.018 A 
ATOM      7  C   UNL     1      53.503  15.110  -1.714  1.00  0.00     0.019 A 
ATOM      8  C   UNL     1      54.181  14.249  -0.851  1.00  0.00     0.094 A 
ATOM      9  C   UNL     1      54.154  14.506   0.524  1.00  0.00     0.336 A 
ATOM     10  O   UNL     1      54.759  13.740   1.318  1.00  0.00    -0.246 OA
ATOM     11  O   UNL     1      53.490  15.557   1.000  1.00  0.00    -0.423 OA
ENDROOT
BRANCH   3  12
ATOM     12  O   UNL     1      50.775  19.472   0.488  1.00  0.00    -0.508 OA
ATOM     13  H   UNL     1      50.735  20.365   0.010  1.00  0.00     0.293 HD
ENDBRANCH   3  12
TORSDOF 1
ENDMDL
MODEL 8
REMARK VINA RESULT:    -5.738      3.508      4.812
REMARK INTER + INTRA:          -5.905
REMARK INTER:                  -5.905
REMARK INTRA:                   0.000
REMARK UNBOUND:                 0.000
REMARK SMILES O=c1ccc2ccc(O)cc2o1
REMARK SMILES IDX 6 1 7 2 8 3 10 4 11 5 5 6 4 7 3 8 2 9 1 10 12 11 9 12
REMARK H PARENT 9 13
REMARK Flexibility Score: inf
ROOT
ATOM      1  C   UNL     1      58.192  13.699   0.250  1.00  0.00     0.016 A 
ATOM      2  C   UNL     1      57.714  12.405   0.014  1.00  0.00     0.047 A 
ATOM      3  C   UNL     1      56.337  12.162  -0.064  1.00  0.00     0.119 A 
ATOM      4  C   UNL     1      55.430  13.220   0.095  1.00  0.00     0.094 A 
ATOM      5  C   UNL     1      55.899  14.517   0.333  1.00  0.00     0.142 A 
ATOM      6  C   UNL     1      57.288  14.758   0.411  1.00  0.00     0.018 A 
ATOM      7  C   UNL     1      57.726  16.065   0.650  1.00  0.00     0.019 A 
ATOM      8  C   UNL     1      56.786  17.084   0.801  1.00  0.00     0.094 A 
ATOM      9  C   UNL     1      55.425  16.771   0.712  1.00  0.00     0.336 A 
ATOM     10  O   UNL     1      54.562  17.677   0.846  1.00  0.00    -0.246 OA
ATOM     11  O   UNL     1      55.036  15.519   0.484  1.00  0.00    -0.423 OA
ENDROOT
BRANCH   3  12
ATOM     12  O   UNL     1      55.882  10.868  -0.301  1.00  0.00    -0.508 OA
ATOM     13  H   UNL     1      55.505  10.595  -1.202  1.00  0.00     0.293 HD
ENDBRANCH   3  12
TORSDOF 1
ENDMDL
MODEL 9
REMARK VINA RESULT:    -5.595      1.454      2.229
REMARK INTER + INTRA:          -5.758
REMARK INTER:                  -5.758
REMARK INTRA:                   0.000
REMARK UNBOUND:                 0.000
REMARK SMILES O=c1ccc2ccc(O)cc2o1
REMARK SMILES IDX 6 1 7 2 8 3 10 4 11 5 5 6 4 7 3 8 2 9 1 10 12 11 9 12
REMARK H PARENT 9 13
REMARK Flexibility Score: inf
ROOT
ATOM      1  C   UNL     1      53.950  17.091  -0.709  1.00  0.00     0.016 A 
ATOM      2  C   UNL     1      55.263  16.709  -0.411  1.00  0.00     0.047 A 
ATOM      3  C   UNL     1      55.712  16.697   0.915  1.00  0.00     0.119 A 
ATOM      4  C   UNL     1      54.844  17.070   1.951  1.00  0.00     0.094 A 
ATOM      5  C   UNL     1      53.529  17.454   1.662  1.00  0.00     0.142 A 
ATOM      6  C   UNL     1      53.079  17.464   0.323  1.00  0.00     0.018 A 
ATOM      7  C   UNL     1      51.761  17.853   0.066  1.00  0.00     0.019 A 
ATOM      8  C   UNL     1      50.934  18.215   1.130  1.00  0.00     0.094 A 
ATOM      9  C   UNL     1      51.448  18.180   2.430  1.00  0.00     0.336 A 
ATOM     10  O   UNL     1      50.718  18.504   3.403  1.00  0.00    -0.246 OA
ATOM     11  O   UNL     1      52.707  17.807   2.648  1.00  0.00    -0.423 OA
ENDROOT
BRANCH   3  12
ATOM     12  O   UNL     1      57.022  16.313   1.192  1.00  0.00    -0.508 OA
ATOM     13  H   UNL     1      57.562  16.762   1.922  1.00  0.00     0.293 HD
ENDBRANCH   3  12
TORSDOF 1
ENDMDL
