MODEL 1
REMARK VINA RESULT:    -7.498      0.000      0.000
REMARK INTER + INTRA:          -9.629
REMARK INTER:                  -9.252
REMARK INTRA:                  -0.377
REMARK UNBOUND:                -0.377
REMARK SMILES Oc1cc(O)c2cc(O)c(-c3cc(O)c(O)c(O)c3)[o+]c2c1.[Cl-]
REMARK SMILES IDX 10 1 20 2 21 3 22 4 2 5 3 6 4 7 6 8 7 9 8 10 11 11 12 12
REMARK SMILES IDX 13 13 19 14 15 15 17 16 14 17 16 19 18 21 9 23 1 25 5 27
REMARK H PARENT 14 18 16 20 18 22 9 24 1 26 5 28
REMARK Flexibility Score: inf
ROOT
ATOM      1  C   UNL     1      -6.666  -7.802  13.734  1.00  0.00     0.402 A 
ATOM      2  O   UNL     1      -7.113  -8.268  14.896  1.00  0.00    -0.202 OA
ATOM      3  C   UNL     1      -8.403  -8.324  15.213  1.00  0.00     0.368 A 
ATOM      4  C   UNL     1      -8.776  -8.835  16.459  1.00  0.00     0.162 A 
ATOM      5  C   UNL     1     -10.126  -8.906  16.816  1.00  0.00     0.128 A 
ATOM      6  C   UNL     1     -11.106  -8.467  15.924  1.00  0.00     0.093 A 
ATOM      7  C   UNL     1     -10.758  -7.952  14.668  1.00  0.00     0.136 A 
ATOM      8  C   UNL     1      -9.389  -7.874  14.302  1.00  0.00     0.125 A 
ATOM      9  C   UNL     1      -8.947  -7.360  13.072  1.00  0.00     0.078 A 
ATOM     10  C   UNL     1      -7.581  -7.311  12.783  1.00  0.00     0.223 A 
ENDROOT
BRANCH   1  11
ATOM     11  C   UNL     1      -5.204  -7.802  13.495  1.00  0.00     0.091 A 
ATOM     12  C   UNL     1      -4.398  -6.727  13.898  1.00  0.00     0.068 A 
ATOM     13  C   UNL     1      -3.020  -6.737  13.642  1.00  0.00     0.162 A 
ATOM     14  C   UNL     1      -4.619  -8.870  12.800  1.00  0.00     0.068 A 
ATOM     15  C   UNL     1      -2.433  -7.817  12.968  1.00  0.00     0.200 A 
ATOM     16  C   UNL     1      -3.244  -8.894  12.538  1.00  0.00     0.162 A 
BRANCH  13  17
ATOM     17  O   UNL     1      -2.224  -5.668  14.052  1.00  0.00    -0.504 OA
ATOM     18  H   UNL     1      -2.464  -5.107  14.862  1.00  0.00     0.293 HD
ENDBRANCH  13  17
BRANCH  15  19
ATOM     19  O   UNL     1      -1.054  -7.780  12.745  1.00  0.00    -0.502 OA
ATOM     20  H   UNL     1      -0.630  -7.538  11.861  1.00  0.00     0.293 HD
ENDBRANCH  15  19
BRANCH  16  21
ATOM     21  O   UNL     1      -2.733  -9.997  11.852  1.00  0.00    -0.504 OA
ATOM     22  H   UNL     1      -1.753 -10.133  11.650  1.00  0.00     0.293 HD
ENDBRANCH  16  21
ENDBRANCH   1  11
BRANCH  10  23
ATOM     23  O   UNL     1      -7.138  -6.755  11.583  1.00  0.00    -0.500 OA
ATOM     24  H   UNL     1      -7.784  -6.372  10.903  1.00  0.00     0.294 HD
ENDBRANCH  10  23
BRANCH   5  25
ATOM     25  O   UNL     1     -10.505  -9.414  18.057  1.00  0.00    -0.507 OA
ATOM     26  H   UNL     1     -10.957 -10.316  18.145  1.00  0.00     0.293 HD
ENDBRANCH   5  25
BRANCH   7  27
ATOM     27  O   UNL     1     -11.798  -7.537  13.832  1.00  0.00    -0.507 OA
ATOM     28  H   UNL     1     -11.694  -7.339  12.848  1.00  0.00     0.293 HD
ENDBRANCH   7  27
TORSDOF 7
ENDMDL
MODEL 2
REMARK VINA RESULT:    -7.078      3.470      8.472
REMARK INTER + INTRA:          -9.110
REMARK INTER:                  -8.771
REMARK INTRA:                  -0.339
REMARK UNBOUND:                -0.377
REMARK SMILES Oc1cc(O)c2cc(O)c(-c3cc(O)c(O)c(O)c3)[o+]c2c1.[Cl-]
REMARK SMILES IDX 10 1 20 2 21 3 22 4 2 5 3 6 4 7 6 8 7 9 8 10 11 11 12 12
REMARK SMILES IDX 13 13 19 14 15 15 17 16 14 17 16 19 18 21 9 23 1 25 5 27
REMARK H PARENT 14 18 16 20 18 22 9 24 1 26 5 28
REMARK Flexibility Score: inf
ROOT
ATOM      1  C   UNL     1      -1.552  -7.437  13.870  1.00  0.00     0.402 A 
ATOM      2  O   UNL     1      -1.177  -7.411  15.145  1.00  0.00    -0.202 OA
ATOM      3  C   UNL     1       0.091  -7.311  15.532  1.00  0.00     0.368 A 
ATOM      4  C   UNL     1       0.386  -7.289  16.898  1.00  0.00     0.162 A 
ATOM      5  C   UNL     1       1.711  -7.182  17.332  1.00  0.00     0.128 A 
ATOM      6  C   UNL     1       2.744  -7.095  16.396  1.00  0.00     0.093 A 
ATOM      7  C   UNL     1       2.474  -7.114  15.022  1.00  0.00     0.136 A 
ATOM      8  C   UNL     1       1.132  -7.226  14.576  1.00  0.00     0.125 A 
ATOM      9  C   UNL     1       0.770  -7.267  13.220  1.00  0.00     0.078 A 
ATOM     10  C   UNL     1      -0.575  -7.383  12.857  1.00  0.00     0.223 A 
ENDROOT
BRANCH   1  11
ATOM     11  C   UNL     1      -2.997  -7.541  13.566  1.00  0.00     0.091 A 
ATOM     12  C   UNL     1      -3.579  -8.759  13.187  1.00  0.00     0.068 A 
ATOM     13  C   UNL     1      -4.945  -8.831  12.882  1.00  0.00     0.162 A 
ATOM     14  C   UNL     1      -3.794  -6.387  13.601  1.00  0.00     0.068 A 
ATOM     15  C   UNL     1      -5.744  -7.681  12.941  1.00  0.00     0.200 A 
ATOM     16  C   UNL     1      -5.160  -6.444  13.299  1.00  0.00     0.162 A 
BRANCH  13  17
ATOM     17  O   UNL     1      -5.517 -10.048  12.513  1.00  0.00    -0.504 OA
ATOM     18  H   UNL     1      -6.518 -10.148  12.387  1.00  0.00     0.293 HD
ENDBRANCH  13  17
BRANCH  15  19
ATOM     19  O   UNL     1      -7.102  -7.810  12.634  1.00  0.00    -0.502 OA
ATOM     20  H   UNL     1      -7.850  -7.527  13.249  1.00  0.00     0.293 HD
ENDBRANCH  15  19
BRANCH  16  21
ATOM     21  O   UNL     1      -5.890  -5.256  13.367  1.00  0.00    -0.504 OA
ATOM     22  H   UNL     1      -5.924  -4.569  12.628  1.00  0.00     0.293 HD
ENDBRANCH  16  21
ENDBRANCH   1  11
BRANCH  10  23
ATOM     23  O   UNL     1      -0.932  -7.473  11.512  1.00  0.00    -0.500 OA
ATOM     24  H   UNL     1      -1.580  -6.821  11.087  1.00  0.00     0.294 HD
ENDBRANCH  10  23
BRANCH   5  25
ATOM     25  O   UNL     1       2.012  -7.159  18.692  1.00  0.00    -0.507 OA
ATOM     26  H   UNL     1       1.440  -6.648  19.353  1.00  0.00     0.293 HD
ENDBRANCH   5  25
BRANCH   7  27
ATOM     27  O   UNL     1       3.564  -7.020  14.151  1.00  0.00    -0.507 OA
ATOM     28  H   UNL     1       3.904  -7.778  13.579  1.00  0.00     0.293 HD
ENDBRANCH   7  27
TORSDOF 7
ENDMDL
MODEL 3
REMARK VINA RESULT:    -7.050      4.064      8.649
REMARK INTER + INTRA:          -9.075
REMARK INTER:                  -8.752
REMARK INTRA:                  -0.323
REMARK UNBOUND:                -0.377
REMARK SMILES Oc1cc(O)c2cc(O)c(-c3cc(O)c(O)c(O)c3)[o+]c2c1.[Cl-]
REMARK SMILES IDX 10 1 20 2 21 3 22 4 2 5 3 6 4 7 6 8 7 9 8 10 11 11 12 12
REMARK SMILES IDX 13 13 19 14 15 15 17 16 14 17 16 19 18 21 9 23 1 25 5 27
REMARK H PARENT 14 18 16 20 18 22 9 24 1 26 5 28
REMARK Flexibility Score: inf
ROOT
ATOM      1  C   UNL     1      -0.898  -7.925  13.760  1.00  0.00     0.402 A 
ATOM      2  O   UNL     1      -0.527  -7.992  15.035  1.00  0.00    -0.202 OA
ATOM      3  C   UNL     1       0.675  -7.623  15.466  1.00  0.00     0.368 A 
ATOM      4  C   UNL     1       0.970  -7.727  16.828  1.00  0.00     0.162 A 
ATOM      5  C   UNL     1       2.226  -7.343  17.309  1.00  0.00     0.128 A 
ATOM      6  C   UNL     1       3.189  -6.853  16.424  1.00  0.00     0.093 A 
ATOM      7  C   UNL     1       2.917  -6.739  15.055  1.00  0.00     0.136 A 
ATOM      8  C   UNL     1       1.645  -7.129  14.561  1.00  0.00     0.125 A 
ATOM      9  C   UNL     1       1.290  -7.063  13.205  1.00  0.00     0.078 A 
ATOM     10  C   UNL     1       0.018  -7.470  12.792  1.00  0.00     0.223 A 
ENDROOT
BRANCH   1  11
ATOM     11  C   UNL     1      -2.270  -8.356  13.405  1.00  0.00     0.091 A 
ATOM     12  C   UNL     1      -3.258  -7.428  13.045  1.00  0.00     0.068 A 
ATOM     13  C   UNL     1      -4.555  -7.855  12.734  1.00  0.00     0.162 A 
ATOM     14  C   UNL     1      -2.608  -9.715  13.484  1.00  0.00     0.068 A 
ATOM     15  C   UNL     1      -4.885  -9.216  12.791  1.00  0.00     0.200 A 
ATOM     16  C   UNL     1      -3.900 -10.156  13.176  1.00  0.00     0.162 A 
BRANCH  13  17
ATOM     17  O   UNL     1      -5.530  -6.926  12.370  1.00  0.00    -0.504 OA
ATOM     18  H   UNL     1      -5.581  -6.550  11.430  1.00  0.00     0.293 HD
ENDBRANCH  13  17
BRANCH  15  19
ATOM     19  O   UNL     1      -6.191  -9.589  12.464  1.00  0.00    -0.502 OA
ATOM     20  H   UNL     1      -6.439 -10.473  12.045  1.00  0.00     0.293 HD
ENDBRANCH  15  19
BRANCH  16  21
ATOM     21  O   UNL     1      -4.158 -11.525  13.266  1.00  0.00    -0.504 OA
ATOM     22  H   UNL     1      -4.549 -11.975  14.081  1.00  0.00     0.293 HD
ENDBRANCH  16  21
ENDBRANCH   1  11
BRANCH  10  23
ATOM     23  O   UNL     1      -0.319  -7.450  11.439  1.00  0.00    -0.500 OA
ATOM     24  H   UNL     1      -0.026  -8.186  10.806  1.00  0.00     0.294 HD
ENDBRANCH  10  23
BRANCH   5  25
ATOM     25  O   UNL     1       2.527  -7.444  18.665  1.00  0.00    -0.507 OA
ATOM     26  H   UNL     1       3.203  -6.833  19.106  1.00  0.00     0.293 HD
ENDBRANCH   5  25
BRANCH   7  27
ATOM     27  O   UNL     1       3.933  -6.236  14.237  1.00  0.00    -0.507 OA
ATOM     28  H   UNL     1       4.754  -6.755  13.963  1.00  0.00     0.293 HD
ENDBRANCH   7  27
TORSDOF 7
ENDMDL
MODEL 4
REMARK VINA RESULT:    -7.010      2.188      3.249
REMARK INTER + INTRA:          -9.026
REMARK INTER:                  -8.646
REMARK INTRA:                  -0.380
REMARK UNBOUND:                -0.377
REMARK SMILES Oc1cc(O)c2cc(O)c(-c3cc(O)c(O)c(O)c3)[o+]c2c1.[Cl-]
REMARK SMILES IDX 10 1 20 2 21 3 22 4 2 5 3 6 4 7 6 8 7 9 8 10 11 11 12 12
REMARK SMILES IDX 13 13 19 14 15 15 17 16 14 17 16 19 18 21 9 23 1 25 5 27
REMARK H PARENT 14 18 16 20 18 22 9 24 1 26 5 28
REMARK Flexibility Score: inf
ROOT
ATOM      1  C   UNL     1      -4.364  -8.109  13.909  1.00  0.00     0.402 A 
ATOM      2  O   UNL     1      -4.581  -9.096  14.772  1.00  0.00    -0.202 OA
ATOM      3  C   UNL     1      -5.791  -9.573  15.047  1.00  0.00     0.368 A 
ATOM      4  C   UNL     1      -5.918 -10.616  15.967  1.00  0.00     0.162 A 
ATOM      5  C   UNL     1      -7.179 -11.138  16.273  1.00  0.00     0.128 A 
ATOM      6  C   UNL     1      -8.316 -10.615  15.654  1.00  0.00     0.093 A 
ATOM      7  C   UNL     1      -8.215  -9.570  14.727  1.00  0.00     0.136 A 
ATOM      8  C   UNL     1      -6.938  -9.035  14.415  1.00  0.00     0.125 A 
ATOM      9  C   UNL     1      -6.744  -7.979  13.511  1.00  0.00     0.078 A 
ATOM     10  C   UNL     1      -5.454  -7.502  13.258  1.00  0.00     0.223 A 
ENDROOT
BRANCH   1  11
ATOM     11  C   UNL     1      -2.967  -7.672  13.679  1.00  0.00     0.091 A 
ATOM     12  C   UNL     1      -2.221  -8.148  12.591  1.00  0.00     0.068 A 
ATOM     13  C   UNL     1      -0.894  -7.740  12.405  1.00  0.00     0.162 A 
ATOM     14  C   UNL     1      -2.355  -6.809  14.600  1.00  0.00     0.068 A 
ATOM     15  C   UNL     1      -0.292  -6.858  13.314  1.00  0.00     0.200 A 
ATOM     16  C   UNL     1      -1.030  -6.392  14.427  1.00  0.00     0.162 A 
BRANCH  13  17
ATOM     17  O   UNL     1      -0.162  -8.212  11.316  1.00  0.00    -0.504 OA
ATOM     18  H   UNL     1       0.714  -7.784  11.040  1.00  0.00     0.293 HD
ENDBRANCH  13  17
BRANCH  15  19
ATOM     19  O   UNL     1       1.032  -6.476  13.077  1.00  0.00    -0.502 OA
ATOM     20  H   UNL     1       1.600  -6.838  12.325  1.00  0.00     0.293 HD
ENDBRANCH  15  19
BRANCH  16  21
ATOM     21  O   UNL     1      -0.493  -5.523  15.378  1.00  0.00    -0.504 OA
ATOM     22  H   UNL     1       0.326  -4.952  15.225  1.00  0.00     0.293 HD
ENDBRANCH  16  21
ENDBRANCH   1  11
BRANCH  10  23
ATOM     23  O   UNL     1      -5.265  -6.421  12.397  1.00  0.00    -0.500 OA
ATOM     24  H   UNL     1      -4.870  -6.539  11.471  1.00  0.00     0.294 HD
ENDBRANCH  10  23
BRANCH   5  25
ATOM     25  O   UNL     1      -7.313 -12.178  17.190  1.00  0.00    -0.507 OA
ATOM     26  H   UNL     1      -8.212 -12.426  17.584  1.00  0.00     0.293 HD
ENDBRANCH   5  25
BRANCH   7  27
ATOM     27  O   UNL     1      -9.401  -9.105  14.149  1.00  0.00    -0.507 OA
ATOM     28  H   UNL     1      -9.866  -8.250  14.413  1.00  0.00     0.293 HD
ENDBRANCH   7  27
TORSDOF 7
ENDMDL
MODEL 5
REMARK VINA RESULT:    -7.004      4.943      9.405
REMARK INTER + INTRA:          -9.018
REMARK INTER:                  -8.793
REMARK INTRA:                  -0.225
REMARK UNBOUND:                -0.377
REMARK SMILES Oc1cc(O)c2cc(O)c(-c3cc(O)c(O)c(O)c3)[o+]c2c1.[Cl-]
REMARK SMILES IDX 10 1 20 2 21 3 22 4 2 5 3 6 4 7 6 8 7 9 8 10 11 11 12 12
REMARK SMILES IDX 13 13 19 14 15 15 17 16 14 17 16 19 18 21 9 23 1 25 5 27
REMARK H PARENT 14 18 16 20 18 22 9 24 1 26 5 28
REMARK Flexibility Score: inf
ROOT
ATOM      1  C   UNL     1       0.341  -7.983  14.609  1.00  0.00     0.402 A 
ATOM      2  O   UNL     1       0.639  -8.740  15.661  1.00  0.00    -0.202 OA
ATOM      3  C   UNL     1       1.771  -8.624  16.346  1.00  0.00     0.368 A 
ATOM      4  C   UNL     1       1.993  -9.464  17.441  1.00  0.00     0.162 A 
ATOM      5  C   UNL     1       3.175  -9.363  18.181  1.00  0.00     0.128 A 
ATOM      6  C   UNL     1       4.138  -8.416  17.826  1.00  0.00     0.093 A 
ATOM      7  C   UNL     1       3.939  -7.561  16.734  1.00  0.00     0.136 A 
ATOM      8  C   UNL     1       2.743  -7.662  15.977  1.00  0.00     0.125 A 
ATOM      9  C   UNL     1       2.465  -6.858  14.861  1.00  0.00     0.078 A 
ATOM     10  C   UNL     1       1.265  -7.019  14.162  1.00  0.00     0.223 A 
ENDROOT
BRANCH   1  11
ATOM     11  C   UNL     1      -0.959  -8.200  13.934  1.00  0.00     0.091 A 
ATOM     12  C   UNL     1      -1.923  -7.184  13.859  1.00  0.00     0.068 A 
ATOM     13  C   UNL     1      -3.156  -7.418  13.235  1.00  0.00     0.162 A 
ATOM     14  C   UNL     1      -1.260  -9.465  13.408  1.00  0.00     0.068 A 
ATOM     15  C   UNL     1      -3.445  -8.676  12.688  1.00  0.00     0.200 A 
ATOM     16  C   UNL     1      -2.486  -9.713  12.781  1.00  0.00     0.162 A 
BRANCH  13  17
ATOM     17  O   UNL     1      -4.106  -6.400  13.158  1.00  0.00    -0.504 OA
ATOM     18  H   UNL     1      -3.942  -5.561  12.613  1.00  0.00     0.293 HD
ENDBRANCH  13  17
BRANCH  15  19
ATOM     19  O   UNL     1      -4.686  -8.854  12.071  1.00  0.00    -0.502 OA
ATOM     20  H   UNL     1      -5.081  -8.211  11.400  1.00  0.00     0.293 HD
ENDBRANCH  15  19
BRANCH  16  21
ATOM     21  O   UNL     1      -2.708 -10.993  12.271  1.00  0.00    -0.504 OA
ATOM     22  H   UNL     1      -2.117 -11.439  11.584  1.00  0.00     0.293 HD
ENDBRANCH  16  21
ENDBRANCH   1  11
BRANCH  10  23
ATOM     23  O   UNL     1       1.010  -6.255  13.023  1.00  0.00    -0.500 OA
ATOM     24  H   UNL     1       1.708  -6.126  12.300  1.00  0.00     0.294 HD
ENDBRANCH  10  23
BRANCH   5  25
ATOM     25  O   UNL     1       3.402 -10.197  19.273  1.00  0.00    -0.507 OA
ATOM     26  H   UNL     1       2.772 -10.217  20.066  1.00  0.00     0.293 HD
ENDBRANCH   5  25
BRANCH   7  27
ATOM     27  O   UNL     1       4.949  -6.639  16.446  1.00  0.00    -0.507 OA
ATOM     28  H   UNL     1       5.930  -6.792  16.627  1.00  0.00     0.293 HD
ENDBRANCH   7  27
TORSDOF 7
ENDMDL
MODEL 6
REMARK VINA RESULT:    -6.961      4.647      9.540
REMARK INTER + INTRA:          -8.966
REMARK INTER:                  -8.592
REMARK INTRA:                  -0.373
REMARK UNBOUND:                -0.377
REMARK SMILES Oc1cc(O)c2cc(O)c(-c3cc(O)c(O)c(O)c3)[o+]c2c1.[Cl-]
REMARK SMILES IDX 10 1 20 2 21 3 22 4 2 5 3 6 4 7 6 8 7 9 8 10 11 11 12 12
REMARK SMILES IDX 13 13 19 14 15 15 17 16 14 17 16 19 18 21 9 23 1 25 5 27
REMARK H PARENT 14 18 16 20 18 22 9 24 1 26 5 28
REMARK Flexibility Score: inf
ROOT
ATOM      1  C   UNL     1       0.230  -7.541  14.448  1.00  0.00     0.402 A 
ATOM      2  O   UNL     1       0.508  -8.078  15.632  1.00  0.00    -0.202 OA
ATOM      3  C   UNL     1       1.715  -8.037  16.187  1.00  0.00     0.368 A 
ATOM      4  C   UNL     1       1.909  -8.628  17.438  1.00  0.00     0.162 A 
ATOM      5  C   UNL     1       3.169  -8.597  18.046  1.00  0.00     0.128 A 
ATOM      6  C   UNL     1       4.237  -7.972  17.399  1.00  0.00     0.093 A 
ATOM      7  C   UNL     1       4.068  -7.371  16.145  1.00  0.00     0.136 A 
ATOM      8  C   UNL     1       2.793  -7.403  15.523  1.00  0.00     0.125 A 
ATOM      9  C   UNL     1       2.535  -6.840  14.263  1.00  0.00     0.078 A 
ATOM     10  C   UNL     1       1.252  -6.914  13.712  1.00  0.00     0.223 A 
ENDROOT
BRANCH   1  11
ATOM     11  C   UNL     1      -1.158  -7.643  13.941  1.00  0.00     0.091 A 
ATOM     12  C   UNL     1      -1.549  -8.683  13.085  1.00  0.00     0.068 A 
ATOM     13  C   UNL     1      -2.861  -8.748  12.599  1.00  0.00     0.162 A 
ATOM     14  C   UNL     1      -2.089  -6.648  14.275  1.00  0.00     0.068 A 
ATOM     15  C   UNL     1      -3.797  -7.766  12.953  1.00  0.00     0.200 A 
ATOM     16  C   UNL     1      -3.403  -6.701  13.797  1.00  0.00     0.162 A 
BRANCH  13  17
ATOM     17  O   UNL     1      -3.244  -9.790  11.754  1.00  0.00    -0.504 OA
ATOM     18  H   UNL     1      -2.599 -10.528  11.496  1.00  0.00     0.293 HD
ENDBRANCH  13  17
BRANCH  15  19
ATOM     19  O   UNL     1      -5.094  -7.883  12.446  1.00  0.00    -0.502 OA
ATOM     20  H   UNL     1      -5.908  -8.075  13.012  1.00  0.00     0.293 HD
ENDBRANCH  15  19
BRANCH  16  21
ATOM     21  O   UNL     1      -4.276  -5.682  14.182  1.00  0.00    -0.504 OA
ATOM     22  H   UNL     1      -4.494  -5.455  15.142  1.00  0.00     0.293 HD
ENDBRANCH  16  21
ENDBRANCH   1  11
BRANCH  10  23
ATOM     23  O   UNL     1       1.007  -6.399  12.438  1.00  0.00    -0.500 OA
ATOM     24  H   UNL     1       0.558  -5.501  12.304  1.00  0.00     0.294 HD
ENDBRANCH  10  23
BRANCH   5  25
ATOM     25  O   UNL     1       3.369  -9.184  19.293  1.00  0.00    -0.507 OA
ATOM     26  H   UNL     1       3.908 -10.035  19.399  1.00  0.00     0.293 HD
ENDBRANCH   5  25
BRANCH   7  27
ATOM     27  O   UNL     1       5.186  -6.764  15.567  1.00  0.00    -0.507 OA
ATOM     28  H   UNL     1       5.664  -5.963  15.953  1.00  0.00     0.293 HD
ENDBRANCH   7  27
TORSDOF 7
ENDMDL
MODEL 7
REMARK VINA RESULT:    -6.905      3.331      7.825
REMARK INTER + INTRA:          -8.896
REMARK INTER:                  -8.514
REMARK INTRA:                  -0.382
REMARK UNBOUND:                -0.377
REMARK SMILES Oc1cc(O)c2cc(O)c(-c3cc(O)c(O)c(O)c3)[o+]c2c1.[Cl-]
REMARK SMILES IDX 10 1 20 2 21 3 22 4 2 5 3 6 4 7 6 8 7 9 8 10 11 11 12 12
REMARK SMILES IDX 13 13 19 14 15 15 17 16 14 17 16 19 18 21 9 23 1 25 5 27
REMARK H PARENT 14 18 16 20 18 22 9 24 1 26 5 28
REMARK Flexibility Score: inf
ROOT
ATOM      1  C   UNL     1      -2.956  -9.245  14.123  1.00  0.00     0.402 A 
ATOM      2  O   UNL     1      -2.048  -8.970  15.055  1.00  0.00    -0.202 OA
ATOM      3  C   UNL     1      -0.957  -8.248  14.821  1.00  0.00     0.368 A 
ATOM      4  C   UNL     1      -0.062  -8.009  15.867  1.00  0.00     0.162 A 
ATOM      5  C   UNL     1       1.092  -7.251  15.648  1.00  0.00     0.128 A 
ATOM      6  C   UNL     1       1.351  -6.729  14.380  1.00  0.00     0.093 A 
ATOM      7  C   UNL     1       0.469  -6.953  13.315  1.00  0.00     0.136 A 
ATOM      8  C   UNL     1      -0.702  -7.724  13.530  1.00  0.00     0.125 A 
ATOM      9  C   UNL     1      -1.634  -8.012  12.520  1.00  0.00     0.078 A 
ATOM     10  C   UNL     1      -2.764  -8.783  12.807  1.00  0.00     0.223 A 
ENDROOT
BRANCH   1  11
ATOM     11  C   UNL     1      -4.136 -10.052  14.510  1.00  0.00     0.091 A 
ATOM     12  C   UNL     1      -5.299  -9.451  15.015  1.00  0.00     0.068 A 
ATOM     13  C   UNL     1      -6.396 -10.234  15.396  1.00  0.00     0.162 A 
ATOM     14  C   UNL     1      -4.073 -11.450  14.426  1.00  0.00     0.068 A 
ATOM     15  C   UNL     1      -6.340 -11.631  15.288  1.00  0.00     0.200 A 
ATOM     16  C   UNL     1      -5.162 -12.245  14.802  1.00  0.00     0.162 A 
BRANCH  13  17
ATOM     17  O   UNL     1      -7.551  -9.629  15.890  1.00  0.00    -0.504 OA
ATOM     18  H   UNL     1      -8.164 -10.106  16.542  1.00  0.00     0.293 HD
ENDBRANCH  13  17
BRANCH  15  19
ATOM     19  O   UNL     1      -7.465 -12.364  15.675  1.00  0.00    -0.502 OA
ATOM     20  H   UNL     1      -8.408 -12.005  15.658  1.00  0.00     0.293 HD
ENDBRANCH  15  19
BRANCH  16  21
ATOM     21  O   UNL     1      -5.029 -13.630  14.679  1.00  0.00    -0.504 OA
ATOM     22  H   UNL     1      -4.460 -14.200  15.287  1.00  0.00     0.293 HD
ENDBRANCH  16  21
ENDBRANCH   1  11
BRANCH  10  23
ATOM     23  O   UNL     1      -3.664  -9.110  11.793  1.00  0.00    -0.500 OA
ATOM     24  H   UNL     1      -3.604  -8.694  10.872  1.00  0.00     0.294 HD
ENDBRANCH  10  23
BRANCH   5  25
ATOM     25  O   UNL     1       1.989  -7.009  16.687  1.00  0.00    -0.507 OA
ATOM     26  H   UNL     1       1.982  -6.137  17.201  1.00  0.00     0.293 HD
ENDBRANCH   5  25
BRANCH   7  27
ATOM     27  O   UNL     1       0.799  -6.393  12.077  1.00  0.00    -0.507 OA
ATOM     28  H   UNL     1       0.334  -5.595  11.670  1.00  0.00     0.293 HD
ENDBRANCH   7  27
TORSDOF 7
ENDMDL
MODEL 8
REMARK VINA RESULT:    -6.883      3.501      5.557
REMARK INTER + INTRA:          -8.869
REMARK INTER:                  -8.539
REMARK INTRA:                  -0.331
REMARK UNBOUND:                -0.377
REMARK SMILES Oc1cc(O)c2cc(O)c(-c3cc(O)c(O)c(O)c3)[o+]c2c1.[Cl-]
REMARK SMILES IDX 10 1 20 2 21 3 22 4 2 5 3 6 4 7 6 8 7 9 8 10 11 11 12 12
REMARK SMILES IDX 13 13 19 14 15 15 17 16 14 17 16 19 18 21 9 23 1 25 5 27
REMARK H PARENT 14 18 16 20 18 22 9 24 1 26 5 28
REMARK Flexibility Score: inf
ROOT
ATOM      1  C   UNL     1      -1.928  -8.603  13.230  1.00  0.00     0.402 A 
ATOM      2  O   UNL     1      -2.115  -9.868  13.595  1.00  0.00    -0.202 OA
ATOM      3  C   UNL     1      -3.312 -10.383  13.854  1.00  0.00     0.368 A 
ATOM      4  C   UNL     1      -3.409 -11.726  14.227  1.00  0.00     0.162 A 
ATOM      5  C   UNL     1      -4.656 -12.294  14.503  1.00  0.00     0.128 A 
ATOM      6  C   UNL     1      -5.811 -11.517  14.403  1.00  0.00     0.093 A 
ATOM      7  C   UNL     1      -5.742 -10.169  14.029  1.00  0.00     0.136 A 
ATOM      8  C   UNL     1      -4.478  -9.586  13.752  1.00  0.00     0.125 A 
ATOM      9  C   UNL     1      -4.312  -8.241  13.385  1.00  0.00     0.078 A 
ATOM     10  C   UNL     1      -3.033  -7.737  13.130  1.00  0.00     0.223 A 
ENDROOT
BRANCH   1  11
ATOM     11  C   UNL     1      -0.544  -8.149  12.959  1.00  0.00     0.091 A 
ATOM     12  C   UNL     1       0.120  -8.497  11.774  1.00  0.00     0.068 A 
ATOM     13  C   UNL     1       1.437  -8.076  11.547  1.00  0.00     0.162 A 
ATOM     14  C   UNL     1       0.139  -7.402  13.930  1.00  0.00     0.068 A 
ATOM     15  C   UNL     1       2.110  -7.309  12.509  1.00  0.00     0.200 A 
ATOM     16  C   UNL     1       1.454  -6.974  13.716  1.00  0.00     0.162 A 
BRANCH  13  17
ATOM     17  O   UNL     1       2.088  -8.421  10.363  1.00  0.00    -0.504 OA
ATOM     18  H   UNL     1       3.037  -8.780  10.364  1.00  0.00     0.293 HD
ENDBRANCH  13  17
BRANCH  15  19
ATOM     19  O   UNL     1       3.420  -6.909  12.229  1.00  0.00    -0.502 OA
ATOM     20  H   UNL     1       3.658  -6.093  11.684  1.00  0.00     0.293 HD
ENDBRANCH  15  19
BRANCH  16  21
ATOM     21  O   UNL     1       2.065  -6.224  14.723  1.00  0.00    -0.504 OA
ATOM     22  H   UNL     1       1.987  -5.221  14.809  1.00  0.00     0.293 HD
ENDBRANCH  16  21
ENDBRANCH   1  11
BRANCH  10  23
ATOM     23  O   UNL     1      -2.862  -6.389  12.814  1.00  0.00    -0.500 OA
ATOM     24  H   UNL     1      -3.353  -5.658  13.315  1.00  0.00     0.294 HD
ENDBRANCH  10  23
BRANCH   5  25
ATOM     25  O   UNL     1      -4.759 -13.633  14.876  1.00  0.00    -0.507 OA
ATOM     26  H   UNL     1      -4.629 -13.927  15.836  1.00  0.00     0.293 HD
ENDBRANCH   5  25
BRANCH   7  27
ATOM     27  O   UNL     1      -6.945  -9.460  13.949  1.00  0.00    -0.507 OA
ATOM     28  H   UNL     1      -7.283  -8.828  14.660  1.00  0.00     0.293 HD
ENDBRANCH   7  27
TORSDOF 7
ENDMDL
MODEL 9
REMARK VINA RESULT:    -6.805      6.114      7.328
REMARK INTER + INTRA:          -8.773
REMARK INTER:                  -8.396
REMARK INTRA:                  -0.377
REMARK UNBOUND:                -0.377
REMARK SMILES Oc1cc(O)c2cc(O)c(-c3cc(O)c(O)c(O)c3)[o+]c2c1.[Cl-]
REMARK SMILES IDX 10 1 20 2 21 3 22 4 2 5 3 6 4 7 6 8 7 9 8 10 11 11 12 12
REMARK SMILES IDX 13 13 19 14 15 15 17 16 14 17 16 19 18 21 9 23 1 25 5 27
REMARK H PARENT 14 18 16 20 18 22 9 24 1 26 5 28
REMARK Flexibility Score: inf
ROOT
ATOM      1  C   UNL     1      -0.718  -6.917  15.198  1.00  0.00     0.402 A 
ATOM      2  O   UNL     1      -0.135  -7.242  16.348  1.00  0.00    -0.202 OA
ATOM      3  C   UNL     1      -0.552  -6.797  17.529  1.00  0.00     0.368 A 
ATOM      4  C   UNL     1       0.126  -7.197  18.684  1.00  0.00     0.162 A 
ATOM      5  C   UNL     1      -0.293  -6.747  19.940  1.00  0.00     0.128 A 
ATOM      6  C   UNL     1      -1.395  -5.894  20.040  1.00  0.00     0.093 A 
ATOM      7  C   UNL     1      -2.091  -5.480  18.898  1.00  0.00     0.136 A 
ATOM      8  C   UNL     1      -1.668  -5.931  17.621  1.00  0.00     0.125 A 
ATOM      9  C   UNL     1      -2.296  -5.557  16.422  1.00  0.00     0.078 A 
ATOM     10  C   UNL     1      -1.819  -6.040  15.200  1.00  0.00     0.223 A 
ENDROOT
BRANCH   1  11
ATOM     11  C   UNL     1      -0.166  -7.486  13.947  1.00  0.00     0.091 A 
ATOM     12  C   UNL     1       0.878  -6.855  13.255  1.00  0.00     0.068 A 
ATOM     13  C   UNL     1       1.371  -7.397  12.061  1.00  0.00     0.162 A 
ATOM     14  C   UNL     1      -0.736  -8.649  13.408  1.00  0.00     0.068 A 
ATOM     15  C   UNL     1       0.816  -8.573  11.537  1.00  0.00     0.200 A 
ATOM     16  C   UNL     1      -0.253  -9.203  12.216  1.00  0.00     0.162 A 
BRANCH  13  17
ATOM     17  O   UNL     1       2.414  -6.768  11.384  1.00  0.00    -0.504 OA
ATOM     18  H   UNL     1       2.742  -5.846  11.651  1.00  0.00     0.293 HD
ENDBRANCH  13  17
BRANCH  15  19
ATOM     19  O   UNL     1       1.349  -9.076  10.347  1.00  0.00    -0.502 OA
ATOM     20  H   UNL     1       1.255 -10.035  10.045  1.00  0.00     0.293 HD
ENDBRANCH  15  19
BRANCH  16  21
ATOM     21  O   UNL     1      -0.863 -10.368  11.748  1.00  0.00    -0.504 OA
ATOM     22  H   UNL     1      -0.359 -11.160  11.376  1.00  0.00     0.293 HD
ENDBRANCH  16  21
ENDBRANCH   1  11
BRANCH  10  23
ATOM     23  O   UNL     1      -2.411  -5.629  14.006  1.00  0.00    -0.500 OA
ATOM     24  H   UNL     1      -3.202  -4.996  13.993  1.00  0.00     0.294 HD
ENDBRANCH  10  23
BRANCH   5  25
ATOM     25  O   UNL     1       0.378  -7.142  21.095  1.00  0.00    -0.507 OA
ATOM     26  H   UNL     1       0.051  -7.917  21.659  1.00  0.00     0.293 HD
ENDBRANCH   5  25
BRANCH   7  27
ATOM     27  O   UNL     1      -3.185  -4.629  19.084  1.00  0.00    -0.507 OA
ATOM     28  H   UNL     1      -4.021  -4.643  18.519  1.00  0.00     0.293 HD
ENDBRANCH   7  27
TORSDOF 7
ENDMDL
