MODEL 1
REMARK VINA RESULT:    -4.507      0.000      0.000
REMARK INTER + INTRA:         -10.147
REMARK INTER:                  -8.459
REMARK INTRA:                  -1.687
REMARK UNBOUND:                -1.687
REMARK SMILES CCCCCCCCC=CCCCCCCCC(=O)[O-]
REMARK SMILES IDX 10 1 9 2 11 3 12 4 13 5 14 6 15 7 16 8 17 9 18 10 19 11
REMARK SMILES IDX 20 12 8 13 7 14 6 15 5 16 4 17 3 18 2 19 1 20
REMARK H PARENT
REMARK Flexibility Score: inf
ROOT
ATOM      1  C   UNL     1      31.978   7.711  48.411  1.00  0.00    -0.031 C 
ATOM      2  C   UNL     1      31.464   6.503  48.135  1.00  0.00    -0.031 C 
ENDROOT
BRANCH   1   3
ATOM      3  C   UNL     1      31.100   8.898  48.696  1.00  0.00     0.027 C 
BRANCH   3   4
ATOM      4  C   UNL     1      31.828  10.213  48.379  1.00  0.00     0.004 C 
BRANCH   4   5
ATOM      5  C   UNL     1      33.151   9.988  47.629  1.00  0.00     0.000 C 
BRANCH   5   6
ATOM      6  C   UNL     1      34.307  10.880  48.136  1.00  0.00     0.000 C 
BRANCH   6   7
ATOM      7  C   UNL     1      35.523  10.927  47.189  1.00  0.00     0.000 C 
BRANCH   7   8
ATOM      8  C   UNL     1      35.628  12.201  46.330  1.00  0.00     0.006 C 
BRANCH   8   9
ATOM      9  C   UNL     1      36.367  13.346  47.041  1.00  0.00     0.053 C 
BRANCH   9  10
ATOM     10  C   UNL     1      35.785  14.668  46.652  1.00  0.00     0.041 C 
ATOM     11  O   UNL     1      35.142  15.351  47.494  1.00  0.00    -0.550 OA
ATOM     12  O   UNL     1      35.985  15.165  45.372  1.00  0.00    -0.550 OA
ENDBRANCH   9  10
ENDBRANCH   8   9
ENDBRANCH   7   8
ENDBRANCH   6   7
ENDBRANCH   5   6
ENDBRANCH   4   5
ENDBRANCH   3   4
ENDBRANCH   1   3
BRANCH   2  13
ATOM     13  C   UNL     1      32.346   5.315  47.861  1.00  0.00     0.027 C 
BRANCH  13  14
ATOM     14  C   UNL     1      33.829   5.708  47.894  1.00  0.00     0.004 C 
BRANCH  14  15
ATOM     15  C   UNL     1      34.606   5.007  46.768  1.00  0.00     0.000 C 
BRANCH  15  16
ATOM     16  C   UNL     1      34.375   5.655  45.393  1.00  0.00     0.000 C 
BRANCH  16  17
ATOM     17  C   UNL     1      34.009   7.147  45.495  1.00  0.00    -0.000 C 
BRANCH  17  18
ATOM     18  C   UNL     1      34.046   7.852  44.129  1.00  0.00    -0.000 C 
BRANCH  18  19
ATOM     19  C   UNL     1      34.776   9.203  44.185  1.00  0.00    -0.003 C 
ATOM     20  C   UNL     1      33.931  10.309  43.557  1.00  0.00     0.004 C 
ENDBRANCH  18  19
ENDBRANCH  17  18
ENDBRANCH  16  17
ENDBRANCH  15  16
ENDBRANCH  14  15
ENDBRANCH  13  14
ENDBRANCH   2  13
TORSDOF 15
ENDMDL
MODEL 2
REMARK VINA RESULT:    -4.420     17.824     20.008
REMARK INTER + INTRA:          -9.983
REMARK INTER:                  -7.404
REMARK INTRA:                  -2.580
REMARK UNBOUND:                -1.687
REMARK SMILES CCCCCCCCC=CCCCCCCCC(=O)[O-]
REMARK SMILES IDX 10 1 9 2 11 3 12 4 13 5 14 6 15 7 16 8 17 9 18 10 19 11
REMARK SMILES IDX 20 12 8 13 7 14 6 15 5 16 4 17 3 18 2 19 1 20
REMARK H PARENT
REMARK Flexibility Score: inf
ROOT
ATOM      1  C   UNL     1      21.394  10.016  34.942  1.00  0.00    -0.031 C 
ATOM      2  C   UNL     1      21.366  11.078  35.762  1.00  0.00    -0.031 C 
ENDROOT
BRANCH   1   3
ATOM      3  C   UNL     1      20.770   8.703  35.326  1.00  0.00     0.027 C 
BRANCH   3   4
ATOM      4  C   UNL     1      19.647   8.905  36.354  1.00  0.00     0.004 C 
BRANCH   4   5
ATOM      5  C   UNL     1      19.363   7.635  37.174  1.00  0.00     0.000 C 
BRANCH   5   6
ATOM      6  C   UNL     1      19.243   6.357  36.312  1.00  0.00     0.000 C 
BRANCH   6   7
ATOM      7  C   UNL     1      17.908   6.242  35.549  1.00  0.00     0.000 C 
BRANCH   7   8
ATOM      8  C   UNL     1      18.027   5.702  34.112  1.00  0.00     0.006 C 
BRANCH   8   9
ATOM      9  C   UNL     1      18.536   6.754  33.113  1.00  0.00     0.053 C 
BRANCH   9  10
ATOM     10  C   UNL     1      19.781   6.277  32.435  1.00  0.00     0.041 C 
ATOM     11  O   UNL     1      20.794   5.963  33.117  1.00  0.00    -0.550 OA
ATOM     12  O   UNL     1      19.811   6.140  31.055  1.00  0.00    -0.550 OA
ENDBRANCH   9  10
ENDBRANCH   8   9
ENDBRANCH   7   8
ENDBRANCH   6   7
ENDBRANCH   5   6
ENDBRANCH   4   5
ENDBRANCH   3   4
ENDBRANCH   1   3
BRANCH   2  13
ATOM     13  C   UNL     1      21.983  12.393  35.368  1.00  0.00     0.027 C 
BRANCH  13  14
ATOM     14  C   UNL     1      20.910  13.396  34.923  1.00  0.00     0.004 C 
BRANCH  14  15
ATOM     15  C   UNL     1      19.604  13.183  35.703  1.00  0.00     0.000 C 
BRANCH  15  16
ATOM     16  C   UNL     1      18.369  13.114  34.790  1.00  0.00     0.000 C 
BRANCH  16  17
ATOM     17  C   UNL     1      18.196  11.732  34.132  1.00  0.00    -0.000 C 
BRANCH  17  18
ATOM     18  C   UNL     1      18.821  11.670  32.728  1.00  0.00    -0.000 C 
BRANCH  18  19
ATOM     19  C   UNL     1      18.822  10.248  32.149  1.00  0.00    -0.003 C 
ATOM     20  C   UNL     1      20.174   9.911  31.523  1.00  0.00     0.004 C 
ENDBRANCH  18  19
ENDBRANCH  17  18
ENDBRANCH  16  17
ENDBRANCH  15  16
ENDBRANCH  14  15
ENDBRANCH  13  14
ENDBRANCH   2  13
TORSDOF 15
ENDMDL
MODEL 3
REMARK VINA RESULT:    -4.384      1.204      3.654
REMARK INTER + INTRA:          -9.916
REMARK INTER:                  -8.637
REMARK INTRA:                  -1.279
REMARK UNBOUND:                -1.687
REMARK SMILES CCCCCCCCC=CCCCCCCCC(=O)[O-]
REMARK SMILES IDX 10 1 9 2 11 3 12 4 13 5 14 6 15 7 16 8 17 9 18 10 19 11
REMARK SMILES IDX 20 12 8 13 7 14 6 15 5 16 4 17 3 18 2 19 1 20
REMARK H PARENT
REMARK Flexibility Score: inf
ROOT
ATOM      1  C   UNL     1      34.194   8.495  44.032  1.00  0.00    -0.031 C 
ATOM      2  C   UNL     1      34.103   7.732  45.131  1.00  0.00    -0.031 C 
ENDROOT
BRANCH   1   3
ATOM      3  C   UNL     1      34.440   9.977  44.116  1.00  0.00     0.027 C 
BRANCH   3   4
ATOM      4  C   UNL     1      34.719  10.409  45.563  1.00  0.00     0.004 C 
BRANCH   4   5
ATOM      5  C   UNL     1      36.062  11.143  45.711  1.00  0.00     0.000 C 
BRANCH   5   6
ATOM      6  C   UNL     1      35.948  12.497  46.448  1.00  0.00     0.000 C 
BRANCH   6   7
ATOM      7  C   UNL     1      37.173  13.415  46.261  1.00  0.00     0.000 C 
BRANCH   7   8
ATOM      8  C   UNL     1      36.854  14.921  46.214  1.00  0.00     0.006 C 
BRANCH   8   9
ATOM      9  C   UNL     1      35.423  15.248  46.668  1.00  0.00     0.053 C 
BRANCH   9  10
ATOM     10  C   UNL     1      35.202  16.727  46.685  1.00  0.00     0.041 C 
ATOM     11  O   UNL     1      34.579  17.265  47.640  1.00  0.00    -0.550 OA
ATOM     12  O   UNL     1      35.718  17.518  45.668  1.00  0.00    -0.550 OA
ENDBRANCH   9  10
ENDBRANCH   8   9
ENDBRANCH   7   8
ENDBRANCH   6   7
ENDBRANCH   5   6
ENDBRANCH   4   5
ENDBRANCH   3   4
ENDBRANCH   1   3
BRANCH   2  13
ATOM     13  C   UNL     1      33.868   6.248  45.042  1.00  0.00     0.027 C 
BRANCH  13  14
ATOM     14  C   UNL     1      34.474   5.517  46.247  1.00  0.00     0.004 C 
BRANCH  14  15
ATOM     15  C   UNL     1      33.897   6.060  47.564  1.00  0.00     0.000 C 
BRANCH  15  16
ATOM     16  C   UNL     1      32.468   5.563  47.838  1.00  0.00     0.000 C 
BRANCH  16  17
ATOM     17  C   UNL     1      31.409   6.660  47.623  1.00  0.00    -0.000 C 
BRANCH  17  18
ATOM     18  C   UNL     1      31.577   7.835  48.601  1.00  0.00    -0.000 C 
BRANCH  18  19
ATOM     19  C   UNL     1      32.114   9.099  47.913  1.00  0.00    -0.003 C 
ATOM     20  C   UNL     1      31.691  10.356  48.669  1.00  0.00     0.004 C 
ENDBRANCH  18  19
ENDBRANCH  17  18
ENDBRANCH  16  17
ENDBRANCH  15  16
ENDBRANCH  14  15
ENDBRANCH  13  14
ENDBRANCH   2  13
TORSDOF 15
ENDMDL
MODEL 4
REMARK VINA RESULT:    -4.321     17.643     19.407
REMARK INTER + INTRA:          -9.798
REMARK INTER:                  -6.961
REMARK INTRA:                  -2.837
REMARK UNBOUND:                -1.687
REMARK SMILES CCCCCCCCC=CCCCCCCCC(=O)[O-]
REMARK SMILES IDX 10 1 9 2 11 3 12 4 13 5 14 6 15 7 16 8 17 9 18 10 19 11
REMARK SMILES IDX 20 12 8 13 7 14 6 15 5 16 4 17 3 18 2 19 1 20
REMARK H PARENT
REMARK Flexibility Score: inf
ROOT
ATOM      1  C   UNL     1      21.160  11.099  35.950  1.00  0.00    -0.031 C 
ATOM      2  C   UNL     1      21.513  10.040  35.205  1.00  0.00    -0.031 C 
ENDROOT
BRANCH   1   3
ATOM      3  C   UNL     1      21.589  12.495  35.592  1.00  0.00     0.027 C 
BRANCH   3   4
ATOM      4  C   UNL     1      20.376  13.378  35.263  1.00  0.00     0.004 C 
BRANCH   4   5
ATOM      5  C   UNL     1      19.087  12.886  35.942  1.00  0.00     0.000 C 
BRANCH   5   6
ATOM      6  C   UNL     1      17.922  12.648  34.955  1.00  0.00     0.000 C 
BRANCH   6   7
ATOM      7  C   UNL     1      17.875  11.220  34.375  1.00  0.00     0.000 C 
BRANCH   7   8
ATOM      8  C   UNL     1      17.964  11.138  32.841  1.00  0.00     0.006 C 
BRANCH   8   9
ATOM      9  C   UNL     1      19.326  10.632  32.342  1.00  0.00     0.053 C 
BRANCH   9  10
ATOM     10  C   UNL     1      20.238  11.781  32.047  1.00  0.00     0.041 C 
ATOM     11  O   UNL     1      19.762  12.922  31.804  1.00  0.00    -0.550 OA
ATOM     12  O   UNL     1      21.614  11.601  32.078  1.00  0.00    -0.550 OA
ENDBRANCH   9  10
ENDBRANCH   8   9
ENDBRANCH   7   8
ENDBRANCH   6   7
ENDBRANCH   5   6
ENDBRANCH   4   5
ENDBRANCH   3   4
ENDBRANCH   1   3
BRANCH   2  13
ATOM     13  C   UNL     1      21.072   8.645  35.561  1.00  0.00     0.027 C 
BRANCH  13  14
ATOM     14  C   UNL     1      19.651   8.644  36.140  1.00  0.00     0.004 C 
BRANCH  14  15
ATOM     15  C   UNL     1      19.356   7.321  36.864  1.00  0.00     0.000 C 
BRANCH  15  16
ATOM     16  C   UNL     1      18.345   6.442  36.110  1.00  0.00     0.000 C 
BRANCH  16  17
ATOM     17  C   UNL     1      17.876   7.079  34.789  1.00  0.00    -0.000 C 
BRANCH  17  18
ATOM     18  C   UNL     1      18.001   6.114  33.597  1.00  0.00    -0.000 C 
BRANCH  18  19
ATOM     19  C   UNL     1      19.041   6.584  32.569  1.00  0.00    -0.003 C 
ATOM     20  C   UNL     1      20.458   6.252  33.030  1.00  0.00     0.004 C 
ENDBRANCH  18  19
ENDBRANCH  17  18
ENDBRANCH  16  17
ENDBRANCH  15  16
ENDBRANCH  14  15
ENDBRANCH  13  14
ENDBRANCH   2  13
TORSDOF 15
ENDMDL
MODEL 5
REMARK VINA RESULT:    -4.200     17.428     19.156
REMARK INTER + INTRA:          -9.571
REMARK INTER:                  -7.064
REMARK INTRA:                  -2.507
REMARK UNBOUND:                -1.687
REMARK SMILES CCCCCCCCC=CCCCCCCCC(=O)[O-]
REMARK SMILES IDX 10 1 9 2 11 3 12 4 13 5 14 6 15 7 16 8 17 9 18 10 19 11
REMARK SMILES IDX 20 12 8 13 7 14 6 15 5 16 4 17 3 18 2 19 1 20
REMARK H PARENT
REMARK Flexibility Score: inf
ROOT
ATOM      1  C   UNL     1      21.169   9.747  35.456  1.00  0.00    -0.031 C 
ATOM      2  C   UNL     1      20.064   9.248  36.030  1.00  0.00    -0.031 C 
ENDROOT
BRANCH   1   3
ATOM      3  C   UNL     1      21.550  11.195  35.598  1.00  0.00     0.027 C 
BRANCH   3   4
ATOM      4  C   UNL     1      20.326  12.057  35.937  1.00  0.00     0.004 C 
BRANCH   4   5
ATOM      5  C   UNL     1      20.071  13.157  34.893  1.00  0.00     0.000 C 
BRANCH   5   6
ATOM      6  C   UNL     1      21.220  13.315  33.871  1.00  0.00     0.000 C 
BRANCH   6   7
ATOM      7  C   UNL     1      20.754  13.764  32.471  1.00  0.00     0.000 C 
BRANCH   7   8
ATOM      8  C   UNL     1      21.882  13.938  31.437  1.00  0.00     0.006 C 
BRANCH   8   9
ATOM      9  C   UNL     1      21.986  15.374  30.897  1.00  0.00     0.053 C 
BRANCH   9  10
ATOM     10  C   UNL     1      23.257  15.555  30.129  1.00  0.00     0.041 C 
ATOM     11  O   UNL     1      24.038  16.503  30.410  1.00  0.00    -0.550 OA
ATOM     12  O   UNL     1      23.599  14.655  29.130  1.00  0.00    -0.550 OA
ENDBRANCH   9  10
ENDBRANCH   8   9
ENDBRANCH   7   8
ENDBRANCH   6   7
ENDBRANCH   5   6
ENDBRANCH   4   5
ENDBRANCH   3   4
ENDBRANCH   1   3
BRANCH   2  13
ATOM     13  C   UNL     1      19.693   7.796  35.894  1.00  0.00     0.027 C 
BRANCH  13  14
ATOM     14  C   UNL     1      20.797   7.006  35.177  1.00  0.00     0.004 C 
BRANCH  14  15
ATOM     15  C   UNL     1      20.318   6.521  33.800  1.00  0.00     0.000 C 
BRANCH  15  16
ATOM     16  C   UNL     1      18.860   6.910  33.506  1.00  0.00     0.000 C 
BRANCH  16  17
ATOM     17  C   UNL     1      18.741   7.934  32.362  1.00  0.00    -0.000 C 
BRANCH  17  18
ATOM     18  C   UNL     1      18.173   9.282  32.840  1.00  0.00    -0.000 C 
BRANCH  18  19
ATOM     19  C   UNL     1      19.068  10.467  32.449  1.00  0.00    -0.003 C 
ATOM     20  C   UNL     1      20.438   9.987  31.977  1.00  0.00     0.004 C 
ENDBRANCH  18  19
ENDBRANCH  17  18
ENDBRANCH  16  17
ENDBRANCH  15  16
ENDBRANCH  14  15
ENDBRANCH  13  14
ENDBRANCH   2  13
TORSDOF 15
ENDMDL
MODEL 6
REMARK VINA RESULT:    -4.186     17.592     19.439
REMARK INTER + INTRA:          -9.544
REMARK INTER:                  -7.066
REMARK INTRA:                  -2.478
REMARK UNBOUND:                -1.687
REMARK SMILES CCCCCCCCC=CCCCCCCCC(=O)[O-]
REMARK SMILES IDX 10 1 9 2 11 3 12 4 13 5 14 6 15 7 16 8 17 9 18 10 19 11
REMARK SMILES IDX 20 12 8 13 7 14 6 15 5 16 4 17 3 18 2 19 1 20
REMARK H PARENT
REMARK Flexibility Score: inf
ROOT
ATOM      1  C   UNL     1      19.673  10.011  34.182  1.00  0.00    -0.031 C 
ATOM      2  C   UNL     1      20.545   9.686  33.216  1.00  0.00    -0.031 C 
ENDROOT
BRANCH   1   3
ATOM      3  C   UNL     1      20.123  10.309  35.586  1.00  0.00     0.027 C 
BRANCH   3   4
ATOM      4  C   UNL     1      21.654  10.384  35.671  1.00  0.00     0.004 C 
BRANCH   4   5
ATOM      5  C   UNL     1      22.180  11.826  35.571  1.00  0.00     0.000 C 
BRANCH   5   6
ATOM      6  C   UNL     1      21.066  12.895  35.635  1.00  0.00     0.000 C 
BRANCH   6   7
ATOM      7  C   UNL     1      20.949  13.753  34.359  1.00  0.00     0.000 C 
BRANCH   7   8
ATOM      8  C   UNL     1      21.508  13.098  33.083  1.00  0.00     0.006 C 
BRANCH   8   9
ATOM      9  C   UNL     1      20.555  13.207  31.883  1.00  0.00     0.053 C 
BRANCH   9  10
ATOM     10  C   UNL     1      20.872  14.421  31.068  1.00  0.00     0.041 C 
ATOM     11  O   UNL     1      19.972  14.982  30.387  1.00  0.00    -0.550 OA
ATOM     12  O   UNL     1      22.153  14.956  31.091  1.00  0.00    -0.550 OA
ENDBRANCH   9  10
ENDBRANCH   8   9
ENDBRANCH   7   8
ENDBRANCH   6   7
ENDBRANCH   5   6
ENDBRANCH   4   5
ENDBRANCH   3   4
ENDBRANCH   1   3
BRANCH   2  13
ATOM     13  C   UNL     1      20.092   9.399  31.810  1.00  0.00     0.027 C 
BRANCH  13  14
ATOM     14  C   UNL     1      18.599   9.045  31.770  1.00  0.00     0.004 C 
BRANCH  14  15
ATOM     15  C   UNL     1      18.390   7.533  31.944  1.00  0.00     0.000 C 
BRANCH  15  16
ATOM     16  C   UNL     1      19.664   6.719  31.668  1.00  0.00     0.000 C 
BRANCH  16  17
ATOM     17  C   UNL     1      20.143   5.932  32.902  1.00  0.00    -0.000 C 
BRANCH  17  18
ATOM     18  C   UNL     1      19.345   6.287  34.168  1.00  0.00    -0.000 C 
BRANCH  18  19
ATOM     19  C   UNL     1      20.254   6.633  35.356  1.00  0.00    -0.003 C 
ATOM     20  C   UNL     1      19.459   6.681  36.659  1.00  0.00     0.004 C 
ENDBRANCH  18  19
ENDBRANCH  17  18
ENDBRANCH  16  17
ENDBRANCH  15  16
ENDBRANCH  14  15
ENDBRANCH  13  14
ENDBRANCH   2  13
TORSDOF 15
ENDMDL
MODEL 7
REMARK VINA RESULT:    -4.176     17.446     19.061
REMARK INTER + INTRA:          -9.525
REMARK INTER:                  -7.163
REMARK INTRA:                  -2.362
REMARK UNBOUND:                -1.687
REMARK SMILES CCCCCCCCC=CCCCCCCCC(=O)[O-]
REMARK SMILES IDX 10 1 9 2 11 3 12 4 13 5 14 6 15 7 16 8 17 9 18 10 19 11
REMARK SMILES IDX 20 12 8 13 7 14 6 15 5 16 4 17 3 18 2 19 1 20
REMARK H PARENT
REMARK Flexibility Score: inf
ROOT
ATOM      1  C   UNL     1      20.903   8.794  35.644  1.00  0.00    -0.031 C 
ATOM      2  C   UNL     1      19.773   8.907  36.357  1.00  0.00    -0.031 C 
ENDROOT
BRANCH   1   3
ATOM      3  C   UNL     1      21.391   9.903  34.752  1.00  0.00     0.027 C 
BRANCH   3   4
ATOM      4  C   UNL     1      22.562  10.657  35.398  1.00  0.00     0.004 C 
BRANCH   4   5
ATOM      5  C   UNL     1      22.256  12.148  35.614  1.00  0.00     0.000 C 
BRANCH   5   6
ATOM      6  C   UNL     1      20.744  12.472  35.631  1.00  0.00     0.000 C 
BRANCH   6   7
ATOM      7  C   UNL     1      20.313  13.499  34.565  1.00  0.00     0.000 C 
BRANCH   7   8
ATOM      8  C   UNL     1      21.238  13.588  33.338  1.00  0.00     0.006 C 
BRANCH   8   9
ATOM      9  C   UNL     1      20.669  12.874  32.101  1.00  0.00     0.053 C 
BRANCH   9  10
ATOM     10  C   UNL     1      21.024  13.619  30.854  1.00  0.00     0.041 C 
ATOM     11  O   UNL     1      20.339  13.465  29.807  1.00  0.00    -0.550 OA
ATOM     12  O   UNL     1      22.085  14.513  30.857  1.00  0.00    -0.550 OA
ENDBRANCH   9  10
ENDBRANCH   8   9
ENDBRANCH   7   8
ENDBRANCH   6   7
ENDBRANCH   5   6
ENDBRANCH   4   5
ENDBRANCH   3   4
ENDBRANCH   1   3
BRANCH   2  13
ATOM     13  C   UNL     1      19.295   7.799  37.256  1.00  0.00     0.027 C 
BRANCH  13  14
ATOM     14  C   UNL     1      19.390   6.437  36.556  1.00  0.00     0.004 C 
BRANCH  14  15
ATOM     15  C   UNL     1      18.020   6.002  36.015  1.00  0.00     0.000 C 
BRANCH  15  16
ATOM     16  C   UNL     1      17.875   6.238  34.503  1.00  0.00     0.000 C 
BRANCH  16  17
ATOM     17  C   UNL     1      19.231   6.251  33.773  1.00  0.00    -0.000 C 
BRANCH  17  18
ATOM     18  C   UNL     1      19.304   7.348  32.697  1.00  0.00    -0.000 C 
BRANCH  18  19
ATOM     19  C   UNL     1      17.999   8.150  32.586  1.00  0.00    -0.003 C 
ATOM     20  C   UNL     1      18.204   9.596  33.028  1.00  0.00     0.004 C 
ENDBRANCH  18  19
ENDBRANCH  17  18
ENDBRANCH  16  17
ENDBRANCH  15  16
ENDBRANCH  14  15
ENDBRANCH  13  14
ENDBRANCH   2  13
TORSDOF 15
ENDMDL
MODEL 8
REMARK VINA RESULT:    -4.172      3.688      7.101
REMARK INTER + INTRA:          -9.517
REMARK INTER:                  -8.117
REMARK INTRA:                  -1.401
REMARK UNBOUND:                -1.687
REMARK SMILES CCCCCCCCC=CCCCCCCCC(=O)[O-]
REMARK SMILES IDX 10 1 9 2 11 3 12 4 13 5 14 6 15 7 16 8 17 9 18 10 19 11
REMARK SMILES IDX 20 12 8 13 7 14 6 15 5 16 4 17 3 18 2 19 1 20
REMARK H PARENT
REMARK Flexibility Score: inf
ROOT
ATOM      1  C   UNL     1      34.046  10.313  47.583  1.00  0.00    -0.031 C 
ATOM      2  C   UNL     1      34.384   9.849  46.371  1.00  0.00    -0.031 C 
ENDROOT
BRANCH   1   3
ATOM      3  C   UNL     1      33.302   9.463  48.576  1.00  0.00     0.027 C 
BRANCH   3   4
ATOM      4  C   UNL     1      31.784   9.608  48.400  1.00  0.00     0.004 C 
BRANCH   4   5
ATOM      5  C   UNL     1      31.054   8.254  48.438  1.00  0.00     0.000 C 
BRANCH   5   6
ATOM      6  C   UNL     1      31.940   7.089  48.933  1.00  0.00     0.000 C 
BRANCH   6   7
ATOM      7  C   UNL     1      31.985   5.885  47.972  1.00  0.00     0.000 C 
BRANCH   7   8
ATOM      8  C   UNL     1      32.529   6.196  46.566  1.00  0.00     0.006 C 
BRANCH   8   9
ATOM      9  C   UNL     1      34.056   6.370  46.536  1.00  0.00     0.053 C 
BRANCH   9  10
ATOM     10  C   UNL     1      34.737   5.040  46.581  1.00  0.00     0.041 C 
ATOM     11  O   UNL     1      35.020   4.509  47.689  1.00  0.00    -0.550 OA
ATOM     12  O   UNL     1      35.025   4.366  45.403  1.00  0.00    -0.550 OA
ENDBRANCH   9  10
ENDBRANCH   8   9
ENDBRANCH   7   8
ENDBRANCH   6   7
ENDBRANCH   5   6
ENDBRANCH   4   5
ENDBRANCH   3   4
ENDBRANCH   1   3
BRANCH   2  13
ATOM     13  C   UNL     1      35.138  10.700  45.384  1.00  0.00     0.027 C 
BRANCH  13  14
ATOM     14  C   UNL     1      35.541  12.044  46.006  1.00  0.00     0.004 C 
BRANCH  14  15
ATOM     15  C   UNL     1      37.058  12.105  46.242  1.00  0.00     0.000 C 
BRANCH  15  16
ATOM     16  C   UNL     1      37.666  13.463  45.857  1.00  0.00     0.000 C 
BRANCH  16  17
ATOM     17  C   UNL     1      36.744  14.646  46.208  1.00  0.00    -0.000 C 
BRANCH  17  18
ATOM     18  C   UNL     1      36.880  15.809  45.211  1.00  0.00    -0.000 C 
BRANCH  18  19
ATOM     19  C   UNL     1      36.006  17.013  45.592  1.00  0.00    -0.003 C 
ATOM     20  C   UNL     1      35.118  16.689  46.791  1.00  0.00     0.004 C 
ENDBRANCH  18  19
ENDBRANCH  17  18
ENDBRANCH  16  17
ENDBRANCH  15  16
ENDBRANCH  14  15
ENDBRANCH  13  14
ENDBRANCH   2  13
TORSDOF 15
ENDMDL
MODEL 9
REMARK VINA RESULT:    -4.094     17.641     19.381
REMARK INTER + INTRA:          -9.371
REMARK INTER:                  -6.699
REMARK INTRA:                  -2.672
REMARK UNBOUND:                -1.687
REMARK SMILES CCCCCCCCC=CCCCCCCCC(=O)[O-]
REMARK SMILES IDX 10 1 9 2 11 3 12 4 13 5 14 6 15 7 16 8 17 9 18 10 19 11
REMARK SMILES IDX 20 12 8 13 7 14 6 15 5 16 4 17 3 18 2 19 1 20
REMARK H PARENT
REMARK Flexibility Score: inf
ROOT
ATOM      1  C   UNL     1      21.241   9.694  35.627  1.00  0.00    -0.031 C 
ATOM      2  C   UNL     1      20.037   9.337  36.096  1.00  0.00    -0.031 C 
ENDROOT
BRANCH   1   3
ATOM      3  C   UNL     1      21.546  11.112  35.226  1.00  0.00     0.027 C 
BRANCH   3   4
ATOM      4  C   UNL     1      20.406  12.057  35.630  1.00  0.00     0.004 C 
BRANCH   4   5
ATOM      5  C   UNL     1      20.431  13.380  34.846  1.00  0.00     0.000 C 
BRANCH   5   6
ATOM      6  C   UNL     1      21.297  13.323  33.567  1.00  0.00     0.000 C 
BRANCH   6   7
ATOM      7  C   UNL     1      20.504  13.554  32.265  1.00  0.00     0.000 C 
BRANCH   7   8
ATOM      8  C   UNL     1      21.270  13.223  30.971  1.00  0.00     0.006 C 
BRANCH   8   9
ATOM      9  C   UNL     1      22.019  11.883  31.040  1.00  0.00     0.053 C 
BRANCH   9  10
ATOM     10  C   UNL     1      22.572  11.520  29.699  1.00  0.00     0.041 C 
ATOM     11  O   UNL     1      22.342  10.383  29.204  1.00  0.00    -0.550 OA
ATOM     12  O   UNL     1      23.307  12.449  28.976  1.00  0.00    -0.550 OA
ENDBRANCH   9  10
ENDBRANCH   8   9
ENDBRANCH   7   8
ENDBRANCH   6   7
ENDBRANCH   5   6
ENDBRANCH   4   5
ENDBRANCH   3   4
ENDBRANCH   1   3
BRANCH   2  13
ATOM     13  C   UNL     1      19.739   7.920  36.506  1.00  0.00     0.027 C 
BRANCH  13  14
ATOM     14  C   UNL     1      19.280   7.081  35.306  1.00  0.00     0.004 C 
BRANCH  14  15
ATOM     15  C   UNL     1      20.481   6.623  34.466  1.00  0.00     0.000 C 
BRANCH  15  16
ATOM     16  C   UNL     1      20.161   6.541  32.964  1.00  0.00     0.000 C 
BRANCH  16  17
ATOM     17  C   UNL     1      19.208   7.657  32.500  1.00  0.00    -0.000 C 
BRANCH  17  18
ATOM     18  C   UNL     1      19.952   8.961  32.168  1.00  0.00    -0.000 C 
BRANCH  18  19
ATOM     19  C   UNL     1      19.127  10.211  32.511  1.00  0.00    -0.003 C 
ATOM     20  C   UNL     1      17.875   9.842  33.302  1.00  0.00     0.004 C 
ENDBRANCH  18  19
ENDBRANCH  17  18
ENDBRANCH  16  17
ENDBRANCH  15  16
ENDBRANCH  14  15
ENDBRANCH  13  14
ENDBRANCH   2  13
TORSDOF 15
ENDMDL
