MODEL 1
REMARK VINA RESULT:    -4.544      0.000      0.000
REMARK INTER + INTRA:         -10.003
REMARK INTER:                  -8.529
REMARK INTRA:                  -1.473
REMARK UNBOUND:                -1.473
REMARK SMILES CCCCCCCCC=CCCCCCCCC(=O)[O-]
REMARK SMILES IDX 10 1 9 2 11 3 12 4 13 5 14 6 15 7 16 8 17 9 18 10 19 11
REMARK SMILES IDX 20 12 8 13 7 14 6 15 5 16 4 17 3 18 2 19 1 20
REMARK H PARENT
REMARK Flexibility Score: inf
ROOT
ATOM      1  C   UNL     1      -2.059  13.750 -15.872  1.00  0.00    -0.031 C 
ATOM      2  C   UNL     1      -2.590  13.049 -14.852  1.00  0.00    -0.031 C 
ENDROOT
BRANCH   1   3
ATOM      3  C   UNL     1      -2.675  13.866 -17.245  1.00  0.00     0.027 C 
BRANCH   3   4
ATOM      4  C   UNL     1      -1.616  14.122 -18.326  1.00  0.00     0.004 C 
BRANCH   4   5
ATOM      5  C   UNL     1      -0.862  15.444 -18.095  1.00  0.00     0.000 C 
BRANCH   5   6
ATOM      6  C   UNL     1       0.529  15.452 -18.749  1.00  0.00     0.000 C 
BRANCH   6   7
ATOM      7  C   UNL     1       1.182  16.845 -18.735  1.00  0.00     0.000 C 
BRANCH   7   8
ATOM      8  C   UNL     1       0.711  17.728 -19.901  1.00  0.00     0.006 C 
BRANCH   8   9
ATOM      9  C   UNL     1       0.614  19.210 -19.515  1.00  0.00     0.053 C 
BRANCH   9  10
ATOM     10  C   UNL     1      -0.271  19.384 -18.321  1.00  0.00     0.041 C 
ATOM     11  O   UNL     1      -1.493  19.090 -18.391  1.00  0.00    -0.550 OA
ATOM     12  O   UNL     1       0.244  19.911 -17.144  1.00  0.00    -0.550 OA
ENDBRANCH   9  10
ENDBRANCH   8   9
ENDBRANCH   7   8
ENDBRANCH   6   7
ENDBRANCH   5   6
ENDBRANCH   4   5
ENDBRANCH   3   4
ENDBRANCH   1   3
BRANCH   2  13
ATOM     13  C   UNL     1      -3.933  12.360 -14.892  1.00  0.00     0.027 C 
BRANCH  13  14
ATOM     14  C   UNL     1      -3.810  10.902 -15.357  1.00  0.00     0.004 C 
BRANCH  14  15
ATOM     15  C   UNL     1      -4.117  10.746 -16.853  1.00  0.00     0.000 C 
BRANCH  15  16
ATOM     16  C   UNL     1      -2.860  10.335 -17.632  1.00  0.00     0.000 C 
BRANCH  16  17
ATOM     17  C   UNL     1      -3.151  10.250 -19.139  1.00  0.00    -0.000 C 
BRANCH  17  18
ATOM     18  C   UNL     1      -4.230  11.247 -19.591  1.00  0.00    -0.000 C 
BRANCH  18  19
ATOM     19  C   UNL     1      -4.973  10.783 -20.852  1.00  0.00    -0.003 C 
ATOM     20  C   UNL     1      -6.481  10.974 -20.702  1.00  0.00     0.004 C 
ENDBRANCH  18  19
ENDBRANCH  17  18
ENDBRANCH  16  17
ENDBRANCH  15  16
ENDBRANCH  14  15
ENDBRANCH  13  14
ENDBRANCH   2  13
TORSDOF 15
ENDMDL
MODEL 2
REMARK VINA RESULT:    -4.371      0.868      2.269
REMARK INTER + INTRA:          -9.677
REMARK INTER:                  -8.395
REMARK INTRA:                  -1.282
REMARK UNBOUND:                -1.473
REMARK SMILES CCCCCCCCC=CCCCCCCCC(=O)[O-]
REMARK SMILES IDX 10 1 9 2 11 3 12 4 13 5 14 6 15 7 16 8 17 9 18 10 19 11
REMARK SMILES IDX 20 12 8 13 7 14 6 15 5 16 4 17 3 18 2 19 1 20
REMARK H PARENT
REMARK Flexibility Score: inf
ROOT
ATOM      1  C   UNL     1      -1.633  14.497 -18.509  1.00  0.00    -0.031 C 
ATOM      2  C   UNL     1      -2.373  13.740 -17.676  1.00  0.00    -0.031 C 
ENDROOT
BRANCH   1   3
ATOM      3  C   UNL     1      -0.669  15.569 -18.062  1.00  0.00     0.027 C 
BRANCH   3   4
ATOM      4  C   UNL     1       0.695  15.434 -18.754  1.00  0.00     0.004 C 
BRANCH   4   5
ATOM      5  C   UNL     1       1.424  16.786 -18.864  1.00  0.00     0.000 C 
BRANCH   5   6
ATOM      6  C   UNL     1       1.628  17.230 -20.321  1.00  0.00     0.000 C 
BRANCH   6   7
ATOM      7  C   UNL     1       1.325  18.723 -20.533  1.00  0.00     0.000 C 
BRANCH   7   8
ATOM      8  C   UNL     1       0.895  19.427 -19.236  1.00  0.00     0.006 C 
BRANCH   8   9
ATOM      9  C   UNL     1      -0.579  19.851 -19.257  1.00  0.00     0.053 C 
BRANCH   9  10
ATOM     10  C   UNL     1      -1.153  19.820 -17.876  1.00  0.00     0.041 C 
ATOM     11  O   UNL     1      -2.372  19.556 -17.702  1.00  0.00    -0.550 OA
ATOM     12  O   UNL     1      -0.352  20.125 -16.782  1.00  0.00    -0.550 OA
ENDBRANCH   9  10
ENDBRANCH   8   9
ENDBRANCH   7   8
ENDBRANCH   6   7
ENDBRANCH   5   6
ENDBRANCH   4   5
ENDBRANCH   3   4
ENDBRANCH   1   3
BRANCH   2  13
ATOM     13  C   UNL     1      -2.276  13.774 -16.171  1.00  0.00     0.027 C 
BRANCH  13  14
ATOM     14  C   UNL     1      -3.463  13.059 -15.508  1.00  0.00     0.004 C 
BRANCH  14  15
ATOM     15  C   UNL     1      -3.069  11.683 -14.950  1.00  0.00     0.000 C 
BRANCH  15  16
ATOM     16  C   UNL     1      -3.935  10.574 -15.562  1.00  0.00     0.000 C 
BRANCH  16  17
ATOM     17  C   UNL     1      -4.204  10.845 -17.050  1.00  0.00    -0.000 C 
BRANCH  17  18
ATOM     18  C   UNL     1      -3.065  10.353 -17.957  1.00  0.00    -0.000 C 
BRANCH  18  19
ATOM     19  C   UNL     1      -3.452  10.347 -19.443  1.00  0.00    -0.003 C 
ATOM     20  C   UNL     1      -4.537  11.381 -19.732  1.00  0.00     0.004 C 
ENDBRANCH  18  19
ENDBRANCH  17  18
ENDBRANCH  16  17
ENDBRANCH  15  16
ENDBRANCH  14  15
ENDBRANCH  13  14
ENDBRANCH   2  13
TORSDOF 15
ENDMDL
MODEL 3
REMARK VINA RESULT:    -4.297      3.453      7.990
REMARK INTER + INTRA:          -9.538
REMARK INTER:                  -8.190
REMARK INTRA:                  -1.348
REMARK UNBOUND:                -1.473
REMARK SMILES CCCCCCCCC=CCCCCCCCC(=O)[O-]
REMARK SMILES IDX 10 1 9 2 11 3 12 4 13 5 14 6 15 7 16 8 17 9 18 10 19 11
REMARK SMILES IDX 20 12 8 13 7 14 6 15 5 16 4 17 3 18 2 19 1 20
REMARK H PARENT
REMARK Flexibility Score: inf
ROOT
ATOM      1  C   UNL     1      -2.397  13.835 -17.828  1.00  0.00    -0.031 C 
ATOM      2  C   UNL     1      -1.567  14.549 -18.611  1.00  0.00    -0.031 C 
ENDROOT
BRANCH   1   3
ATOM      3  C   UNL     1      -2.324  13.788 -16.321  1.00  0.00     0.027 C 
BRANCH   3   4
ATOM      4  C   UNL     1      -3.536  13.066 -15.713  1.00  0.00     0.004 C 
BRANCH   4   5
ATOM      5  C   UNL     1      -3.276  11.561 -15.522  1.00  0.00     0.000 C 
BRANCH   5   6
ATOM      6  C   UNL     1      -3.829  10.715 -16.680  1.00  0.00     0.000 C 
BRANCH   6   7
ATOM      7  C   UNL     1      -2.783  10.461 -17.779  1.00  0.00     0.000 C 
BRANCH   7   8
ATOM      8  C   UNL     1      -3.418  10.300 -19.170  1.00  0.00     0.006 C 
BRANCH   8   9
ATOM      9  C   UNL     1      -4.449  11.394 -19.477  1.00  0.00     0.053 C 
BRANCH   9  10
ATOM     10  C   UNL     1      -5.355  10.964 -20.587  1.00  0.00     0.041 C 
ATOM     11  O   UNL     1      -4.873  10.562 -21.679  1.00  0.00    -0.550 OA
ATOM     12  O   UNL     1      -6.733  11.047 -20.432  1.00  0.00    -0.550 OA
ENDBRANCH   9  10
ENDBRANCH   8   9
ENDBRANCH   7   8
ENDBRANCH   6   7
ENDBRANCH   5   6
ENDBRANCH   4   5
ENDBRANCH   3   4
ENDBRANCH   1   3
BRANCH   2  13
ATOM     13  C   UNL     1      -0.506  15.493 -18.100  1.00  0.00     0.027 C 
BRANCH  13  14
ATOM     14  C   UNL     1       0.812  15.340 -18.874  1.00  0.00     0.004 C 
BRANCH  14  15
ATOM     15  C   UNL     1       1.601  16.657 -18.936  1.00  0.00     0.000 C 
BRANCH  15  16
ATOM     16  C   UNL     1       1.603  17.230 -20.359  1.00  0.00     0.000 C 
BRANCH  16  17
ATOM     17  C   UNL     1       1.202  18.713 -20.355  1.00  0.00    -0.000 C 
BRANCH  17  18
ATOM     18  C   UNL     1       0.653  19.174 -18.995  1.00  0.00    -0.000 C 
BRANCH  18  19
ATOM     19  C   UNL     1      -0.848  19.500 -19.043  1.00  0.00    -0.003 C 
ATOM     20  C   UNL     1      -1.421  19.650 -17.636  1.00  0.00     0.004 C 
ENDBRANCH  18  19
ENDBRANCH  17  18
ENDBRANCH  16  17
ENDBRANCH  15  16
ENDBRANCH  14  15
ENDBRANCH  13  14
ENDBRANCH   2  13
TORSDOF 15
ENDMDL
MODEL 4
REMARK VINA RESULT:    -4.182      3.436      7.505
REMARK INTER + INTRA:          -9.322
REMARK INTER:                  -7.715
REMARK INTRA:                  -1.607
REMARK UNBOUND:                -1.473
REMARK SMILES CCCCCCCCC=CCCCCCCCC(=O)[O-]
REMARK SMILES IDX 10 1 9 2 11 3 12 4 13 5 14 6 15 7 16 8 17 9 18 10 19 11
REMARK SMILES IDX 20 12 8 13 7 14 6 15 5 16 4 17 3 18 2 19 1 20
REMARK H PARENT
REMARK Flexibility Score: inf
ROOT
ATOM      1  C   UNL     1      -2.421  13.364 -15.017  1.00  0.00    -0.031 C 
ATOM      2  C   UNL     1      -1.887  13.933 -16.115  1.00  0.00    -0.031 C 
ENDROOT
BRANCH   1   3
ATOM      3  C   UNL     1      -3.776  12.702 -14.969  1.00  0.00     0.027 C 
BRANCH   3   4
ATOM      4  C   UNL     1      -3.691  11.265 -14.435  1.00  0.00     0.004 C 
BRANCH   4   5
ATOM      5  C   UNL     1      -3.945  10.222 -15.538  1.00  0.00     0.000 C 
BRANCH   5   6
ATOM      6  C   UNL     1      -4.085  10.858 -16.930  1.00  0.00     0.000 C 
BRANCH   6   7
ATOM      7  C   UNL     1      -3.047  10.325 -17.932  1.00  0.00     0.000 C 
BRANCH   7   8
ATOM      8  C   UNL     1      -3.328  10.786 -19.372  1.00  0.00     0.006 C 
BRANCH   8   9
ATOM      9  C   UNL     1      -4.660  11.537 -19.500  1.00  0.00     0.053 C 
BRANCH   9  10
ATOM     10  C   UNL     1      -5.462  10.991 -20.639  1.00  0.00     0.041 C 
ATOM     11  O   UNL     1      -4.884  10.527 -21.656  1.00  0.00    -0.550 OA
ATOM     12  O   UNL     1      -6.850  11.034 -20.595  1.00  0.00    -0.550 OA
ENDBRANCH   9  10
ENDBRANCH   8   9
ENDBRANCH   7   8
ENDBRANCH   6   7
ENDBRANCH   5   6
ENDBRANCH   4   5
ENDBRANCH   3   4
ENDBRANCH   1   3
BRANCH   2  13
ATOM     13  C   UNL     1      -2.513  13.903 -17.488  1.00  0.00     0.027 C 
BRANCH  13  14
ATOM     14  C   UNL     1      -1.503  14.280 -18.582  1.00  0.00     0.004 C 
BRANCH  14  15
ATOM     15  C   UNL     1      -0.682  15.522 -18.206  1.00  0.00     0.000 C 
BRANCH  15  16
ATOM     16  C   UNL     1       0.744  15.428 -18.764  1.00  0.00     0.000 C 
BRANCH  16  17
ATOM     17  C   UNL     1       1.301  16.823 -19.085  1.00  0.00    -0.000 C 
BRANCH  17  18
ATOM     18  C   UNL     1       0.196  17.844 -19.400  1.00  0.00    -0.000 C 
BRANCH  18  19
ATOM     19  C   UNL     1       0.151  18.999 -18.389  1.00  0.00    -0.003 C 
ATOM     20  C   UNL     1      -1.285  19.444 -18.128  1.00  0.00     0.004 C 
ENDBRANCH  18  19
ENDBRANCH  17  18
ENDBRANCH  16  17
ENDBRANCH  15  16
ENDBRANCH  14  15
ENDBRANCH  13  14
ENDBRANCH   2  13
TORSDOF 15
ENDMDL
MODEL 5
REMARK VINA RESULT:    -4.107      1.284      3.652
REMARK INTER + INTRA:          -9.183
REMARK INTER:                  -7.791
REMARK INTRA:                  -1.392
REMARK UNBOUND:                -1.473
REMARK SMILES CCCCCCCCC=CCCCCCCCC(=O)[O-]
REMARK SMILES IDX 10 1 9 2 11 3 12 4 13 5 14 6 15 7 16 8 17 9 18 10 19 11
REMARK SMILES IDX 20 12 8 13 7 14 6 15 5 16 4 17 3 18 2 19 1 20
REMARK H PARENT
REMARK Flexibility Score: inf
ROOT
ATOM      1  C   UNL     1      -0.612  15.435 -18.316  1.00  0.00    -0.031 C 
ATOM      2  C   UNL     1      -1.672  14.605 -18.289  1.00  0.00    -0.031 C 
ENDROOT
BRANCH   1   3
ATOM      3  C   UNL     1       0.631  15.210 -19.141  1.00  0.00     0.027 C 
BRANCH   3   4
ATOM      4  C   UNL     1       1.876  15.811 -18.474  1.00  0.00     0.004 C 
BRANCH   4   5
ATOM      5  C   UNL     1       2.124  17.265 -18.915  1.00  0.00     0.000 C 
BRANCH   5   6
ATOM      6  C   UNL     1       1.575  17.556 -20.321  1.00  0.00     0.000 C 
BRANCH   6   7
ATOM      7  C   UNL     1       1.589  19.056 -20.664  1.00  0.00     0.000 C 
BRANCH   7   8
ATOM      8  C   UNL     1       0.922  19.914 -19.578  1.00  0.00     0.006 C 
BRANCH   8   9
ATOM      9  C   UNL     1      -0.549  19.540 -19.352  1.00  0.00     0.053 C 
BRANCH   9  10
ATOM     10  C   UNL     1      -0.929  19.746 -17.920  1.00  0.00     0.041 C 
ATOM     11  O   UNL     1      -2.140  19.722 -17.576  1.00  0.00    -0.550 OA
ATOM     12  O   UNL     1       0.051  20.009 -16.971  1.00  0.00    -0.550 OA
ENDBRANCH   9  10
ENDBRANCH   8   9
ENDBRANCH   7   8
ENDBRANCH   6   7
ENDBRANCH   5   6
ENDBRANCH   4   5
ENDBRANCH   3   4
ENDBRANCH   1   3
BRANCH   2  13
ATOM     13  C   UNL     1      -1.826  13.380 -19.157  1.00  0.00     0.027 C 
BRANCH  13  14
ATOM     14  C   UNL     1      -3.195  12.712 -18.961  1.00  0.00     0.004 C 
BRANCH  14  15
ATOM     15  C   UNL     1      -3.119  11.186 -19.118  1.00  0.00     0.000 C 
BRANCH  15  16
ATOM     16  C   UNL     1      -3.051  10.496 -17.749  1.00  0.00     0.000 C 
BRANCH  16  17
ATOM     17  C   UNL     1      -3.957  11.204 -16.731  1.00  0.00    -0.000 C 
BRANCH  17  18
ATOM     18  C   UNL     1      -3.529  10.946 -15.277  1.00  0.00    -0.000 C 
BRANCH  18  19
ATOM     19  C   UNL     1      -3.433  12.236 -14.449  1.00  0.00    -0.003 C 
ATOM     20  C   UNL     1      -2.496  13.244 -15.110  1.00  0.00     0.004 C 
ENDBRANCH  18  19
ENDBRANCH  17  18
ENDBRANCH  16  17
ENDBRANCH  15  16
ENDBRANCH  14  15
ENDBRANCH  13  14
ENDBRANCH   2  13
TORSDOF 15
ENDMDL
MODEL 6
REMARK VINA RESULT:    -4.054      2.649      7.983
REMARK INTER + INTRA:          -9.082
REMARK INTER:                  -7.646
REMARK INTRA:                  -1.436
REMARK UNBOUND:                -1.473
REMARK SMILES CCCCCCCCC=CCCCCCCCC(=O)[O-]
REMARK SMILES IDX 10 1 9 2 11 3 12 4 13 5 14 6 15 7 16 8 17 9 18 10 19 11
REMARK SMILES IDX 20 12 8 13 7 14 6 15 5 16 4 17 3 18 2 19 1 20
REMARK H PARENT
REMARK Flexibility Score: inf
ROOT
ATOM      1  C   UNL     1      -1.042  15.252 -18.288  1.00  0.00    -0.031 C 
ATOM      2  C   UNL     1       0.204  15.756 -18.384  1.00  0.00    -0.031 C 
ENDROOT
BRANCH   1   3
ATOM      3  C   UNL     1      -1.570  14.110 -19.120  1.00  0.00     0.027 C 
BRANCH   3   4
ATOM      4  C   UNL     1      -2.434  13.150 -18.289  1.00  0.00     0.004 C 
BRANCH   4   5
ATOM      5  C   UNL     1      -3.288  12.226 -19.176  1.00  0.00     0.000 C 
BRANCH   5   6
ATOM      6  C   UNL     1      -3.422  10.809 -18.595  1.00  0.00     0.000 C 
BRANCH   6   7
ATOM      7  C   UNL     1      -3.074  10.747 -17.098  1.00  0.00     0.000 C 
BRANCH   7   8
ATOM      8  C   UNL     1      -4.308  10.917 -16.198  1.00  0.00     0.006 C 
BRANCH   8   9
ATOM      9  C   UNL     1      -4.277  12.226 -15.397  1.00  0.00     0.053 C 
BRANCH   9  10
ATOM     10  C   UNL     1      -2.945  12.408 -14.741  1.00  0.00     0.041 C 
ATOM     11  O   UNL     1      -2.535  11.569 -13.898  1.00  0.00    -0.550 OA
ATOM     12  O   UNL     1      -2.174  13.527 -15.030  1.00  0.00    -0.550 OA
ENDBRANCH   9  10
ENDBRANCH   8   9
ENDBRANCH   7   8
ENDBRANCH   6   7
ENDBRANCH   5   6
ENDBRANCH   4   5
ENDBRANCH   3   4
ENDBRANCH   1   3
BRANCH   2  13
ATOM     13  C   UNL     1       1.294  15.188 -19.259  1.00  0.00     0.027 C 
BRANCH  13  14
ATOM     14  C   UNL     1       1.799  16.219 -20.279  1.00  0.00     0.004 C 
BRANCH  14  15
ATOM     15  C   UNL     1       2.030  17.596 -19.641  1.00  0.00     0.000 C 
BRANCH  15  16
ATOM     16  C   UNL     1       1.474  18.715 -20.531  1.00  0.00     0.000 C 
BRANCH  16  17
ATOM     17  C   UNL     1       0.649  19.715 -19.705  1.00  0.00    -0.000 C 
BRANCH  17  18
ATOM     18  C   UNL     1       0.936  19.618 -18.199  1.00  0.00    -0.000 C 
BRANCH  18  19
ATOM     19  C   UNL     1      -0.330  19.766 -17.343  1.00  0.00    -0.003 C 
ATOM     20  C   UNL     1      -1.569  19.318 -18.114  1.00  0.00     0.004 C 
ENDBRANCH  18  19
ENDBRANCH  17  18
ENDBRANCH  16  17
ENDBRANCH  15  16
ENDBRANCH  14  15
ENDBRANCH  13  14
ENDBRANCH   2  13
TORSDOF 15
ENDMDL
MODEL 7
REMARK VINA RESULT:    -3.965      3.928      8.465
REMARK INTER + INTRA:          -8.916
REMARK INTER:                  -7.554
REMARK INTRA:                  -1.362
REMARK UNBOUND:                -1.473
REMARK SMILES CCCCCCCCC=CCCCCCCCC(=O)[O-]
REMARK SMILES IDX 10 1 9 2 11 3 12 4 13 5 14 6 15 7 16 8 17 9 18 10 19 11
REMARK SMILES IDX 20 12 8 13 7 14 6 15 5 16 4 17 3 18 2 19 1 20
REMARK H PARENT
REMARK Flexibility Score: inf
ROOT
ATOM      1  C   UNL     1      -1.619  14.703 -18.365  1.00  0.00    -0.031 C 
ATOM      2  C   UNL     1      -0.570  15.544 -18.296  1.00  0.00    -0.031 C 
ENDROOT
BRANCH   1   3
ATOM      3  C   UNL     1      -1.622  13.398 -19.124  1.00  0.00     0.027 C 
BRANCH   3   4
ATOM      4  C   UNL     1      -3.006  12.734 -19.111  1.00  0.00     0.004 C 
BRANCH   4   5
ATOM      5  C   UNL     1      -2.934  11.255 -18.689  1.00  0.00     0.000 C 
BRANCH   5   6
ATOM      6  C   UNL     1      -3.442  11.025 -17.257  1.00  0.00     0.000 C 
BRANCH   6   7
ATOM      7  C   UNL     1      -3.900  12.326 -16.574  1.00  0.00     0.000 C 
BRANCH   7   8
ATOM      8  C   UNL     1      -4.281  12.114 -15.100  1.00  0.00     0.006 C 
BRANCH   8   9
ATOM      9  C   UNL     1      -3.211  11.339 -14.320  1.00  0.00     0.053 C 
BRANCH   9  10
ATOM     10  C   UNL     1      -3.768  10.047 -13.811  1.00  0.00     0.041 C 
ATOM     11  O   UNL     1      -4.894   9.643 -14.203  1.00  0.00    -0.550 OA
ATOM     12  O   UNL     1      -3.061   9.308 -12.870  1.00  0.00    -0.550 OA
ENDBRANCH   9  10
ENDBRANCH   8   9
ENDBRANCH   7   8
ENDBRANCH   6   7
ENDBRANCH   5   6
ENDBRANCH   4   5
ENDBRANCH   3   4
ENDBRANCH   1   3
BRANCH   2  13
ATOM     13  C   UNL     1       0.795  15.263 -18.875  1.00  0.00     0.027 C 
BRANCH  13  14
ATOM     14  C   UNL     1       1.619  16.549 -19.039  1.00  0.00     0.004 C 
BRANCH  14  15
ATOM     15  C   UNL     1       1.797  16.935 -20.515  1.00  0.00     0.000 C 
BRANCH  15  16
ATOM     16  C   UNL     1       1.952  18.453 -20.671  1.00  0.00     0.000 C 
BRANCH  16  17
ATOM     17  C   UNL     1       0.695  19.188 -20.181  1.00  0.00    -0.000 C 
BRANCH  17  18
ATOM     18  C   UNL     1       0.962  20.057 -18.942  1.00  0.00    -0.000 C 
BRANCH  18  19
ATOM     19  C   UNL     1      -0.038  19.794 -17.807  1.00  0.00    -0.003 C 
ATOM     20  C   UNL     1      -1.297  19.109 -18.332  1.00  0.00     0.004 C 
ENDBRANCH  18  19
ENDBRANCH  17  18
ENDBRANCH  16  17
ENDBRANCH  15  16
ENDBRANCH  14  15
ENDBRANCH  13  14
ENDBRANCH   2  13
TORSDOF 15
ENDMDL
MODEL 8
REMARK VINA RESULT:    -3.833      1.624      3.675
REMARK INTER + INTRA:          -8.667
REMARK INTER:                  -7.461
REMARK INTRA:                  -1.206
REMARK UNBOUND:                -1.473
REMARK SMILES CCCCCCCCC=CCCCCCCCC(=O)[O-]
REMARK SMILES IDX 10 1 9 2 11 3 12 4 13 5 14 6 15 7 16 8 17 9 18 10 19 11
REMARK SMILES IDX 20 12 8 13 7 14 6 15 5 16 4 17 3 18 2 19 1 20
REMARK H PARENT
REMARK Flexibility Score: inf
ROOT
ATOM      1  C   UNL     1      -1.946  13.623 -19.129  1.00  0.00    -0.031 C 
ATOM      2  C   UNL     1      -2.718  12.519 -19.116  1.00  0.00    -0.031 C 
ENDROOT
BRANCH   1   3
ATOM      3  C   UNL     1      -1.599  14.440 -17.909  1.00  0.00     0.027 C 
BRANCH   3   4
ATOM      4  C   UNL     1      -0.798  15.698 -18.273  1.00  0.00     0.004 C 
BRANCH   4   5
ATOM      5  C   UNL     1       0.607  15.357 -18.799  1.00  0.00     0.000 C 
BRANCH   5   6
ATOM      6  C   UNL     1       1.546  16.573 -18.808  1.00  0.00     0.000 C 
BRANCH   6   7
ATOM      7  C   UNL     1       1.210  17.573 -19.928  1.00  0.00     0.000 C 
BRANCH   7   8
ATOM      8  C   UNL     1       0.978  18.997 -19.397  1.00  0.00     0.006 C 
BRANCH   8   9
ATOM      9  C   UNL     1      -0.510  19.360 -19.317  1.00  0.00     0.053 C 
BRANCH   9  10
ATOM     10  C   UNL     1      -0.881  19.747 -17.920  1.00  0.00     0.041 C 
ATOM     11  O   UNL     1       0.014  20.048 -17.087  1.00  0.00    -0.550 OA
ATOM     12  O   UNL     1      -2.213  19.735 -17.525  1.00  0.00    -0.550 OA
ENDBRANCH   9  10
ENDBRANCH   8   9
ENDBRANCH   7   8
ENDBRANCH   6   7
ENDBRANCH   5   6
ENDBRANCH   4   5
ENDBRANCH   3   4
ENDBRANCH   1   3
BRANCH   2  13
ATOM     13  C   UNL     1      -3.265  11.870 -17.869  1.00  0.00     0.027 C 
BRANCH  13  14
ATOM     14  C   UNL     1      -4.591  12.509 -17.430  1.00  0.00     0.004 C 
BRANCH  14  15
ATOM     15  C   UNL     1      -4.772  12.474 -15.906  1.00  0.00     0.000 C 
BRANCH  15  16
ATOM     16  C   UNL     1      -3.452  12.787 -15.188  1.00  0.00     0.000 C 
BRANCH  16  17
ATOM     17  C   UNL     1      -3.002  11.599 -14.324  1.00  0.00    -0.000 C 
BRANCH  17  18
ATOM     18  C   UNL     1      -3.729  10.294 -14.686  1.00  0.00    -0.000 C 
BRANCH  18  19
ATOM     19  C   UNL     1      -4.310   9.579 -13.457  1.00  0.00    -0.003 C 
ATOM     20  C   UNL     1      -3.502   8.330 -13.115  1.00  0.00     0.004 C 
ENDBRANCH  18  19
ENDBRANCH  17  18
ENDBRANCH  16  17
ENDBRANCH  15  16
ENDBRANCH  14  15
ENDBRANCH  13  14
ENDBRANCH   2  13
TORSDOF 15
ENDMDL
MODEL 9
REMARK VINA RESULT:    -3.667      3.762      7.977
REMARK INTER + INTRA:          -8.356
REMARK INTER:                  -6.775
REMARK INTRA:                  -1.581
REMARK UNBOUND:                -1.473
REMARK SMILES CCCCCCCCC=CCCCCCCCC(=O)[O-]
REMARK SMILES IDX 10 1 9 2 11 3 12 4 13 5 14 6 15 7 16 8 17 9 18 10 19 11
REMARK SMILES IDX 20 12 8 13 7 14 6 15 5 16 4 17 3 18 2 19 1 20
REMARK H PARENT
REMARK Flexibility Score: inf
ROOT
ATOM      1  C   UNL     1      -2.817  12.749 -19.408  1.00  0.00    -0.031 C 
ATOM      2  C   UNL     1      -2.283  13.963 -19.175  1.00  0.00    -0.031 C 
ENDROOT
BRANCH   1   3
ATOM      3  C   UNL     1      -2.419  11.485 -18.687  1.00  0.00     0.027 C 
BRANCH   3   4
ATOM      4  C   UNL     1      -3.546  10.963 -17.785  1.00  0.00     0.004 C 
BRANCH   4   5
ATOM      5  C   UNL     1      -4.810  11.837 -17.874  1.00  0.00     0.000 C 
BRANCH   5   6
ATOM      6  C   UNL     1      -5.131  12.547 -16.549  1.00  0.00     0.000 C 
BRANCH   6   7
ATOM      7  C   UNL     1      -3.871  13.068 -15.836  1.00  0.00     0.000 C 
BRANCH   7   8
ATOM      8  C   UNL     1      -3.772  12.578 -14.383  1.00  0.00     0.006 C 
BRANCH   8   9
ATOM      9  C   UNL     1      -2.851  11.360 -14.234  1.00  0.00     0.053 C 
BRANCH   9  10
ATOM     10  C   UNL     1      -3.651  10.130 -13.942  1.00  0.00     0.041 C 
ATOM     11  O   UNL     1      -4.714   9.900 -14.576  1.00  0.00    -0.550 OA
ATOM     12  O   UNL     1      -3.247   9.259 -12.938  1.00  0.00    -0.550 OA
ENDBRANCH   9  10
ENDBRANCH   8   9
ENDBRANCH   7   8
ENDBRANCH   6   7
ENDBRANCH   5   6
ENDBRANCH   4   5
ENDBRANCH   3   4
ENDBRANCH   1   3
BRANCH   2  13
ATOM     13  C   UNL     1      -1.283  14.266 -18.086  1.00  0.00     0.027 C 
BRANCH  13  14
ATOM     14  C   UNL     1      -0.626  15.640 -18.283  1.00  0.00     0.004 C 
BRANCH  14  15
ATOM     15  C   UNL     1       0.854  15.522 -18.673  1.00  0.00     0.000 C 
BRANCH  15  16
ATOM     16  C   UNL     1       1.467  16.904 -18.932  1.00  0.00     0.000 C 
BRANCH  16  17
ATOM     17  C   UNL     1       0.559  17.746 -19.843  1.00  0.00    -0.000 C 
BRANCH  17  18
ATOM     18  C   UNL     1       0.810  19.255 -19.697  1.00  0.00    -0.000 C 
BRANCH  18  19
ATOM     19  C   UNL     1      -0.466  20.036 -19.349  1.00  0.00    -0.003 C 
ATOM     20  C   UNL     1      -1.272  19.319 -18.269  1.00  0.00     0.004 C 
ENDBRANCH  18  19
ENDBRANCH  17  18
ENDBRANCH  16  17
ENDBRANCH  15  16
ENDBRANCH  14  15
ENDBRANCH  13  14
ENDBRANCH   2  13
TORSDOF 15
ENDMDL
