MODEL 1
REMARK VINA RESULT:    -5.327      0.000      0.000
REMARK INTER + INTRA:          -5.483
REMARK INTER:                  -5.483
REMARK INTRA:                   0.000
REMARK UNBOUND:                 0.000
REMARK SMILES O=c1ccc2ccc(O)cc2o1
REMARK SMILES IDX 6 1 7 2 8 3 10 4 11 5 5 6 4 7 3 8 2 9 1 10 12 11 9 12
REMARK H PARENT 9 13
REMARK Flexibility Score: inf
ROOT
ATOM      1  C   UNL     1      16.627 -32.514 -21.010  1.00  0.00     0.016 A 
ATOM      2  C   UNL     1      17.308 -33.736 -21.033  1.00  0.00     0.047 A 
ATOM      3  C   UNL     1      18.646 -33.792 -21.443  1.00  0.00     0.119 A 
ATOM      4  C   UNL     1      19.308 -32.618 -21.833  1.00  0.00     0.094 A 
ATOM      5  C   UNL     1      18.634 -31.392 -21.812  1.00  0.00     0.142 A 
ATOM      6  C   UNL     1      17.286 -31.339 -21.398  1.00  0.00     0.018 A 
ATOM      7  C   UNL     1      16.639 -30.100 -21.388  1.00  0.00     0.019 A 
ATOM      8  C   UNL     1      17.338 -28.960 -21.784  1.00  0.00     0.094 A 
ATOM      9  C   UNL     1      18.674 -29.088 -22.182  1.00  0.00     0.336 A 
ATOM     10  O   UNL     1      19.321 -28.071 -22.542  1.00  0.00    -0.246 OA
ATOM     11  O   UNL     1      19.266 -30.280 -22.182  1.00  0.00    -0.423 OA
ENDROOT
BRANCH   3  12
ATOM     12  O   UNL     1      19.307 -35.018 -21.459  1.00  0.00    -0.508 OA
ATOM     13  H   UNL     1      19.224 -35.655 -22.244  1.00  0.00     0.293 HD
ENDBRANCH   3  12
TORSDOF 1
ENDMDL
MODEL 2
REMARK VINA RESULT:    -5.321     14.136     14.778
REMARK INTER + INTRA:          -5.477
REMARK INTER:                  -5.477
REMARK INTRA:                   0.000
REMARK UNBOUND:                 0.000
REMARK SMILES O=c1ccc2ccc(O)cc2o1
REMARK SMILES IDX 6 1 7 2 8 3 10 4 11 5 5 6 4 7 3 8 2 9 1 10 12 11 9 12
REMARK H PARENT 9 13
REMARK Flexibility Score: inf
ROOT
ATOM      1  C   UNL     1      10.533 -26.771 -11.463  1.00  0.00     0.016 A 
ATOM      2  C   UNL     1      11.314 -26.108 -10.511  1.00  0.00     0.047 A 
ATOM      3  C   UNL     1      11.156 -24.732 -10.299  1.00  0.00     0.119 A 
ATOM      4  C   UNL     1      10.208 -24.015 -11.044  1.00  0.00     0.094 A 
ATOM      5  C   UNL     1       9.422 -24.670 -11.998  1.00  0.00     0.142 A 
ATOM      6  C   UNL     1       9.585 -26.057 -12.209  1.00  0.00     0.018 A 
ATOM      7  C   UNL     1       8.785 -26.685 -13.168  1.00  0.00     0.019 A 
ATOM      8  C   UNL     1       7.856 -25.929 -13.885  1.00  0.00     0.094 A 
ATOM      9  C   UNL     1       7.750 -24.558 -13.622  1.00  0.00     0.336 A 
ATOM     10  O   UNL     1       6.918 -23.861 -14.258  1.00  0.00    -0.246 OA
ATOM     11  O   UNL     1       8.524 -23.986 -12.703  1.00  0.00    -0.423 OA
ENDROOT
BRANCH   3  12
ATOM     12  O   UNL     1      11.943 -24.090  -9.347  1.00  0.00    -0.508 OA
ATOM     13  H   UNL     1      12.568 -23.332  -9.599  1.00  0.00     0.293 HD
ENDBRANCH   3  12
TORSDOF 1
ENDMDL
MODEL 3
REMARK VINA RESULT:    -5.275     15.213     16.493
REMARK INTER + INTRA:          -5.429
REMARK INTER:                  -5.429
REMARK INTRA:                   0.000
REMARK UNBOUND:                 0.000
REMARK SMILES O=c1ccc2ccc(O)cc2o1
REMARK SMILES IDX 6 1 7 2 8 3 10 4 11 5 5 6 4 7 3 8 2 9 1 10 12 11 9 12
REMARK H PARENT 9 13
REMARK Flexibility Score: inf
ROOT
ATOM      1  C   UNL     1       9.085 -25.309 -10.514  1.00  0.00     0.016 A 
ATOM      2  C   UNL     1       8.301 -25.483  -9.369  1.00  0.00     0.047 A 
ATOM      3  C   UNL     1       6.984 -25.008  -9.334  1.00  0.00     0.119 A 
ATOM      4  C   UNL     1       6.447 -24.355 -10.454  1.00  0.00     0.094 A 
ATOM      5  C   UNL     1       7.224 -24.177 -11.603  1.00  0.00     0.142 A 
ATOM      6  C   UNL     1       8.551 -24.657 -11.634  1.00  0.00     0.018 A 
ATOM      7  C   UNL     1       9.304 -24.464 -12.797  1.00  0.00     0.019 A 
ATOM      8  C   UNL     1       8.726 -23.808 -13.885  1.00  0.00     0.094 A 
ATOM      9  C   UNL     1       7.404 -23.360 -13.782  1.00  0.00     0.336 A 
ATOM     10  O   UNL     1       6.866 -22.767 -14.753  1.00  0.00    -0.246 OA
ATOM     11  O   UNL     1       6.711 -23.556 -12.664  1.00  0.00    -0.423 OA
ENDROOT
BRANCH   3  12
ATOM     12  O   UNL     1       6.219 -25.192  -8.186  1.00  0.00    -0.508 OA
ATOM     13  H   UNL     1       5.228 -25.400  -8.236  1.00  0.00     0.293 HD
ENDBRANCH   3  12
TORSDOF 1
ENDMDL
MODEL 4
REMARK VINA RESULT:    -5.200      9.549     10.665
REMARK INTER + INTRA:          -5.352
REMARK INTER:                  -5.352
REMARK INTRA:                   0.000
REMARK UNBOUND:                 0.000
REMARK SMILES O=c1ccc2ccc(O)cc2o1
REMARK SMILES IDX 6 1 7 2 8 3 10 4 11 5 5 6 4 7 3 8 2 9 1 10 12 11 9 12
REMARK H PARENT 9 13
REMARK Flexibility Score: inf
ROOT
ATOM      1  C   UNL     1       8.499 -32.546 -20.645  1.00  0.00     0.016 A 
ATOM      2  C   UNL     1       7.787 -31.343 -20.691  1.00  0.00     0.047 A 
ATOM      3  C   UNL     1       7.651 -30.556 -19.541  1.00  0.00     0.119 A 
ATOM      4  C   UNL     1       8.233 -30.976 -18.335  1.00  0.00     0.094 A 
ATOM      5  C   UNL     1       8.947 -32.177 -18.280  1.00  0.00     0.142 A 
ATOM      6  C   UNL     1       9.081 -32.967 -19.442  1.00  0.00     0.018 A 
ATOM      7  C   UNL     1       9.801 -34.163 -19.356  1.00  0.00     0.019 A 
ATOM      8  C   UNL     1      10.361 -34.538 -18.135  1.00  0.00     0.094 A 
ATOM      9  C   UNL     1      10.187 -33.704 -17.024  1.00  0.00     0.336 A 
ATOM     10  O   UNL     1      10.685 -34.026 -15.914  1.00  0.00    -0.246 OA
ATOM     11  O   UNL     1       9.498 -32.572 -17.134  1.00  0.00    -0.423 OA
ENDROOT
BRANCH   3  12
ATOM     12  O   UNL     1       6.938 -29.362 -19.607  1.00  0.00    -0.508 OA
ATOM     13  H   UNL     1       6.334 -29.148 -20.393  1.00  0.00     0.293 HD
ENDBRANCH   3  12
TORSDOF 1
ENDMDL
MODEL 5
REMARK VINA RESULT:    -5.196      8.501      9.327
REMARK INTER + INTRA:          -5.348
REMARK INTER:                  -5.348
REMARK INTRA:                   0.000
REMARK UNBOUND:                 0.000
REMARK SMILES O=c1ccc2ccc(O)cc2o1
REMARK SMILES IDX 6 1 7 2 8 3 10 4 11 5 5 6 4 7 3 8 2 9 1 10 12 11 9 12
REMARK H PARENT 9 13
REMARK Flexibility Score: inf
ROOT
ATOM      1  C   UNL     1       7.579 -32.284 -19.741  1.00  0.00     0.016 A 
ATOM      2  C   UNL     1       8.470 -33.349 -19.573  1.00  0.00     0.047 A 
ATOM      3  C   UNL     1       9.828 -33.192 -19.879  1.00  0.00     0.119 A 
ATOM      4  C   UNL     1      10.298 -31.959 -20.355  1.00  0.00     0.094 A 
ATOM      5  C   UNL     1       9.415 -30.888 -20.526  1.00  0.00     0.142 A 
ATOM      6  C   UNL     1       8.047 -31.051 -20.217  1.00  0.00     0.018 A 
ATOM      7  C   UNL     1       7.188 -29.962 -20.398  1.00  0.00     0.019 A 
ATOM      8  C   UNL     1       7.702 -28.756 -20.875  1.00  0.00     0.094 A 
ATOM      9  C   UNL     1       9.070 -28.668 -21.160  1.00  0.00     0.336 A 
ATOM     10  O   UNL     1       9.552 -27.589 -21.591  1.00  0.00    -0.246 OA
ATOM     11  O   UNL     1       9.865 -29.720 -20.979  1.00  0.00    -0.423 OA
ENDROOT
BRANCH   3  12
ATOM     12  O   UNL     1      10.698 -34.264 -19.704  1.00  0.00    -0.508 OA
ATOM     13  H   UNL     1      11.102 -34.753 -20.496  1.00  0.00     0.293 HD
ENDBRANCH   3  12
TORSDOF 1
ENDMDL
MODEL 6
REMARK VINA RESULT:    -5.172      7.825      9.406
REMARK INTER + INTRA:          -5.323
REMARK INTER:                  -5.323
REMARK INTRA:                   0.000
REMARK UNBOUND:                 0.000
REMARK SMILES O=c1ccc2ccc(O)cc2o1
REMARK SMILES IDX 6 1 7 2 8 3 10 4 11 5 5 6 4 7 3 8 2 9 1 10 12 11 9 12
REMARK H PARENT 9 13
REMARK Flexibility Score: inf
ROOT
ATOM      1  C   UNL     1       8.044 -33.374 -19.449  1.00  0.00     0.016 A 
ATOM      2  C   UNL     1       7.522 -32.187 -19.971  1.00  0.00     0.047 A 
ATOM      3  C   UNL     1       8.379 -31.163 -20.395  1.00  0.00     0.119 A 
ATOM      4  C   UNL     1       9.769 -31.329 -20.296  1.00  0.00     0.094 A 
ATOM      5  C   UNL     1      10.299 -32.514 -19.776  1.00  0.00     0.142 A 
ATOM      6  C   UNL     1       9.433 -33.543 -19.349  1.00  0.00     0.018 A 
ATOM      7  C   UNL     1       9.992 -34.717 -18.834  1.00  0.00     0.019 A 
ATOM      8  C   UNL     1      11.380 -34.835 -18.755  1.00  0.00     0.094 A 
ATOM      9  C   UNL     1      12.177 -33.773 -19.197  1.00  0.00     0.336 A 
ATOM     10  O   UNL     1      13.431 -33.862 -19.134  1.00  0.00    -0.246 OA
ATOM     11  O   UNL     1      11.619 -32.668 -19.684  1.00  0.00    -0.423 OA
ENDROOT
BRANCH   3  12
ATOM     12  O   UNL     1       7.840 -29.988 -20.912  1.00  0.00    -0.508 OA
ATOM     13  H   UNL     1       8.316 -29.460 -21.636  1.00  0.00     0.293 HD
ENDBRANCH   3  12
TORSDOF 1
ENDMDL
MODEL 7
REMARK VINA RESULT:    -5.148      8.583     10.303
REMARK INTER + INTRA:          -5.298
REMARK INTER:                  -5.298
REMARK INTRA:                   0.000
REMARK UNBOUND:                 0.000
REMARK SMILES O=c1ccc2ccc(O)cc2o1
REMARK SMILES IDX 6 1 7 2 8 3 10 4 11 5 5 6 4 7 3 8 2 9 1 10 12 11 9 12
REMARK H PARENT 9 13
REMARK Flexibility Score: inf
ROOT
ATOM      1  C   UNL     1       7.119 -29.634 -20.573  1.00  0.00     0.016 A 
ATOM      2  C   UNL     1       7.652 -28.406 -20.977  1.00  0.00     0.047 A 
ATOM      3  C   UNL     1       9.028 -28.271 -21.203  1.00  0.00     0.119 A 
ATOM      4  C   UNL     1       9.876 -29.374 -21.024  1.00  0.00     0.094 A 
ATOM      5  C   UNL     1       9.352 -30.606 -20.620  1.00  0.00     0.142 A 
ATOM      6  C   UNL     1       7.964 -30.738 -20.393  1.00  0.00     0.018 A 
ATOM      7  C   UNL     1       7.468 -31.982 -19.991  1.00  0.00     0.019 A 
ATOM      8  C   UNL     1       8.352 -33.049 -19.825  1.00  0.00     0.094 A 
ATOM      9  C   UNL     1       9.715 -32.845 -20.069  1.00  0.00     0.336 A 
ATOM     10  O   UNL     1      10.527 -33.796 -19.925  1.00  0.00    -0.246 OA
ATOM     11  O   UNL     1      10.160 -31.650 -20.451  1.00  0.00    -0.423 OA
ENDROOT
BRANCH   3  12
ATOM     12  O   UNL     1       9.539 -27.040 -21.605  1.00  0.00    -0.508 OA
ATOM     13  H   UNL     1      10.130 -26.954 -22.425  1.00  0.00     0.293 HD
ENDBRANCH   3  12
TORSDOF 1
ENDMDL
MODEL 8
REMARK VINA RESULT:    -5.091      7.754      8.708
REMARK INTER + INTRA:          -5.239
REMARK INTER:                  -5.239
REMARK INTRA:                   0.000
REMARK UNBOUND:                 0.000
REMARK SMILES O=c1ccc2ccc(O)cc2o1
REMARK SMILES IDX 6 1 7 2 8 3 10 4 11 5 5 6 4 7 3 8 2 9 1 10 12 11 9 12
REMARK H PARENT 9 13
REMARK Flexibility Score: inf
ROOT
ATOM      1  C   UNL     1       9.777 -34.553 -18.979  1.00  0.00     0.016 A 
ATOM      2  C   UNL     1      11.132 -34.797 -18.734  1.00  0.00     0.047 A 
ATOM      3  C   UNL     1      12.089 -33.808 -18.995  1.00  0.00     0.119 A 
ATOM      4  C   UNL     1      11.687 -32.564 -19.505  1.00  0.00     0.094 A 
ATOM      5  C   UNL     1      10.334 -32.311 -19.752  1.00  0.00     0.142 A 
ATOM      6  C   UNL     1       9.372 -33.310 -19.487  1.00  0.00     0.018 A 
ATOM      7  C   UNL     1       8.027 -33.028 -19.744  1.00  0.00     0.019 A 
ATOM      8  C   UNL     1       7.676 -31.776 -20.251  1.00  0.00     0.094 A 
ATOM      9  C   UNL     1       8.683 -30.834 -20.488  1.00  0.00     0.336 A 
ATOM     10  O   UNL     1       8.386 -29.700 -20.945  1.00  0.00    -0.246 OA
ATOM     11  O   UNL     1       9.956 -31.129 -20.235  1.00  0.00    -0.423 OA
ENDROOT
BRANCH   3  12
ATOM     12  O   UNL     1      13.433 -34.071 -18.745  1.00  0.00    -0.508 OA
ATOM     13  H   UNL     1      14.165 -33.702 -19.342  1.00  0.00     0.293 HD
ENDBRANCH   3  12
TORSDOF 1
ENDMDL
MODEL 9
REMARK VINA RESULT:    -5.089      2.468      3.762
REMARK INTER + INTRA:          -5.238
REMARK INTER:                  -5.238
REMARK INTRA:                   0.000
REMARK UNBOUND:                 0.000
REMARK SMILES O=c1ccc2ccc(O)cc2o1
REMARK SMILES IDX 6 1 7 2 8 3 10 4 11 5 5 6 4 7 3 8 2 9 1 10 12 11 9 12
REMARK H PARENT 9 13
REMARK Flexibility Score: inf
ROOT
ATOM      1  C   UNL     1      18.184 -31.040 -21.452  1.00  0.00     0.016 A 
ATOM      2  C   UNL     1      19.213 -31.908 -21.833  1.00  0.00     0.047 A 
ATOM      3  C   UNL     1      19.026 -33.295 -21.777  1.00  0.00     0.119 A 
ATOM      4  C   UNL     1      17.800 -33.818 -21.338  1.00  0.00     0.094 A 
ATOM      5  C   UNL     1      16.766 -32.957 -20.955  1.00  0.00     0.142 A 
ATOM      6  C   UNL     1      16.958 -31.560 -21.013  1.00  0.00     0.018 A 
ATOM      7  C   UNL     1      15.906 -30.724 -20.625  1.00  0.00     0.019 A 
ATOM      8  C   UNL     1      14.706 -31.291 -20.194  1.00  0.00     0.094 A 
ATOM      9  C   UNL     1      14.587 -32.686 -20.164  1.00  0.00     0.336 A 
ATOM     10  O   UNL     1      13.513 -33.215 -19.779  1.00  0.00    -0.246 OA
ATOM     11  O   UNL     1      15.605 -33.457 -20.539  1.00  0.00    -0.423 OA
ENDROOT
BRANCH   3  12
ATOM     12  O   UNL     1      20.062 -34.142 -22.160  1.00  0.00    -0.508 OA
ATOM     13  H   UNL     1      20.261 -34.998 -21.655  1.00  0.00     0.293 HD
ENDBRANCH   3  12
TORSDOF 1
ENDMDL
