MODEL 1
REMARK VINA RESULT:    -5.013      0.000      0.000
REMARK INTER + INTRA:          -6.302
REMARK INTER:                  -6.039
REMARK INTRA:                  -0.263
REMARK UNBOUND:                -0.263
REMARK SMILES O=c1c(O)c(-c2ccc(O)c(O)c2)oc2cc(O)cc(O)c12
REMARK SMILES IDX 5 1 3 2 2 3 1 4 22 5 20 6 19 7 17 8 16 9 15 10 14 11 6 12
REMARK SMILES IDX 7 13 8 14 9 15 13 16 11 17 10 18 12 20 4 22 21 24 18 26
REMARK H PARENT 10 19 12 21 4 23 21 25 18 27
REMARK Flexibility Score: inf
ROOT
ATOM      1  C   UNL     1       0.374  12.260   9.664  1.00  0.00     0.180 A 
ATOM      2  C   UNL     1       1.605  11.673  10.002  1.00  0.00     0.208 A 
ATOM      3  C   UNL     1       1.955  11.555  11.356  1.00  0.00     0.238 A 
ATOM      4  O   UNL     1       3.083  11.079  11.650  1.00  0.00    -0.285 OA
ATOM      5  C   UNL     1       1.062  12.011  12.356  1.00  0.00     0.111 A 
ATOM      6  C   UNL     1       1.296  11.905  13.761  1.00  0.00     0.134 A 
ATOM      7  C   UNL     1       0.405  12.507  14.657  1.00  0.00     0.093 A 
ATOM      8  C   UNL     1      -0.745  13.153  14.204  1.00  0.00     0.123 A 
ATOM      9  C   UNL     1      -1.014  13.211  12.836  1.00  0.00     0.094 A 
ATOM     10  C   UNL     1      -0.124  12.651  11.915  1.00  0.00     0.146 A 
ATOM     11  O   UNL     1      -0.413  12.737  10.622  1.00  0.00    -0.452 OA
ENDROOT
BRANCH   1  12
ATOM     12  C   UNL     1      -0.076  12.396   8.259  1.00  0.00     0.025 A 
ATOM     13  C   UNL     1       0.464  13.414   7.458  1.00  0.00     0.016 A 
ATOM     14  C   UNL     1       0.038  13.574   6.136  1.00  0.00     0.051 A 
ATOM     15  C   UNL     1      -0.941  12.732   5.602  1.00  0.00     0.157 A 
ATOM     16  C   UNL     1      -1.076  11.563   7.726  1.00  0.00     0.062 A 
ATOM     17  C   UNL     1      -1.505  11.723   6.401  1.00  0.00     0.158 A 
BRANCH  15  18
ATOM     18  O   UNL     1      -1.343  12.914   4.279  1.00  0.00    -0.504 OA
ATOM     19  H   UNL     1      -0.829  13.504   3.636  1.00  0.00     0.293 HD
ENDBRANCH  15  18
BRANCH  17  20
ATOM     20  O   UNL     1      -2.491  10.889   5.878  1.00  0.00    -0.504 OA
ATOM     21  H   UNL     1      -2.659  10.825   4.881  1.00  0.00     0.293 HD
ENDBRANCH  17  20
ENDBRANCH   1  12
BRANCH   2  22
ATOM     22  O   UNL     1       2.481  11.251   8.998  1.00  0.00    -0.502 OA
ATOM     23  H   UNL     1       3.393  10.860   9.200  1.00  0.00     0.293 HD
ENDBRANCH   2  22
BRANCH   6  24
ATOM     24  O   UNL     1       2.367  11.202  14.323  1.00  0.00    -0.507 OA
ATOM     25  H   UNL     1       3.138  11.627  14.815  1.00  0.00     0.293 HD
ENDBRANCH   6  24
BRANCH   8  26
ATOM     26  O   UNL     1      -1.619  13.728  15.125  1.00  0.00    -0.508 OA
ATOM     27  H   UNL     1      -1.293  14.080  16.017  1.00  0.00     0.293 HD
ENDBRANCH   8  26
TORSDOF 6
ENDMDL
MODEL 2
REMARK VINA RESULT:    -4.706     21.208     22.678
REMARK INTER + INTRA:          -5.932
REMARK INTER:                  -5.636
REMARK INTRA:                  -0.296
REMARK UNBOUND:                -0.263
REMARK SMILES O=c1c(O)c(-c2ccc(O)c(O)c2)oc2cc(O)cc(O)c12
REMARK SMILES IDX 5 1 3 2 2 3 1 4 22 5 20 6 19 7 17 8 16 9 15 10 14 11 6 12
REMARK SMILES IDX 7 13 8 14 9 15 13 16 11 17 10 18 12 20 4 22 21 24 18 26
REMARK H PARENT 10 19 12 21 4 23 21 25 18 27
REMARK Flexibility Score: inf
ROOT
ATOM      1  C   UNL     1     -14.270  29.854   9.114  1.00  0.00     0.180 A 
ATOM      2  C   UNL     1     -14.924  30.250  10.293  1.00  0.00     0.208 A 
ATOM      3  C   UNL     1     -14.163  30.474  11.452  1.00  0.00     0.238 A 
ATOM      4  O   UNL     1     -14.760  30.776  12.518  1.00  0.00    -0.285 OA
ATOM      5  C   UNL     1     -12.757  30.314  11.413  1.00  0.00     0.111 A 
ATOM      6  C   UNL     1     -11.883  30.554  12.516  1.00  0.00     0.134 A 
ATOM      7  C   UNL     1     -10.524  30.238  12.402  1.00  0.00     0.093 A 
ATOM      8  C   UNL     1      -9.994  29.755  11.206  1.00  0.00     0.123 A 
ATOM      9  C   UNL     1     -10.829  29.573  10.102  1.00  0.00     0.094 A 
ATOM     10  C   UNL     1     -12.197  29.845  10.197  1.00  0.00     0.146 A 
ATOM     11  O   UNL     1     -12.958  29.649   9.127  1.00  0.00    -0.452 OA
ENDROOT
BRANCH   1  12
ATOM     12  C   UNL     1     -15.001  29.623   7.847  1.00  0.00     0.025 A 
ATOM     13  C   UNL     1     -15.068  30.649   6.892  1.00  0.00     0.016 A 
ATOM     14  C   UNL     1     -15.770  30.460   5.698  1.00  0.00     0.051 A 
ATOM     15  C   UNL     1     -16.427  29.252   5.448  1.00  0.00     0.157 A 
ATOM     16  C   UNL     1     -15.679  28.416   7.603  1.00  0.00     0.062 A 
ATOM     17  C   UNL     1     -16.386  28.225   6.407  1.00  0.00     0.158 A 
BRANCH  15  18
ATOM     18  O   UNL     1     -17.117  29.091   4.248  1.00  0.00    -0.504 OA
ATOM     19  H   UNL     1     -17.242  28.183   3.815  1.00  0.00     0.293 HD
ENDBRANCH  15  18
BRANCH  17  20
ATOM     20  O   UNL     1     -17.050  27.023   6.169  1.00  0.00    -0.504 OA
ATOM     21  H   UNL     1     -16.975  26.239   6.807  1.00  0.00     0.293 HD
ENDBRANCH  17  20
ENDBRANCH   1  12
BRANCH   2  22
ATOM     22  O   UNL     1     -16.315  30.380  10.315  1.00  0.00    -0.502 OA
ATOM     23  H   UNL     1     -16.843  30.721   9.521  1.00  0.00     0.293 HD
ENDBRANCH   2  22
BRANCH   6  24
ATOM     24  O   UNL     1     -12.293  31.121  13.727  1.00  0.00    -0.507 OA
ATOM     25  H   UNL     1     -12.010  32.030  14.060  1.00  0.00     0.293 HD
ENDBRANCH   6  24
BRANCH   8  26
ATOM     26  O   UNL     1      -8.634  29.466  11.123  1.00  0.00    -0.508 OA
ATOM     27  H   UNL     1      -8.300  28.594  10.729  1.00  0.00     0.293 HD
ENDBRANCH   8  26
TORSDOF 6
ENDMDL
MODEL 3
REMARK VINA RESULT:    -4.621     19.894     21.984
REMARK INTER + INTRA:          -5.830
REMARK INTER:                  -5.726
REMARK INTRA:                  -0.104
REMARK UNBOUND:                -0.263
REMARK SMILES O=c1c(O)c(-c2ccc(O)c(O)c2)oc2cc(O)cc(O)c12
REMARK SMILES IDX 5 1 3 2 2 3 1 4 22 5 20 6 19 7 17 8 16 9 15 10 14 11 6 12
REMARK SMILES IDX 7 13 8 14 9 15 13 16 11 17 10 18 12 20 4 22 21 24 18 26
REMARK H PARENT 10 19 12 21 4 23 21 25 18 27
REMARK Flexibility Score: inf
ROOT
ATOM      1  C   UNL     1     -10.539  30.148  10.437  1.00  0.00     0.180 A 
ATOM      2  C   UNL     1     -10.014  30.261   9.138  1.00  0.00     0.208 A 
ATOM      3  C   UNL     1     -10.898  30.362   8.052  1.00  0.00     0.238 A 
ATOM      4  O   UNL     1     -10.422  30.407   6.888  1.00  0.00    -0.285 OA
ATOM      5  C   UNL     1     -12.295  30.364   8.279  1.00  0.00     0.111 A 
ATOM      6  C   UNL     1     -13.282  30.502   7.257  1.00  0.00     0.134 A 
ATOM      7  C   UNL     1     -14.637  30.360   7.581  1.00  0.00     0.093 A 
ATOM      8  C   UNL     1     -15.044  30.152   8.898  1.00  0.00     0.123 A 
ATOM      9  C   UNL     1     -14.091  30.075   9.915  1.00  0.00     0.094 A 
ATOM     10  C   UNL     1     -12.729  30.177   9.617  1.00  0.00     0.146 A 
ATOM     11  O   UNL     1     -11.855  30.088  10.612  1.00  0.00    -0.452 OA
ENDROOT
BRANCH   1  12
ATOM     12  C   UNL     1      -9.671  30.063  11.634  1.00  0.00     0.025 A 
ATOM     13  C   UNL     1      -8.768  31.102  11.907  1.00  0.00     0.016 A 
ATOM     14  C   UNL     1      -7.925  31.032  13.020  1.00  0.00     0.051 A 
ATOM     15  C   UNL     1      -7.960  29.919  13.865  1.00  0.00     0.157 A 
ATOM     16  C   UNL     1      -9.691  28.935  12.473  1.00  0.00     0.062 A 
ATOM     17  C   UNL     1      -8.845  28.862  13.589  1.00  0.00     0.158 A 
BRANCH  15  18
ATOM     18  O   UNL     1      -7.109  29.878  14.968  1.00  0.00    -0.504 OA
ATOM     19  H   UNL     1      -7.012  30.663  15.603  1.00  0.00     0.293 HD
ENDBRANCH  15  18
BRANCH  17  20
ATOM     20  O   UNL     1      -8.874  27.743  14.420  1.00  0.00    -0.504 OA
ATOM     21  H   UNL     1      -9.392  27.742  15.291  1.00  0.00     0.293 HD
ENDBRANCH  17  20
ENDBRANCH   1  12
BRANCH   2  22
ATOM     22  O   UNL     1      -8.632  30.233   8.935  1.00  0.00    -0.502 OA
ATOM     23  H   UNL     1      -8.035  31.024   9.144  1.00  0.00     0.293 HD
ENDBRANCH   2  22
BRANCH   6  24
ATOM     24  O   UNL     1     -12.988  30.803   5.923  1.00  0.00    -0.507 OA
ATOM     25  H   UNL     1     -12.696  31.709   5.590  1.00  0.00     0.293 HD
ENDBRANCH   6  24
BRANCH   8  26
ATOM     26  O   UNL     1     -16.402  30.031   9.187  1.00  0.00    -0.508 OA
ATOM     27  H   UNL     1     -16.971  29.304   8.770  1.00  0.00     0.293 HD
ENDBRANCH   8  26
TORSDOF 6
ENDMDL
MODEL 4
REMARK VINA RESULT:    -4.465     20.721     22.948
REMARK INTER + INTRA:          -5.642
REMARK INTER:                  -5.543
REMARK INTRA:                  -0.099
REMARK UNBOUND:                -0.263
REMARK SMILES O=c1c(O)c(-c2ccc(O)c(O)c2)oc2cc(O)cc(O)c12
REMARK SMILES IDX 5 1 3 2 2 3 1 4 22 5 20 6 19 7 17 8 16 9 15 10 14 11 6 12
REMARK SMILES IDX 7 13 8 14 9 15 13 16 11 17 10 18 12 20 4 22 21 24 18 26
REMARK H PARENT 10 19 12 21 4 23 21 25 18 27
REMARK Flexibility Score: inf
ROOT
ATOM      1  C   UNL     1     -12.074  30.352   9.942  1.00  0.00     0.180 A 
ATOM      2  C   UNL     1     -13.369  30.420  10.482  1.00  0.00     0.208 A 
ATOM      3  C   UNL     1     -14.465  30.537   9.613  1.00  0.00     0.238 A 
ATOM      4  O   UNL     1     -15.618  30.653  10.105  1.00  0.00    -0.285 OA
ATOM      5  C   UNL     1     -14.253  30.570   8.213  1.00  0.00     0.111 A 
ATOM      6  C   UNL     1     -15.293  30.646   7.237  1.00  0.00     0.134 A 
ATOM      7  C   UNL     1     -14.962  30.803   5.886  1.00  0.00     0.093 A 
ATOM      8  C   UNL     1     -13.632  30.821   5.468  1.00  0.00     0.123 A 
ATOM      9  C   UNL     1     -12.608  30.687   6.407  1.00  0.00     0.094 A 
ATOM     10  C   UNL     1     -12.907  30.565   7.767  1.00  0.00     0.146 A 
ATOM     11  O   UNL     1     -11.903  30.451   8.628  1.00  0.00    -0.452 OA
ENDROOT
BRANCH   1  12
ATOM     12  C   UNL     1     -10.871  30.203  10.793  1.00  0.00     0.025 A 
ATOM     13  C   UNL     1      -9.812  31.114  10.658  1.00  0.00     0.016 A 
ATOM     14  C   UNL     1      -8.659  30.979  11.437  1.00  0.00     0.051 A 
ATOM     15  C   UNL     1      -8.541  29.926  12.348  1.00  0.00     0.157 A 
ATOM     16  C   UNL     1     -10.742  29.133  11.696  1.00  0.00     0.062 A 
ATOM     17  C   UNL     1      -9.585  28.995  12.477  1.00  0.00     0.158 A 
BRANCH  15  18
ATOM     18  O   UNL     1      -7.380  29.819  13.113  1.00  0.00    -0.504 OA
ATOM     19  H   UNL     1      -7.084  30.551  13.748  1.00  0.00     0.293 HD
ENDBRANCH  15  18
BRANCH  17  20
ATOM     20  O   UNL     1      -9.467  27.935  13.374  1.00  0.00    -0.504 OA
ATOM     21  H   UNL     1      -9.679  26.982  13.101  1.00  0.00     0.293 HD
ENDBRANCH  17  20
ENDBRANCH   1  12
BRANCH   2  22
ATOM     22  O   UNL     1     -13.554  30.409  11.868  1.00  0.00    -0.502 OA
ATOM     23  H   UNL     1     -13.650  31.259  12.411  1.00  0.00     0.293 HD
ENDBRANCH   2  22
BRANCH   6  24
ATOM     24  O   UNL     1     -16.655  30.545   7.539  1.00  0.00    -0.507 OA
ATOM     25  H   UNL     1     -17.401  30.656   6.869  1.00  0.00     0.293 HD
ENDBRANCH   6  24
BRANCH   8  26
ATOM     26  O   UNL     1     -13.339  30.963   4.114  1.00  0.00    -0.508 OA
ATOM     27  H   UNL     1     -13.161  31.872   3.701  1.00  0.00     0.293 HD
ENDBRANCH   8  26
TORSDOF 6
ENDMDL
MODEL 5
REMARK VINA RESULT:    -4.422      1.827      7.005
REMARK INTER + INTRA:          -5.590
REMARK INTER:                  -5.662
REMARK INTRA:                   0.073
REMARK UNBOUND:                -0.263
REMARK SMILES O=c1c(O)c(-c2ccc(O)c(O)c2)oc2cc(O)cc(O)c12
REMARK SMILES IDX 5 1 3 2 2 3 1 4 22 5 20 6 19 7 17 8 16 9 15 10 14 11 6 12
REMARK SMILES IDX 7 13 8 14 9 15 13 16 11 17 10 18 12 20 4 22 21 24 18 26
REMARK H PARENT 10 19 12 21 4 23 21 25 18 27
REMARK Flexibility Score: inf
ROOT
ATOM      1  C   UNL     1      -0.118  11.523   8.669  1.00  0.00     0.180 A 
ATOM      2  C   UNL     1       0.926  11.376   7.741  1.00  0.00     0.208 A 
ATOM      3  C   UNL     1       0.613  11.201   6.384  1.00  0.00     0.238 A 
ATOM      4  O   UNL     1       1.552  11.015   5.566  1.00  0.00    -0.285 OA
ATOM      5  C   UNL     1      -0.741  11.189   5.970  1.00  0.00     0.111 A 
ATOM      6  C   UNL     1      -1.173  11.059   4.615  1.00  0.00     0.134 A 
ATOM      7  C   UNL     1      -2.539  10.929   4.336  1.00  0.00     0.093 A 
ATOM      8  C   UNL     1      -3.492  10.992   5.352  1.00  0.00     0.123 A 
ATOM      9  C   UNL     1      -3.084  11.179   6.673  1.00  0.00     0.094 A 
ATOM     10  C   UNL     1      -1.725  11.275   6.988  1.00  0.00     0.146 A 
ATOM     11  O   UNL     1      -1.379  11.442   8.259  1.00  0.00    -0.452 OA
ENDROOT
BRANCH   1  12
ATOM     12  C   UNL     1       0.134  11.736  10.113  1.00  0.00     0.025 A 
ATOM     13  C   UNL     1       1.030  10.895  10.789  1.00  0.00     0.016 A 
ATOM     14  C   UNL     1       1.267  11.066  12.156  1.00  0.00     0.051 A 
ATOM     15  C   UNL     1       0.601  12.067  12.869  1.00  0.00     0.157 A 
ATOM     16  C   UNL     1      -0.551  12.730  10.836  1.00  0.00     0.062 A 
ATOM     17  C   UNL     1      -0.316  12.902  12.208  1.00  0.00     0.158 A 
BRANCH  15  18
ATOM     18  O   UNL     1       0.859  12.215  14.231  1.00  0.00    -0.504 OA
ATOM     19  H   UNL     1       1.208  11.452  14.799  1.00  0.00     0.293 HD
ENDBRANCH  15  18
BRANCH  17  20
ATOM     20  O   UNL     1      -0.993  13.893  12.916  1.00  0.00    -0.504 OA
ATOM     21  H   UNL     1      -0.513  14.499  13.571  1.00  0.00     0.293 HD
ENDBRANCH  17  20
ENDBRANCH   1  12
BRANCH   2  22
ATOM     22  O   UNL     1       2.255  11.368   8.175  1.00  0.00    -0.502 OA
ATOM     23  H   UNL     1       3.002  11.804   7.649  1.00  0.00     0.293 HD
ENDBRANCH   2  22
BRANCH   6  24
ATOM     24  O   UNL     1      -0.310  11.078   3.516  1.00  0.00    -0.507 OA
ATOM     25  H   UNL     1       0.695  11.006   3.573  1.00  0.00     0.293 HD
ENDBRANCH   6  24
BRANCH   8  26
ATOM     26  O   UNL     1      -4.843  10.875   5.036  1.00  0.00    -0.508 OA
ATOM     27  H   UNL     1      -5.164  10.261   4.296  1.00  0.00     0.293 HD
ENDBRANCH   8  26
TORSDOF 6
ENDMDL
MODEL 6
REMARK VINA RESULT:    -4.243      1.615      2.315
REMARK INTER + INTRA:          -5.375
REMARK INTER:                  -5.877
REMARK INTRA:                   0.502
REMARK UNBOUND:                -0.263
REMARK SMILES O=c1c(O)c(-c2ccc(O)c(O)c2)oc2cc(O)cc(O)c12
REMARK SMILES IDX 5 1 3 2 2 3 1 4 22 5 20 6 19 7 17 8 16 9 15 10 14 11 6 12
REMARK SMILES IDX 7 13 8 14 9 15 13 16 11 17 10 18 12 20 4 22 21 24 18 26
REMARK H PARENT 10 19 12 21 4 23 21 25 18 27
REMARK Flexibility Score: inf
ROOT
ATOM      1  C   UNL     1      -0.284  11.903   7.880  1.00  0.00     0.180 A 
ATOM      2  C   UNL     1       1.121  11.920   7.847  1.00  0.00     0.208 A 
ATOM      3  C   UNL     1       1.828  12.180   9.032  1.00  0.00     0.238 A 
ATOM      4  O   UNL     1       3.084  12.248   8.984  1.00  0.00    -0.285 OA
ATOM      5  C   UNL     1       1.122  12.403  10.238  1.00  0.00     0.111 A 
ATOM      6  C   UNL     1       1.736  12.635  11.506  1.00  0.00     0.134 A 
ATOM      7  C   UNL     1       0.940  12.972  12.607  1.00  0.00     0.093 A 
ATOM      8  C   UNL     1      -0.449  13.022  12.504  1.00  0.00     0.123 A 
ATOM      9  C   UNL     1      -1.064  12.738  11.284  1.00  0.00     0.094 A 
ATOM     10  C   UNL     1      -0.294  12.434  10.157  1.00  0.00     0.146 A 
ATOM     11  O   UNL     1      -0.918  12.181   9.014  1.00  0.00    -0.452 OA
ENDROOT
BRANCH   1  12
ATOM     12  C   UNL     1      -1.097  11.613   6.677  1.00  0.00     0.025 A 
ATOM     13  C   UNL     1      -0.491  11.635   5.412  1.00  0.00     0.016 A 
ATOM     14  C   UNL     1      -1.245  11.384   4.262  1.00  0.00     0.051 A 
ATOM     15  C   UNL     1      -2.615  11.124   4.357  1.00  0.00     0.157 A 
ATOM     16  C   UNL     1      -2.480  11.371   6.769  1.00  0.00     0.062 A 
ATOM     17  C   UNL     1      -3.238  11.121   5.617  1.00  0.00     0.158 A 
BRANCH  15  18
ATOM     18  O   UNL     1      -3.340  10.875   3.193  1.00  0.00    -0.504 OA
ATOM     19  H   UNL     1      -2.888  10.647   2.315  1.00  0.00     0.293 HD
ENDBRANCH  15  18
BRANCH  17  20
ATOM     20  O   UNL     1      -4.606  10.876   5.717  1.00  0.00    -0.504 OA
ATOM     21  H   UNL     1      -5.289  11.615   5.593  1.00  0.00     0.293 HD
ENDBRANCH  17  20
ENDBRANCH   1  12
BRANCH   2  22
ATOM     22  O   UNL     1       1.798  11.720   6.640  1.00  0.00    -0.502 OA
ATOM     23  H   UNL     1       2.755  12.017   6.497  1.00  0.00     0.293 HD
ENDBRANCH   2  22
BRANCH   6  24
ATOM     24  O   UNL     1       3.110  12.520  11.740  1.00  0.00    -0.507 OA
ATOM     25  H   UNL     1       3.742  13.300  11.842  1.00  0.00     0.293 HD
ENDBRANCH   6  24
BRANCH   8  26
ATOM     26  O   UNL     1      -1.211  13.346  13.625  1.00  0.00    -0.508 OA
ATOM     27  H   UNL     1      -1.301  12.709  14.408  1.00  0.00     0.293 HD
ENDBRANCH   8  26
TORSDOF 6
ENDMDL
MODEL 7
REMARK VINA RESULT:    -3.998     21.012     22.100
REMARK INTER + INTRA:          -5.079
REMARK INTER:                  -5.466
REMARK INTRA:                   0.387
REMARK UNBOUND:                -0.263
REMARK SMILES O=c1c(O)c(-c2ccc(O)c(O)c2)oc2cc(O)cc(O)c12
REMARK SMILES IDX 5 1 3 2 2 3 1 4 22 5 20 6 19 7 17 8 16 9 15 10 14 11 6 12
REMARK SMILES IDX 7 13 8 14 9 15 13 16 11 17 10 18 12 20 4 22 21 24 18 26
REMARK H PARENT 10 19 12 21 4 23 21 25 18 27
REMARK Flexibility Score: inf
ROOT
ATOM      1  C   UNL     1     -12.537  30.248   8.687  1.00  0.00     0.180 A 
ATOM      2  C   UNL     1     -11.206  30.473   8.295  1.00  0.00     0.208 A 
ATOM      3  C   UNL     1     -10.226  30.654   9.284  1.00  0.00     0.238 A 
ATOM      4  O   UNL     1      -9.046  30.909   8.926  1.00  0.00    -0.285 OA
ATOM      5  C   UNL     1     -10.586  30.593  10.652  1.00  0.00     0.111 A 
ATOM      6  C   UNL     1      -9.668  30.722  11.738  1.00  0.00     0.134 A 
ATOM      7  C   UNL     1     -10.154  30.775  13.050  1.00  0.00     0.093 A 
ATOM      8  C   UNL     1     -11.515  30.639  13.320  1.00  0.00     0.123 A 
ATOM      9  C   UNL     1     -12.415  30.452  12.270  1.00  0.00     0.094 A 
ATOM     10  C   UNL     1     -11.964  30.431  10.947  1.00  0.00     0.146 A 
ATOM     11  O   UNL     1     -12.854  30.261   9.977  1.00  0.00    -0.452 OA
ENDROOT
BRANCH   1  12
ATOM     12  C   UNL     1     -13.621  30.024   7.703  1.00  0.00     0.025 A 
ATOM     13  C   UNL     1     -14.779  29.335   8.098  1.00  0.00     0.016 A 
ATOM     14  C   UNL     1     -15.806  29.095   7.180  1.00  0.00     0.051 A 
ATOM     15  C   UNL     1     -15.684  29.522   5.855  1.00  0.00     0.157 A 
ATOM     16  C   UNL     1     -13.492  30.435   6.365  1.00  0.00     0.062 A 
ATOM     17  C   UNL     1     -14.520  30.192   5.443  1.00  0.00     0.158 A 
BRANCH  15  18
ATOM     18  O   UNL     1     -16.726  29.269   4.963  1.00  0.00    -0.504 OA
ATOM     19  H   UNL     1     -16.661  28.554   4.248  1.00  0.00     0.293 HD
ENDBRANCH  15  18
BRANCH  17  20
ATOM     20  O   UNL     1     -14.387  30.608   4.119  1.00  0.00    -0.504 OA
ATOM     21  H   UNL     1     -13.514  30.506   3.615  1.00  0.00     0.293 HD
ENDBRANCH  17  20
ENDBRANCH   1  12
BRANCH   2  22
ATOM     22  O   UNL     1     -10.877  30.552   6.939  1.00  0.00    -0.502 OA
ATOM     23  H   UNL     1     -11.456  30.146   6.214  1.00  0.00     0.293 HD
ENDBRANCH   2  22
BRANCH   6  24
ATOM     24  O   UNL     1      -8.279  30.774  11.584  1.00  0.00    -0.507 OA
ATOM     25  H   UNL     1      -7.635  30.085  11.942  1.00  0.00     0.293 HD
ENDBRANCH   6  24
BRANCH   8  26
ATOM     26  O   UNL     1     -11.962  30.681  14.639  1.00  0.00    -0.508 OA
ATOM     27  H   UNL     1     -11.485  30.177  15.377  1.00  0.00     0.293 HD
ENDBRANCH   8  26
TORSDOF 6
ENDMDL
MODEL 8
REMARK VINA RESULT:    -3.814      1.712      6.782
REMARK INTER + INTRA:          -4.858
REMARK INTER:                  -5.049
REMARK INTRA:                   0.191
REMARK UNBOUND:                -0.263
REMARK SMILES O=c1c(O)c(-c2ccc(O)c(O)c2)oc2cc(O)cc(O)c12
REMARK SMILES IDX 5 1 3 2 2 3 1 4 22 5 20 6 19 7 17 8 16 9 15 10 14 11 6 12
REMARK SMILES IDX 7 13 8 14 9 15 13 16 11 17 10 18 12 20 4 22 21 24 18 26
REMARK H PARENT 10 19 12 21 4 23 21 25 18 27
REMARK Flexibility Score: inf
ROOT
ATOM      1  C   UNL     1       0.330  12.147   9.700  1.00  0.00     0.180 A 
ATOM      2  C   UNL     1       1.560  11.848   9.090  1.00  0.00     0.208 A 
ATOM      3  C   UNL     1       1.574  11.457   7.741  1.00  0.00     0.238 A 
ATOM      4  O   UNL     1       2.673  11.137   7.216  1.00  0.00    -0.285 OA
ATOM      5  C   UNL     1       0.360  11.386   7.016  1.00  0.00     0.111 A 
ATOM      6  C   UNL     1       0.261  11.041   5.634  1.00  0.00     0.134 A 
ATOM      7  C   UNL     1      -1.002  10.875   5.053  1.00  0.00     0.093 A 
ATOM      8  C   UNL     1      -2.167  11.105   5.783  1.00  0.00     0.123 A 
ATOM      9  C   UNL     1      -2.081  11.501   7.119  1.00  0.00     0.094 A 
ATOM     10  C   UNL     1      -0.835  11.640   7.737  1.00  0.00     0.146 A 
ATOM     11  O   UNL     1      -0.797  12.008   9.012  1.00  0.00    -0.452 OA
ENDROOT
BRANCH   1  12
ATOM     12  C   UNL     1       0.237  12.590  11.111  1.00  0.00     0.025 A 
ATOM     13  C   UNL     1      -0.898  12.255  11.865  1.00  0.00     0.016 A 
ATOM     14  C   UNL     1      -1.016  12.680  13.192  1.00  0.00     0.051 A 
ATOM     15  C   UNL     1      -0.012  13.457  13.777  1.00  0.00     0.157 A 
ATOM     16  C   UNL     1       1.236  13.388  11.695  1.00  0.00     0.062 A 
ATOM     17  C   UNL     1       1.118  13.817  13.024  1.00  0.00     0.158 A 
BRANCH  15  18
ATOM     18  O   UNL     1      -0.156  13.864  15.103  1.00  0.00    -0.504 OA
ATOM     19  H   UNL     1       0.304  14.691  15.465  1.00  0.00     0.293 HD
ENDBRANCH  15  18
BRANCH  17  20
ATOM     20  O   UNL     1       2.116  14.604  13.598  1.00  0.00    -0.504 OA
ATOM     21  H   UNL     1       3.030  14.697  13.171  1.00  0.00     0.293 HD
ENDBRANCH  17  20
ENDBRANCH   1  12
BRANCH   2  22
ATOM     22  O   UNL     1       2.744  11.902   9.831  1.00  0.00    -0.502 OA
ATOM     23  H   UNL     1       3.135  12.773  10.167  1.00  0.00     0.293 HD
ENDBRANCH   2  22
BRANCH   6  24
ATOM     24  O   UNL     1       1.364  10.878   4.789  1.00  0.00    -0.507 OA
ATOM     25  H   UNL     1       1.975  10.076   4.791  1.00  0.00     0.293 HD
ENDBRANCH   6  24
BRANCH   8  26
ATOM     26  O   UNL     1      -3.407  10.946   5.168  1.00  0.00    -0.508 OA
ATOM     27  H   UNL     1      -4.273  11.072   5.679  1.00  0.00     0.293 HD
ENDBRANCH   8  26
TORSDOF 6
ENDMDL
MODEL 9
REMARK VINA RESULT:    -3.711     21.279     22.446
REMARK INTER + INTRA:          -4.734
REMARK INTER:                  -4.849
REMARK INTRA:                   0.115
REMARK UNBOUND:                -0.263
REMARK SMILES O=c1c(O)c(-c2ccc(O)c(O)c2)oc2cc(O)cc(O)c12
REMARK SMILES IDX 5 1 3 2 2 3 1 4 22 5 20 6 19 7 17 8 16 9 15 10 14 11 6 12
REMARK SMILES IDX 7 13 8 14 9 15 13 16 11 17 10 18 12 20 4 22 21 24 18 26
REMARK H PARENT 10 19 12 21 4 23 21 25 18 27
REMARK Flexibility Score: inf
ROOT
ATOM      1  C   UNL     1     -12.934  30.344   8.794  1.00  0.00     0.180 A 
ATOM      2  C   UNL     1     -11.559  30.236   9.063  1.00  0.00     0.208 A 
ATOM      3  C   UNL     1     -11.124  30.237  10.398  1.00  0.00     0.238 A 
ATOM      4  O   UNL     1      -9.887  30.196  10.631  1.00  0.00    -0.285 OA
ATOM      5  C   UNL     1     -12.070  30.331  11.447  1.00  0.00     0.111 A 
ATOM      6  C   UNL     1     -11.745  30.301  12.837  1.00  0.00     0.134 A 
ATOM      7  C   UNL     1     -12.748  30.532  13.786  1.00  0.00     0.093 A 
ATOM      8  C   UNL     1     -14.074  30.726  13.401  1.00  0.00     0.123 A 
ATOM      9  C   UNL     1     -14.413  30.697  12.047  1.00  0.00     0.094 A 
ATOM     10  C   UNL     1     -13.428  30.505  11.074  1.00  0.00     0.146 A 
ATOM     11  O   UNL     1     -13.791  30.496   9.798  1.00  0.00    -0.452 OA
ENDROOT
BRANCH   1  12
ATOM     12  C   UNL     1     -13.471  30.325   7.414  1.00  0.00     0.025 A 
ATOM     13  C   UNL     1     -12.860  31.111   6.425  1.00  0.00     0.016 A 
ATOM     14  C   UNL     1     -13.363  31.123   5.121  1.00  0.00     0.051 A 
ATOM     15  C   UNL     1     -14.491  30.366   4.791  1.00  0.00     0.157 A 
ATOM     16  C   UNL     1     -14.618  29.580   7.085  1.00  0.00     0.062 A 
ATOM     17  C   UNL     1     -15.125  29.593   5.778  1.00  0.00     0.158 A 
BRANCH  15  18
ATOM     18  O   UNL     1     -14.968  30.397   3.481  1.00  0.00    -0.504 OA
ATOM     19  H   UNL     1     -14.378  30.178   2.687  1.00  0.00     0.293 HD
ENDBRANCH  15  18
BRANCH  17  20
ATOM     20  O   UNL     1     -16.258  28.847   5.458  1.00  0.00    -0.504 OA
ATOM     21  H   UNL     1     -16.672  28.201   6.120  1.00  0.00     0.293 HD
ENDBRANCH  17  20
ENDBRANCH   1  12
BRANCH   2  22
ATOM     22  O   UNL     1     -10.641  30.168   8.012  1.00  0.00    -0.502 OA
ATOM     23  H   UNL     1     -10.548  30.903   7.322  1.00  0.00     0.293 HD
ENDBRANCH   2  22
BRANCH   6  24
ATOM     24  O   UNL     1     -10.467  30.024  13.334  1.00  0.00    -0.507 OA
ATOM     25  H   UNL     1      -9.876  29.273  13.011  1.00  0.00     0.293 HD
ENDBRANCH   6  24
BRANCH   8  26
ATOM     26  O   UNL     1     -15.049  30.937  14.373  1.00  0.00    -0.508 OA
ATOM     27  H   UNL     1     -16.036  30.935  14.144  1.00  0.00     0.293 HD
ENDBRANCH   8  26
TORSDOF 6
ENDMDL
