MODEL 1
REMARK VINA RESULT:    -2.987      0.000      0.000
REMARK INTER + INTRA:          -7.204
REMARK INTER:                  -5.083
REMARK INTRA:                  -2.122
REMARK UNBOUND:                -2.122
REMARK SMILES CCCCCCCCCCCCCC(=O)[O-]
REMARK SMILES IDX 8 1 9 2 10 3 11 4 12 5 13 6 14 7 15 8 16 9 7 10 6 11 5 12
REMARK SMILES IDX 4 13 3 14 2 15 1 16
REMARK H PARENT
REMARK Flexibility Score: inf
ROOT
ATOM      1  C   UNL     1      34.354   7.706 -31.498  1.00  0.00     0.000 C 
ENDROOT
BRANCH   1   2
ATOM      2  C   UNL     1      35.704   6.981 -31.368  1.00  0.00     0.000 C 
BRANCH   2   3
ATOM      3  C   UNL     1      35.852   5.824 -32.371  1.00  0.00     0.000 C 
BRANCH   3   4
ATOM      4  C   UNL     1      34.524   5.467 -33.060  1.00  0.00     0.000 C 
BRANCH   4   5
ATOM      5  C   UNL     1      34.473   4.000 -33.519  1.00  0.00     0.006 C 
BRANCH   5   6
ATOM      6  C   UNL     1      33.161   3.303 -33.136  1.00  0.00     0.053 C 
BRANCH   6   7
ATOM      7  C   UNL     1      33.313   1.818 -33.228  1.00  0.00     0.041 C 
ATOM      8  O   UNL     1      33.042   1.091 -32.237  1.00  0.00    -0.550 OA
ATOM      9  O   UNL     1      33.802   1.240 -34.393  1.00  0.00    -0.550 OA
ENDBRANCH   6   7
ENDBRANCH   5   6
ENDBRANCH   4   5
ENDBRANCH   3   4
ENDBRANCH   2   3
ENDBRANCH   1   2
BRANCH   1  10
ATOM     10  C   UNL     1      33.476   7.551 -30.246  1.00  0.00     0.000 C 
BRANCH  10  11
ATOM     11  C   UNL     1      32.119   6.897 -30.548  1.00  0.00    -0.000 C 
BRANCH  11  12
ATOM     12  C   UNL     1      32.142   5.401 -30.201  1.00  0.00    -0.000 C 
BRANCH  12  13
ATOM     13  C   UNL     1      33.298   5.023 -29.258  1.00  0.00    -0.000 C 
BRANCH  13  14
ATOM     14  C   UNL     1      34.141   3.813 -29.711  1.00  0.00    -0.000 C 
BRANCH  14  15
ATOM     15  C   UNL     1      35.485   3.647 -28.982  1.00  0.00    -0.003 C 
ATOM     16  C   UNL     1      35.899   4.895 -28.203  1.00  0.00     0.004 C 
ENDBRANCH  14  15
ENDBRANCH  13  14
ENDBRANCH  12  13
ENDBRANCH  11  12
ENDBRANCH  10  11
ENDBRANCH   1  10
TORSDOF 12
ENDMDL
MODEL 2
REMARK VINA RESULT:    -2.984     12.672     14.111
REMARK INTER + INTRA:          -7.199
REMARK INTER:                  -5.556
REMARK INTRA:                  -1.643
REMARK UNBOUND:                -2.122
REMARK SMILES CCCCCCCCCCCCCC(=O)[O-]
REMARK SMILES IDX 8 1 9 2 10 3 11 4 12 5 13 6 14 7 15 8 16 9 7 10 6 11 5 12
REMARK SMILES IDX 4 13 3 14 2 15 1 16
REMARK H PARENT
REMARK Flexibility Score: inf
ROOT
ATOM      1  C   UNL     1      25.553  -4.201 -27.922  1.00  0.00     0.000 C 
ENDROOT
BRANCH   1   2
ATOM      2  C   UNL     1      24.140  -4.153 -28.530  1.00  0.00     0.000 C 
BRANCH   2   3
ATOM      3  C   UNL     1      24.149  -3.746 -30.013  1.00  0.00     0.000 C 
BRANCH   3   4
ATOM      4  C   UNL     1      25.087  -4.622 -30.860  1.00  0.00     0.000 C 
BRANCH   4   5
ATOM      5  C   UNL     1      24.350  -5.347 -31.998  1.00  0.00     0.006 C 
BRANCH   5   6
ATOM      6  C   UNL     1      23.985  -4.414 -33.159  1.00  0.00     0.053 C 
BRANCH   6   7
ATOM      7  C   UNL     1      25.174  -4.181 -34.035  1.00  0.00     0.041 C 
ATOM      8  O   UNL     1      25.878  -5.152 -34.419  1.00  0.00    -0.550 OA
ATOM      9  O   UNL     1      25.535  -2.887 -34.388  1.00  0.00    -0.550 OA
ENDBRANCH   6   7
ENDBRANCH   5   6
ENDBRANCH   4   5
ENDBRANCH   3   4
ENDBRANCH   2   3
ENDBRANCH   1   2
BRANCH   1  10
ATOM     10  C   UNL     1      25.558  -4.723 -26.477  1.00  0.00     0.000 C 
BRANCH  10  11
ATOM     11  C   UNL     1      24.455  -5.761 -26.215  1.00  0.00    -0.000 C 
BRANCH  11  12
ATOM     12  C   UNL     1      25.043  -7.047 -25.618  1.00  0.00    -0.000 C 
BRANCH  12  13
ATOM     13  C   UNL     1      25.351  -8.116 -26.682  1.00  0.00    -0.000 C 
BRANCH  13  14
ATOM     14  C   UNL     1      24.560  -7.974 -27.999  1.00  0.00    -0.000 C 
BRANCH  14  15
ATOM     15  C   UNL     1      25.423  -7.791 -29.259  1.00  0.00    -0.003 C 
ATOM     16  C   UNL     1      26.915  -7.678 -28.949  1.00  0.00     0.004 C 
ENDBRANCH  14  15
ENDBRANCH  13  14
ENDBRANCH  12  13
ENDBRANCH  11  12
ENDBRANCH  10  11
ENDBRANCH   1  10
TORSDOF 12
ENDMDL
MODEL 3
REMARK VINA RESULT:    -2.983     12.483     13.926
REMARK INTER + INTRA:          -7.197
REMARK INTER:                  -5.275
REMARK INTRA:                  -1.922
REMARK UNBOUND:                -2.122
REMARK SMILES CCCCCCCCCCCCCC(=O)[O-]
REMARK SMILES IDX 8 1 9 2 10 3 11 4 12 5 13 6 14 7 15 8 16 9 7 10 6 11 5 12
REMARK SMILES IDX 4 13 3 14 2 15 1 16
REMARK H PARENT
REMARK Flexibility Score: inf
ROOT
ATOM      1  C   UNL     1      24.332  -4.729 -27.347  1.00  0.00     0.000 C 
ENDROOT
BRANCH   1   2
ATOM      2  C   UNL     1      25.340  -3.931 -28.191  1.00  0.00     0.000 C 
BRANCH   2   3
ATOM      3  C   UNL     1      24.804  -3.600 -29.594  1.00  0.00     0.000 C 
BRANCH   3   4
ATOM      4  C   UNL     1      23.716  -4.584 -30.058  1.00  0.00     0.000 C 
BRANCH   4   5
ATOM      5  C   UNL     1      24.195  -5.500 -31.195  1.00  0.00     0.006 C 
BRANCH   5   6
ATOM      6  C   UNL     1      24.147  -4.817 -32.568  1.00  0.00     0.053 C 
BRANCH   6   7
ATOM      7  C   UNL     1      25.511  -4.781 -33.181  1.00  0.00     0.041 C 
ATOM      8  O   UNL     1      26.525  -4.583 -32.460  1.00  0.00    -0.550 OA
ATOM      9  O   UNL     1      25.660  -4.916 -34.555  1.00  0.00    -0.550 OA
ENDBRANCH   6   7
ENDBRANCH   5   6
ENDBRANCH   4   5
ENDBRANCH   3   4
ENDBRANCH   2   3
ENDBRANCH   1   2
BRANCH   1  10
ATOM     10  C   UNL     1      25.001  -5.487 -26.189  1.00  0.00     0.000 C 
BRANCH  10  11
ATOM     11  C   UNL     1      25.255  -6.967 -26.513  1.00  0.00    -0.000 C 
BRANCH  11  12
ATOM     12  C   UNL     1      24.386  -7.426 -27.694  1.00  0.00    -0.000 C 
BRANCH  12  13
ATOM     13  C   UNL     1      25.217  -7.887 -28.905  1.00  0.00    -0.000 C 
BRANCH  13  14
ATOM     14  C   UNL     1      26.743  -7.904 -28.682  1.00  0.00    -0.000 C 
BRANCH  14  15
ATOM     15  C   UNL     1      27.512  -6.760 -29.363  1.00  0.00    -0.003 C 
ATOM     16  C   UNL     1      28.366  -5.951 -28.386  1.00  0.00     0.004 C 
ENDBRANCH  14  15
ENDBRANCH  13  14
ENDBRANCH  12  13
ENDBRANCH  11  12
ENDBRANCH  10  11
ENDBRANCH   1  10
TORSDOF 12
ENDMDL
MODEL 4
REMARK VINA RESULT:    -2.926     12.214     13.761
REMARK INTER + INTRA:          -7.100
REMARK INTER:                  -5.319
REMARK INTRA:                  -1.781
REMARK UNBOUND:                -2.122
REMARK SMILES CCCCCCCCCCCCCC(=O)[O-]
REMARK SMILES IDX 8 1 9 2 10 3 11 4 12 5 13 6 14 7 15 8 16 9 7 10 6 11 5 12
REMARK SMILES IDX 4 13 3 14 2 15 1 16
REMARK H PARENT
REMARK Flexibility Score: inf
ROOT
ATOM      1  C   UNL     1      26.406  -4.160 -29.352  1.00  0.00     0.000 C 
ENDROOT
BRANCH   1   2
ATOM      2  C   UNL     1      25.075  -3.411 -29.172  1.00  0.00     0.000 C 
BRANCH   2   3
ATOM      3  C   UNL     1      24.014  -3.836 -30.201  1.00  0.00     0.000 C 
BRANCH   3   4
ATOM      4  C   UNL     1      24.201  -5.287 -30.677  1.00  0.00     0.000 C 
BRANCH   4   5
ATOM      5  C   UNL     1      24.221  -5.408 -32.209  1.00  0.00     0.006 C 
BRANCH   5   6
ATOM      6  C   UNL     1      24.384  -4.053 -32.909  1.00  0.00     0.053 C 
BRANCH   6   7
ATOM      7  C   UNL     1      25.051  -4.229 -34.237  1.00  0.00     0.041 C 
ATOM      8  O   UNL     1      24.790  -3.442 -35.186  1.00  0.00    -0.550 OA
ATOM      9  O   UNL     1      25.921  -5.291 -34.443  1.00  0.00    -0.550 OA
ENDBRANCH   6   7
ENDBRANCH   5   6
ENDBRANCH   4   5
ENDBRANCH   3   4
ENDBRANCH   2   3
ENDBRANCH   1   2
BRANCH   1  10
ATOM     10  C   UNL     1      27.057  -4.540 -28.013  1.00  0.00     0.000 C 
BRANCH  10  11
ATOM     11  C   UNL     1      27.857  -5.849 -28.089  1.00  0.00    -0.000 C 
BRANCH  11  12
ATOM     12  C   UNL     1      27.463  -6.661 -29.332  1.00  0.00    -0.000 C 
BRANCH  12  13
ATOM     13  C   UNL     1      26.792  -8.002 -28.984  1.00  0.00    -0.000 C 
BRANCH  13  14
ATOM     14  C   UNL     1      25.260  -7.942 -28.817  1.00  0.00    -0.000 C 
BRANCH  14  15
ATOM     15  C   UNL     1      24.772  -7.740 -27.372  1.00  0.00    -0.003 C 
ATOM     16  C   UNL     1      24.009  -6.430 -27.178  1.00  0.00     0.004 C 
ENDBRANCH  14  15
ENDBRANCH  13  14
ENDBRANCH  12  13
ENDBRANCH  11  12
ENDBRANCH  10  11
ENDBRANCH   1  10
TORSDOF 12
ENDMDL
MODEL 5
REMARK VINA RESULT:    -2.921     12.426     13.988
REMARK INTER + INTRA:          -7.092
REMARK INTER:                  -4.869
REMARK INTRA:                  -2.223
REMARK UNBOUND:                -2.122
REMARK SMILES CCCCCCCCCCCCCC(=O)[O-]
REMARK SMILES IDX 8 1 9 2 10 3 11 4 12 5 13 6 14 7 15 8 16 9 7 10 6 11 5 12
REMARK SMILES IDX 4 13 3 14 2 15 1 16
REMARK H PARENT
REMARK Flexibility Score: inf
ROOT
ATOM      1  C   UNL     1      25.154  -7.999 -28.861  1.00  0.00     0.000 C 
ENDROOT
BRANCH   1   2
ATOM      2  C   UNL     1      24.120  -6.879 -28.654  1.00  0.00     0.000 C 
BRANCH   2   3
ATOM      3  C   UNL     1      23.809  -6.115 -29.952  1.00  0.00     0.000 C 
BRANCH   3   4
ATOM      4  C   UNL     1      23.844  -4.589 -29.761  1.00  0.00     0.000 C 
BRANCH   4   5
ATOM      5  C   UNL     1      24.706  -3.881 -30.820  1.00  0.00     0.006 C 
BRANCH   5   6
ATOM      6  C   UNL     1      25.460  -4.864 -31.725  1.00  0.00     0.053 C 
BRANCH   6   7
ATOM      7  C   UNL     1      24.969  -4.757 -33.134  1.00  0.00     0.041 C 
ATOM      8  O   UNL     1      25.694  -5.144 -34.088  1.00  0.00    -0.550 OA
ATOM      9  O   UNL     1      23.732  -4.184 -33.398  1.00  0.00    -0.550 OA
ENDBRANCH   6   7
ENDBRANCH   5   6
ENDBRANCH   4   5
ENDBRANCH   3   4
ENDBRANCH   2   3
ENDBRANCH   1   2
BRANCH   1  10
ATOM     10  C   UNL     1      26.501  -7.691 -28.189  1.00  0.00     0.000 C 
BRANCH  10  11
ATOM     11  C   UNL     1      27.527  -7.086 -29.161  1.00  0.00    -0.000 C 
BRANCH  11  12
ATOM     12  C   UNL     1      27.677  -5.576 -28.928  1.00  0.00    -0.000 C 
BRANCH  12  13
ATOM     13  C   UNL     1      27.373  -5.160 -27.477  1.00  0.00    -0.000 C 
BRANCH  13  14
ATOM     14  C   UNL     1      26.438  -3.943 -27.328  1.00  0.00    -0.000 C 
BRANCH  14  15
ATOM     15  C   UNL     1      25.341  -4.093 -26.261  1.00  0.00    -0.003 C 
ATOM     16  C   UNL     1      25.457  -5.393 -25.465  1.00  0.00     0.004 C 
ENDBRANCH  14  15
ENDBRANCH  13  14
ENDBRANCH  12  13
ENDBRANCH  11  12
ENDBRANCH  10  11
ENDBRANCH   1  10
TORSDOF 12
ENDMDL
MODEL 6
REMARK VINA RESULT:    -2.880      3.968      7.698
REMARK INTER + INTRA:          -7.022
REMARK INTER:                  -5.940
REMARK INTRA:                  -1.081
REMARK UNBOUND:                -2.122
REMARK SMILES CCCCCCCCCCCCCC(=O)[O-]
REMARK SMILES IDX 8 1 9 2 10 3 11 4 12 5 13 6 14 7 15 8 16 9 7 10 6 11 5 12
REMARK SMILES IDX 4 13 3 14 2 15 1 16
REMARK H PARENT
REMARK Flexibility Score: inf
ROOT
ATOM      1  C   UNL     1      32.118   1.668 -34.594  1.00  0.00     0.000 C 
ENDROOT
BRANCH   1   2
ATOM      2  C   UNL     1      32.023   1.794 -33.064  1.00  0.00     0.000 C 
BRANCH   2   3
ATOM      3  C   UNL     1      33.171   2.626 -32.467  1.00  0.00     0.000 C 
BRANCH   3   4
ATOM      4  C   UNL     1      33.919   3.448 -33.530  1.00  0.00     0.000 C 
BRANCH   4   5
ATOM      5  C   UNL     1      34.002   4.940 -33.171  1.00  0.00     0.006 C 
BRANCH   5   6
ATOM      6  C   UNL     1      35.446   5.434 -33.016  1.00  0.00     0.053 C 
BRANCH   6   7
ATOM      7  C   UNL     1      35.664   5.982 -31.641  1.00  0.00     0.041 C 
ATOM      8  O   UNL     1      35.908   7.207 -31.478  1.00  0.00    -0.550 OA
ATOM      9  O   UNL     1      35.648   5.132 -30.543  1.00  0.00    -0.550 OA
ENDBRANCH   6   7
ENDBRANCH   5   6
ENDBRANCH   4   5
ENDBRANCH   3   4
ENDBRANCH   2   3
ENDBRANCH   1   2
BRANCH   1  10
ATOM     10  C   UNL     1      32.513   0.253 -35.047  1.00  0.00     0.000 C 
BRANCH  10  11
ATOM     11  C   UNL     1      33.932   0.190 -35.633  1.00  0.00    -0.000 C 
BRANCH  11  12
ATOM     12  C   UNL     1      33.975  -0.723 -36.866  1.00  0.00    -0.000 C 
BRANCH  12  13
ATOM     13  C   UNL     1      33.335  -0.081 -38.110  1.00  0.00    -0.000 C 
BRANCH  13  14
ATOM     14  C   UNL     1      32.155  -0.867 -38.717  1.00  0.00    -0.000 C 
BRANCH  14  15
ATOM     15  C   UNL     1      30.760  -0.352 -38.325  1.00  0.00    -0.003 C 
ATOM     16  C   UNL     1      30.685   1.173 -38.259  1.00  0.00     0.004 C 
ENDBRANCH  14  15
ENDBRANCH  13  14
ENDBRANCH  12  13
ENDBRANCH  11  12
ENDBRANCH  10  11
ENDBRANCH   1  10
TORSDOF 12
ENDMDL
MODEL 7
REMARK VINA RESULT:    -2.847     12.292     13.949
REMARK INTER + INTRA:          -6.966
REMARK INTER:                  -4.926
REMARK INTRA:                  -2.040
REMARK UNBOUND:                -2.122
REMARK SMILES CCCCCCCCCCCCCC(=O)[O-]
REMARK SMILES IDX 8 1 9 2 10 3 11 4 12 5 13 6 14 7 15 8 16 9 7 10 6 11 5 12
REMARK SMILES IDX 4 13 3 14 2 15 1 16
REMARK H PARENT
REMARK Flexibility Score: inf
ROOT
ATOM      1  C   UNL     1      27.168  -7.755 -28.807  1.00  0.00     0.000 C 
ENDROOT
BRANCH   1   2
ATOM      2  C   UNL     1      27.704  -6.314 -28.741  1.00  0.00     0.000 C 
BRANCH   2   3
ATOM      3  C   UNL     1      27.325  -5.486 -29.980  1.00  0.00     0.000 C 
BRANCH   3   4
ATOM      4  C   UNL     1      26.425  -4.287 -29.636  1.00  0.00     0.000 C 
BRANCH   4   5
ATOM      5  C   UNL     1      25.424  -3.960 -30.756  1.00  0.00     0.006 C 
BRANCH   5   6
ATOM      6  C   UNL     1      24.951  -5.207 -31.513  1.00  0.00     0.053 C 
BRANCH   6   7
ATOM      7  C   UNL     1      24.684  -4.878 -32.947  1.00  0.00     0.041 C 
ATOM      8  O   UNL     1      23.558  -4.433 -33.296  1.00  0.00    -0.550 OA
ATOM      9  O   UNL     1      25.660  -5.109 -33.908  1.00  0.00    -0.550 OA
ENDBRANCH   6   7
ENDBRANCH   5   6
ENDBRANCH   4   5
ENDBRANCH   3   4
ENDBRANCH   2   3
ENDBRANCH   1   2
BRANCH   1  10
ATOM     10  C   UNL     1      25.963  -7.980 -27.881  1.00  0.00     0.000 C 
BRANCH  10  11
ATOM     11  C   UNL     1      24.618  -7.725 -28.580  1.00  0.00    -0.000 C 
BRANCH  11  12
ATOM     12  C   UNL     1      23.936  -6.471 -28.014  1.00  0.00    -0.000 C 
BRANCH  12  13
ATOM     13  C   UNL     1      24.213  -6.263 -26.514  1.00  0.00    -0.000 C 
BRANCH  13  14
ATOM     14  C   UNL     1      24.474  -4.802 -26.094  1.00  0.00    -0.000 C 
BRANCH  14  15
ATOM     15  C   UNL     1      25.950  -4.371 -26.123  1.00  0.00    -0.003 C 
ATOM     16  C   UNL     1      26.854  -5.286 -25.298  1.00  0.00     0.004 C 
ENDBRANCH  14  15
ENDBRANCH  13  14
ENDBRANCH  12  13
ENDBRANCH  11  12
ENDBRANCH  10  11
ENDBRANCH   1  10
TORSDOF 12
ENDMDL
MODEL 8
REMARK VINA RESULT:    -2.841      5.695      8.088
REMARK INTER + INTRA:          -6.956
REMARK INTER:                  -6.131
REMARK INTRA:                  -0.825
REMARK UNBOUND:                -2.122
REMARK SMILES CCCCCCCCCCCCCC(=O)[O-]
REMARK SMILES IDX 8 1 9 2 10 3 11 4 12 5 13 6 14 7 15 8 16 9 7 10 6 11 5 12
REMARK SMILES IDX 4 13 3 14 2 15 1 16
REMARK H PARENT
REMARK Flexibility Score: inf
ROOT
ATOM      1  C   UNL     1      32.358   7.964 -29.349  1.00  0.00     0.000 C 
ENDROOT
BRANCH   1   2
ATOM      2  C   UNL     1      32.691   9.463 -29.458  1.00  0.00     0.000 C 
BRANCH   2   3
ATOM      3  C   UNL     1      32.315  10.245 -28.189  1.00  0.00     0.000 C 
BRANCH   3   4
ATOM      4  C   UNL     1      33.545  10.655 -27.362  1.00  0.00     0.000 C 
BRANCH   4   5
ATOM      5  C   UNL     1      33.236  11.781 -26.362  1.00  0.00     0.006 C 
BRANCH   5   6
ATOM      6  C   UNL     1      33.422  11.348 -24.903  1.00  0.00     0.053 C 
BRANCH   6   7
ATOM      7  C   UNL     1      32.095  11.203 -24.228  1.00  0.00     0.041 C 
ATOM      8  O   UNL     1      31.301  10.291 -24.581  1.00  0.00    -0.550 OA
ATOM      9  O   UNL     1      31.713  12.105 -23.243  1.00  0.00    -0.550 OA
ENDBRANCH   6   7
ENDBRANCH   5   6
ENDBRANCH   4   5
ENDBRANCH   3   4
ENDBRANCH   2   3
ENDBRANCH   1   2
BRANCH   1  10
ATOM     10  C   UNL     1      33.278   7.090 -30.216  1.00  0.00     0.000 C 
BRANCH  10  11
ATOM     11  C   UNL     1      34.058   7.902 -31.262  1.00  0.00    -0.000 C 
BRANCH  11  12
ATOM     12  C   UNL     1      35.442   7.285 -31.514  1.00  0.00    -0.000 C 
BRANCH  12  13
ATOM     13  C   UNL     1      35.391   5.758 -31.706  1.00  0.00    -0.000 C 
BRANCH  13  14
ATOM     14  C   UNL     1      35.187   5.289 -33.161  1.00  0.00    -0.000 C 
BRANCH  14  15
ATOM     15  C   UNL     1      34.206   4.118 -33.335  1.00  0.00    -0.003 C 
ATOM     16  C   UNL     1      32.804   4.432 -32.815  1.00  0.00     0.004 C 
ENDBRANCH  14  15
ENDBRANCH  13  14
ENDBRANCH  12  13
ENDBRANCH  11  12
ENDBRANCH  10  11
ENDBRANCH   1  10
TORSDOF 12
ENDMDL
MODEL 9
REMARK VINA RESULT:    -2.784      6.431      9.344
REMARK INTER + INTRA:          -6.859
REMARK INTER:                  -4.644
REMARK INTRA:                  -2.215
REMARK UNBOUND:                -2.122
REMARK SMILES CCCCCCCCCCCCCC(=O)[O-]
REMARK SMILES IDX 8 1 9 2 10 3 11 4 12 5 13 6 14 7 15 8 16 9 7 10 6 11 5 12
REMARK SMILES IDX 4 13 3 14 2 15 1 16
REMARK H PARENT
REMARK Flexibility Score: inf
ROOT
ATOM      1  C   UNL     1      31.358   0.760 -38.500  1.00  0.00     0.000 C 
ENDROOT
BRANCH   1   2
ATOM      2  C   UNL     1      30.693   1.118 -37.160  1.00  0.00     0.000 C 
BRANCH   2   3
ATOM      3  C   UNL     1      30.040  -0.097 -36.481  1.00  0.00     0.000 C 
BRANCH   3   4
ATOM      4  C   UNL     1      29.446  -1.091 -37.493  1.00  0.00     0.000 C 
BRANCH   4   5
ATOM      5  C   UNL     1      29.896  -2.538 -37.234  1.00  0.00     0.006 C 
BRANCH   5   6
ATOM      6  C   UNL     1      30.093  -3.339 -38.527  1.00  0.00     0.053 C 
BRANCH   6   7
ATOM      7  C   UNL     1      29.976  -4.805 -38.256  1.00  0.00     0.041 C 
ATOM      8  O   UNL     1      28.979  -5.450 -38.676  1.00  0.00    -0.550 OA
ATOM      9  O   UNL     1      30.942  -5.451 -37.495  1.00  0.00    -0.550 OA
ENDBRANCH   6   7
ENDBRANCH   5   6
ENDBRANCH   4   5
ENDBRANCH   3   4
ENDBRANCH   2   3
ENDBRANCH   1   2
BRANCH   1  10
ATOM     10  C   UNL     1      32.820   0.317 -38.334  1.00  0.00     0.000 C 
BRANCH  10  11
ATOM     11  C   UNL     1      33.053  -1.141 -38.761  1.00  0.00    -0.000 C 
BRANCH  11  12
ATOM     12  C   UNL     1      33.506  -1.996 -37.568  1.00  0.00    -0.000 C 
BRANCH  12  13
ATOM     13  C   UNL     1      33.883  -1.153 -36.336  1.00  0.00    -0.000 C 
BRANCH  13  14
ATOM     14  C   UNL     1      33.176  -1.559 -35.026  1.00  0.00    -0.000 C 
BRANCH  14  15
ATOM     15  C   UNL     1      32.833  -0.393 -34.085  1.00  0.00    -0.003 C 
ATOM     16  C   UNL     1      33.434   0.937 -34.539  1.00  0.00     0.004 C 
ENDBRANCH  14  15
ENDBRANCH  13  14
ENDBRANCH  12  13
ENDBRANCH  11  12
ENDBRANCH  10  11
ENDBRANCH   1  10
TORSDOF 12
ENDMDL
