MODEL 1
REMARK VINA RESULT:    -6.598      0.000      0.000
REMARK INTER + INTRA:          -8.048
REMARK INTER:                  -7.755
REMARK INTRA:                  -0.293
REMARK UNBOUND:                -0.293
REMARK SMILES O=c1cc(-c2ccc(O)c(O)c2)oc2cc(O)cc(O)c12
REMARK SMILES IDX 4 1 3 2 2 3 1 4 21 5 19 6 18 7 16 8 15 9 14 10 13 11 5 12
REMARK SMILES IDX 6 13 7 14 8 15 12 16 10 17 9 18 11 20 20 22 17 24
REMARK H PARENT 9 19 11 21 20 23 17 25
REMARK Flexibility Score: inf
ROOT
ATOM      1  C   UNL     1     -12.401 -17.210  21.141  1.00  0.00     0.138 A 
ATOM      2  C   UNL     1     -11.249 -17.752  21.730  1.00  0.00     0.100 A 
ATOM      3  C   UNL     1     -10.116 -16.953  21.893  1.00  0.00     0.197 A 
ATOM      4  O   UNL     1      -9.120 -17.449  22.480  1.00  0.00    -0.289 OA
ATOM      5  C   UNL     1     -10.128 -15.615  21.434  1.00  0.00     0.107 A 
ATOM      6  C   UNL     1      -9.018 -14.721  21.510  1.00  0.00     0.134 A 
ATOM      7  C   UNL     1      -9.183 -13.383  21.129  1.00  0.00     0.093 A 
ATOM      8  C   UNL     1     -10.399 -12.923  20.619  1.00  0.00     0.123 A 
ATOM      9  C   UNL     1     -11.472 -13.802  20.491  1.00  0.00     0.094 A 
ATOM     10  C   UNL     1     -11.350 -15.133  20.894  1.00  0.00     0.146 A 
ATOM     11  O   UNL     1     -12.403 -15.935  20.768  1.00  0.00    -0.456 OA
ENDROOT
BRANCH   1  12
ATOM     12  C   UNL     1     -13.633 -18.015  20.943  1.00  0.00     0.021 A 
ATOM     13  C   UNL     1     -14.710 -17.541  20.170  1.00  0.00     0.016 A 
ATOM     14  C   UNL     1     -15.860 -18.317  20.009  1.00  0.00     0.051 A 
ATOM     15  C   UNL     1     -15.961 -19.572  20.621  1.00  0.00     0.157 A 
ATOM     16  C   UNL     1     -13.747 -19.272  21.565  1.00  0.00     0.062 A 
ATOM     17  C   UNL     1     -14.898 -20.050  21.404  1.00  0.00     0.158 A 
BRANCH  15  18
ATOM     18  O   UNL     1     -17.110 -20.343  20.455  1.00  0.00    -0.504 OA
ATOM     19  H   UNL     1     -18.036 -19.943  20.555  1.00  0.00     0.293 HD
ENDBRANCH  15  18
BRANCH  17  20
ATOM     20  O   UNL     1     -14.967 -21.294  22.030  1.00  0.00    -0.504 OA
ATOM     21  H   UNL     1     -15.814 -21.625  22.476  1.00  0.00     0.293 HD
ENDBRANCH  17  20
ENDBRANCH   1  12
BRANCH   6  22
ATOM     22  O   UNL     1      -7.737 -15.099  21.924  1.00  0.00    -0.507 OA
ATOM     23  H   UNL     1      -7.086 -15.635  21.370  1.00  0.00     0.293 HD
ENDBRANCH   6  22
BRANCH   8  24
ATOM     24  O   UNL     1     -10.550 -11.594  20.230  1.00  0.00    -0.508 OA
ATOM     25  H   UNL     1      -9.939 -10.866  20.584  1.00  0.00     0.293 HD
ENDBRANCH   8  24
TORSDOF 5
ENDMDL
MODEL 2
REMARK VINA RESULT:    -6.350     10.372     13.680
REMARK INTER + INTRA:          -7.757
REMARK INTER:                  -7.462
REMARK INTRA:                  -0.295
REMARK UNBOUND:                -0.293
REMARK SMILES O=c1cc(-c2ccc(O)c(O)c2)oc2cc(O)cc(O)c12
REMARK SMILES IDX 4 1 3 2 2 3 1 4 21 5 19 6 18 7 16 8 15 9 14 10 13 11 5 12
REMARK SMILES IDX 6 13 7 14 8 15 12 16 10 17 9 18 11 20 20 22 17 24
REMARK H PARENT 9 19 11 21 20 23 17 25
REMARK Flexibility Score: inf
ROOT
ATOM      1  C   UNL     1      -5.505 -11.110  29.908  1.00  0.00     0.138 A 
ATOM      2  C   UNL     1      -5.531 -11.373  28.531  1.00  0.00     0.100 A 
ATOM      3  C   UNL     1      -6.639 -10.988  27.775  1.00  0.00     0.197 A 
ATOM      4  O   UNL     1      -6.606 -11.182  26.532  1.00  0.00    -0.289 OA
ATOM      5  C   UNL     1      -7.741 -10.368  28.409  1.00  0.00     0.107 A 
ATOM      6  C   UNL     1      -8.941  -9.970  27.747  1.00  0.00     0.134 A 
ATOM      7  C   UNL     1      -9.917  -9.258  28.456  1.00  0.00     0.093 A 
ATOM      8  C   UNL     1      -9.763  -8.983  29.817  1.00  0.00     0.123 A 
ATOM      9  C   UNL     1      -8.619  -9.414  30.484  1.00  0.00     0.094 A 
ATOM     10  C   UNL     1      -7.612 -10.096  29.797  1.00  0.00     0.146 A 
ATOM     11  O   UNL     1      -6.530 -10.478  30.469  1.00  0.00    -0.456 OA
ENDROOT
BRANCH   1  12
ATOM     12  C   UNL     1      -4.352 -11.499  30.759  1.00  0.00     0.021 A 
ATOM     13  C   UNL     1      -4.319 -11.210  32.136  1.00  0.00     0.016 A 
ATOM     14  C   UNL     1      -3.216 -11.579  32.910  1.00  0.00     0.051 A 
ATOM     15  C   UNL     1      -2.125 -12.234  32.324  1.00  0.00     0.157 A 
ATOM     16  C   UNL     1      -3.247 -12.144  30.175  1.00  0.00     0.062 A 
ATOM     17  C   UNL     1      -2.142 -12.515  30.949  1.00  0.00     0.158 A 
BRANCH  15  18
ATOM     18  O   UNL     1      -1.028 -12.601  33.101  1.00  0.00    -0.504 OA
ATOM     19  H   UNL     1      -0.114 -12.189  32.957  1.00  0.00     0.293 HD
ENDBRANCH  15  18
BRANCH  17  20
ATOM     20  O   UNL     1      -1.071 -13.163  30.333  1.00  0.00    -0.504 OA
ATOM     21  H   UNL     1      -0.286 -13.524  30.861  1.00  0.00     0.293 HD
ENDBRANCH  17  20
ENDBRANCH   1  12
BRANCH   6  22
ATOM     22  O   UNL     1      -9.233 -10.268  26.413  1.00  0.00    -0.507 OA
ATOM     23  H   UNL     1      -9.465 -11.186  26.064  1.00  0.00     0.293 HD
ENDBRANCH   6  22
BRANCH   8  24
ATOM     24  O   UNL     1     -10.745  -8.287  30.518  1.00  0.00    -0.508 OA
ATOM     25  H   UNL     1     -10.711  -7.279  30.617  1.00  0.00     0.293 HD
ENDBRANCH   8  24
TORSDOF 5
ENDMDL
MODEL 3
REMARK VINA RESULT:    -6.308      4.888      7.708
REMARK INTER + INTRA:          -7.708
REMARK INTER:                  -7.439
REMARK INTRA:                  -0.269
REMARK UNBOUND:                -0.293
REMARK SMILES O=c1cc(-c2ccc(O)c(O)c2)oc2cc(O)cc(O)c12
REMARK SMILES IDX 4 1 3 2 2 3 1 4 21 5 19 6 18 7 16 8 15 9 14 10 13 11 5 12
REMARK SMILES IDX 6 13 7 14 8 15 12 16 10 17 9 18 11 20 20 22 17 24
REMARK H PARENT 9 19 11 21 20 23 17 25
REMARK Flexibility Score: inf
ROOT
ATOM      1  C   UNL     1      -7.738 -14.564  18.442  1.00  0.00     0.138 A 
ATOM      2  C   UNL     1      -7.467 -15.877  18.852  1.00  0.00     0.100 A 
ATOM      3  C   UNL     1      -7.904 -16.315  20.103  1.00  0.00     0.197 A 
ATOM      4  O   UNL     1      -7.700 -17.516  20.417  1.00  0.00    -0.289 OA
ATOM      5  C   UNL     1      -8.587 -15.420  20.961  1.00  0.00     0.107 A 
ATOM      6  C   UNL     1      -9.043 -15.743  22.274  1.00  0.00     0.134 A 
ATOM      7  C   UNL     1      -9.810 -14.812  22.986  1.00  0.00     0.093 A 
ATOM      8  C   UNL     1     -10.087 -13.550  22.456  1.00  0.00     0.123 A 
ATOM      9  C   UNL     1      -9.601 -13.206  21.197  1.00  0.00     0.094 A 
ATOM     10  C   UNL     1      -8.862 -14.124  20.448  1.00  0.00     0.146 A 
ATOM     11  O   UNL     1      -8.428 -13.762  19.245  1.00  0.00    -0.456 OA
ENDROOT
BRANCH   1  12
ATOM     12  C   UNL     1      -7.295 -14.047  17.122  1.00  0.00     0.021 A 
ATOM     13  C   UNL     1      -6.558 -12.854  17.005  1.00  0.00     0.016 A 
ATOM     14  C   UNL     1      -6.163 -12.387  15.749  1.00  0.00     0.051 A 
ATOM     15  C   UNL     1      -6.504 -13.095  14.589  1.00  0.00     0.157 A 
ATOM     16  C   UNL     1      -7.645 -14.746  15.953  1.00  0.00     0.062 A 
ATOM     17  C   UNL     1      -7.250 -14.280  14.694  1.00  0.00     0.158 A 
BRANCH  15  18
ATOM     18  O   UNL     1      -6.106 -12.625  13.339  1.00  0.00    -0.504 OA
ATOM     19  H   UNL     1      -5.146 -12.699  13.025  1.00  0.00     0.293 HD
ENDBRANCH  15  18
BRANCH  17  20
ATOM     20  O   UNL     1      -7.608 -15.008  13.559  1.00  0.00    -0.504 OA
ATOM     21  H   UNL     1      -7.997 -15.941  13.621  1.00  0.00     0.293 HD
ENDBRANCH  17  20
ENDBRANCH   1  12
BRANCH   6  22
ATOM     22  O   UNL     1      -8.750 -16.942  22.930  1.00  0.00    -0.507 OA
ATOM     23  H   UNL     1      -8.360 -17.013  23.857  1.00  0.00     0.293 HD
ENDBRANCH   6  22
BRANCH   8  24
ATOM     24  O   UNL     1     -10.839 -12.626  23.177  1.00  0.00    -0.508 OA
ATOM     25  H   UNL     1     -11.372 -11.899  22.713  1.00  0.00     0.293 HD
ENDBRANCH   8  24
TORSDOF 5
ENDMDL
MODEL 4
REMARK VINA RESULT:    -6.303      4.737      8.395
REMARK INTER + INTRA:          -7.701
REMARK INTER:                  -7.418
REMARK INTRA:                  -0.284
REMARK UNBOUND:                -0.293
REMARK SMILES O=c1cc(-c2ccc(O)c(O)c2)oc2cc(O)cc(O)c12
REMARK SMILES IDX 4 1 3 2 2 3 1 4 21 5 19 6 18 7 16 8 15 9 14 10 13 11 5 12
REMARK SMILES IDX 6 13 7 14 8 15 12 16 10 17 9 18 11 20 20 22 17 24
REMARK H PARENT 9 19 11 21 20 23 17 25
REMARK Flexibility Score: inf
ROOT
ATOM      1  C   UNL     1     -16.751 -18.541  17.615  1.00  0.00     0.138 A 
ATOM      2  C   UNL     1     -16.700 -19.580  16.675  1.00  0.00     0.100 A 
ATOM      3  C   UNL     1     -17.362 -19.440  15.454  1.00  0.00     0.197 A 
ATOM      4  O   UNL     1     -17.246 -20.362  14.607  1.00  0.00    -0.289 OA
ATOM      5  C   UNL     1     -18.106 -18.266  15.190  1.00  0.00     0.107 A 
ATOM      6  C   UNL     1     -18.854 -18.030  13.997  1.00  0.00     0.134 A 
ATOM      7  C   UNL     1     -19.456 -16.782  13.796  1.00  0.00     0.093 A 
ATOM      8  C   UNL     1     -19.388 -15.783  14.769  1.00  0.00     0.123 A 
ATOM      9  C   UNL     1     -18.705 -16.022  15.959  1.00  0.00     0.094 A 
ATOM     10  C   UNL     1     -18.065 -17.244  16.175  1.00  0.00     0.146 A 
ATOM     11  O   UNL     1     -17.412 -17.427  17.319  1.00  0.00    -0.456 OA
ENDROOT
BRANCH   1  12
ATOM     12  C   UNL     1     -16.066 -18.638  18.929  1.00  0.00     0.021 A 
ATOM     13  C   UNL     1     -15.495 -17.511  19.551  1.00  0.00     0.016 A 
ATOM     14  C   UNL     1     -14.849 -17.634  20.783  1.00  0.00     0.051 A 
ATOM     15  C   UNL     1     -14.752 -18.882  21.412  1.00  0.00     0.157 A 
ATOM     16  C   UNL     1     -15.953 -19.890  19.560  1.00  0.00     0.062 A 
ATOM     17  C   UNL     1     -15.306 -20.015  20.795  1.00  0.00     0.158 A 
BRANCH  15  18
ATOM     18  O   UNL     1     -14.107 -18.999  22.642  1.00  0.00    -0.504 OA
ATOM     19  H   UNL     1     -14.615 -19.229  23.487  1.00  0.00     0.293 HD
ENDBRANCH  15  18
BRANCH  17  20
ATOM     20  O   UNL     1     -15.225 -21.273  21.392  1.00  0.00    -0.504 OA
ATOM     21  H   UNL     1     -15.793 -21.526  22.191  1.00  0.00     0.293 HD
ENDBRANCH  17  20
ENDBRANCH   1  12
BRANCH   6  22
ATOM     22  O   UNL     1     -19.056 -18.989  13.000  1.00  0.00    -0.507 OA
ATOM     23  H   UNL     1     -19.494 -18.811  12.108  1.00  0.00     0.293 HD
ENDBRANCH   6  22
BRANCH   8  24
ATOM     24  O   UNL     1     -20.002 -14.549  14.567  1.00  0.00    -0.508 OA
ATOM     25  H   UNL     1     -19.462 -13.716  14.362  1.00  0.00     0.293 HD
ENDBRANCH   8  24
TORSDOF 5
ENDMDL
MODEL 5
REMARK VINA RESULT:    -6.271      1.566      7.444
REMARK INTER + INTRA:          -7.664
REMARK INTER:                  -7.374
REMARK INTRA:                  -0.290
REMARK UNBOUND:                -0.293
REMARK SMILES O=c1cc(-c2ccc(O)c(O)c2)oc2cc(O)cc(O)c12
REMARK SMILES IDX 4 1 3 2 2 3 1 4 21 5 19 6 18 7 16 8 15 9 14 10 13 11 5 12
REMARK SMILES IDX 6 13 7 14 8 15 12 16 10 17 9 18 11 20 20 22 17 24
REMARK H PARENT 9 19 11 21 20 23 17 25
REMARK Flexibility Score: inf
ROOT
ATOM      1  C   UNL     1     -12.785 -16.121  20.341  1.00  0.00     0.138 A 
ATOM      2  C   UNL     1     -13.593 -15.983  19.204  1.00  0.00     0.100 A 
ATOM      3  C   UNL     1     -14.529 -16.973  18.897  1.00  0.00     0.197 A 
ATOM      4  O   UNL     1     -15.282 -16.790  17.906  1.00  0.00    -0.289 OA
ATOM      5  C   UNL     1     -14.630 -18.122  19.716  1.00  0.00     0.107 A 
ATOM      6  C   UNL     1     -15.518 -19.213  19.478  1.00  0.00     0.134 A 
ATOM      7  C   UNL     1     -15.614 -20.244  20.421  1.00  0.00     0.093 A 
ATOM      8  C   UNL     1     -14.811 -20.252  21.563  1.00  0.00     0.123 A 
ATOM      9  C   UNL     1     -13.902 -19.219  21.778  1.00  0.00     0.094 A 
ATOM     10  C   UNL     1     -13.808 -18.159  20.874  1.00  0.00     0.146 A 
ATOM     11  O   UNL     1     -12.938 -17.185  21.123  1.00  0.00    -0.456 OA
ENDROOT
BRANCH   1  12
ATOM     12  C   UNL     1     -11.774 -15.100  20.714  1.00  0.00     0.021 A 
ATOM     13  C   UNL     1     -10.699 -15.401  21.572  1.00  0.00     0.016 A 
ATOM     14  C   UNL     1      -9.768 -14.417  21.913  1.00  0.00     0.051 A 
ATOM     15  C   UNL     1      -9.897 -13.115  21.411  1.00  0.00     0.157 A 
ATOM     16  C   UNL     1     -11.903 -13.787  20.225  1.00  0.00     0.062 A 
ATOM     17  C   UNL     1     -10.971 -12.800  20.565  1.00  0.00     0.158 A 
BRANCH  15  18
ATOM     18  O   UNL     1      -8.965 -12.137  21.753  1.00  0.00    -0.504 OA
ATOM     19  H   UNL     1      -9.115 -11.511  22.534  1.00  0.00     0.293 HD
ENDBRANCH  15  18
BRANCH  17  20
ATOM     20  O   UNL     1     -11.131 -11.514  20.050  1.00  0.00    -0.504 OA
ATOM     21  H   UNL     1     -10.746 -10.699  20.513  1.00  0.00     0.293 HD
ENDBRANCH  17  20
ENDBRANCH   1  12
BRANCH   6  22
ATOM     22  O   UNL     1     -16.302 -19.345  18.327  1.00  0.00    -0.507 OA
ATOM     23  H   UNL     1     -16.398 -18.642  17.611  1.00  0.00     0.293 HD
ENDBRANCH   6  22
BRANCH   8  24
ATOM     24  O   UNL     1     -14.902 -21.289  22.490  1.00  0.00    -0.508 OA
ATOM     25  H   UNL     1     -14.275 -21.346  23.285  1.00  0.00     0.293 HD
ENDBRANCH   8  24
TORSDOF 5
ENDMDL
MODEL 6
REMARK VINA RESULT:    -6.248      5.514      7.931
REMARK INTER + INTRA:          -7.637
REMARK INTER:                  -7.347
REMARK INTRA:                  -0.290
REMARK UNBOUND:                -0.293
REMARK SMILES O=c1cc(-c2ccc(O)c(O)c2)oc2cc(O)cc(O)c12
REMARK SMILES IDX 4 1 3 2 2 3 1 4 21 5 19 6 18 7 16 8 15 9 14 10 13 11 5 12
REMARK SMILES IDX 6 13 7 14 8 15 12 16 10 17 9 18 11 20 20 22 17 24
REMARK H PARENT 9 19 11 21 20 23 17 25
REMARK Flexibility Score: inf
ROOT
ATOM      1  C   UNL     1      -7.353 -14.128  19.439  1.00  0.00     0.138 A 
ATOM      2  C   UNL     1      -7.517 -13.832  18.078  1.00  0.00     0.100 A 
ATOM      3  C   UNL     1      -6.583 -14.300  17.152  1.00  0.00     0.197 A 
ATOM      4  O   UNL     1      -6.791 -14.072  15.933  1.00  0.00    -0.289 OA
ATOM      5  C   UNL     1      -5.461 -15.039  17.598  1.00  0.00     0.107 A 
ATOM      6  C   UNL     1      -4.424 -15.530  16.750  1.00  0.00     0.134 A 
ATOM      7  C   UNL     1      -3.423 -16.349  17.288  1.00  0.00     0.093 A 
ATOM      8  C   UNL     1      -3.389 -16.644  18.652  1.00  0.00     0.123 A 
ATOM      9  C   UNL     1      -4.367 -16.125  19.497  1.00  0.00     0.094 A 
ATOM     10  C   UNL     1      -5.398 -15.334  18.986  1.00  0.00     0.146 A 
ATOM     11  O   UNL     1      -6.319 -14.869  19.824  1.00  0.00    -0.456 OA
ENDROOT
BRANCH   1  12
ATOM     12  C   UNL     1      -8.315 -13.655  20.466  1.00  0.00     0.021 A 
ATOM     13  C   UNL     1      -9.707 -13.779  20.289  1.00  0.00     0.016 A 
ATOM     14  C   UNL     1     -10.589 -13.317  21.268  1.00  0.00     0.051 A 
ATOM     15  C   UNL     1     -10.101 -12.715  22.435  1.00  0.00     0.157 A 
ATOM     16  C   UNL     1      -7.834 -13.038  21.634  1.00  0.00     0.062 A 
ATOM     17  C   UNL     1      -8.716 -12.575  22.616  1.00  0.00     0.158 A 
BRANCH  15  18
ATOM     18  O   UNL     1     -10.985 -12.256  23.409  1.00  0.00    -0.504 OA
ATOM     19  H   UNL     1     -10.819 -11.394  23.913  1.00  0.00     0.293 HD
ENDBRANCH  15  18
BRANCH  17  20
ATOM     20  O   UNL     1      -8.197 -11.978  23.765  1.00  0.00    -0.504 OA
ATOM     21  H   UNL     1      -7.230 -11.680  23.826  1.00  0.00     0.293 HD
ENDBRANCH  17  20
ENDBRANCH   1  12
BRANCH   6  22
ATOM     22  O   UNL     1      -4.317 -15.225  15.389  1.00  0.00    -0.507 OA
ATOM     23  H   UNL     1      -5.016 -15.436  14.694  1.00  0.00     0.293 HD
ENDBRANCH   6  22
BRANCH   8  24
ATOM     24  O   UNL     1      -2.382 -17.448  19.181  1.00  0.00    -0.508 OA
ATOM     25  H   UNL     1      -1.930 -17.222  20.061  1.00  0.00     0.293 HD
ENDBRANCH   8  24
TORSDOF 5
ENDMDL
MODEL 7
REMARK VINA RESULT:    -6.213      2.323      3.504
REMARK INTER + INTRA:          -7.596
REMARK INTER:                  -7.279
REMARK INTRA:                  -0.317
REMARK UNBOUND:                -0.293
REMARK SMILES O=c1cc(-c2ccc(O)c(O)c2)oc2cc(O)cc(O)c12
REMARK SMILES IDX 4 1 3 2 2 3 1 4 21 5 19 6 18 7 16 8 15 9 14 10 13 11 5 12
REMARK SMILES IDX 6 13 7 14 8 15 12 16 10 17 9 18 11 20 20 22 17 24
REMARK H PARENT 9 19 11 21 20 23 17 25
REMARK Flexibility Score: inf
ROOT
ATOM      1  C   UNL     1     -14.879 -17.487  19.753  1.00  0.00     0.138 A 
ATOM      2  C   UNL     1     -14.159 -18.238  20.693  1.00  0.00     0.100 A 
ATOM      3  C   UNL     1     -12.957 -17.742  21.199  1.00  0.00     0.197 A 
ATOM      4  O   UNL     1     -12.367 -18.410  22.087  1.00  0.00    -0.289 OA
ATOM      5  C   UNL     1     -12.458 -16.502  20.735  1.00  0.00     0.107 A 
ATOM      6  C   UNL     1     -11.224 -15.917  21.150  1.00  0.00     0.134 A 
ATOM      7  C   UNL     1     -10.888 -14.630  20.711  1.00  0.00     0.093 A 
ATOM      8  C   UNL     1     -11.713 -13.933  19.826  1.00  0.00     0.123 A 
ATOM      9  C   UNL     1     -12.893 -14.517  19.373  1.00  0.00     0.094 A 
ATOM     10  C   UNL     1     -13.273 -15.785  19.820  1.00  0.00     0.146 A 
ATOM     11  O   UNL     1     -14.414 -16.301  19.374  1.00  0.00    -0.456 OA
ENDROOT
BRANCH   1  12
ATOM     12  C   UNL     1     -16.162 -17.968  19.181  1.00  0.00     0.021 A 
ATOM     13  C   UNL     1     -16.614 -19.286  19.382  1.00  0.00     0.016 A 
ATOM     14  C   UNL     1     -17.821 -19.714  18.823  1.00  0.00     0.051 A 
ATOM     15  C   UNL     1     -18.593 -18.839  18.049  1.00  0.00     0.157 A 
ATOM     16  C   UNL     1     -16.937 -17.099  18.391  1.00  0.00     0.062 A 
ATOM     17  C   UNL     1     -18.146 -17.526  17.832  1.00  0.00     0.158 A 
BRANCH  15  18
ATOM     18  O   UNL     1     -19.797 -19.269  17.495  1.00  0.00    -0.504 OA
ATOM     19  H   UNL     1     -20.088 -20.238  17.547  1.00  0.00     0.293 HD
ENDBRANCH  15  18
BRANCH  17  20
ATOM     20  O   UNL     1     -18.889 -16.630  17.063  1.00  0.00    -0.504 OA
ATOM     21  H   UNL     1     -19.801 -16.868  16.692  1.00  0.00     0.293 HD
ENDBRANCH  17  20
ENDBRANCH   1  12
BRANCH   6  22
ATOM     22  O   UNL     1     -10.288 -16.563  21.965  1.00  0.00    -0.507 OA
ATOM     23  H   UNL     1      -9.884 -16.171  22.802  1.00  0.00     0.293 HD
ENDBRANCH   6  22
BRANCH   8  24
ATOM     24  O   UNL     1     -11.364 -12.659  19.383  1.00  0.00    -0.508 OA
ATOM     25  H   UNL     1     -11.998 -11.873  19.478  1.00  0.00     0.293 HD
ENDBRANCH   8  24
TORSDOF 5
ENDMDL
MODEL 8
REMARK VINA RESULT:    -6.160      1.595      6.758
REMARK INTER + INTRA:          -7.533
REMARK INTER:                  -7.240
REMARK INTRA:                  -0.293
REMARK UNBOUND:                -0.293
REMARK SMILES O=c1cc(-c2ccc(O)c(O)c2)oc2cc(O)cc(O)c12
REMARK SMILES IDX 4 1 3 2 2 3 1 4 21 5 19 6 18 7 16 8 15 9 14 10 13 11 5 12
REMARK SMILES IDX 6 13 7 14 8 15 12 16 10 17 9 18 11 20 20 22 17 24
REMARK H PARENT 9 19 11 21 20 23 17 25
REMARK Flexibility Score: inf
ROOT
ATOM      1  C   UNL     1     -12.964 -17.581  21.098  1.00  0.00     0.138 A 
ATOM      2  C   UNL     1     -13.456 -18.734  21.727  1.00  0.00     0.100 A 
ATOM      3  C   UNL     1     -14.670 -19.283  21.310  1.00  0.00     0.197 A 
ATOM      4  O   UNL     1     -15.055 -20.351  21.851  1.00  0.00    -0.289 OA
ATOM      5  C   UNL     1     -15.410 -18.653  20.281  1.00  0.00     0.107 A 
ATOM      6  C   UNL     1     -16.678 -19.099  19.803  1.00  0.00     0.134 A 
ATOM      7  C   UNL     1     -17.263 -18.464  18.701  1.00  0.00     0.093 A 
ATOM      8  C   UNL     1     -16.654 -17.361  18.098  1.00  0.00     0.123 A 
ATOM      9  C   UNL     1     -15.441 -16.885  18.591  1.00  0.00     0.094 A 
ATOM     10  C   UNL     1     -14.816 -17.519  19.667  1.00  0.00     0.146 A 
ATOM     11  O   UNL     1     -13.653 -17.041  20.098  1.00  0.00    -0.456 OA
ENDROOT
BRANCH   1  12
ATOM     12  C   UNL     1     -11.679 -16.955  21.502  1.00  0.00     0.021 A 
ATOM     13  C   UNL     1     -11.286 -15.694  21.015  1.00  0.00     0.016 A 
ATOM     14  C   UNL     1     -10.067 -15.134  21.405  1.00  0.00     0.051 A 
ATOM     15  C   UNL     1      -9.216 -15.824  22.278  1.00  0.00     0.157 A 
ATOM     16  C   UNL     1     -10.814 -17.648  22.367  1.00  0.00     0.062 A 
ATOM     17  C   UNL     1      -9.593 -17.088  22.759  1.00  0.00     0.158 A 
BRANCH  15  18
ATOM     18  O   UNL     1      -8.002 -15.261  22.665  1.00  0.00    -0.504 OA
ATOM     19  H   UNL     1      -7.491 -14.633  22.057  1.00  0.00     0.293 HD
ENDBRANCH  15  18
BRANCH  17  20
ATOM     20  O   UNL     1      -8.768 -17.804  23.627  1.00  0.00    -0.504 OA
ATOM     21  H   UNL     1      -8.328 -18.674  23.354  1.00  0.00     0.293 HD
ENDBRANCH  17  20
ENDBRANCH   1  12
BRANCH   6  22
ATOM     22  O   UNL     1     -17.412 -20.136  20.387  1.00  0.00    -0.507 OA
ATOM     23  H   UNL     1     -17.011 -20.949  20.831  1.00  0.00     0.293 HD
ENDBRANCH   6  22
BRANCH   8  24
ATOM     24  O   UNL     1     -17.249 -16.726  17.010  1.00  0.00    -0.508 OA
ATOM     25  H   UNL     1     -18.135 -17.043  16.631  1.00  0.00     0.293 HD
ENDBRANCH   8  24
TORSDOF 5
ENDMDL
MODEL 9
REMARK VINA RESULT:    -5.420     10.906     13.441
REMARK INTER + INTRA:          -6.664
REMARK INTER:                  -6.375
REMARK INTRA:                  -0.289
REMARK UNBOUND:                -0.293
REMARK SMILES O=c1cc(-c2ccc(O)c(O)c2)oc2cc(O)cc(O)c12
REMARK SMILES IDX 4 1 3 2 2 3 1 4 21 5 19 6 18 7 16 8 15 9 14 10 13 11 5 12
REMARK SMILES IDX 6 13 7 14 8 15 12 16 10 17 9 18 11 20 20 22 17 24
REMARK H PARENT 9 19 11 21 20 23 17 25
REMARK Flexibility Score: inf
ROOT
ATOM      1  C   UNL     1      -6.036 -11.006  29.574  1.00  0.00     0.138 A 
ATOM      2  C   UNL     1      -6.748 -10.971  28.367  1.00  0.00     0.100 A 
ATOM      3  C   UNL     1      -8.012 -10.378  28.327  1.00  0.00     0.197 A 
ATOM      4  O   UNL     1      -8.599 -10.306  27.217  1.00  0.00    -0.289 OA
ATOM      5  C   UNL     1      -8.577  -9.849  29.511  1.00  0.00     0.107 A 
ATOM      6  C   UNL     1      -9.873  -9.258  29.599  1.00  0.00     0.134 A 
ATOM      7  C   UNL     1     -10.280  -8.662  30.799  1.00  0.00     0.093 A 
ATOM      8  C   UNL     1      -9.462  -8.689  31.931  1.00  0.00     0.123 A 
ATOM      9  C   UNL     1      -8.217  -9.310  31.870  1.00  0.00     0.094 A 
ATOM     10  C   UNL     1      -7.768  -9.883  30.678  1.00  0.00     0.146 A 
ATOM     11  O   UNL     1      -6.567 -10.454  30.659  1.00  0.00    -0.456 OA
ENDROOT
BRANCH   1  12
ATOM     12  C   UNL     1      -4.690 -11.625  29.672  1.00  0.00     0.021 A 
ATOM     13  C   UNL     1      -3.768 -11.237  30.663  1.00  0.00     0.016 A 
ATOM     14  C   UNL     1      -2.505 -11.830  30.726  1.00  0.00     0.051 A 
ATOM     15  C   UNL     1      -2.136 -12.812  29.798  1.00  0.00     0.157 A 
ATOM     16  C   UNL     1      -4.307 -12.602  28.736  1.00  0.00     0.062 A 
ATOM     17  C   UNL     1      -3.043 -13.198  28.798  1.00  0.00     0.158 A 
BRANCH  15  18
ATOM     18  O   UNL     1      -0.875 -13.402  29.866  1.00  0.00    -0.504 OA
ATOM     19  H   UNL     1      -0.747 -14.397  29.732  1.00  0.00     0.293 HD
ENDBRANCH  15  18
BRANCH  17  20
ATOM     20  O   UNL     1      -2.706 -14.171  27.857  1.00  0.00    -0.504 OA
ATOM     21  H   UNL     1      -3.068 -15.115  27.907  1.00  0.00     0.293 HD
ENDBRANCH  17  20
ENDBRANCH   1  12
BRANCH   6  22
ATOM     22  O   UNL     1     -10.801  -9.253  28.553  1.00  0.00    -0.507 OA
ATOM     23  H   UNL     1     -10.851  -8.552  27.829  1.00  0.00     0.293 HD
ENDBRANCH   6  22
BRANCH   8  24
ATOM     24  O   UNL     1      -9.881  -8.106  33.125  1.00  0.00    -0.508 OA
ATOM     25  H   UNL     1      -9.285  -8.094  33.946  1.00  0.00     0.293 HD
ENDBRANCH   8  24
TORSDOF 5
ENDMDL
