MODEL 1
REMARK VINA RESULT:    -5.948      0.000      0.000
REMARK INTER + INTRA:         -11.300
REMARK INTER:                 -10.120
REMARK INTRA:                  -1.180
REMARK UNBOUND:                -1.180
REMARK SMILES CCCCCCCCCCCCCC(=O)[O-]
REMARK SMILES IDX 8 1 9 2 10 3 11 4 12 5 13 6 14 7 15 8 16 9 7 10 6 11 5 12
REMARK SMILES IDX 4 13 3 14 2 15 1 16
REMARK H PARENT
REMARK Flexibility Score: inf
ROOT
ATOM      1  C   UNL     1      -7.309 -16.923  -3.339  1.00  0.00     0.000 C 
ENDROOT
BRANCH   1   2
ATOM      2  C   UNL     1      -5.888 -16.368  -3.487  1.00  0.00     0.000 C 
BRANCH   2   3
ATOM      3  C   UNL     1      -5.409 -15.720  -2.181  1.00  0.00     0.000 C 
BRANCH   3   4
ATOM      4  C   UNL     1      -4.573 -16.707  -1.353  1.00  0.00     0.000 C 
BRANCH   4   5
ATOM      5  C   UNL     1      -3.076 -16.651  -1.698  1.00  0.00     0.006 C 
BRANCH   5   6
ATOM      6  C   UNL     1      -2.179 -16.826  -0.466  1.00  0.00     0.053 C 
BRANCH   6   7
ATOM      7  C   UNL     1      -1.545 -18.181  -0.471  1.00  0.00     0.041 C 
ATOM      8  O   UNL     1      -1.282 -18.753  -1.561  1.00  0.00    -0.550 OA
ATOM      9  O   UNL     1      -1.289 -18.834   0.728  1.00  0.00    -0.550 OA
ENDBRANCH   6   7
ENDBRANCH   5   6
ENDBRANCH   4   5
ENDBRANCH   3   4
ENDBRANCH   2   3
ENDBRANCH   1   2
BRANCH   1  10
ATOM     10  C   UNL     1      -7.847 -17.429  -4.683  1.00  0.00     0.000 C 
BRANCH  10  11
ATOM     11  C   UNL     1      -6.950 -16.969  -5.843  1.00  0.00    -0.000 C 
BRANCH  11  12
ATOM     12  C   UNL     1      -7.593 -15.857  -6.686  1.00  0.00    -0.000 C 
BRANCH  12  13
ATOM     13  C   UNL     1      -8.832 -15.245  -6.009  1.00  0.00    -0.000 C 
BRANCH  13  14
ATOM     14  C   UNL     1      -8.633 -13.767  -5.638  1.00  0.00    -0.000 C 
BRANCH  14  15
ATOM     15  C   UNL     1      -7.150 -13.381  -5.519  1.00  0.00    -0.003 C 
ATOM     16  C   UNL     1      -6.839 -12.814  -4.137  1.00  0.00     0.004 C 
ENDBRANCH  14  15
ENDBRANCH  13  14
ENDBRANCH  12  13
ENDBRANCH  11  12
ENDBRANCH  10  11
ENDBRANCH   1  10
TORSDOF 12
ENDMDL
MODEL 2
REMARK VINA RESULT:    -5.894      2.920      6.663
REMARK INTER + INTRA:         -11.209
REMARK INTER:                 -10.116
REMARK INTRA:                  -1.093
REMARK UNBOUND:                -1.180
REMARK SMILES CCCCCCCCCCCCCC(=O)[O-]
REMARK SMILES IDX 8 1 9 2 10 3 11 4 12 5 13 6 14 7 15 8 16 9 7 10 6 11 5 12
REMARK SMILES IDX 4 13 3 14 2 15 1 16
REMARK H PARENT
REMARK Flexibility Score: inf
ROOT
ATOM      1  C   UNL     1      -6.226 -14.001  -2.673  1.00  0.00     0.000 C 
ENDROOT
BRANCH   1   2
ATOM      2  C   UNL     1      -6.846 -12.952  -3.603  1.00  0.00     0.000 C 
BRANCH   2   3
ATOM      3  C   UNL     1      -6.856 -13.441  -5.057  1.00  0.00     0.000 C 
BRANCH   3   4
ATOM      4  C   UNL     1      -8.284 -13.455  -5.623  1.00  0.00     0.000 C 
BRANCH   4   5
ATOM      5  C   UNL     1      -8.766 -14.870  -5.979  1.00  0.00     0.006 C 
BRANCH   5   6
ATOM      6  C   UNL     1      -7.662 -15.728  -6.612  1.00  0.00     0.053 C 
BRANCH   6   7
ATOM      7  C   UNL     1      -7.620 -17.079  -5.971  1.00  0.00     0.041 C 
ATOM      8  O   UNL     1      -6.573 -17.775  -6.029  1.00  0.00    -0.550 OA
ATOM      9  O   UNL     1      -8.754 -17.591  -5.351  1.00  0.00    -0.550 OA
ENDBRANCH   6   7
ENDBRANCH   5   6
ENDBRANCH   4   5
ENDBRANCH   3   4
ENDBRANCH   2   3
ENDBRANCH   1   2
BRANCH   1  10
ATOM     10  C   UNL     1      -6.872 -15.376  -2.883  1.00  0.00     0.000 C 
BRANCH  10  11
ATOM     11  C   UNL     1      -5.861 -16.504  -2.624  1.00  0.00    -0.000 C 
BRANCH  11  12
ATOM     12  C   UNL     1      -4.633 -16.029  -1.830  1.00  0.00    -0.000 C 
BRANCH  12  13
ATOM     13  C   UNL     1      -4.143 -17.080  -0.818  1.00  0.00    -0.000 C 
BRANCH  13  14
ATOM     14  C   UNL     1      -2.636 -16.972  -0.537  1.00  0.00    -0.000 C 
BRANCH  14  15
ATOM     15  C   UNL     1      -1.809 -16.766  -1.816  1.00  0.00    -0.003 C 
ATOM     16  C   UNL     1      -1.085 -18.049  -2.213  1.00  0.00     0.004 C 
ENDBRANCH  14  15
ENDBRANCH  13  14
ENDBRANCH  12  13
ENDBRANCH  11  12
ENDBRANCH  10  11
ENDBRANCH   1  10
TORSDOF 12
ENDMDL
MODEL 3
REMARK VINA RESULT:    -5.875      1.078      3.098
REMARK INTER + INTRA:         -11.176
REMARK INTER:                  -9.957
REMARK INTRA:                  -1.219
REMARK UNBOUND:                -1.180
REMARK SMILES CCCCCCCCCCCCCC(=O)[O-]
REMARK SMILES IDX 8 1 9 2 10 3 11 4 12 5 13 6 14 7 15 8 16 9 7 10 6 11 5 12
REMARK SMILES IDX 4 13 3 14 2 15 1 16
REMARK H PARENT
REMARK Flexibility Score: inf
ROOT
ATOM      1  C   UNL     1      -6.938 -12.873  -3.693  1.00  0.00     0.000 C 
ENDROOT
BRANCH   1   2
ATOM      2  C   UNL     1      -6.177 -13.755  -2.697  1.00  0.00     0.000 C 
BRANCH   2   3
ATOM      3  C   UNL     1      -6.707 -15.194  -2.718  1.00  0.00     0.000 C 
BRANCH   3   4
ATOM      4  C   UNL     1      -5.562 -16.199  -2.916  1.00  0.00     0.000 C 
BRANCH   4   5
ATOM      5  C   UNL     1      -4.877 -16.585  -1.595  1.00  0.00     0.006 C 
BRANCH   5   6
ATOM      6  C   UNL     1      -3.350 -16.450  -1.660  1.00  0.00     0.053 C 
BRANCH   6   7
ATOM      7  C   UNL     1      -2.707 -17.298  -0.609  1.00  0.00     0.041 C 
ATOM      8  O   UNL     1      -2.049 -18.321  -0.935  1.00  0.00    -0.550 OA
ATOM      9  O   UNL     1      -2.875 -16.988   0.735  1.00  0.00    -0.550 OA
ENDBRANCH   6   7
ENDBRANCH   5   6
ENDBRANCH   4   5
ENDBRANCH   3   4
ENDBRANCH   2   3
ENDBRANCH   1   2
BRANCH   1  10
ATOM     10  C   UNL     1      -6.885 -13.464  -5.107  1.00  0.00     0.000 C 
BRANCH  10  11
ATOM     11  C   UNL     1      -8.298 -13.618  -5.692  1.00  0.00    -0.000 C 
BRANCH  11  12
ATOM     12  C   UNL     1      -8.670 -15.084  -5.965  1.00  0.00    -0.000 C 
BRANCH  12  13
ATOM     13  C   UNL     1      -7.613 -15.813  -6.813  1.00  0.00    -0.000 C 
BRANCH  13  14
ATOM     14  C   UNL     1      -6.931 -16.959  -6.049  1.00  0.00    -0.000 C 
BRANCH  14  15
ATOM     15  C   UNL     1      -7.777 -18.242  -6.026  1.00  0.00    -0.003 C 
ATOM     16  C   UNL     1      -8.137 -18.636  -4.597  1.00  0.00     0.004 C 
ENDBRANCH  14  15
ENDBRANCH  13  14
ENDBRANCH  12  13
ENDBRANCH  11  12
ENDBRANCH  10  11
ENDBRANCH   1  10
TORSDOF 12
ENDMDL
MODEL 4
REMARK VINA RESULT:    -5.769      1.041      2.746
REMARK INTER + INTRA:         -10.996
REMARK INTER:                  -9.744
REMARK INTRA:                  -1.252
REMARK UNBOUND:                -1.180
REMARK SMILES CCCCCCCCCCCCCC(=O)[O-]
REMARK SMILES IDX 8 1 9 2 10 3 11 4 12 5 13 6 14 7 15 8 16 9 7 10 6 11 5 12
REMARK SMILES IDX 4 13 3 14 2 15 1 16
REMARK H PARENT
REMARK Flexibility Score: inf
ROOT
ATOM      1  C   UNL     1      -6.240 -13.998  -2.682  1.00  0.00     0.000 C 
ENDROOT
BRANCH   1   2
ATOM      2  C   UNL     1      -6.887 -15.386  -2.727  1.00  0.00     0.000 C 
BRANCH   2   3
ATOM      3  C   UNL     1      -5.825 -16.492  -2.676  1.00  0.00     0.000 C 
BRANCH   3   4
ATOM      4  C   UNL     1      -4.502 -15.958  -2.104  1.00  0.00     0.000 C 
BRANCH   4   5
ATOM      5  C   UNL     1      -4.049 -16.722  -0.850  1.00  0.00     0.006 C 
BRANCH   5   6
ATOM      6  C   UNL     1      -2.657 -17.348  -1.011  1.00  0.00     0.053 C 
BRANCH   6   7
ATOM      7  C   UNL     1      -2.049 -17.618   0.329  1.00  0.00     0.041 C 
ATOM      8  O   UNL     1      -2.255 -16.831   1.289  1.00  0.00    -0.550 OA
ATOM      9  O   UNL     1      -1.213 -18.714   0.506  1.00  0.00    -0.550 OA
ENDBRANCH   6   7
ENDBRANCH   5   6
ENDBRANCH   4   5
ENDBRANCH   3   4
ENDBRANCH   2   3
ENDBRANCH   1   2
BRANCH   1  10
ATOM     10  C   UNL     1      -6.869 -13.061  -3.721  1.00  0.00     0.000 C 
BRANCH  10  11
ATOM     11  C   UNL     1      -6.914 -13.726  -5.105  1.00  0.00    -0.000 C 
BRANCH  11  12
ATOM     12  C   UNL     1      -8.347 -13.909  -5.630  1.00  0.00    -0.000 C 
BRANCH  12  13
ATOM     13  C   UNL     1      -8.628 -15.351  -6.089  1.00  0.00    -0.000 C 
BRANCH  13  14
ATOM     14  C   UNL     1      -7.410 -16.003  -6.763  1.00  0.00    -0.000 C 
BRANCH  14  15
ATOM     15  C   UNL     1      -6.949 -17.281  -6.043  1.00  0.00    -0.003 C 
ATOM     16  C   UNL     1      -8.084 -17.890  -5.226  1.00  0.00     0.004 C 
ENDBRANCH  14  15
ENDBRANCH  13  14
ENDBRANCH  12  13
ENDBRANCH  11  12
ENDBRANCH  10  11
ENDBRANCH   1  10
TORSDOF 12
ENDMDL
MODEL 5
REMARK VINA RESULT:    -5.651      0.986      1.361
REMARK INTER + INTRA:         -10.795
REMARK INTER:                  -9.734
REMARK INTRA:                  -1.062
REMARK UNBOUND:                -1.180
REMARK SMILES CCCCCCCCCCCCCC(=O)[O-]
REMARK SMILES IDX 8 1 9 2 10 3 11 4 12 5 13 6 14 7 15 8 16 9 7 10 6 11 5 12
REMARK SMILES IDX 4 13 3 14 2 15 1 16
REMARK H PARENT
REMARK Flexibility Score: inf
ROOT
ATOM      1  C   UNL     1      -6.663 -16.177  -2.589  1.00  0.00     0.000 C 
ENDROOT
BRANCH   1   2
ATOM      2  C   UNL     1      -5.169 -16.356  -2.880  1.00  0.00     0.000 C 
BRANCH   2   3
ATOM      3  C   UNL     1      -4.351 -16.366  -1.582  1.00  0.00     0.000 C 
BRANCH   3   4
ATOM      4  C   UNL     1      -2.848 -16.262  -1.879  1.00  0.00     0.000 C 
BRANCH   4   5
ATOM      5  C   UNL     1      -2.034 -17.387  -1.219  1.00  0.00     0.006 C 
BRANCH   5   6
ATOM      6  C   UNL     1      -1.072 -16.866  -0.143  1.00  0.00     0.053 C 
BRANCH   6   7
ATOM      7  C   UNL     1      -1.196 -17.681   1.105  1.00  0.00     0.041 C 
ATOM      8  O   UNL     1      -1.033 -18.929   1.066  1.00  0.00    -0.550 OA
ATOM      9  O   UNL     1      -1.540 -17.069   2.304  1.00  0.00    -0.550 OA
ENDBRANCH   6   7
ENDBRANCH   5   6
ENDBRANCH   4   5
ENDBRANCH   3   4
ENDBRANCH   2   3
ENDBRANCH   1   2
BRANCH   1  10
ATOM     10  C   UNL     1      -7.520 -16.831  -3.680  1.00  0.00     0.000 C 
BRANCH  10  11
ATOM     11  C   UNL     1      -6.743 -16.936  -5.001  1.00  0.00    -0.000 C 
BRANCH  11  12
ATOM     12  C   UNL     1      -7.269 -15.974  -6.078  1.00  0.00    -0.000 C 
BRANCH  12  13
ATOM     13  C   UNL     1      -8.538 -15.226  -5.632  1.00  0.00    -0.000 C 
BRANCH  13  14
ATOM     14  C   UNL     1      -8.375 -13.699  -5.690  1.00  0.00    -0.000 C 
BRANCH  14  15
ATOM     15  C   UNL     1      -6.934 -13.246  -5.404  1.00  0.00    -0.003 C 
ATOM     16  C   UNL     1      -6.752 -12.897  -3.929  1.00  0.00     0.004 C 
ENDBRANCH  14  15
ENDBRANCH  13  14
ENDBRANCH  12  13
ENDBRANCH  11  12
ENDBRANCH  10  11
ENDBRANCH   1  10
TORSDOF 12
ENDMDL
MODEL 6
REMARK VINA RESULT:    -5.628      3.155      6.327
REMARK INTER + INTRA:         -10.757
REMARK INTER:                  -9.551
REMARK INTRA:                  -1.205
REMARK UNBOUND:                -1.180
REMARK SMILES CCCCCCCCCCCCCC(=O)[O-]
REMARK SMILES IDX 8 1 9 2 10 3 11 4 12 5 13 6 14 7 15 8 16 9 7 10 6 11 5 12
REMARK SMILES IDX 4 13 3 14 2 15 1 16
REMARK H PARENT
REMARK Flexibility Score: inf
ROOT
ATOM      1  C   UNL     1      -7.945 -12.945  -4.795  1.00  0.00     0.000 C 
ENDROOT
BRANCH   1   2
ATOM      2  C   UNL     1      -8.658 -13.630  -5.966  1.00  0.00     0.000 C 
BRANCH   2   3
ATOM      3  C   UNL     1      -9.059 -15.066  -5.604  1.00  0.00     0.000 C 
BRANCH   3   4
ATOM      4  C   UNL     1      -8.543 -16.062  -6.653  1.00  0.00     0.000 C 
BRANCH   4   5
ATOM      5  C   UNL     1      -7.244 -16.760  -6.218  1.00  0.00     0.006 C 
BRANCH   5   6
ATOM      6  C   UNL     1      -7.402 -18.282  -6.103  1.00  0.00     0.053 C 
BRANCH   6   7
ATOM      7  C   UNL     1      -8.543 -18.621  -5.197  1.00  0.00     0.041 C 
ATOM      8  O   UNL     1      -9.603 -19.110  -5.669  1.00  0.00    -0.550 OA
ATOM      9  O   UNL     1      -8.456 -18.350  -3.837  1.00  0.00    -0.550 OA
ENDBRANCH   6   7
ENDBRANCH   5   6
ENDBRANCH   4   5
ENDBRANCH   3   4
ENDBRANCH   2   3
ENDBRANCH   1   2
BRANCH   1  10
ATOM     10  C   UNL     1      -6.625 -13.652  -4.462  1.00  0.00     0.000 C 
BRANCH  10  11
ATOM     11  C   UNL     1      -6.564 -14.032  -2.975  1.00  0.00    -0.000 C 
BRANCH  11  12
ATOM     12  C   UNL     1      -6.763 -15.538  -2.738  1.00  0.00    -0.000 C 
BRANCH  12  13
ATOM     13  C   UNL     1      -5.431 -16.306  -2.674  1.00  0.00    -0.000 C 
BRANCH  13  14
ATOM     14  C   UNL     1      -4.474 -15.740  -1.613  1.00  0.00    -0.000 C 
BRANCH  14  15
ATOM     15  C   UNL     1      -3.766 -16.841  -0.807  1.00  0.00    -0.003 C 
ATOM     16  C   UNL     1      -2.459 -17.256  -1.475  1.00  0.00     0.004 C 
ENDBRANCH  14  15
ENDBRANCH  13  14
ENDBRANCH  12  13
ENDBRANCH  11  12
ENDBRANCH  10  11
ENDBRANCH   1  10
TORSDOF 12
ENDMDL
MODEL 7
REMARK VINA RESULT:    -5.490      4.162      7.298
REMARK INTER + INTRA:         -10.522
REMARK INTER:                  -9.520
REMARK INTRA:                  -1.002
REMARK UNBOUND:                -1.180
REMARK SMILES CCCCCCCCCCCCCC(=O)[O-]
REMARK SMILES IDX 8 1 9 2 10 3 11 4 12 5 13 6 14 7 15 8 16 9 7 10 6 11 5 12
REMARK SMILES IDX 4 13 3 14 2 15 1 16
REMARK H PARENT
REMARK Flexibility Score: inf
ROOT
ATOM      1  C   UNL     1      -8.404 -13.741  -5.614  1.00  0.00     0.000 C 
ENDROOT
BRANCH   1   2
ATOM      2  C   UNL     1      -8.934 -15.055  -6.199  1.00  0.00     0.000 C 
BRANCH   2   3
ATOM      3  C   UNL     1      -7.819 -15.833  -6.908  1.00  0.00     0.000 C 
BRANCH   3   4
ATOM      4  C   UNL     1      -8.336 -16.477  -8.203  1.00  0.00     0.000 C 
BRANCH   4   5
ATOM      5  C   UNL     1      -8.672 -17.967  -8.031  1.00  0.00     0.006 C 
BRANCH   5   6
ATOM      6  C   UNL     1     -10.182 -18.237  -8.048  1.00  0.00     0.053 C 
BRANCH   6   7
ATOM      7  C   UNL     1     -10.661 -18.608  -6.681  1.00  0.00     0.041 C 
ATOM      8  O   UNL     1      -9.834 -18.839  -5.760  1.00  0.00    -0.550 OA
ATOM      9  O   UNL     1     -12.022 -18.748  -6.434  1.00  0.00    -0.550 OA
ENDBRANCH   6   7
ENDBRANCH   5   6
ENDBRANCH   4   5
ENDBRANCH   3   4
ENDBRANCH   2   3
ENDBRANCH   1   2
BRANCH   1  10
ATOM     10  C   UNL     1      -6.942 -13.883  -5.174  1.00  0.00     0.000 C 
BRANCH  10  11
ATOM     11  C   UNL     1      -6.690 -13.139  -3.853  1.00  0.00    -0.000 C 
BRANCH  11  12
ATOM     12  C   UNL     1      -6.541 -14.091  -2.656  1.00  0.00    -0.000 C 
BRANCH  12  13
ATOM     13  C   UNL     1      -6.905 -15.544  -3.008  1.00  0.00    -0.000 C 
BRANCH  13  14
ATOM     14  C   UNL     1      -5.877 -16.556  -2.475  1.00  0.00    -0.000 C 
BRANCH  14  15
ATOM     15  C   UNL     1      -4.658 -15.878  -1.830  1.00  0.00    -0.003 C 
ATOM     16  C   UNL     1      -3.817 -16.887  -1.053  1.00  0.00     0.004 C 
ENDBRANCH  14  15
ENDBRANCH  13  14
ENDBRANCH  12  13
ENDBRANCH  11  12
ENDBRANCH  10  11
ENDBRANCH   1  10
TORSDOF 12
ENDMDL
MODEL 8
REMARK VINA RESULT:    -5.439      3.588      7.388
REMARK INTER + INTRA:         -10.435
REMARK INTER:                  -9.574
REMARK INTRA:                  -0.861
REMARK UNBOUND:                -1.180
REMARK SMILES CCCCCCCCCCCCCC(=O)[O-]
REMARK SMILES IDX 8 1 9 2 10 3 11 4 12 5 13 6 14 7 15 8 16 9 7 10 6 11 5 12
REMARK SMILES IDX 4 13 3 14 2 15 1 16
REMARK H PARENT
REMARK Flexibility Score: inf
ROOT
ATOM      1  C   UNL     1      -5.529 -16.249  -2.826  1.00  0.00     0.000 C 
ENDROOT
BRANCH   1   2
ATOM      2  C   UNL     1      -6.737 -15.308  -2.766  1.00  0.00     0.000 C 
BRANCH   2   3
ATOM      3  C   UNL     1      -6.292 -13.841  -2.719  1.00  0.00     0.000 C 
BRANCH   3   4
ATOM      4  C   UNL     1      -6.893 -13.046  -3.888  1.00  0.00     0.000 C 
BRANCH   4   5
ATOM      5  C   UNL     1      -7.004 -13.879  -5.175  1.00  0.00     0.006 C 
BRANCH   5   6
ATOM      6  C   UNL     1      -8.451 -14.010  -5.670  1.00  0.00     0.053 C 
BRANCH   6   7
ATOM      7  C   UNL     1      -8.742 -15.425  -6.058  1.00  0.00     0.041 C 
ATOM      8  O   UNL     1      -8.653 -15.783  -7.262  1.00  0.00    -0.550 OA
ATOM      9  O   UNL     1      -9.162 -16.338  -5.098  1.00  0.00    -0.550 OA
ENDBRANCH   6   7
ENDBRANCH   5   6
ENDBRANCH   4   5
ENDBRANCH   3   4
ENDBRANCH   2   3
ENDBRANCH   1   2
BRANCH   1  10
ATOM     10  C   UNL     1      -4.481 -15.870  -1.773  1.00  0.00     0.000 C 
BRANCH  10  11
ATOM     11  C   UNL     1      -4.107 -17.084  -0.908  1.00  0.00    -0.000 C 
BRANCH  11  12
ATOM     12  C   UNL     1      -3.002 -16.768   0.113  1.00  0.00    -0.000 C 
BRANCH  12  13
ATOM     13  C   UNL     1      -1.771 -17.677  -0.049  1.00  0.00    -0.000 C 
BRANCH  13  14
ATOM     14  C   UNL     1      -0.495 -16.889  -0.384  1.00  0.00    -0.000 C 
BRANCH  14  15
ATOM     15  C   UNL     1      -0.228 -16.808  -1.896  1.00  0.00    -0.003 C 
ATOM     16  C   UNL     1      -0.576 -15.426  -2.441  1.00  0.00     0.004 C 
ENDBRANCH  14  15
ENDBRANCH  13  14
ENDBRANCH  12  13
ENDBRANCH  11  12
ENDBRANCH  10  11
ENDBRANCH   1  10
TORSDOF 12
ENDMDL
MODEL 9
REMARK VINA RESULT:    -5.208      1.866      3.056
REMARK INTER + INTRA:         -10.041
REMARK INTER:                  -9.032
REMARK INTRA:                  -1.009
REMARK UNBOUND:                -1.180
REMARK SMILES CCCCCCCCCCCCCC(=O)[O-]
REMARK SMILES IDX 8 1 9 2 10 3 11 4 12 5 13 6 14 7 15 8 16 9 7 10 6 11 5 12
REMARK SMILES IDX 4 13 3 14 2 15 1 16
REMARK H PARENT
REMARK Flexibility Score: inf
ROOT
ATOM      1  C   UNL     1      -5.692 -16.370  -2.741  1.00  0.00     0.000 C 
ENDROOT
BRANCH   1   2
ATOM      2  C   UNL     1      -4.455 -16.046  -1.896  1.00  0.00     0.000 C 
BRANCH   2   3
ATOM      3  C   UNL     1      -4.240 -17.104  -0.806  1.00  0.00     0.000 C 
BRANCH   3   4
ATOM      4  C   UNL     1      -2.768 -17.541  -0.748  1.00  0.00     0.000 C 
BRANCH   4   5
ATOM      5  C   UNL     1      -1.802 -16.429  -1.187  1.00  0.00     0.006 C 
BRANCH   5   6
ATOM      6  C   UNL     1      -0.741 -16.927  -2.177  1.00  0.00     0.053 C 
BRANCH   6   7
ATOM      7  C   UNL     1       0.579 -16.283  -1.893  1.00  0.00     0.041 C 
ATOM      8  O   UNL     1       1.554 -16.979  -1.504  1.00  0.00    -0.550 OA
ATOM      9  O   UNL     1       0.722 -14.905  -2.011  1.00  0.00    -0.550 OA
ENDBRANCH   6   7
ENDBRANCH   5   6
ENDBRANCH   4   5
ENDBRANCH   3   4
ENDBRANCH   2   3
ENDBRANCH   1   2
BRANCH   1  10
ATOM     10  C   UNL     1      -6.764 -15.283  -2.590  1.00  0.00     0.000 C 
BRANCH  10  11
ATOM     11  C   UNL     1      -6.145 -13.881  -2.703  1.00  0.00    -0.000 C 
BRANCH  11  12
ATOM     12  C   UNL     1      -6.938 -12.956  -3.640  1.00  0.00    -0.000 C 
BRANCH  12  13
ATOM     13  C   UNL     1      -6.873 -13.409  -5.109  1.00  0.00    -0.000 C 
BRANCH  13  14
ATOM     14  C   UNL     1      -8.263 -13.694  -5.701  1.00  0.00    -0.000 C 
BRANCH  14  15
ATOM     15  C   UNL     1      -8.566 -15.197  -5.807  1.00  0.00    -0.003 C 
ATOM     16  C   UNL     1      -7.342 -15.970  -6.289  1.00  0.00     0.004 C 
ENDBRANCH  14  15
ENDBRANCH  13  14
ENDBRANCH  12  13
ENDBRANCH  11  12
ENDBRANCH  10  11
ENDBRANCH   1  10
TORSDOF 12
ENDMDL
