MODEL 1
REMARK VINA RESULT:    -3.084      0.000      0.000
REMARK INTER + INTRA:          -8.611
REMARK INTER:                  -5.969
REMARK INTRA:                  -2.642
REMARK UNBOUND:                -2.642
REMARK SMILES CCCCCCCCCCCCCCCCCC(=O)[O-]
REMARK SMILES IDX 10 1 11 2 12 3 13 4 14 5 15 6 16 7 17 8 18 9 19 10 20 11
REMARK SMILES IDX 9 12 8 13 7 14 6 15 5 16 4 17 3 18 2 19 1 20
REMARK H PARENT
REMARK Flexibility Score: inf
ROOT
ATOM      1  C   UNL     1       7.168   9.802   8.536  1.00  0.00     0.000 C 
ENDROOT
BRANCH   1   2
ATOM      2  C   UNL     1       6.232  10.369   7.453  1.00  0.00     0.000 C 
BRANCH   2   3
ATOM      3  C   UNL     1       4.797  10.586   7.958  1.00  0.00     0.000 C 
BRANCH   3   4
ATOM      4  C   UNL     1       4.359  12.061   7.895  1.00  0.00     0.000 C 
BRANCH   4   5
ATOM      5  C   UNL     1       5.490  13.070   7.612  1.00  0.00     0.000 C 
BRANCH   5   6
ATOM      6  C   UNL     1       6.025  13.819   8.850  1.00  0.00     0.000 C 
BRANCH   6   7
ATOM      7  C   UNL     1       7.377  13.306   9.385  1.00  0.00     0.006 C 
BRANCH   7   8
ATOM      8  C   UNL     1       7.421  13.104  10.908  1.00  0.00     0.053 C 
BRANCH   8   9
ATOM      9  C   UNL     1       8.404  12.046  11.305  1.00  0.00     0.041 C 
ATOM     10  O   UNL     1       8.000  10.951  11.775  1.00  0.00    -0.550 OA
ATOM     11  O   UNL     1       9.768  12.284  11.188  1.00  0.00    -0.550 OA
ENDBRANCH   8   9
ENDBRANCH   7   8
ENDBRANCH   6   7
ENDBRANCH   5   6
ENDBRANCH   4   5
ENDBRANCH   3   4
ENDBRANCH   2   3
ENDBRANCH   1   2
BRANCH   1  12
ATOM     12  C   UNL     1       8.677   9.923   8.234  1.00  0.00     0.000 C 
BRANCH  12  13
ATOM     13  C   UNL     1       9.049  10.934   7.136  1.00  0.00    -0.000 C 
BRANCH  13  14
ATOM     14  C   UNL     1       9.776  10.283   5.947  1.00  0.00    -0.000 C 
BRANCH  14  15
ATOM     15  C   UNL     1      10.255   8.856   6.261  1.00  0.00    -0.000 C 
BRANCH  15  16
ATOM     16  C   UNL     1      10.123   7.907   5.058  1.00  0.00    -0.000 C 
BRANCH  16  17
ATOM     17  C   UNL     1       8.847   8.162   4.236  1.00  0.00    -0.000 C 
BRANCH  17  18
ATOM     18  C   UNL     1       7.713   7.141   4.460  1.00  0.00    -0.000 C 
BRANCH  18  19
ATOM     19  C   UNL     1       6.931   7.317   5.773  1.00  0.00    -0.003 C 
ATOM     20  C   UNL     1       7.291   6.267   6.825  1.00  0.00     0.004 C 
ENDBRANCH  18  19
ENDBRANCH  17  18
ENDBRANCH  16  17
ENDBRANCH  15  16
ENDBRANCH  14  15
ENDBRANCH  13  14
ENDBRANCH  12  13
ENDBRANCH   1  12
TORSDOF 16
ENDMDL
MODEL 2
REMARK VINA RESULT:    -3.082      2.255      5.596
REMARK INTER + INTRA:          -8.607
REMARK INTER:                  -5.883
REMARK INTRA:                  -2.724
REMARK UNBOUND:                -2.642
REMARK SMILES CCCCCCCCCCCCCCCCCC(=O)[O-]
REMARK SMILES IDX 10 1 11 2 12 3 13 4 14 5 15 6 16 7 17 8 18 9 19 10 20 11
REMARK SMILES IDX 9 12 8 13 7 14 6 15 5 16 4 17 3 18 2 19 1 20
REMARK H PARENT
REMARK Flexibility Score: inf
ROOT
ATOM      1  C   UNL     1       7.419  11.049  10.541  1.00  0.00     0.000 C 
ENDROOT
BRANCH   1   2
ATOM      2  C   UNL     1       8.217  10.219   9.519  1.00  0.00     0.000 C 
BRANCH   2   3
ATOM      3  C   UNL     1       9.226  11.062   8.722  1.00  0.00     0.000 C 
BRANCH   3   4
ATOM      4  C   UNL     1       8.808  11.266   7.255  1.00  0.00     0.000 C 
BRANCH   4   5
ATOM      5  C   UNL     1       9.641  10.483   6.220  1.00  0.00     0.000 C 
BRANCH   5   6
ATOM      6  C   UNL     1       8.959   9.225   5.646  1.00  0.00     0.000 C 
BRANCH   6   7
ATOM      7  C   UNL     1       9.679   7.897   5.954  1.00  0.00     0.006 C 
BRANCH   7   8
ATOM      8  C   UNL     1      10.672   7.970   7.124  1.00  0.00     0.053 C 
BRANCH   8   9
ATOM      9  C   UNL     1      10.176   7.231   8.328  1.00  0.00     0.041 C 
ATOM     10  O   UNL     1      10.979   6.878   9.231  1.00  0.00    -0.550 OA
ATOM     11  O   UNL     1       8.830   6.901   8.437  1.00  0.00    -0.550 OA
ENDBRANCH   8   9
ENDBRANCH   7   8
ENDBRANCH   6   7
ENDBRANCH   5   6
ENDBRANCH   4   5
ENDBRANCH   3   4
ENDBRANCH   2   3
ENDBRANCH   1   2
BRANCH   1  12
ATOM     12  C   UNL     1       7.652  12.573  10.480  1.00  0.00     0.000 C 
BRANCH  12  13
ATOM     13  C   UNL     1       6.385  13.438  10.605  1.00  0.00    -0.000 C 
BRANCH  13  14
ATOM     14  C   UNL     1       6.256  14.473   9.475  1.00  0.00    -0.000 C 
BRANCH  14  15
ATOM     15  C   UNL     1       6.108  13.818   8.092  1.00  0.00    -0.000 C 
BRANCH  15  16
ATOM     16  C   UNL     1       4.641  13.684   7.652  1.00  0.00    -0.000 C 
BRANCH  16  17
ATOM     17  C   UNL     1       4.125  12.236   7.735  1.00  0.00    -0.000 C 
BRANCH  17  18
ATOM     18  C   UNL     1       5.209  11.149   7.589  1.00  0.00    -0.000 C 
BRANCH  18  19
ATOM     19  C   UNL     1       4.744   9.719   7.915  1.00  0.00    -0.003 C 
ATOM     20  C   UNL     1       5.704   8.649   7.396  1.00  0.00     0.004 C 
ENDBRANCH  18  19
ENDBRANCH  17  18
ENDBRANCH  16  17
ENDBRANCH  15  16
ENDBRANCH  14  15
ENDBRANCH  13  14
ENDBRANCH  12  13
ENDBRANCH   1  12
TORSDOF 16
ENDMDL
MODEL 3
REMARK VINA RESULT:    -3.045      1.484      3.060
REMARK INTER + INTRA:          -8.535
REMARK INTER:                  -6.036
REMARK INTRA:                  -2.499
REMARK UNBOUND:                -2.642
REMARK SMILES CCCCCCCCCCCCCCCCCC(=O)[O-]
REMARK SMILES IDX 10 1 11 2 12 3 13 4 14 5 15 6 16 7 17 8 18 9 19 10 20 11
REMARK SMILES IDX 9 12 8 13 7 14 6 15 5 16 4 17 3 18 2 19 1 20
REMARK H PARENT
REMARK Flexibility Score: inf
ROOT
ATOM      1  C   UNL     1       3.848  10.798   7.794  1.00  0.00     0.000 C 
ENDROOT
BRANCH   1   2
ATOM      2  C   UNL     1       4.061  12.204   8.385  1.00  0.00     0.000 C 
BRANCH   2   3
ATOM      3  C   UNL     1       4.936  13.100   7.494  1.00  0.00     0.000 C 
BRANCH   3   4
ATOM      4  C   UNL     1       6.063  13.801   8.274  1.00  0.00     0.000 C 
BRANCH   4   5
ATOM      5  C   UNL     1       7.472  13.652   7.666  1.00  0.00     0.000 C 
BRANCH   5   6
ATOM      6  C   UNL     1       8.109  12.257   7.822  1.00  0.00     0.000 C 
BRANCH   6   7
ATOM      7  C   UNL     1       7.832  11.562   9.171  1.00  0.00     0.006 C 
BRANCH   7   8
ATOM      8  C   UNL     1       9.052  10.857   9.784  1.00  0.00     0.053 C 
BRANCH   8   9
ATOM      9  C   UNL     1       9.448  11.459  11.096  1.00  0.00     0.041 C 
ATOM     10  O   UNL     1       9.234  12.679  11.324  1.00  0.00    -0.550 OA
ATOM     11  O   UNL     1      10.083  10.681  12.056  1.00  0.00    -0.550 OA
ENDBRANCH   8   9
ENDBRANCH   7   8
ENDBRANCH   6   7
ENDBRANCH   5   6
ENDBRANCH   4   5
ENDBRANCH   3   4
ENDBRANCH   2   3
ENDBRANCH   1   2
BRANCH   1  12
ATOM     12  C   UNL     1       5.138  10.002   7.501  1.00  0.00     0.000 C 
BRANCH  12  13
ATOM     13  C   UNL     1       5.434   8.848   8.475  1.00  0.00    -0.000 C 
BRANCH  13  14
ATOM     14  C   UNL     1       6.557   7.922   7.978  1.00  0.00    -0.000 C 
BRANCH  14  15
ATOM     15  C   UNL     1       6.537   7.741   6.452  1.00  0.00    -0.000 C 
BRANCH  15  16
ATOM     16  C   UNL     1       7.948   7.693   5.841  1.00  0.00    -0.000 C 
BRANCH  16  17
ATOM     17  C   UNL     1       8.623   9.076   5.792  1.00  0.00    -0.000 C 
BRANCH  17  18
ATOM     18  C   UNL     1       9.867   9.226   6.689  1.00  0.00    -0.000 C 
BRANCH  18  19
ATOM     19  C   UNL     1      10.559   7.905   7.068  1.00  0.00    -0.003 C 
ATOM     20  C   UNL     1      10.345   7.519   8.531  1.00  0.00     0.004 C 
ENDBRANCH  18  19
ENDBRANCH  17  18
ENDBRANCH  16  17
ENDBRANCH  15  16
ENDBRANCH  14  15
ENDBRANCH  13  14
ENDBRANCH  12  13
ENDBRANCH   1  12
TORSDOF 16
ENDMDL
MODEL 4
REMARK VINA RESULT:    -3.041      4.700      6.705
REMARK INTER + INTRA:          -8.528
REMARK INTER:                  -6.734
REMARK INTRA:                  -1.794
REMARK UNBOUND:                -2.642
REMARK SMILES CCCCCCCCCCCCCCCCCC(=O)[O-]
REMARK SMILES IDX 10 1 11 2 12 3 13 4 14 5 15 6 16 7 17 8 18 9 19 10 20 11
REMARK SMILES IDX 9 12 8 13 7 14 6 15 5 16 4 17 3 18 2 19 1 20
REMARK H PARENT
REMARK Flexibility Score: inf
ROOT
ATOM      1  C   UNL     1      12.126   6.449   8.920  1.00  0.00     0.000 C 
ENDROOT
BRANCH   1   2
ATOM      2  C   UNL     1      11.130   6.515   7.747  1.00  0.00     0.000 C 
BRANCH   2   3
ATOM      3  C   UNL     1      10.670   7.948   7.434  1.00  0.00     0.000 C 
BRANCH   3   4
ATOM      4  C   UNL     1      10.431   8.184   5.932  1.00  0.00     0.000 C 
BRANCH   4   5
ATOM      5  C   UNL     1       9.719   9.506   5.580  1.00  0.00     0.000 C 
BRANCH   5   6
ATOM      6  C   UNL     1       8.658   9.970   6.598  1.00  0.00     0.000 C 
BRANCH   6   7
ATOM      7  C   UNL     1       9.040  11.224   7.410  1.00  0.00     0.006 C 
BRANCH   7   8
ATOM      8  C   UNL     1       9.111  10.999   8.929  1.00  0.00     0.053 C 
BRANCH   8   9
ATOM      9  C   UNL     1       8.000  11.696   9.651  1.00  0.00     0.041 C 
ATOM     10  O   UNL     1       7.091  11.029  10.210  1.00  0.00    -0.550 OA
ATOM     11  O   UNL     1       7.950  13.085   9.678  1.00  0.00    -0.550 OA
ENDBRANCH   8   9
ENDBRANCH   7   8
ENDBRANCH   6   7
ENDBRANCH   5   6
ENDBRANCH   4   5
ENDBRANCH   3   4
ENDBRANCH   2   3
ENDBRANCH   1   2
BRANCH   1  12
ATOM     12  C   UNL     1      12.080   5.152   9.754  1.00  0.00     0.000 C 
BRANCH  12  13
ATOM     13  C   UNL     1      11.798   5.343  11.255  1.00  0.00    -0.000 C 
BRANCH  13  14
ATOM     14  C   UNL     1      11.188   6.717  11.576  1.00  0.00    -0.000 C 
BRANCH  14  15
ATOM     15  C   UNL     1      12.084   7.558  12.500  1.00  0.00    -0.000 C 
BRANCH  15  16
ATOM     16  C   UNL     1      13.446   6.896  12.770  1.00  0.00    -0.000 C 
BRANCH  16  17
ATOM     17  C   UNL     1      14.624   7.702  12.196  1.00  0.00    -0.000 C 
BRANCH  17  18
ATOM     18  C   UNL     1      15.070   7.286  10.779  1.00  0.00    -0.000 C 
BRANCH  18  19
ATOM     19  C   UNL     1      15.745   5.907  10.689  1.00  0.00    -0.003 C 
ATOM     20  C   UNL     1      15.938   5.432   9.249  1.00  0.00     0.004 C 
ENDBRANCH  18  19
ENDBRANCH  17  18
ENDBRANCH  16  17
ENDBRANCH  15  16
ENDBRANCH  14  15
ENDBRANCH  13  14
ENDBRANCH  12  13
ENDBRANCH   1  12
TORSDOF 16
ENDMDL
MODEL 5
REMARK VINA RESULT:    -3.015      1.219      2.201
REMARK INTER + INTRA:          -8.477
REMARK INTER:                  -6.208
REMARK INTRA:                  -2.269
REMARK UNBOUND:                -2.642
REMARK SMILES CCCCCCCCCCCCCCCCCC(=O)[O-]
REMARK SMILES IDX 10 1 11 2 12 3 13 4 14 5 15 6 16 7 17 8 18 9 19 10 20 11
REMARK SMILES IDX 9 12 8 13 7 14 6 15 5 16 4 17 3 18 2 19 1 20
REMARK H PARENT
REMARK Flexibility Score: inf
ROOT
ATOM      1  C   UNL     1       5.546  10.317   8.512  1.00  0.00     0.000 C 
ENDROOT
BRANCH   1   2
ATOM      2  C   UNL     1       4.727  11.214   7.565  1.00  0.00     0.000 C 
BRANCH   2   3
ATOM      3  C   UNL     1       4.837  12.707   7.910  1.00  0.00     0.000 C 
BRANCH   3   4
ATOM      4  C   UNL     1       6.187  13.319   7.493  1.00  0.00     0.000 C 
BRANCH   4   5
ATOM      5  C   UNL     1       7.169  13.593   8.649  1.00  0.00     0.000 C 
BRANCH   5   6
ATOM      6  C   UNL     1       6.518  13.758  10.037  1.00  0.00     0.000 C 
BRANCH   6   7
ATOM      7  C   UNL     1       6.994  12.750  11.102  1.00  0.00     0.006 C 
BRANCH   7   8
ATOM      8  C   UNL     1       8.387  12.158  10.839  1.00  0.00     0.053 C 
BRANCH   8   9
ATOM      9  C   UNL     1       9.293  12.306  12.023  1.00  0.00     0.041 C 
ATOM     10  O   UNL     1       8.834  12.190  13.189  1.00  0.00    -0.550 OA
ATOM     11  O   UNL     1      10.637  12.606  11.838  1.00  0.00    -0.550 OA
ENDBRANCH   8   9
ENDBRANCH   7   8
ENDBRANCH   6   7
ENDBRANCH   5   6
ENDBRANCH   4   5
ENDBRANCH   3   4
ENDBRANCH   2   3
ENDBRANCH   1   2
BRANCH   1  12
ATOM     12  C   UNL     1       6.623   9.447   7.831  1.00  0.00     0.000 C 
BRANCH  12  13
ATOM     13  C   UNL     1       7.809   9.048   8.726  1.00  0.00    -0.000 C 
BRANCH  13  14
ATOM     14  C   UNL     1       9.124   9.731   8.313  1.00  0.00    -0.000 C 
BRANCH  14  15
ATOM     15  C   UNL     1       8.943  10.683   7.120  1.00  0.00    -0.000 C 
BRANCH  15  16
ATOM     16  C   UNL     1       9.680  10.203   5.859  1.00  0.00    -0.000 C 
BRANCH  16  17
ATOM     17  C   UNL     1      10.042   8.708   5.913  1.00  0.00    -0.000 C 
BRANCH  17  18
ATOM     18  C   UNL     1       9.073   7.776   5.158  1.00  0.00    -0.000 C 
BRANCH  18  19
ATOM     19  C   UNL     1       9.034   7.975   3.634  1.00  0.00    -0.003 C 
ATOM     20  C   UNL     1       7.754   7.436   2.995  1.00  0.00     0.004 C 
ENDBRANCH  18  19
ENDBRANCH  17  18
ENDBRANCH  16  17
ENDBRANCH  15  16
ENDBRANCH  14  15
ENDBRANCH  13  14
ENDBRANCH  12  13
ENDBRANCH   1  12
TORSDOF 16
ENDMDL
MODEL 6
REMARK VINA RESULT:    -3.006      1.679      3.536
REMARK INTER + INTRA:          -8.460
REMARK INTER:                  -5.636
REMARK INTRA:                  -2.823
REMARK UNBOUND:                -2.642
REMARK SMILES CCCCCCCCCCCCCCCCCC(=O)[O-]
REMARK SMILES IDX 10 1 11 2 12 3 13 4 14 5 15 6 16 7 17 8 18 9 19 10 20 11
REMARK SMILES IDX 9 12 8 13 7 14 6 15 5 16 4 17 3 18 2 19 1 20
REMARK H PARENT
REMARK Flexibility Score: inf
ROOT
ATOM      1  C   UNL     1       4.015  11.522   8.742  1.00  0.00     0.000 C 
ENDROOT
BRANCH   1   2
ATOM      2  C   UNL     1       4.002  13.052   8.571  1.00  0.00     0.000 C 
BRANCH   2   3
ATOM      3  C   UNL     1       5.049  13.549   7.561  1.00  0.00     0.000 C 
BRANCH   3   4
ATOM      4  C   UNL     1       6.314  14.107   8.237  1.00  0.00     0.000 C 
BRANCH   4   5
ATOM      5  C   UNL     1       7.627  13.386   7.869  1.00  0.00     0.000 C 
BRANCH   5   6
ATOM      6  C   UNL     1       7.920  12.105   8.676  1.00  0.00     0.000 C 
BRANCH   6   7
ATOM      7  C   UNL     1       7.383  12.110  10.121  1.00  0.00     0.006 C 
BRANCH   7   8
ATOM      8  C   UNL     1       8.303  12.804  11.138  1.00  0.00     0.053 C 
BRANCH   8   9
ATOM      9  C   UNL     1       9.424  11.915  11.579  1.00  0.00     0.041 C 
ATOM     10  O   UNL     1       9.181  10.763  12.022  1.00  0.00    -0.550 OA
ATOM     11  O   UNL     1      10.735  12.373  11.533  1.00  0.00    -0.550 OA
ENDBRANCH   8   9
ENDBRANCH   7   8
ENDBRANCH   6   7
ENDBRANCH   5   6
ENDBRANCH   4   5
ENDBRANCH   3   4
ENDBRANCH   2   3
ENDBRANCH   1   2
BRANCH   1  12
ATOM     12  C   UNL     1       4.516  10.725   7.520  1.00  0.00     0.000 C 
BRANCH  12  13
ATOM     13  C   UNL     1       5.419   9.522   7.844  1.00  0.00    -0.000 C 
BRANCH  13  14
ATOM     14  C   UNL     1       5.266   9.035   9.295  1.00  0.00    -0.000 C 
BRANCH  14  15
ATOM     15  C   UNL     1       6.615   8.670   9.938  1.00  0.00    -0.000 C 
BRANCH  15  16
ATOM     16  C   UNL     1       7.599   8.043   8.937  1.00  0.00    -0.000 C 
BRANCH  16  17
ATOM     17  C   UNL     1       9.022   8.617   9.063  1.00  0.00    -0.000 C 
BRANCH  17  18
ATOM     18  C   UNL     1       9.850   8.598   7.762  1.00  0.00    -0.000 C 
BRANCH  18  19
ATOM     19  C   UNL     1       9.109   9.105   6.513  1.00  0.00    -0.003 C 
ATOM     20  C   UNL     1       9.693  10.406   5.962  1.00  0.00     0.004 C 
ENDBRANCH  18  19
ENDBRANCH  17  18
ENDBRANCH  16  17
ENDBRANCH  15  16
ENDBRANCH  14  15
ENDBRANCH  13  14
ENDBRANCH  12  13
ENDBRANCH   1  12
TORSDOF 16
ENDMDL
MODEL 7
REMARK VINA RESULT:    -3.003      3.348      6.050
REMARK INTER + INTRA:          -8.455
REMARK INTER:                  -5.473
REMARK INTRA:                  -2.982
REMARK UNBOUND:                -2.642
REMARK SMILES CCCCCCCCCCCCCCCCCC(=O)[O-]
REMARK SMILES IDX 10 1 11 2 12 3 13 4 14 5 15 6 16 7 17 8 18 9 19 10 20 11
REMARK SMILES IDX 9 12 8 13 7 14 6 15 5 16 4 17 3 18 2 19 1 20
REMARK H PARENT
REMARK Flexibility Score: inf
ROOT
ATOM      1  C   UNL     1       7.413   9.995  11.007  1.00  0.00     0.000 C 
ENDROOT
BRANCH   1   2
ATOM      2  C   UNL     1       8.817   9.727  10.433  1.00  0.00     0.000 C 
BRANCH   2   3
ATOM      3  C   UNL     1       8.908   8.390   9.680  1.00  0.00     0.000 C 
BRANCH   3   4
ATOM      4  C   UNL     1       9.528   8.536   8.278  1.00  0.00     0.000 C 
BRANCH   4   5
ATOM      5  C   UNL     1       9.422   9.943   7.657  1.00  0.00     0.000 C 
BRANCH   5   6
ATOM      6  C   UNL     1       9.151   9.971   6.139  1.00  0.00     0.000 C 
BRANCH   6   7
ATOM      7  C   UNL     1       8.733   8.618   5.528  1.00  0.00     0.006 C 
BRANCH   7   8
ATOM      8  C   UNL     1       9.367   8.316   4.161  1.00  0.00     0.053 C 
BRANCH   8   9
ATOM      9  C   UNL     1       8.340   7.946   3.136  1.00  0.00     0.041 C 
ATOM     10  O   UNL     1       8.404   8.425   1.974  1.00  0.00    -0.550 OA
ATOM     11  O   UNL     1       7.291   7.099   3.475  1.00  0.00    -0.550 OA
ENDBRANCH   8   9
ENDBRANCH   7   8
ENDBRANCH   6   7
ENDBRANCH   5   6
ENDBRANCH   4   5
ENDBRANCH   3   4
ENDBRANCH   2   3
ENDBRANCH   1   2
BRANCH   1  12
ATOM     12  C   UNL     1       6.888  11.434  10.820  1.00  0.00     0.000 C 
BRANCH  12  13
ATOM     13  C   UNL     1       7.812  12.375  10.028  1.00  0.00    -0.000 C 
BRANCH  13  14
ATOM     14  C   UNL     1       7.055  13.225   8.995  1.00  0.00    -0.000 C 
BRANCH  14  15
ATOM     15  C   UNL     1       6.568  12.397   7.794  1.00  0.00    -0.000 C 
BRANCH  15  16
ATOM     16  C   UNL     1       5.041  12.216   7.776  1.00  0.00    -0.000 C 
BRANCH  16  17
ATOM     17  C   UNL     1       4.618  10.747   7.607  1.00  0.00    -0.000 C 
BRANCH  17  18
ATOM     18  C   UNL     1       5.772   9.726   7.657  1.00  0.00    -0.000 C 
BRANCH  18  19
ATOM     19  C   UNL     1       5.416   8.373   8.297  1.00  0.00    -0.003 C 
ATOM     20  C   UNL     1       5.946   7.180   7.500  1.00  0.00     0.004 C 
ENDBRANCH  18  19
ENDBRANCH  17  18
ENDBRANCH  16  17
ENDBRANCH  15  16
ENDBRANCH  14  15
ENDBRANCH  13  14
ENDBRANCH  12  13
ENDBRANCH   1  12
TORSDOF 16
ENDMDL
MODEL 8
REMARK VINA RESULT:    -2.985      1.515      3.141
REMARK INTER + INTRA:          -8.420
REMARK INTER:                  -5.490
REMARK INTRA:                  -2.930
REMARK UNBOUND:                -2.642
REMARK SMILES CCCCCCCCCCCCCCCCCC(=O)[O-]
REMARK SMILES IDX 10 1 11 2 12 3 13 4 14 5 15 6 16 7 17 8 18 9 19 10 20 11
REMARK SMILES IDX 9 12 8 13 7 14 6 15 5 16 4 17 3 18 2 19 1 20
REMARK H PARENT
REMARK Flexibility Score: inf
ROOT
ATOM      1  C   UNL     1       6.753   7.558   9.305  1.00  0.00     0.000 C 
ENDROOT
BRANCH   1   2
ATOM      2  C   UNL     1       5.842   8.316  10.287  1.00  0.00     0.000 C 
BRANCH   2   3
ATOM      3  C   UNL     1       5.814   9.831  10.030  1.00  0.00     0.000 C 
BRANCH   3   4
ATOM      4  C   UNL     1       4.437  10.332   9.558  1.00  0.00     0.000 C 
BRANCH   4   5
ATOM      5  C   UNL     1       4.394  10.875   8.116  1.00  0.00     0.000 C 
BRANCH   5   6
ATOM      6  C   UNL     1       5.718  11.477   7.603  1.00  0.00     0.000 C 
BRANCH   6   7
ATOM      7  C   UNL     1       5.802  13.015   7.671  1.00  0.00     0.006 C 
BRANCH   7   8
ATOM      8  C   UNL     1       7.105  13.553   8.283  1.00  0.00     0.053 C 
BRANCH   8   9
ATOM      9  C   UNL     1       7.193  13.271   9.751  1.00  0.00     0.041 C 
ATOM     10  O   UNL     1       8.278  12.886  10.258  1.00  0.00    -0.550 OA
ATOM     11  O   UNL     1       6.066  13.402  10.554  1.00  0.00    -0.550 OA
ENDBRANCH   8   9
ENDBRANCH   7   8
ENDBRANCH   6   7
ENDBRANCH   5   6
ENDBRANCH   4   5
ENDBRANCH   3   4
ENDBRANCH   2   3
ENDBRANCH   1   2
BRANCH   1  12
ATOM     12  C   UNL     1       6.101   7.176   7.959  1.00  0.00     0.000 C 
BRANCH  12  13
ATOM     13  C   UNL     1       6.538   8.025   6.752  1.00  0.00    -0.000 C 
BRANCH  13  14
ATOM     14  C   UNL     1       7.006   7.172   5.561  1.00  0.00    -0.000 C 
BRANCH  14  15
ATOM     15  C   UNL     1       8.333   7.671   4.966  1.00  0.00    -0.000 C 
BRANCH  15  16
ATOM     16  C   UNL     1       9.549   7.297   5.830  1.00  0.00    -0.000 C 
BRANCH  16  17
ATOM     17  C   UNL     1      10.320   8.528   6.338  1.00  0.00    -0.000 C 
BRANCH  17  18
ATOM     18  C   UNL     1       9.794   9.884   5.823  1.00  0.00    -0.000 C 
BRANCH  18  19
ATOM     19  C   UNL     1       9.186  10.797   6.901  1.00  0.00    -0.003 C 
ATOM     20  C   UNL     1       9.181  10.158   8.290  1.00  0.00     0.004 C 
ENDBRANCH  18  19
ENDBRANCH  17  18
ENDBRANCH  16  17
ENDBRANCH  15  16
ENDBRANCH  14  15
ENDBRANCH  13  14
ENDBRANCH  12  13
ENDBRANCH   1  12
TORSDOF 16
ENDMDL
MODEL 9
REMARK VINA RESULT:    -2.928      2.785      3.841
REMARK INTER + INTRA:          -8.308
REMARK INTER:                  -5.710
REMARK INTRA:                  -2.598
REMARK UNBOUND:                -2.642
REMARK SMILES CCCCCCCCCCCCCCCCCC(=O)[O-]
REMARK SMILES IDX 10 1 11 2 12 3 13 4 14 5 15 6 16 7 17 8 18 9 19 10 20 11
REMARK SMILES IDX 9 12 8 13 7 14 6 15 5 16 4 17 3 18 2 19 1 20
REMARK H PARENT
REMARK Flexibility Score: inf
ROOT
ATOM      1  C   UNL     1       9.129  10.393   8.551  1.00  0.00     0.000 C 
ENDROOT
BRANCH   1   2
ATOM      2  C   UNL     1       8.726  11.367   9.674  1.00  0.00     0.000 C 
BRANCH   2   3
ATOM      3  C   UNL     1       7.242  11.255  10.057  1.00  0.00     0.000 C 
BRANCH   3   4
ATOM      4  C   UNL     1       6.577  12.626  10.278  1.00  0.00     0.000 C 
BRANCH   4   5
ATOM      5  C   UNL     1       6.822  13.662   9.162  1.00  0.00     0.000 C 
BRANCH   5   6
ATOM      6  C   UNL     1       6.286  13.267   7.772  1.00  0.00     0.000 C 
BRANCH   6   7
ATOM      7  C   UNL     1       4.793  12.882   7.736  1.00  0.00     0.006 C 
BRANCH   7   8
ATOM      8  C   UNL     1       3.837  14.003   8.171  1.00  0.00     0.053 C 
BRANCH   8   9
ATOM      9  C   UNL     1       4.067  15.267   7.402  1.00  0.00     0.041 C 
ATOM     10  O   UNL     1       4.327  16.339   8.007  1.00  0.00    -0.550 OA
ATOM     11  O   UNL     1       3.961  15.267   6.016  1.00  0.00    -0.550 OA
ENDBRANCH   8   9
ENDBRANCH   7   8
ENDBRANCH   6   7
ENDBRANCH   5   6
ENDBRANCH   4   5
ENDBRANCH   3   4
ENDBRANCH   2   3
ENDBRANCH   1   2
BRANCH   1  12
ATOM     12  C   UNL     1       9.111  10.984   7.126  1.00  0.00     0.000 C 
BRANCH  12  13
ATOM     13  C   UNL     1       9.556  10.023   6.009  1.00  0.00    -0.000 C 
BRANCH  13  14
ATOM     14  C   UNL     1      10.256   8.765   6.549  1.00  0.00    -0.000 C 
BRANCH  14  15
ATOM     15  C   UNL     1       9.528   7.470   6.153  1.00  0.00    -0.000 C 
BRANCH  15  16
ATOM     16  C   UNL     1       8.305   7.727   5.257  1.00  0.00    -0.000 C 
BRANCH  16  17
ATOM     17  C   UNL     1       6.978   7.343   5.936  1.00  0.00    -0.000 C 
BRANCH  17  18
ATOM     18  C   UNL     1       7.067   7.118   7.459  1.00  0.00    -0.000 C 
BRANCH  18  19
ATOM     19  C   UNL     1       6.258   8.112   8.310  1.00  0.00    -0.003 C 
ATOM     20  C   UNL     1       5.699   9.277   7.495  1.00  0.00     0.004 C 
ENDBRANCH  18  19
ENDBRANCH  17  18
ENDBRANCH  16  17
ENDBRANCH  15  16
ENDBRANCH  14  15
ENDBRANCH  13  14
ENDBRANCH  12  13
ENDBRANCH   1  12
TORSDOF 16
ENDMDL
