MODEL 1
REMARK VINA RESULT:    -4.934      0.000      0.000
REMARK INTER + INTRA:         -12.649
REMARK INTER:                  -9.262
REMARK INTRA:                  -3.388
REMARK UNBOUND:                -3.388
REMARK SMILES CCCCCCCCC=CCCCCCCCC(=O)[O-]
REMARK SMILES IDX 10 1 9 2 11 3 12 4 13 5 14 6 15 7 16 8 17 9 18 10 19 11
REMARK SMILES IDX 20 12 8 13 7 14 6 15 5 16 4 17 3 18 2 19 1 20
REMARK H PARENT
REMARK Flexibility Score: inf
ROOT
ATOM      1  C   UNL     1       0.281  54.404  20.834  1.00  0.00    -0.031 C 
ATOM      2  C   UNL     1      -0.861  54.841  20.270  1.00  0.00    -0.031 C 
ENDROOT
BRANCH   1   3
ATOM      3  C   UNL     1       1.629  55.060  20.664  1.00  0.00     0.027 C 
BRANCH   3   4
ATOM      4  C   UNL     1       2.701  54.058  20.213  1.00  0.00     0.004 C 
BRANCH   4   5
ATOM      5  C   UNL     1       2.102  52.897  19.401  1.00  0.00     0.000 C 
BRANCH   5   6
ATOM      6  C   UNL     1       2.430  52.986  17.900  1.00  0.00     0.000 C 
BRANCH   6   7
ATOM      7  C   UNL     1       1.440  53.817  17.061  1.00  0.00     0.000 C 
BRANCH   7   8
ATOM      8  C   UNL     1       2.047  55.051  16.369  1.00  0.00     0.006 C 
BRANCH   8   9
ATOM      9  C   UNL     1       2.000  56.309  17.245  1.00  0.00     0.053 C 
BRANCH   9  10
ATOM     10  C   UNL     1       3.379  56.699  17.674  1.00  0.00     0.041 C 
ATOM     11  O   UNL     1       4.379  56.334  16.999  1.00  0.00    -0.550 OA
ATOM     12  O   UNL     1       3.559  57.509  18.788  1.00  0.00    -0.550 OA
ENDBRANCH   9  10
ENDBRANCH   8   9
ENDBRANCH   7   8
ENDBRANCH   6   7
ENDBRANCH   5   6
ENDBRANCH   4   5
ENDBRANCH   3   4
ENDBRANCH   1   3
BRANCH   2  13
ATOM     13  C   UNL     1      -0.952  55.993  19.298  1.00  0.00     0.027 C 
BRANCH  13  14
ATOM     14  C   UNL     1      -1.717  55.607  18.023  1.00  0.00     0.004 C 
BRANCH  14  15
ATOM     15  C   UNL     1      -2.566  54.340  18.220  1.00  0.00     0.000 C 
BRANCH  15  16
ATOM     16  C   UNL     1      -2.178  53.202  17.258  1.00  0.00     0.000 C 
BRANCH  16  17
ATOM     17  C   UNL     1      -2.376  51.781  17.816  1.00  0.00    -0.000 C 
BRANCH  17  18
ATOM     18  C   UNL     1      -1.075  51.159  18.344  1.00  0.00    -0.000 C 
BRANCH  18  19
ATOM     19  C   UNL     1      -1.087  51.079  19.876  1.00  0.00    -0.003 C 
ATOM     20  C   UNL     1      -2.490  51.310  20.430  1.00  0.00     0.004 C 
ENDBRANCH  18  19
ENDBRANCH  17  18
ENDBRANCH  16  17
ENDBRANCH  15  16
ENDBRANCH  14  15
ENDBRANCH  13  14
ENDBRANCH   2  13
TORSDOF 15
ENDMDL
MODEL 2
REMARK VINA RESULT:    -4.842      2.788      5.205
REMARK INTER + INTRA:         -12.476
REMARK INTER:                  -9.384
REMARK INTRA:                  -3.092
REMARK UNBOUND:                -3.388
REMARK SMILES CCCCCCCCC=CCCCCCCCC(=O)[O-]
REMARK SMILES IDX 10 1 9 2 11 3 12 4 13 5 14 6 15 7 16 8 17 9 18 10 19 11
REMARK SMILES IDX 20 12 8 13 7 14 6 15 5 16 4 17 3 18 2 19 1 20
REMARK H PARENT
REMARK Flexibility Score: inf
ROOT
ATOM      1  C   UNL     1       0.307  54.456  20.687  1.00  0.00    -0.031 C 
ATOM      2  C   UNL     1      -0.567  55.195  19.979  1.00  0.00    -0.031 C 
ENDROOT
BRANCH   1   3
ATOM      3  C   UNL     1       1.733  54.855  20.976  1.00  0.00     0.027 C 
BRANCH   3   4
ATOM      4  C   UNL     1       2.723  54.174  20.020  1.00  0.00     0.004 C 
BRANCH   4   5
ATOM      5  C   UNL     1       2.387  52.690  19.800  1.00  0.00     0.000 C 
BRANCH   5   6
ATOM      6  C   UNL     1       2.331  52.304  18.312  1.00  0.00     0.000 C 
BRANCH   6   7
ATOM      7  C   UNL     1       1.610  53.316  17.398  1.00  0.00     0.000 C 
BRANCH   7   8
ATOM      8  C   UNL     1       0.261  52.837  16.833  1.00  0.00     0.006 C 
BRANCH   8   9
ATOM      9  C   UNL     1      -0.598  52.108  17.875  1.00  0.00     0.053 C 
BRANCH   9  10
ATOM     10  C   UNL     1      -2.051  52.337  17.606  1.00  0.00     0.041 C 
ATOM     11  O   UNL     1      -2.838  51.358  17.502  1.00  0.00    -0.550 OA
ATOM     12  O   UNL     1      -2.549  53.632  17.523  1.00  0.00    -0.550 OA
ENDBRANCH   9  10
ENDBRANCH   8   9
ENDBRANCH   7   8
ENDBRANCH   6   7
ENDBRANCH   5   6
ENDBRANCH   4   5
ENDBRANCH   3   4
ENDBRANCH   1   3
BRANCH   2  13
ATOM     13  C   UNL     1      -0.227  56.489  19.279  1.00  0.00     0.027 C 
BRANCH  13  14
ATOM     14  C   UNL     1      -0.210  56.326  17.751  1.00  0.00     0.004 C 
BRANCH  14  15
ATOM     15  C   UNL     1       1.090  56.861  17.128  1.00  0.00     0.000 C 
BRANCH  15  16
ATOM     16  C   UNL     1       1.915  57.718  18.105  1.00  0.00     0.000 C 
BRANCH  16  17
ATOM     17  C   UNL     1       3.275  57.119  18.510  1.00  0.00    -0.000 C 
BRANCH  17  18
ATOM     18  C   UNL     1       4.222  56.925  17.317  1.00  0.00    -0.000 C 
BRANCH  18  19
ATOM     19  C   UNL     1       4.573  55.444  17.130  1.00  0.00    -0.003 C 
ATOM     20  C   UNL     1       4.350  55.001  15.687  1.00  0.00     0.004 C 
ENDBRANCH  18  19
ENDBRANCH  17  18
ENDBRANCH  16  17
ENDBRANCH  15  16
ENDBRANCH  14  15
ENDBRANCH  13  14
ENDBRANCH   2  13
TORSDOF 15
ENDMDL
MODEL 3
REMARK VINA RESULT:    -4.821      1.384      2.948
REMARK INTER + INTRA:         -12.436
REMARK INTER:                  -9.886
REMARK INTRA:                  -2.550
REMARK UNBOUND:                -3.388
REMARK SMILES CCCCCCCCC=CCCCCCCCC(=O)[O-]
REMARK SMILES IDX 10 1 9 2 11 3 12 4 13 5 14 6 15 7 16 8 17 9 18 10 19 11
REMARK SMILES IDX 20 12 8 13 7 14 6 15 5 16 4 17 3 18 2 19 1 20
REMARK H PARENT
REMARK Flexibility Score: inf
ROOT
ATOM      1  C   UNL     1       1.215  55.454  20.227  1.00  0.00    -0.031 C 
ATOM      2  C   UNL     1      -0.099  55.165  20.240  1.00  0.00    -0.031 C 
ENDROOT
BRANCH   1   3
ATOM      3  C   UNL     1       2.290  54.591  20.841  1.00  0.00     0.027 C 
BRANCH   3   4
ATOM      4  C   UNL     1       3.129  53.875  19.773  1.00  0.00     0.004 C 
BRANCH   4   5
ATOM      5  C   UNL     1       2.390  52.667  19.173  1.00  0.00     0.000 C 
BRANCH   5   6
ATOM      6  C   UNL     1       2.334  52.705  17.635  1.00  0.00     0.000 C 
BRANCH   6   7
ATOM      7  C   UNL     1       1.302  53.684  17.041  1.00  0.00     0.000 C 
BRANCH   7   8
ATOM      8  C   UNL     1       1.880  55.026  16.557  1.00  0.00     0.006 C 
BRANCH   8   9
ATOM      9  C   UNL     1       3.367  54.937  16.190  1.00  0.00     0.053 C 
BRANCH   9  10
ATOM     10  C   UNL     1       4.136  56.035  16.854  1.00  0.00     0.041 C 
ATOM     11  O   UNL     1       5.300  56.318  16.465  1.00  0.00    -0.550 OA
ATOM     12  O   UNL     1       3.548  56.783  17.867  1.00  0.00    -0.550 OA
ENDBRANCH   9  10
ENDBRANCH   8   9
ENDBRANCH   7   8
ENDBRANCH   6   7
ENDBRANCH   5   6
ENDBRANCH   4   5
ENDBRANCH   3   4
ENDBRANCH   1   3
BRANCH   2  13
ATOM     13  C   UNL     1      -0.712  53.988  20.959  1.00  0.00     0.027 C 
BRANCH  13  14
ATOM     14  C   UNL     1      -1.132  52.877  19.984  1.00  0.00     0.004 C 
BRANCH  14  15
ATOM     15  C   UNL     1      -2.471  53.190  19.294  1.00  0.00     0.000 C 
BRANCH  15  16
ATOM     16  C   UNL     1      -2.296  53.759  17.874  1.00  0.00     0.000 C 
BRANCH  16  17
ATOM     17  C   UNL     1      -2.918  55.149  17.648  1.00  0.00    -0.000 C 
BRANCH  17  18
ATOM     18  C   UNL     1      -3.530  55.746  18.923  1.00  0.00    -0.000 C 
BRANCH  18  19
ATOM     19  C   UNL     1      -4.243  57.070  18.622  1.00  0.00    -0.003 C 
ATOM     20  C   UNL     1      -3.655  57.745  17.385  1.00  0.00     0.004 C 
ENDBRANCH  18  19
ENDBRANCH  17  18
ENDBRANCH  16  17
ENDBRANCH  15  16
ENDBRANCH  14  15
ENDBRANCH  13  14
ENDBRANCH   2  13
TORSDOF 15
ENDMDL
MODEL 4
REMARK VINA RESULT:    -4.750      3.378      6.107
REMARK INTER + INTRA:         -12.303
REMARK INTER:                  -9.228
REMARK INTRA:                  -3.075
REMARK UNBOUND:                -3.388
REMARK SMILES CCCCCCCCC=CCCCCCCCC(=O)[O-]
REMARK SMILES IDX 10 1 9 2 11 3 12 4 13 5 14 6 15 7 16 8 17 9 18 10 19 11
REMARK SMILES IDX 20 12 8 13 7 14 6 15 5 16 4 17 3 18 2 19 1 20
REMARK H PARENT
REMARK Flexibility Score: inf
ROOT
ATOM      1  C   UNL     1       2.055  52.475  18.412  1.00  0.00    -0.031 C 
ATOM      2  C   UNL     1       2.616  53.343  19.273  1.00  0.00    -0.031 C 
ENDROOT
BRANCH   1   3
ATOM      3  C   UNL     1       0.593  52.100  18.401  1.00  0.00     0.027 C 
BRANCH   3   4
ATOM      4  C   UNL     1      -0.168  52.797  17.265  1.00  0.00     0.004 C 
BRANCH   4   5
ATOM      5  C   UNL     1      -1.692  52.736  17.467  1.00  0.00     0.000 C 
BRANCH   5   6
ATOM      6  C   UNL     1      -2.290  54.083  17.911  1.00  0.00     0.000 C 
BRANCH   6   7
ATOM      7  C   UNL     1      -2.355  54.300  19.436  1.00  0.00     0.000 C 
BRANCH   7   8
ATOM      8  C   UNL     1      -2.389  53.012  20.277  1.00  0.00     0.006 C 
BRANCH   8   9
ATOM      9  C   UNL     1      -1.667  53.158  21.622  1.00  0.00     0.053 C 
BRANCH   9  10
ATOM     10  C   UNL     1      -2.631  52.992  22.754  1.00  0.00     0.041 C 
ATOM     11  O   UNL     1      -3.804  53.441  22.658  1.00  0.00    -0.550 OA
ATOM     12  O   UNL     1      -2.253  52.294  23.895  1.00  0.00    -0.550 OA
ENDBRANCH   9  10
ENDBRANCH   8   9
ENDBRANCH   7   8
ENDBRANCH   6   7
ENDBRANCH   5   6
ENDBRANCH   4   5
ENDBRANCH   3   4
ENDBRANCH   1   3
BRANCH   2  13
ATOM     13  C   UNL     1       1.893  53.998  20.425  1.00  0.00     0.027 C 
BRANCH  13  14
ATOM     14  C   UNL     1       1.900  55.530  20.308  1.00  0.00     0.004 C 
BRANCH  14  15
ATOM     15  C   UNL     1       0.734  56.049  19.451  1.00  0.00     0.000 C 
BRANCH  15  16
ATOM     16  C   UNL     1       1.202  56.831  18.210  1.00  0.00     0.000 C 
BRANCH  16  17
ATOM     17  C   UNL     1       0.823  56.198  16.859  1.00  0.00    -0.000 C 
BRANCH  17  18
ATOM     18  C   UNL     1       2.009  55.514  16.164  1.00  0.00    -0.000 C 
BRANCH  18  19
ATOM     19  C   UNL     1       3.335  55.913  16.823  1.00  0.00    -0.003 C 
ATOM     20  C   UNL     1       4.513  55.187  16.178  1.00  0.00     0.004 C 
ENDBRANCH  18  19
ENDBRANCH  17  18
ENDBRANCH  16  17
ENDBRANCH  15  16
ENDBRANCH  14  15
ENDBRANCH  13  14
ENDBRANCH   2  13
TORSDOF 15
ENDMDL
MODEL 5
REMARK VINA RESULT:    -4.741      2.904      5.291
REMARK INTER + INTRA:         -12.286
REMARK INTER:                  -9.561
REMARK INTRA:                  -2.725
REMARK UNBOUND:                -3.388
REMARK SMILES CCCCCCCCC=CCCCCCCCC(=O)[O-]
REMARK SMILES IDX 10 1 9 2 11 3 12 4 13 5 14 6 15 7 16 8 17 9 18 10 19 11
REMARK SMILES IDX 20 12 8 13 7 14 6 15 5 16 4 17 3 18 2 19 1 20
REMARK H PARENT
REMARK Flexibility Score: inf
ROOT
ATOM      1  C   UNL     1       0.767  54.062  20.219  1.00  0.00    -0.031 C 
ATOM      2  C   UNL     1       1.241  55.313  20.364  1.00  0.00    -0.031 C 
ENDROOT
BRANCH   1   3
ATOM      3  C   UNL     1       1.544  52.913  19.624  1.00  0.00     0.027 C 
BRANCH   3   4
ATOM      4  C   UNL     1       0.618  51.822  19.068  1.00  0.00     0.004 C 
BRANCH   4   5
ATOM      5  C   UNL     1      -0.839  52.302  18.956  1.00  0.00     0.000 C 
BRANCH   5   6
ATOM      6  C   UNL     1      -1.289  52.513  17.500  1.00  0.00     0.000 C 
BRANCH   6   7
ATOM      7  C   UNL     1      -2.358  53.605  17.295  1.00  0.00     0.000 C 
BRANCH   7   8
ATOM      8  C   UNL     1      -2.532  54.576  18.477  1.00  0.00     0.006 C 
BRANCH   8   9
ATOM      9  C   UNL     1      -2.462  56.049  18.054  1.00  0.00     0.053 C 
BRANCH   9  10
ATOM     10  C   UNL     1      -3.734  56.754  18.405  1.00  0.00     0.041 C 
ATOM     11  O   UNL     1      -4.438  56.348  19.367  1.00  0.00    -0.550 OA
ATOM     12  O   UNL     1      -4.116  57.891  17.704  1.00  0.00    -0.550 OA
ENDBRANCH   9  10
ENDBRANCH   8   9
ENDBRANCH   7   8
ENDBRANCH   6   7
ENDBRANCH   5   6
ENDBRANCH   4   5
ENDBRANCH   3   4
ENDBRANCH   1   3
BRANCH   2  13
ATOM     13  C   UNL     1       2.584  55.786  19.863  1.00  0.00     0.027 C 
BRANCH  13  14
ATOM     14  C   UNL     1       2.444  56.878  18.793  1.00  0.00     0.004 C 
BRANCH  14  15
ATOM     15  C   UNL     1       1.038  56.901  18.171  1.00  0.00     0.000 C 
BRANCH  15  16
ATOM     16  C   UNL     1       1.004  56.325  16.744  1.00  0.00     0.000 C 
BRANCH  16  17
ATOM     17  C   UNL     1       1.671  54.947  16.581  1.00  0.00    -0.000 C 
BRANCH  17  18
ATOM     18  C   UNL     1       2.767  54.936  15.505  1.00  0.00    -0.000 C 
BRANCH  18  19
ATOM     19  C   UNL     1       4.158  55.065  16.137  1.00  0.00    -0.003 C 
ATOM     20  C   UNL     1       4.372  54.013  17.221  1.00  0.00     0.004 C 
ENDBRANCH  18  19
ENDBRANCH  17  18
ENDBRANCH  16  17
ENDBRANCH  15  16
ENDBRANCH  14  15
ENDBRANCH  13  14
ENDBRANCH   2  13
TORSDOF 15
ENDMDL
MODEL 6
REMARK VINA RESULT:    -4.740      3.094      5.969
REMARK INTER + INTRA:         -12.285
REMARK INTER:                  -9.359
REMARK INTRA:                  -2.925
REMARK UNBOUND:                -3.388
REMARK SMILES CCCCCCCCC=CCCCCCCCC(=O)[O-]
REMARK SMILES IDX 10 1 9 2 11 3 12 4 13 5 14 6 15 7 16 8 17 9 18 10 19 11
REMARK SMILES IDX 20 12 8 13 7 14 6 15 5 16 4 17 3 18 2 19 1 20
REMARK H PARENT
REMARK Flexibility Score: inf
ROOT
ATOM      1  C   UNL     1       0.700  54.860  20.861  1.00  0.00    -0.031 C 
ATOM      2  C   UNL     1       2.003  54.603  20.645  1.00  0.00    -0.031 C 
ENDROOT
BRANCH   1   3
ATOM      3  C   UNL     1      -0.439  54.009  20.353  1.00  0.00     0.027 C 
BRANCH   3   4
ATOM      4  C   UNL     1      -1.631  54.863  19.896  1.00  0.00     0.004 C 
BRANCH   4   5
ATOM      5  C   UNL     1      -1.916  54.702  18.394  1.00  0.00     0.000 C 
BRANCH   5   6
ATOM      6  C   UNL     1      -1.278  53.435  17.797  1.00  0.00     0.000 C 
BRANCH   6   7
ATOM      7  C   UNL     1      -2.276  52.378  17.282  1.00  0.00     0.000 C 
BRANCH   7   8
ATOM      8  C   UNL     1      -2.469  51.161  18.203  1.00  0.00     0.006 C 
BRANCH   8   9
ATOM      9  C   UNL     1      -1.151  50.646  18.796  1.00  0.00     0.053 C 
BRANCH   9  10
ATOM     10  C   UNL     1      -1.352  50.203  20.210  1.00  0.00     0.041 C 
ATOM     11  O   UNL     1      -2.004  50.923  21.013  1.00  0.00    -0.550 OA
ATOM     12  O   UNL     1      -0.864  48.972  20.631  1.00  0.00    -0.550 OA
ENDBRANCH   9  10
ENDBRANCH   8   9
ENDBRANCH   7   8
ENDBRANCH   6   7
ENDBRANCH   5   6
ENDBRANCH   4   5
ENDBRANCH   3   4
ENDBRANCH   1   3
BRANCH   2  13
ATOM     13  C   UNL     1       2.525  53.484  19.776  1.00  0.00     0.027 C 
BRANCH  13  14
ATOM     14  C   UNL     1       3.592  53.978  18.787  1.00  0.00     0.004 C 
BRANCH  14  15
ATOM     15  C   UNL     1       3.358  53.436  17.367  1.00  0.00     0.000 C 
BRANCH  15  16
ATOM     16  C   UNL     1       2.127  54.058  16.683  1.00  0.00     0.000 C 
BRANCH  16  17
ATOM     17  C   UNL     1       2.229  55.569  16.405  1.00  0.00    -0.000 C 
BRANCH  17  18
ATOM     18  C   UNL     1       0.953  56.335  16.782  1.00  0.00    -0.000 C 
BRANCH  18  19
ATOM     19  C   UNL     1       1.167  57.164  18.055  1.00  0.00    -0.003 C 
ATOM     20  C   UNL     1       2.639  57.519  18.241  1.00  0.00     0.004 C 
ENDBRANCH  18  19
ENDBRANCH  17  18
ENDBRANCH  16  17
ENDBRANCH  15  16
ENDBRANCH  14  15
ENDBRANCH  13  14
ENDBRANCH   2  13
TORSDOF 15
ENDMDL
MODEL 7
REMARK VINA RESULT:    -4.731      1.402      3.078
REMARK INTER + INTRA:         -12.268
REMARK INTER:                  -9.425
REMARK INTRA:                  -2.843
REMARK UNBOUND:                -3.388
REMARK SMILES CCCCCCCCC=CCCCCCCCC(=O)[O-]
REMARK SMILES IDX 10 1 9 2 11 3 12 4 13 5 14 6 15 7 16 8 17 9 18 10 19 11
REMARK SMILES IDX 20 12 8 13 7 14 6 15 5 16 4 17 3 18 2 19 1 20
REMARK H PARENT
REMARK Flexibility Score: inf
ROOT
ATOM      1  C   UNL     1       0.665  55.181  20.242  1.00  0.00    -0.031 C 
ATOM      2  C   UNL     1       0.924  53.867  20.366  1.00  0.00    -0.031 C 
ENDROOT
BRANCH   1   3
ATOM      3  C   UNL     1       1.354  56.103  19.265  1.00  0.00     0.027 C 
BRANCH   3   4
ATOM      4  C   UNL     1       0.398  56.590  18.166  1.00  0.00     0.004 C 
BRANCH   4   5
ATOM      5  C   UNL     1       0.993  56.406  16.760  1.00  0.00     0.000 C 
BRANCH   5   6
ATOM      6  C   UNL     1       1.684  55.043  16.577  1.00  0.00     0.000 C 
BRANCH   6   7
ATOM      7  C   UNL     1       2.670  54.962  15.394  1.00  0.00     0.000 C 
BRANCH   7   8
ATOM      8  C   UNL     1       4.158  54.942  15.786  1.00  0.00     0.006 C 
BRANCH   8   9
ATOM      9  C   UNL     1       4.387  55.232  17.275  1.00  0.00     0.053 C 
BRANCH   9  10
ATOM     10  C   UNL     1       4.943  56.608  17.460  1.00  0.00     0.041 C 
ATOM     11  O   UNL     1       5.877  57.019  16.720  1.00  0.00    -0.550 OA
ATOM     12  O   UNL     1       4.396  57.458  18.413  1.00  0.00    -0.550 OA
ENDBRANCH   9  10
ENDBRANCH   8   9
ENDBRANCH   7   8
ENDBRANCH   6   7
ENDBRANCH   5   6
ENDBRANCH   4   5
ENDBRANCH   3   4
ENDBRANCH   1   3
BRANCH   2  13
ATOM     13  C   UNL     1       2.013  53.132  19.622  1.00  0.00     0.027 C 
BRANCH  13  14
ATOM     14  C   UNL     1       1.450  51.988  18.765  1.00  0.00     0.004 C 
BRANCH  14  15
ATOM     15  C   UNL     1      -0.087  51.938  18.808  1.00  0.00     0.000 C 
BRANCH  15  16
ATOM     16  C   UNL     1      -0.741  52.478  17.523  1.00  0.00     0.000 C 
BRANCH  16  17
ATOM     17  C   UNL     1      -2.229  52.850  17.656  1.00  0.00    -0.000 C 
BRANCH  17  18
ATOM     18  C   UNL     1      -2.469  54.367  17.659  1.00  0.00    -0.000 C 
BRANCH  18  19
ATOM     19  C   UNL     1      -2.763  54.873  19.077  1.00  0.00    -0.003 C 
ATOM     20  C   UNL     1      -3.337  56.287  19.051  1.00  0.00     0.004 C 
ENDBRANCH  18  19
ENDBRANCH  17  18
ENDBRANCH  16  17
ENDBRANCH  15  16
ENDBRANCH  14  15
ENDBRANCH  13  14
ENDBRANCH   2  13
TORSDOF 15
ENDMDL
MODEL 8
REMARK VINA RESULT:    -4.730      1.412      3.299
REMARK INTER + INTRA:         -12.265
REMARK INTER:                  -9.748
REMARK INTRA:                  -2.517
REMARK UNBOUND:                -3.388
REMARK SMILES CCCCCCCCC=CCCCCCCCC(=O)[O-]
REMARK SMILES IDX 10 1 9 2 11 3 12 4 13 5 14 6 15 7 16 8 17 9 18 10 19 11
REMARK SMILES IDX 20 12 8 13 7 14 6 15 5 16 4 17 3 18 2 19 1 20
REMARK H PARENT
REMARK Flexibility Score: inf
ROOT
ATOM      1  C   UNL     1      -0.677  54.015  21.087  1.00  0.00    -0.031 C 
ATOM      2  C   UNL     1      -1.610  53.047  21.143  1.00  0.00    -0.031 C 
ENDROOT
BRANCH   1   3
ATOM      3  C   UNL     1       0.554  53.972  20.214  1.00  0.00     0.027 C 
BRANCH   3   4
ATOM      4  C   UNL     1       1.611  54.990  20.665  1.00  0.00     0.004 C 
BRANCH   4   5
ATOM      5  C   UNL     1       2.218  55.758  19.479  1.00  0.00     0.000 C 
BRANCH   5   6
ATOM      6  C   UNL     1       1.174  56.577  18.700  1.00  0.00     0.000 C 
BRANCH   6   7
ATOM      7  C   UNL     1       1.249  56.445  17.165  1.00  0.00     0.000 C 
BRANCH   7   8
ATOM      8  C   UNL     1       1.588  55.036  16.648  1.00  0.00     0.006 C 
BRANCH   8   9
ATOM      9  C   UNL     1       2.757  55.030  15.654  1.00  0.00     0.053 C 
BRANCH   9  10
ATOM     10  C   UNL     1       4.059  55.161  16.378  1.00  0.00     0.041 C 
ATOM     11  O   UNL     1       4.706  56.241  16.328  1.00  0.00    -0.550 OA
ATOM     12  O   UNL     1       4.534  54.109  17.152  1.00  0.00    -0.550 OA
ENDBRANCH   9  10
ENDBRANCH   8   9
ENDBRANCH   7   8
ENDBRANCH   6   7
ENDBRANCH   5   6
ENDBRANCH   4   5
ENDBRANCH   3   4
ENDBRANCH   1   3
BRANCH   2  13
ATOM     13  C   UNL     1      -1.519  51.724  20.421  1.00  0.00     0.027 C 
BRANCH  13  14
ATOM     14  C   UNL     1      -2.547  51.621  19.285  1.00  0.00     0.004 C 
BRANCH  14  15
ATOM     15  C   UNL     1      -1.876  51.560  17.902  1.00  0.00     0.000 C 
BRANCH  15  16
ATOM     16  C   UNL     1      -1.541  52.953  17.337  1.00  0.00     0.000 C 
BRANCH  16  17
ATOM     17  C   UNL     1      -2.666  53.996  17.462  1.00  0.00    -0.000 C 
BRANCH  17  18
ATOM     18  C   UNL     1      -2.196  55.311  18.100  1.00  0.00    -0.000 C 
BRANCH  18  19
ATOM     19  C   UNL     1      -3.385  56.232  18.398  1.00  0.00    -0.003 C 
ATOM     20  C   UNL     1      -3.393  57.443  17.469  1.00  0.00     0.004 C 
ENDBRANCH  18  19
ENDBRANCH  17  18
ENDBRANCH  16  17
ENDBRANCH  15  16
ENDBRANCH  14  15
ENDBRANCH  13  14
ENDBRANCH   2  13
TORSDOF 15
ENDMDL
MODEL 9
REMARK VINA RESULT:    -4.665      2.532      4.125
REMARK INTER + INTRA:         -12.144
REMARK INTER:                  -9.789
REMARK INTRA:                  -2.355
REMARK UNBOUND:                -3.388
REMARK SMILES CCCCCCCCC=CCCCCCCCC(=O)[O-]
REMARK SMILES IDX 10 1 9 2 11 3 12 4 13 5 14 6 15 7 16 8 17 9 18 10 19 11
REMARK SMILES IDX 20 12 8 13 7 14 6 15 5 16 4 17 3 18 2 19 1 20
REMARK H PARENT
REMARK Flexibility Score: inf
ROOT
ATOM      1  C   UNL     1      -0.398  56.874  16.891  1.00  0.00    -0.031 C 
ATOM      2  C   UNL     1      -1.414  56.384  17.625  1.00  0.00    -0.031 C 
ENDROOT
BRANCH   1   3
ATOM      3  C   UNL     1       1.059  56.552  17.118  1.00  0.00     0.027 C 
BRANCH   3   4
ATOM      4  C   UNL     1       1.748  57.606  17.996  1.00  0.00     0.004 C 
BRANCH   4   5
ATOM      5  C   UNL     1       3.201  57.224  18.324  1.00  0.00     0.000 C 
BRANCH   5   6
ATOM      6  C   UNL     1       3.791  56.207  17.331  1.00  0.00     0.000 C 
BRANCH   6   7
ATOM      7  C   UNL     1       5.240  55.768  17.626  1.00  0.00     0.000 C 
BRANCH   7   8
ATOM      8  C   UNL     1       6.323  56.781  17.217  1.00  0.00     0.006 C 
BRANCH   8   9
ATOM      9  C   UNL     1       7.421  56.941  18.276  1.00  0.00     0.053 C 
BRANCH   9  10
ATOM     10  C   UNL     1       8.635  57.580  17.679  1.00  0.00     0.041 C 
ATOM     11  O   UNL     1       8.769  58.832  17.706  1.00  0.00    -0.550 OA
ATOM     12  O   UNL     1       9.643  56.791  17.139  1.00  0.00    -0.550 OA
ENDBRANCH   9  10
ENDBRANCH   8   9
ENDBRANCH   7   8
ENDBRANCH   6   7
ENDBRANCH   5   6
ENDBRANCH   4   5
ENDBRANCH   3   4
ENDBRANCH   1   3
BRANCH   2  13
ATOM     13  C   UNL     1      -1.248  55.518  18.850  1.00  0.00     0.027 C 
BRANCH  13  14
ATOM     14  C   UNL     1      -2.119  54.255  18.781  1.00  0.00     0.004 C 
BRANCH  14  15
ATOM     15  C   UNL     1      -1.724  53.345  17.605  1.00  0.00     0.000 C 
BRANCH  15  16
ATOM     16  C   UNL     1      -0.427  52.558  17.866  1.00  0.00     0.000 C 
BRANCH  16  17
ATOM     17  C   UNL     1       0.781  52.990  17.014  1.00  0.00    -0.000 C 
BRANCH  17  18
ATOM     18  C   UNL     1       2.101  52.981  17.798  1.00  0.00    -0.000 C 
BRANCH  18  19
ATOM     19  C   UNL     1       1.844  52.842  19.304  1.00  0.00    -0.003 C 
ATOM     20  C   UNL     1       1.989  54.184  20.016  1.00  0.00     0.004 C 
ENDBRANCH  18  19
ENDBRANCH  17  18
ENDBRANCH  16  17
ENDBRANCH  15  16
ENDBRANCH  14  15
ENDBRANCH  13  14
ENDBRANCH   2  13
TORSDOF 15
ENDMDL
