MODEL 1
REMARK VINA RESULT:    -4.039      0.000      0.000
REMARK INTER + INTRA:         -10.071
REMARK INTER:                  -7.817
REMARK INTRA:                  -2.254
REMARK UNBOUND:                -2.254
REMARK SMILES CCCCCCCCCCCCCCCCCC(=O)[O-]
REMARK SMILES IDX 10 1 11 2 12 3 13 4 14 5 15 6 16 7 17 8 18 9 19 10 20 11
REMARK SMILES IDX 9 12 8 13 7 14 6 15 5 16 4 17 3 18 2 19 1 20
REMARK H PARENT
REMARK Flexibility Score: inf
ROOT
ATOM      1  C   UNL     1      17.142  41.699  19.653  1.00  0.00     0.000 C 
ENDROOT
BRANCH   1   2
ATOM      2  C   UNL     1      16.635  42.546  20.833  1.00  0.00     0.000 C 
BRANCH   2   3
ATOM      3  C   UNL     1      15.477  43.477  20.438  1.00  0.00     0.000 C 
BRANCH   3   4
ATOM      4  C   UNL     1      15.645  44.062  19.025  1.00  0.00     0.000 C 
BRANCH   4   5
ATOM      5  C   UNL     1      14.975  45.434  18.868  1.00  0.00     0.000 C 
BRANCH   5   6
ATOM      6  C   UNL     1      14.418  45.930  20.211  1.00  0.00     0.000 C 
BRANCH   6   7
ATOM      7  C   UNL     1      12.920  46.281  20.144  1.00  0.00     0.006 C 
BRANCH   7   8
ATOM      8  C   UNL     1      12.047  45.209  19.473  1.00  0.00     0.053 C 
BRANCH   8   9
ATOM      9  C   UNL     1      10.592  45.398  19.775  1.00  0.00     0.041 C 
ATOM     10  O   UNL     1       9.932  44.472  20.316  1.00  0.00    -0.550 OA
ATOM     11  O   UNL     1       9.956  46.584  19.428  1.00  0.00    -0.550 OA
ENDBRANCH   8   9
ENDBRANCH   7   8
ENDBRANCH   6   7
ENDBRANCH   5   6
ENDBRANCH   4   5
ENDBRANCH   3   4
ENDBRANCH   2   3
ENDBRANCH   1   2
BRANCH   1  12
ATOM     12  C   UNL     1      18.671  41.527  19.664  1.00  0.00     0.000 C 
BRANCH  12  13
ATOM     13  C   UNL     1      19.317  42.065  20.951  1.00  0.00    -0.000 C 
BRANCH  13  14
ATOM     14  C   UNL     1      20.427  43.090  20.676  1.00  0.00    -0.000 C 
BRANCH  14  15
ATOM     15  C   UNL     1      20.055  44.467  21.238  1.00  0.00    -0.000 C 
BRANCH  15  16
ATOM     16  C   UNL     1      19.158  45.237  20.261  1.00  0.00    -0.000 C 
BRANCH  16  17
ATOM     17  C   UNL     1      18.076  46.026  21.013  1.00  0.00    -0.000 C 
BRANCH  17  18
ATOM     18  C   UNL     1      17.837  47.427  20.423  1.00  0.00    -0.000 C 
BRANCH  18  19
ATOM     19  C   UNL     1      18.207  48.594  21.357  1.00  0.00    -0.003 C 
ATOM     20  C   UNL     1      19.715  48.761  21.536  1.00  0.00     0.004 C 
ENDBRANCH  18  19
ENDBRANCH  17  18
ENDBRANCH  16  17
ENDBRANCH  15  16
ENDBRANCH  14  15
ENDBRANCH  13  14
ENDBRANCH  12  13
ENDBRANCH   1  12
TORSDOF 16
ENDMDL
MODEL 2
REMARK VINA RESULT:    -3.978      1.416      2.672
REMARK INTER + INTRA:          -9.952
REMARK INTER:                  -7.913
REMARK INTRA:                  -2.039
REMARK UNBOUND:                -2.254
REMARK SMILES CCCCCCCCCCCCCCCCCC(=O)[O-]
REMARK SMILES IDX 10 1 11 2 12 3 13 4 14 5 15 6 16 7 17 8 18 9 19 10 20 11
REMARK SMILES IDX 9 12 8 13 7 14 6 15 5 16 4 17 3 18 2 19 1 20
REMARK H PARENT
REMARK Flexibility Score: inf
ROOT
ATOM      1  C   UNL     1      18.674  42.019  21.737  1.00  0.00     0.000 C 
ENDROOT
BRANCH   1   2
ATOM      2  C   UNL     1      19.481  41.548  20.515  1.00  0.00     0.000 C 
BRANCH   2   3
ATOM      3  C   UNL     1      18.683  41.653  19.204  1.00  0.00     0.000 C 
BRANCH   3   4
ATOM      4  C   UNL     1      17.237  42.127  19.429  1.00  0.00     0.000 C 
BRANCH   4   5
ATOM      5  C   UNL     1      16.964  43.510  18.820  1.00  0.00     0.000 C 
BRANCH   5   6
ATOM      6  C   UNL     1      15.757  44.178  19.497  1.00  0.00     0.000 C 
BRANCH   6   7
ATOM      7  C   UNL     1      15.519  45.618  19.007  1.00  0.00     0.006 C 
BRANCH   7   8
ATOM      8  C   UNL     1      14.039  45.985  18.813  1.00  0.00     0.053 C 
BRANCH   8   9
ATOM      9  C   UNL     1      13.268  45.910  20.094  1.00  0.00     0.041 C 
ATOM     10  O   UNL     1      13.628  46.588  21.092  1.00  0.00    -0.550 OA
ATOM     11  O   UNL     1      12.170  45.063  20.197  1.00  0.00    -0.550 OA
ENDBRANCH   8   9
ENDBRANCH   7   8
ENDBRANCH   6   7
ENDBRANCH   5   6
ENDBRANCH   4   5
ENDBRANCH   3   4
ENDBRANCH   2   3
ENDBRANCH   1   2
BRANCH   1  12
ATOM     12  C   UNL     1      19.230  43.318  22.346  1.00  0.00     0.000 C 
BRANCH  12  13
ATOM     13  C   UNL     1      20.600  43.704  21.764  1.00  0.00    -0.000 C 
BRANCH  13  14
ATOM     14  C   UNL     1      20.643  45.154  21.260  1.00  0.00    -0.000 C 
BRANCH  14  15
ATOM     15  C   UNL     1      19.493  45.431  20.284  1.00  0.00    -0.000 C 
BRANCH  15  16
ATOM     16  C   UNL     1      18.649  46.623  20.750  1.00  0.00    -0.000 C 
BRANCH  16  17
ATOM     17  C   UNL     1      19.099  47.919  20.062  1.00  0.00    -0.000 C 
BRANCH  17  18
ATOM     18  C   UNL     1      19.923  48.835  20.985  1.00  0.00    -0.000 C 
BRANCH  18  19
ATOM     19  C   UNL     1      19.171  49.345  22.228  1.00  0.00    -0.003 C 
ATOM     20  C   UNL     1      17.929  50.163  21.881  1.00  0.00     0.004 C 
ENDBRANCH  18  19
ENDBRANCH  17  18
ENDBRANCH  16  17
ENDBRANCH  15  16
ENDBRANCH  14  15
ENDBRANCH  13  14
ENDBRANCH  12  13
ENDBRANCH   1  12
TORSDOF 16
ENDMDL
MODEL 3
REMARK VINA RESULT:    -3.913      3.410      6.720
REMARK INTER + INTRA:          -9.826
REMARK INTER:                  -7.816
REMARK INTRA:                  -2.010
REMARK UNBOUND:                -2.254
REMARK SMILES CCCCCCCCCCCCCCCCCC(=O)[O-]
REMARK SMILES IDX 10 1 11 2 12 3 13 4 14 5 15 6 16 7 17 8 18 9 19 10 20 11
REMARK SMILES IDX 9 12 8 13 7 14 6 15 5 16 4 17 3 18 2 19 1 20
REMARK H PARENT
REMARK Flexibility Score: inf
ROOT
ATOM      1  C   UNL     1      16.609  43.347  18.764  1.00  0.00     0.000 C 
ENDROOT
BRANCH   1   2
ATOM      2  C   UNL     1      17.274  42.183  19.518  1.00  0.00     0.000 C 
BRANCH   2   3
ATOM      3  C   UNL     1      17.344  42.425  21.036  1.00  0.00     0.000 C 
BRANCH   3   4
ATOM      4  C   UNL     1      18.766  42.256  21.596  1.00  0.00     0.000 C 
BRANCH   4   5
ATOM      5  C   UNL     1      19.853  42.642  20.582  1.00  0.00     0.000 C 
BRANCH   5   6
ATOM      6  C   UNL     1      21.031  43.340  21.279  1.00  0.00     0.000 C 
BRANCH   6   7
ATOM      7  C   UNL     1      20.811  44.854  21.451  1.00  0.00     0.006 C 
BRANCH   7   8
ATOM      8  C   UNL     1      20.057  45.521  20.290  1.00  0.00     0.053 C 
BRANCH   8   9
ATOM      9  C   UNL     1      19.769  46.966  20.563  1.00  0.00     0.041 C 
ATOM     10  O   UNL     1      18.648  47.314  21.018  1.00  0.00    -0.550 OA
ATOM     11  O   UNL     1      20.728  47.932  20.281  1.00  0.00    -0.550 OA
ENDBRANCH   8   9
ENDBRANCH   7   8
ENDBRANCH   6   7
ENDBRANCH   5   6
ENDBRANCH   4   5
ENDBRANCH   3   4
ENDBRANCH   2   3
ENDBRANCH   1   2
BRANCH   1  12
ATOM     12  C   UNL     1      16.947  44.718  19.376  1.00  0.00     0.000 C 
BRANCH  12  13
ATOM     13  C   UNL     1      15.718  45.634  19.486  1.00  0.00    -0.000 C 
BRANCH  13  14
ATOM     14  C   UNL     1      15.024  45.536  20.853  1.00  0.00    -0.000 C 
BRANCH  14  15
ATOM     15  C   UNL     1      13.499  45.581  20.699  1.00  0.00    -0.000 C 
BRANCH  15  16
ATOM     16  C   UNL     1      13.011  44.493  19.735  1.00  0.00    -0.000 C 
BRANCH  16  17
ATOM     17  C   UNL     1      11.685  44.897  19.074  1.00  0.00    -0.000 C 
BRANCH  17  18
ATOM     18  C   UNL     1      11.833  46.092  18.116  1.00  0.00    -0.000 C 
BRANCH  18  19
ATOM     19  C   UNL     1      12.835  45.881  16.967  1.00  0.00    -0.003 C 
ATOM     20  C   UNL     1      13.756  47.080  16.749  1.00  0.00     0.004 C 
ENDBRANCH  18  19
ENDBRANCH  17  18
ENDBRANCH  16  17
ENDBRANCH  15  16
ENDBRANCH  14  15
ENDBRANCH  13  14
ENDBRANCH  12  13
ENDBRANCH   1  12
TORSDOF 16
ENDMDL
MODEL 4
REMARK VINA RESULT:    -3.902      3.387      6.210
REMARK INTER + INTRA:          -9.806
REMARK INTER:                  -7.622
REMARK INTRA:                  -2.184
REMARK UNBOUND:                -2.254
REMARK SMILES CCCCCCCCCCCCCCCCCC(=O)[O-]
REMARK SMILES IDX 10 1 11 2 12 3 13 4 14 5 15 6 16 7 17 8 18 9 19 10 20 11
REMARK SMILES IDX 9 12 8 13 7 14 6 15 5 16 4 17 3 18 2 19 1 20
REMARK H PARENT
REMARK Flexibility Score: inf
ROOT
ATOM      1  C   UNL     1      17.132  41.858  20.906  1.00  0.00     0.000 C 
ENDROOT
BRANCH   1   2
ATOM      2  C   UNL     1      18.213  41.994  21.992  1.00  0.00     0.000 C 
BRANCH   2   3
ATOM      3  C   UNL     1      18.760  43.427  22.106  1.00  0.00     0.000 C 
BRANCH   3   4
ATOM      4  C   UNL     1      20.297  43.475  22.083  1.00  0.00     0.000 C 
BRANCH   4   5
ATOM      5  C   UNL     1      20.852  44.109  20.798  1.00  0.00     0.000 C 
BRANCH   5   6
ATOM      6  C   UNL     1      19.875  45.154  20.237  1.00  0.00     0.000 C 
BRANCH   6   7
ATOM      7  C   UNL     1      20.240  46.593  20.646  1.00  0.00     0.006 C 
BRANCH   7   8
ATOM      8  C   UNL     1      19.030  47.517  20.861  1.00  0.00     0.053 C 
BRANCH   8   9
ATOM      9  C   UNL     1      19.280  48.900  20.343  1.00  0.00     0.041 C 
ATOM     10  O   UNL     1      19.264  49.126  19.104  1.00  0.00    -0.550 OA
ATOM     11  O   UNL     1      19.565  49.934  21.227  1.00  0.00    -0.550 OA
ENDBRANCH   8   9
ENDBRANCH   7   8
ENDBRANCH   6   7
ENDBRANCH   5   6
ENDBRANCH   4   5
ENDBRANCH   3   4
ENDBRANCH   2   3
ENDBRANCH   1   2
BRANCH   1  12
ATOM     12  C   UNL     1      17.719  41.881  19.483  1.00  0.00     0.000 C 
BRANCH  12  13
ATOM     13  C   UNL     1      17.378  43.174  18.725  1.00  0.00    -0.000 C 
BRANCH  13  14
ATOM     14  C   UNL     1      16.084  43.833  19.227  1.00  0.00    -0.000 C 
BRANCH  14  15
ATOM     15  C   UNL     1      16.337  45.284  19.653  1.00  0.00    -0.000 C 
BRANCH  15  16
ATOM     16  C   UNL     1      15.428  46.251  18.884  1.00  0.00    -0.000 C 
BRANCH  16  17
ATOM     17  C   UNL     1      14.612  45.508  17.818  1.00  0.00    -0.000 C 
BRANCH  17  18
ATOM     18  C   UNL     1      13.097  45.747  17.947  1.00  0.00    -0.000 C 
BRANCH  18  19
ATOM     19  C   UNL     1      12.620  46.123  19.362  1.00  0.00    -0.003 C 
ATOM     20  C   UNL     1      12.155  44.916  20.176  1.00  0.00     0.004 C 
ENDBRANCH  18  19
ENDBRANCH  17  18
ENDBRANCH  16  17
ENDBRANCH  15  16
ENDBRANCH  14  15
ENDBRANCH  13  14
ENDBRANCH  12  13
ENDBRANCH   1  12
TORSDOF 16
ENDMDL
MODEL 5
REMARK VINA RESULT:    -3.896      1.439      1.963
REMARK INTER + INTRA:          -9.794
REMARK INTER:                  -7.692
REMARK INTRA:                  -2.103
REMARK UNBOUND:                -2.254
REMARK SMILES CCCCCCCCCCCCCCCCCC(=O)[O-]
REMARK SMILES IDX 10 1 11 2 12 3 13 4 14 5 15 6 16 7 17 8 18 9 19 10 20 11
REMARK SMILES IDX 9 12 8 13 7 14 6 15 5 16 4 17 3 18 2 19 1 20
REMARK H PARENT
REMARK Flexibility Score: inf
ROOT
ATOM      1  C   UNL     1      17.832  41.999  20.820  1.00  0.00     0.000 C 
ENDROOT
BRANCH   1   2
ATOM      2  C   UNL     1      18.005  42.153  19.299  1.00  0.00     0.000 C 
BRANCH   2   3
ATOM      3  C   UNL     1      17.151  43.293  18.719  1.00  0.00     0.000 C 
BRANCH   3   4
ATOM      4  C   UNL     1      16.015  43.720  19.665  1.00  0.00     0.000 C 
BRANCH   4   5
ATOM      5  C   UNL     1      14.884  44.461  18.937  1.00  0.00     0.000 C 
BRANCH   5   6
ATOM      6  C   UNL     1      15.276  45.920  18.657  1.00  0.00     0.000 C 
BRANCH   6   7
ATOM      7  C   UNL     1      14.331  46.611  17.657  1.00  0.00     0.006 C 
BRANCH   7   8
ATOM      8  C   UNL     1      12.932  45.981  17.566  1.00  0.00     0.053 C 
BRANCH   8   9
ATOM      9  C   UNL     1      11.961  46.629  18.504  1.00  0.00     0.041 C 
ATOM     10  O   UNL     1      12.016  46.389  19.739  1.00  0.00    -0.550 OA
ATOM     11  O   UNL     1      10.972  47.472  18.010  1.00  0.00    -0.550 OA
ENDBRANCH   8   9
ENDBRANCH   7   8
ENDBRANCH   6   7
ENDBRANCH   5   6
ENDBRANCH   4   5
ENDBRANCH   3   4
ENDBRANCH   2   3
ENDBRANCH   1   2
BRANCH   1  12
ATOM     12  C   UNL     1      19.093  42.409  21.602  1.00  0.00     0.000 C 
BRANCH  12  13
ATOM     13  C   UNL     1      19.172  43.926  21.839  1.00  0.00    -0.000 C 
BRANCH  13  14
ATOM     14  C   UNL     1      20.108  44.634  20.847  1.00  0.00    -0.000 C 
BRANCH  14  15
ATOM     15  C   UNL     1      19.493  45.950  20.357  1.00  0.00    -0.000 C 
BRANCH  15  16
ATOM     16  C   UNL     1      18.143  46.215  21.036  1.00  0.00    -0.000 C 
BRANCH  16  17
ATOM     17  C   UNL     1      17.727  47.684  20.880  1.00  0.00    -0.000 C 
BRANCH  17  18
ATOM     18  C   UNL     1      18.475  48.402  19.743  1.00  0.00    -0.000 C 
BRANCH  18  19
ATOM     19  C   UNL     1      19.173  49.712  20.153  1.00  0.00    -0.003 C 
ATOM     20  C   UNL     1      20.694  49.640  20.035  1.00  0.00     0.004 C 
ENDBRANCH  18  19
ENDBRANCH  17  18
ENDBRANCH  16  17
ENDBRANCH  15  16
ENDBRANCH  14  15
ENDBRANCH  13  14
ENDBRANCH  12  13
ENDBRANCH   1  12
TORSDOF 16
ENDMDL
MODEL 6
REMARK VINA RESULT:    -3.869      2.122      3.628
REMARK INTER + INTRA:          -9.742
REMARK INTER:                  -7.486
REMARK INTRA:                  -2.257
REMARK UNBOUND:                -2.254
REMARK SMILES CCCCCCCCCCCCCCCCCC(=O)[O-]
REMARK SMILES IDX 10 1 11 2 12 3 13 4 14 5 15 6 16 7 17 8 18 9 19 10 20 11
REMARK SMILES IDX 9 12 8 13 7 14 6 15 5 16 4 17 3 18 2 19 1 20
REMARK H PARENT
REMARK Flexibility Score: inf
ROOT
ATOM      1  C   UNL     1      19.292  43.242  22.669  1.00  0.00     0.000 C 
ENDROOT
BRANCH   1   2
ATOM      2  C   UNL     1      19.378  41.719  22.469  1.00  0.00     0.000 C 
BRANCH   2   3
ATOM      3  C   UNL     1      18.096  41.131  21.854  1.00  0.00     0.000 C 
BRANCH   3   4
ATOM      4  C   UNL     1      18.239  40.851  20.348  1.00  0.00     0.000 C 
BRANCH   4   5
ATOM      5  C   UNL     1      17.145  41.531  19.512  1.00  0.00     0.000 C 
BRANCH   5   6
ATOM      6  C   UNL     1      17.650  42.857  18.923  1.00  0.00     0.000 C 
BRANCH   6   7
ATOM      7  C   UNL     1      16.590  43.973  18.968  1.00  0.00     0.006 C 
BRANCH   7   8
ATOM      8  C   UNL     1      15.737  43.987  20.246  1.00  0.00     0.053 C 
BRANCH   8   9
ATOM      9  C   UNL     1      14.916  45.234  20.362  1.00  0.00     0.041 C 
ATOM     10  O   UNL     1      15.081  46.179  19.546  1.00  0.00    -0.550 OA
ATOM     11  O   UNL     1      13.993  45.368  21.393  1.00  0.00    -0.550 OA
ENDBRANCH   8   9
ENDBRANCH   7   8
ENDBRANCH   6   7
ENDBRANCH   5   6
ENDBRANCH   4   5
ENDBRANCH   3   4
ENDBRANCH   2   3
ENDBRANCH   1   2
BRANCH   1  12
ATOM     12  C   UNL     1      20.548  43.975  22.166  1.00  0.00     0.000 C 
BRANCH  12  13
ATOM     13  C   UNL     1      20.729  43.858  20.643  1.00  0.00    -0.000 C 
BRANCH  13  14
ATOM     14  C   UNL     1      20.257  45.112  19.891  1.00  0.00    -0.000 C 
BRANCH  14  15
ATOM     15  C   UNL     1      19.925  46.246  20.869  1.00  0.00    -0.000 C 
BRANCH  15  16
ATOM     16  C   UNL     1      18.469  46.699  20.713  1.00  0.00    -0.000 C 
BRANCH  16  17
ATOM     17  C   UNL     1      18.369  48.231  20.681  1.00  0.00    -0.000 C 
BRANCH  17  18
ATOM     18  C   UNL     1      19.269  48.912  21.727  1.00  0.00    -0.000 C 
BRANCH  18  19
ATOM     19  C   UNL     1      20.249  49.955  21.157  1.00  0.00    -0.003 C 
ATOM     20  C   UNL     1      20.120  50.131  19.645  1.00  0.00     0.004 C 
ENDBRANCH  18  19
ENDBRANCH  17  18
ENDBRANCH  16  17
ENDBRANCH  15  16
ENDBRANCH  14  15
ENDBRANCH  13  14
ENDBRANCH  12  13
ENDBRANCH   1  12
TORSDOF 16
ENDMDL
MODEL 7
REMARK VINA RESULT:    -3.835      4.214      7.671
REMARK INTER + INTRA:          -9.677
REMARK INTER:                  -7.423
REMARK INTRA:                  -2.254
REMARK UNBOUND:                -2.254
REMARK SMILES CCCCCCCCCCCCCCCCCC(=O)[O-]
REMARK SMILES IDX 10 1 11 2 12 3 13 4 14 5 15 6 16 7 17 8 18 9 19 10 20 11
REMARK SMILES IDX 9 12 8 13 7 14 6 15 5 16 4 17 3 18 2 19 1 20
REMARK H PARENT
REMARK Flexibility Score: inf
ROOT
ATOM      1  C   UNL     1      17.534  46.362  21.272  1.00  0.00     0.000 C 
ENDROOT
BRANCH   1   2
ATOM      2  C   UNL     1      18.458  47.297  20.472  1.00  0.00     0.000 C 
BRANCH   2   3
ATOM      3  C   UNL     1      19.938  46.889  20.568  1.00  0.00     0.000 C 
BRANCH   3   4
ATOM      4  C   UNL     1      20.177  45.431  20.139  1.00  0.00     0.000 C 
BRANCH   4   5
ATOM      5  C   UNL     1      20.645  44.541  21.299  1.00  0.00     0.000 C 
BRANCH   5   6
ATOM      6  C   UNL     1      20.618  43.058  20.897  1.00  0.00     0.000 C 
BRANCH   6   7
ATOM      7  C   UNL     1      19.997  42.156  21.979  1.00  0.00     0.006 C 
BRANCH   7   8
ATOM      8  C   UNL     1      19.508  42.907  23.227  1.00  0.00     0.053 C 
BRANCH   8   9
ATOM      9  C   UNL     1      20.278  42.525  24.453  1.00  0.00     0.041 C 
ATOM     10  O   UNL     1      19.673  42.162  25.495  1.00  0.00    -0.550 OA
ATOM     11  O   UNL     1      21.667  42.602  24.455  1.00  0.00    -0.550 OA
ENDBRANCH   8   9
ENDBRANCH   7   8
ENDBRANCH   6   7
ENDBRANCH   5   6
ENDBRANCH   4   5
ENDBRANCH   3   4
ENDBRANCH   2   3
ENDBRANCH   1   2
BRANCH   1  12
ATOM     12  C   UNL     1      16.121  46.269  20.667  1.00  0.00     0.000 C 
BRANCH  12  13
ATOM     13  C   UNL     1      15.750  44.837  20.252  1.00  0.00    -0.000 C 
BRANCH  13  14
ATOM     14  C   UNL     1      16.938  43.866  20.339  1.00  0.00    -0.000 C 
BRANCH  14  15
ATOM     15  C   UNL     1      17.345  43.371  18.946  1.00  0.00    -0.000 C 
BRANCH  15  16
ATOM     16  C   UNL     1      17.792  41.905  18.992  1.00  0.00    -0.000 C 
BRANCH  16  17
ATOM     17  C   UNL     1      17.082  41.147  20.122  1.00  0.00    -0.000 C 
BRANCH  17  18
ATOM     18  C   UNL     1      16.486  39.805  19.663  1.00  0.00    -0.000 C 
BRANCH  18  19
ATOM     19  C   UNL     1      14.965  39.672  19.856  1.00  0.00    -0.003 C 
ATOM     20  C   UNL     1      14.356  38.534  19.038  1.00  0.00     0.004 C 
ENDBRANCH  18  19
ENDBRANCH  17  18
ENDBRANCH  16  17
ENDBRANCH  15  16
ENDBRANCH  14  15
ENDBRANCH  13  14
ENDBRANCH  12  13
ENDBRANCH   1  12
TORSDOF 16
ENDMDL
MODEL 8
REMARK VINA RESULT:    -3.830      1.707      3.842
REMARK INTER + INTRA:          -9.668
REMARK INTER:                  -7.976
REMARK INTRA:                  -1.692
REMARK UNBOUND:                -2.254
REMARK SMILES CCCCCCCCCCCCCCCCCC(=O)[O-]
REMARK SMILES IDX 10 1 11 2 12 3 13 4 14 5 15 6 16 7 17 8 18 9 19 10 20 11
REMARK SMILES IDX 9 12 8 13 7 14 6 15 5 16 4 17 3 18 2 19 1 20
REMARK H PARENT
REMARK Flexibility Score: inf
ROOT
ATOM      1  C   UNL     1      17.529  46.183  21.045  1.00  0.00     0.000 C 
ENDROOT
BRANCH   1   2
ATOM      2  C   UNL     1      16.643  45.761  19.860  1.00  0.00     0.000 C 
BRANCH   2   3
ATOM      3  C   UNL     1      16.013  44.372  20.058  1.00  0.00     0.000 C 
BRANCH   3   4
ATOM      4  C   UNL     1      14.531  44.449  20.463  1.00  0.00     0.000 C 
BRANCH   4   5
ATOM      5  C   UNL     1      13.612  43.681  19.500  1.00  0.00     0.000 C 
BRANCH   5   6
ATOM      6  C   UNL     1      13.049  44.615  18.418  1.00  0.00     0.000 C 
BRANCH   6   7
ATOM      7  C   UNL     1      12.800  46.045  18.933  1.00  0.00     0.006 C 
BRANCH   7   8
ATOM      8  C   UNL     1      11.653  46.783  18.226  1.00  0.00     0.053 C 
BRANCH   8   9
ATOM      9  C   UNL     1      10.468  46.972  19.123  1.00  0.00     0.041 C 
ATOM     10  O   UNL     1       9.930  45.980  19.680  1.00  0.00    -0.550 OA
ATOM     11  O   UNL     1       9.936  48.242  19.316  1.00  0.00    -0.550 OA
ENDBRANCH   8   9
ENDBRANCH   7   8
ENDBRANCH   6   7
ENDBRANCH   5   6
ENDBRANCH   4   5
ENDBRANCH   3   4
ENDBRANCH   2   3
ENDBRANCH   1   2
BRANCH   1  12
ATOM     12  C   UNL     1      18.906  46.703  20.596  1.00  0.00     0.000 C 
BRANCH  12  13
ATOM     13  C   UNL     1      19.884  45.567  20.258  1.00  0.00    -0.000 C 
BRANCH  13  14
ATOM     14  C   UNL     1      19.801  44.397  21.250  1.00  0.00    -0.000 C 
BRANCH  14  15
ATOM     15  C   UNL     1      20.276  43.091  20.600  1.00  0.00    -0.000 C 
BRANCH  15  16
ATOM     16  C   UNL     1      19.194  42.008  20.686  1.00  0.00    -0.000 C 
BRANCH  16  17
ATOM     17  C   UNL     1      18.290  42.228  21.907  1.00  0.00    -0.000 C 
BRANCH  17  18
ATOM     18  C   UNL     1      18.221  40.999  22.831  1.00  0.00    -0.000 C 
BRANCH  18  19
ATOM     19  C   UNL     1      19.127  41.073  24.074  1.00  0.00    -0.003 C 
ATOM     20  C   UNL     1      19.627  42.487  24.366  1.00  0.00     0.004 C 
ENDBRANCH  18  19
ENDBRANCH  17  18
ENDBRANCH  16  17
ENDBRANCH  15  16
ENDBRANCH  14  15
ENDBRANCH  13  14
ENDBRANCH  12  13
ENDBRANCH   1  12
TORSDOF 16
ENDMDL
MODEL 9
REMARK VINA RESULT:    -3.759      2.791      7.046
REMARK INTER + INTRA:          -9.529
REMARK INTER:                  -7.529
REMARK INTRA:                  -2.000
REMARK UNBOUND:                -2.254
REMARK SMILES CCCCCCCCCCCCCCCCCC(=O)[O-]
REMARK SMILES IDX 10 1 11 2 12 3 13 4 14 5 15 6 16 7 17 8 18 9 19 10 20 11
REMARK SMILES IDX 9 12 8 13 7 14 6 15 5 16 4 17 3 18 2 19 1 20
REMARK H PARENT
REMARK Flexibility Score: inf
ROOT
ATOM      1  C   UNL     1      15.212  45.756  20.633  1.00  0.00     0.000 C 
ENDROOT
BRANCH   1   2
ATOM      2  C   UNL     1      16.566  46.280  20.126  1.00  0.00     0.000 C 
BRANCH   2   3
ATOM      3  C   UNL     1      17.736  45.879  21.040  1.00  0.00     0.000 C 
BRANCH   3   4
ATOM      4  C   UNL     1      18.850  45.136  20.282  1.00  0.00     0.000 C 
BRANCH   4   5
ATOM      5  C   UNL     1      18.403  43.757  19.775  1.00  0.00     0.000 C 
BRANCH   5   6
ATOM      6  C   UNL     1      19.015  42.635  20.628  1.00  0.00     0.000 C 
BRANCH   6   7
ATOM      7  C   UNL     1      18.030  42.069  21.667  1.00  0.00     0.006 C 
BRANCH   7   8
ATOM      8  C   UNL     1      16.567  42.030  21.198  1.00  0.00     0.053 C 
BRANCH   8   9
ATOM      9  C   UNL     1      16.215  40.722  20.559  1.00  0.00     0.041 C 
ATOM     10  O   UNL     1      15.295  40.663  19.702  1.00  0.00    -0.550 OA
ATOM     11  O   UNL     1      16.881  39.561  20.936  1.00  0.00    -0.550 OA
ENDBRANCH   8   9
ENDBRANCH   7   8
ENDBRANCH   6   7
ENDBRANCH   5   6
ENDBRANCH   4   5
ENDBRANCH   3   4
ENDBRANCH   2   3
ENDBRANCH   1   2
BRANCH   1  12
ATOM     12  C   UNL     1      14.599  44.700  19.696  1.00  0.00     0.000 C 
BRANCH  12  13
ATOM     13  C   UNL     1      14.946  44.950  18.219  1.00  0.00    -0.000 C 
BRANCH  13  14
ATOM     14  C   UNL     1      14.032  45.998  17.564  1.00  0.00    -0.000 C 
BRANCH  14  15
ATOM     15  C   UNL     1      12.560  45.582  17.665  1.00  0.00    -0.000 C 
BRANCH  15  16
ATOM     16  C   UNL     1      11.706  46.713  18.252  1.00  0.00    -0.000 C 
BRANCH  16  17
ATOM     17  C   UNL     1      10.840  46.204  19.412  1.00  0.00    -0.000 C 
BRANCH  17  18
ATOM     18  C   UNL     1      10.871  44.672  19.557  1.00  0.00    -0.000 C 
BRANCH  18  19
ATOM     19  C   UNL     1       9.490  44.006  19.687  1.00  0.00    -0.003 C 
ATOM     20  C   UNL     1       9.573  42.503  19.951  1.00  0.00     0.004 C 
ENDBRANCH  18  19
ENDBRANCH  17  18
ENDBRANCH  16  17
ENDBRANCH  15  16
ENDBRANCH  14  15
ENDBRANCH  13  14
ENDBRANCH  12  13
ENDBRANCH   1  12
TORSDOF 16
ENDMDL
