MODEL 1
REMARK VINA RESULT:    -3.521      0.000      0.000
REMARK INTER + INTRA:          -3.521
REMARK INTER:                  -3.521
REMARK INTRA:                   0.000
REMARK UNBOUND:                 0.000
REMARK SMILES CC1(C)O[C@]2(C)CC[C@H]1CC2
REMARK SMILES IDX 1 1 2 2 9 3 8 4 7 5 5 6 4 7 11 8 10 9 6 10 3 11
REMARK H PARENT
REMARK Flexibility Score: inf
ROOT
ATOM      1  C   UNL     1      45.590 -29.532  11.554  1.00  0.00     0.042 C 
ATOM      2  C   UNL     1      45.065 -30.801  10.848  1.00  0.00     0.066 C 
ATOM      3  C   UNL     1      43.515 -30.971  11.088  1.00  0.00     0.021 C 
ATOM      4  C   UNL     1      43.274 -31.172  12.604  1.00  0.00     0.009 C 
ATOM      5  C   UNL     1      44.191 -32.307  13.119  1.00  0.00     0.035 C 
ATOM      6  C   UNL     1      44.979 -32.928  11.930  1.00  0.00     0.066 C 
ATOM      7  O   UNL     1      45.808 -31.926  11.341  1.00  0.00    -0.369 OA
ATOM      8  C   UNL     1      43.966 -33.443  10.866  1.00  0.00     0.035 C 
ATOM      9  C   UNL     1      43.054 -32.281  10.403  1.00  0.00     0.009 C 
ATOM     10  C   UNL     1      45.866 -34.078  12.421  1.00  0.00     0.042 C 
ATOM     11  C   UNL     1      45.370 -30.648   9.341  1.00  0.00     0.042 C 
ENDROOT
TORSDOF 0
ENDMDL
MODEL 2
REMARK VINA RESULT:    -3.444      1.366      2.137
REMARK INTER + INTRA:          -3.444
REMARK INTER:                  -3.444
REMARK INTRA:                   0.000
REMARK UNBOUND:                 0.000
REMARK SMILES CC1(C)O[C@]2(C)CC[C@H]1CC2
REMARK SMILES IDX 1 1 2 2 9 3 8 4 7 5 5 6 4 7 11 8 10 9 6 10 3 11
REMARK H PARENT
REMARK Flexibility Score: inf
ROOT
ATOM      1  C   UNL     1      45.031 -31.083   9.842  1.00  0.00     0.042 C 
ATOM      2  C   UNL     1      43.855 -31.414  10.785  1.00  0.00     0.066 C 
ATOM      3  C   UNL     1      44.029 -30.681  12.171  1.00  0.00     0.021 C 
ATOM      4  C   UNL     1      45.311 -31.219  12.852  1.00  0.00     0.009 C 
ATOM      5  C   UNL     1      45.262 -32.765  12.879  1.00  0.00     0.035 C 
ATOM      6  C   UNL     1      43.906 -33.260  12.301  1.00  0.00     0.066 C 
ATOM      7  O   UNL     1      43.794 -32.840  10.940  1.00  0.00    -0.369 OA
ATOM      8  C   UNL     1      42.745 -32.633  13.125  1.00  0.00     0.035 C 
ATOM      9  C   UNL     1      42.852 -31.088  13.092  1.00  0.00     0.009 C 
ATOM     10  C   UNL     1      43.830 -34.790  12.353  1.00  0.00     0.042 C 
ATOM     11  C   UNL     1      42.559 -30.953  10.082  1.00  0.00     0.042 C 
ENDROOT
TORSDOF 0
ENDMDL
MODEL 3
REMARK VINA RESULT:    -3.356      0.854      3.302
REMARK INTER + INTRA:          -3.356
REMARK INTER:                  -3.356
REMARK INTRA:                   0.000
REMARK UNBOUND:                 0.000
REMARK SMILES CC1(C)O[C@]2(C)CC[C@H]1CC2
REMARK SMILES IDX 1 1 2 2 9 3 8 4 7 5 5 6 4 7 11 8 10 9 6 10 3 11
REMARK H PARENT
REMARK Flexibility Score: inf
ROOT
ATOM      1  C   UNL     1      43.845 -34.125  11.616  1.00  0.00     0.042 C 
ATOM      2  C   UNL     1      44.653 -32.870  12.011  1.00  0.00     0.066 C 
ATOM      3  C   UNL     1      43.713 -31.787  12.668  1.00  0.00     0.021 C 
ATOM      4  C   UNL     1      42.675 -31.335  11.613  1.00  0.00     0.009 C 
ATOM      5  C   UNL     1      43.412 -30.927  10.315  1.00  0.00     0.035 C 
ATOM      6  C   UNL     1      44.950 -31.018  10.533  1.00  0.00     0.066 C 
ATOM      7  O   UNL     1      45.303 -32.369  10.833  1.00  0.00    -0.369 OA
ATOM      8  C   UNL     1      45.346 -30.108  11.731  1.00  0.00     0.035 C 
ATOM      9  C   UNL     1      44.563 -30.536  12.997  1.00  0.00     0.009 C 
ATOM     10  C   UNL     1      45.694 -30.583   9.265  1.00  0.00     0.042 C 
ATOM     11  C   UNL     1      45.745 -33.322  13.006  1.00  0.00     0.042 C 
ENDROOT
TORSDOF 0
ENDMDL
MODEL 4
REMARK VINA RESULT:    -3.313      1.769      3.189
REMARK INTER + INTRA:          -3.313
REMARK INTER:                  -3.313
REMARK INTRA:                   0.000
REMARK UNBOUND:                 0.000
REMARK SMILES CC1(C)O[C@]2(C)CC[C@H]1CC2
REMARK SMILES IDX 1 1 2 2 9 3 8 4 7 5 5 6 4 7 11 8 10 9 6 10 3 11
REMARK H PARENT
REMARK Flexibility Score: inf
ROOT
ATOM      1  C   UNL     1      41.185 -31.714  10.723  1.00  0.00     0.042 C 
ATOM      2  C   UNL     1      42.217 -31.688  11.871  1.00  0.00     0.066 C 
ATOM      3  C   UNL     1      43.581 -31.066  11.381  1.00  0.00     0.021 C 
ATOM      4  C   UNL     1      44.166 -31.978  10.276  1.00  0.00     0.009 C 
ATOM      5  C   UNL     1      44.208 -33.437  10.790  1.00  0.00     0.035 C 
ATOM      6  C   UNL     1      43.736 -33.488  12.271  1.00  0.00     0.066 C 
ATOM      7  O   UNL     1      42.385 -33.031  12.350  1.00  0.00    -0.369 OA
ATOM      8  C   UNL     1      44.641 -32.552  13.123  1.00  0.00     0.035 C 
ATOM      9  C   UNL     1      44.590 -31.112  12.554  1.00  0.00     0.009 C 
ATOM     10  C   UNL     1      43.804 -34.924  12.803  1.00  0.00     0.042 C 
ATOM     11  C   UNL     1      41.611 -30.845  13.014  1.00  0.00     0.042 C 
ENDROOT
TORSDOF 0
ENDMDL
MODEL 5
REMARK VINA RESULT:    -3.276      1.404      3.109
REMARK INTER + INTRA:          -3.276
REMARK INTER:                  -3.276
REMARK INTRA:                   0.000
REMARK UNBOUND:                 0.000
REMARK SMILES CC1(C)O[C@]2(C)CC[C@H]1CC2
REMARK SMILES IDX 1 1 2 2 9 3 8 4 7 5 5 6 4 7 11 8 10 9 6 10 3 11
REMARK H PARENT
REMARK Flexibility Score: inf
ROOT
ATOM      1  C   UNL     1      46.097 -30.035  12.100  1.00  0.00     0.042 C 
ATOM      2  C   UNL     1      45.022 -31.141  12.041  1.00  0.00     0.066 C 
ATOM      3  C   UNL     1      44.988 -31.810  10.613  1.00  0.00     0.021 C 
ATOM      4  C   UNL     1      44.579 -30.735   9.578  1.00  0.00     0.009 C 
ATOM      5  C   UNL     1      43.283 -30.037  10.054  1.00  0.00     0.035 C 
ATOM      6  C   UNL     1      42.773 -30.709  11.361  1.00  0.00     0.066 C 
ATOM      7  O   UNL     1      43.758 -30.553  12.384  1.00  0.00    -0.369 OA
ATOM      8  C   UNL     1      42.547 -32.225  11.097  1.00  0.00     0.035 C 
ATOM      9  C   UNL     1      43.862 -32.872  10.596  1.00  0.00     0.009 C 
ATOM     10  C   UNL     1      41.469 -30.049  11.826  1.00  0.00     0.042 C 
ATOM     11  C   UNL     1      45.375 -32.183  13.125  1.00  0.00     0.042 C 
ENDROOT
TORSDOF 0
ENDMDL
MODEL 6
REMARK VINA RESULT:    -3.155      1.524      3.201
REMARK INTER + INTRA:          -3.155
REMARK INTER:                  -3.155
REMARK INTRA:                   0.000
REMARK UNBOUND:                 0.000
REMARK SMILES CC1(C)O[C@]2(C)CC[C@H]1CC2
REMARK SMILES IDX 1 1 2 2 9 3 8 4 7 5 5 6 4 7 11 8 10 9 6 10 3 11
REMARK H PARENT
REMARK Flexibility Score: inf
ROOT
ATOM      1  C   UNL     1      42.204 -32.636  12.193  1.00  0.00     0.042 C 
ATOM      2  C   UNL     1      42.966 -31.622  11.312  1.00  0.00     0.066 C 
ATOM      3  C   UNL     1      44.241 -32.291  10.669  1.00  0.00     0.021 C 
ATOM      4  C   UNL     1      45.204 -32.704  11.807  1.00  0.00     0.009 C 
ATOM      5  C   UNL     1      45.445 -31.490  12.736  1.00  0.00     0.035 C 
ATOM      6  C   UNL     1      44.715 -30.239  12.167  1.00  0.00     0.066 C 
ATOM      7  O   UNL     1      43.310 -30.492  12.128  1.00  0.00    -0.369 OA
ATOM      8  C   UNL     1      45.226 -29.969  10.722  1.00  0.00     0.035 C 
ATOM      9  C   UNL     1      44.991 -31.219   9.840  1.00  0.00     0.009 C 
ATOM     10  C   UNL     1      44.973 -29.020  13.060  1.00  0.00     0.042 C 
ATOM     11  C   UNL     1      41.989 -31.142  10.216  1.00  0.00     0.042 C 
ENDROOT
TORSDOF 0
ENDMDL
MODEL 7
REMARK VINA RESULT:    -3.099      1.158      2.884
REMARK INTER + INTRA:          -3.099
REMARK INTER:                  -3.099
REMARK INTRA:                   0.000
REMARK UNBOUND:                 0.000
REMARK SMILES CC1(C)O[C@]2(C)CC[C@H]1CC2
REMARK SMILES IDX 1 1 2 2 9 3 8 4 7 5 5 6 4 7 11 8 10 9 6 10 3 11
REMARK H PARENT
REMARK Flexibility Score: inf
ROOT
ATOM      1  C   UNL     1      45.813 -30.748   9.557  1.00  0.00     0.042 C 
ATOM      2  C   UNL     1      44.972 -30.621  10.846  1.00  0.00     0.066 C 
ATOM      3  C   UNL     1      45.361 -31.748  11.878  1.00  0.00     0.021 C 
ATOM      4  C   UNL     1      45.017 -33.123  11.255  1.00  0.00     0.009 C 
ATOM      5  C   UNL     1      43.552 -33.104  10.758  1.00  0.00     0.035 C 
ATOM      6  C   UNL     1      42.886 -31.749  11.132  1.00  0.00     0.066 C 
ATOM      7  O   UNL     1      43.585 -30.687  10.481  1.00  0.00    -0.369 OA
ATOM      8  C   UNL     1      42.975 -31.549  12.673  1.00  0.00     0.035 C 
ATOM      9  C   UNL     1      44.454 -31.604  13.125  1.00  0.00     0.009 C 
ATOM     10  C   UNL     1      41.423 -31.730  10.676  1.00  0.00     0.042 C 
ATOM     11  C   UNL     1      45.247 -29.221  11.436  1.00  0.00     0.042 C 
ENDROOT
TORSDOF 0
ENDMDL
MODEL 8
REMARK VINA RESULT:    -3.056      1.547      3.497
REMARK INTER + INTRA:          -3.056
REMARK INTER:                  -3.056
REMARK INTRA:                   0.000
REMARK UNBOUND:                 0.000
REMARK SMILES CC1(C)O[C@]2(C)CC[C@H]1CC2
REMARK SMILES IDX 1 1 2 2 9 3 8 4 7 5 5 6 4 7 11 8 10 9 6 10 3 11
REMARK H PARENT
REMARK Flexibility Score: inf
ROOT
ATOM      1  C   UNL     1      42.719 -32.992  12.948  1.00  0.00     0.042 C 
ATOM      2  C   UNL     1      43.639 -32.478  11.821  1.00  0.00     0.066 C 
ATOM      3  C   UNL     1      44.796 -31.583  12.410  1.00  0.00     0.021 C 
ATOM      4  C   UNL     1      44.162 -30.336  13.072  1.00  0.00     0.009 C 
ATOM      5  C   UNL     1      43.198 -29.660  12.067  1.00  0.00     0.035 C 
ATOM      6  C   UNL     1      43.258 -30.402  10.701  1.00  0.00     0.066 C 
ATOM      7  O   UNL     1      42.830 -31.753  10.881  1.00  0.00    -0.369 OA
ATOM      8  C   UNL     1      44.726 -30.396  10.185  1.00  0.00     0.035 C 
ATOM      9  C   UNL     1      45.654 -31.054  11.235  1.00  0.00     0.009 C 
ATOM     10  C   UNL     1      42.333 -29.723   9.685  1.00  0.00     0.042 C 
ATOM     11  C   UNL     1      44.218 -33.715  11.100  1.00  0.00     0.042 C 
ENDROOT
TORSDOF 0
ENDMDL
MODEL 9
REMARK VINA RESULT:    -2.966      1.981      3.497
REMARK INTER + INTRA:          -2.966
REMARK INTER:                  -2.966
REMARK INTRA:                   0.000
REMARK UNBOUND:                 0.000
REMARK SMILES CC1(C)O[C@]2(C)CC[C@H]1CC2
REMARK SMILES IDX 1 1 2 2 9 3 8 4 7 5 5 6 4 7 11 8 10 9 6 10 3 11
REMARK H PARENT
REMARK Flexibility Score: inf
ROOT
ATOM      1  C   UNL     1      44.242 -33.526  10.995  1.00  0.00     0.042 C 
ATOM      2  C   UNL     1      43.636 -32.112  10.854  1.00  0.00     0.066 C 
ATOM      3  C   UNL     1      43.504 -31.419  12.264  1.00  0.00     0.021 C 
ATOM      4  C   UNL     1      42.517 -32.243  13.125  1.00  0.00     0.009 C 
ATOM      5  C   UNL     1      41.208 -32.463  12.328  1.00  0.00     0.035 C 
ATOM      6  C   UNL     1      41.285 -31.707  10.971  1.00  0.00     0.066 C 
ATOM      7  O   UNL     1      42.364 -32.236  10.199  1.00  0.00    -0.369 OA
ATOM      8  C   UNL     1      41.546 -30.198  11.246  1.00  0.00     0.035 C 
ATOM      9  C   UNL     1      42.847 -30.031  12.068  1.00  0.00     0.009 C 
ATOM     10  C   UNL     1      39.981 -31.888  10.186  1.00  0.00     0.042 C 
ATOM     11  C   UNL     1      44.573 -31.302   9.932  1.00  0.00     0.042 C 
ENDROOT
TORSDOF 0
ENDMDL
