MODEL 1
REMARK VINA RESULT:    70.918      0.000      0.000
REMARK INTER + INTRA:          72.991
REMARK INTER:                  72.991
REMARK INTRA:                   0.000
REMARK UNBOUND:                 0.000
REMARK SMILES CC1(C)CC[C@]2(C)CC[C@@]3(C)C(=CC[C@@H]4[C@]5(C)CC[C@@H](O)C(C)(C)[C@H]5CC[C@@]43C)[C@H]2C1
REMARK SMILES IDX 1 1 2 2 4 3 5 4 6 5 8 6 9 7 10 8 12 9 13 10 14 11 15 12
REMARK SMILES IDX 28 13 27 14 26 15 25 16 16 17 18 18 19 19 20 20 22 21 23 22
REMARK SMILES IDX 24 23 17 24 29 25 30 26 31 27 11 28 7 29 3 30 21 31
REMARK H PARENT 21 32
REMARK Flexibility Score: inf
ROOT
ATOM      1  C   UNL     1      19.349  10.509  41.012  1.00  0.00     0.011 C 
ATOM      2  C   UNL     1      19.081  12.029  41.146  1.00  0.00    -0.035 C 
ATOM      3  C   UNL     1      18.244  12.310  42.425  1.00  0.00     0.007 C 
ATOM      4  C   UNL     1      16.752  11.945  42.286  1.00  0.00     0.008 C 
ATOM      5  C   UNL     1      16.072  12.577  41.039  1.00  0.00    -0.026 C 
ATOM      6  C   UNL     1      14.587  12.054  40.940  1.00  0.00     0.008 C 
ATOM      7  C   UNL     1      14.265  11.277  39.641  1.00  0.00     0.012 C 
ATOM      8  C   UNL     1      14.670  12.062  38.335  1.00  0.00    -0.006 C 
ATOM      9  C   UNL     1      16.127  12.533  38.495  1.00  0.00    -0.064 C 
ATOM     10  C   UNL     1      16.751  13.077  37.435  1.00  0.00    -0.027 C 
ATOM     11  C   UNL     1      16.077  13.165  36.102  1.00  0.00     0.032 C 
ATOM     12  C   UNL     1      15.335  11.842  35.732  1.00  0.00     0.006 C 
ATOM     13  C   UNL     1      14.569  11.174  36.987  1.00  0.00    -0.020 C 
ATOM     14  C   UNL     1      13.078  10.829  36.646  1.00  0.00     0.008 C 
ATOM     15  C   UNL     1      12.295  11.832  35.778  1.00  0.00     0.005 C 
ATOM     16  C   UNL     1      13.102  12.559  34.664  1.00  0.00     0.003 C 
ATOM     17  C   UNL     1      14.498  11.910  34.369  1.00  0.00    -0.025 C 
ATOM     18  C   UNL     1      15.247  12.791  33.309  1.00  0.00     0.010 C 
ATOM     19  C   UNL     1      14.422  13.112  32.055  1.00  0.00     0.033 C 
ATOM     20  C   UNL     1      13.110  13.817  32.428  1.00  0.00     0.120 C 
ATOM     21  C   UNL     1      12.234  12.960  33.396  1.00  0.00    -0.006 C 
ATOM     22  C   UNL     1      11.623  11.750  32.630  1.00  0.00     0.014 C 
ATOM     23  C   UNL     1      11.049  13.849  33.862  1.00  0.00     0.014 C 
ATOM     24  C   UNL     1      14.366  10.464  33.779  1.00  0.00     0.012 C 
ATOM     25  C   UNL     1      15.266   9.796  37.244  1.00  0.00     0.012 C 
ATOM     26  C   UNL     1      16.883  12.154  39.778  1.00  0.00     0.022 C 
ATOM     27  C   UNL     1      18.372  12.578  39.870  1.00  0.00     0.015 C 
ATOM     28  C   UNL     1      13.726  13.300  38.275  1.00  0.00     0.017 C 
ATOM     29  C   UNL     1      16.044  14.124  41.203  1.00  0.00     0.012 C 
ATOM     30  C   UNL     1      20.446  12.735  41.285  1.00  0.00     0.011 C 
ENDROOT
BRANCH  20  31
ATOM     31  O   UNL     1      12.396  14.125  31.255  1.00  0.00    -0.393 OA
ATOM     32  H   UNL     1      13.048  14.502  30.608  1.00  0.00     0.210 HD
ENDBRANCH  20  31
TORSDOF 1
ENDMDL
