MODEL 1
REMARK VINA RESULT:    -2.849      0.000      0.000
REMARK INTER + INTRA:         -12.733
REMARK INTER:                  -7.512
REMARK INTRA:                  -5.222
REMARK UNBOUND:                -5.222
REMARK SMILES CCCCCCCCCCCCCCCCCCCCCCCCCCCCCC(=O)[O-]
REMARK SMILES IDX 16 1 17 2 18 3 19 4 20 5 21 6 22 7 23 8 24 9 25 10 26 11
REMARK SMILES IDX 27 12 28 13 29 14 30 15 31 16 32 17 15 18 14 19 13 20 12 21
REMARK SMILES IDX 11 22 10 23 9 24 8 25 7 26 6 27 5 28 4 29 3 30 2 31 1 32
REMARK H PARENT
REMARK Flexibility Score: inf
ROOT
ATOM      1  C   UNL     1      22.351  26.407  50.578  1.00  0.00     0.000 C 
ENDROOT
BRANCH   1   2
ATOM      2  C   UNL     1      22.961  27.738  50.108  1.00  0.00     0.000 C 
BRANCH   2   3
ATOM      3  C   UNL     1      22.282  28.957  50.771  1.00  0.00     0.000 C 
BRANCH   3   4
ATOM      4  C   UNL     1      22.102  30.159  49.827  1.00  0.00     0.000 C 
BRANCH   4   5
ATOM      5  C   UNL     1      20.646  30.659  49.763  1.00  0.00     0.000 C 
BRANCH   5   6
ATOM      6  C   UNL     1      20.539  32.175  49.502  1.00  0.00     0.000 C 
BRANCH   6   7
ATOM      7  C   UNL     1      21.411  32.678  48.339  1.00  0.00     0.000 C 
BRANCH   7   8
ATOM      8  C   UNL     1      20.925  32.193  46.966  1.00  0.00     0.000 C 
BRANCH   8   9
ATOM      9  C   UNL     1      22.103  31.707  46.108  1.00  0.00     0.000 C 
BRANCH   9  10
ATOM     10  C   UNL     1      23.446  31.753  46.855  1.00  0.00     0.000 C 
BRANCH  10  11
ATOM     11  C   UNL     1      24.546  30.956  46.131  1.00  0.00     0.000 C 
BRANCH  11  12
ATOM     12  C   UNL     1      25.567  31.851  45.405  1.00  0.00     0.000 C 
BRANCH  12  13
ATOM     13  C   UNL     1      25.497  31.818  43.865  1.00  0.00     0.006 C 
BRANCH  13  14
ATOM     14  C   UNL     1      26.260  30.636  43.252  1.00  0.00     0.053 C 
BRANCH  14  15
ATOM     15  C   UNL     1      25.322  29.698  42.559  1.00  0.00     0.041 C 
ATOM     16  O   UNL     1      24.240  29.363  43.109  1.00  0.00    -0.550 OA
ATOM     17  O   UNL     1      25.647  29.182  41.310  1.00  0.00    -0.550 OA
ENDBRANCH  14  15
ENDBRANCH  13  14
ENDBRANCH  12  13
ENDBRANCH  11  12
ENDBRANCH  10  11
ENDBRANCH   9  10
ENDBRANCH   8   9
ENDBRANCH   7   8
ENDBRANCH   6   7
ENDBRANCH   5   6
ENDBRANCH   4   5
ENDBRANCH   3   4
ENDBRANCH   2   3
ENDBRANCH   1   2
BRANCH   1  18
ATOM     18  C   UNL     1      21.290  25.862  49.606  1.00  0.00     0.000 C 
BRANCH  18  19
ATOM     19  C   UNL     1      19.863  26.404  49.829  1.00  0.00     0.000 C 
BRANCH  19  20
ATOM     20  C   UNL     1      19.364  27.399  48.763  1.00  0.00     0.000 C 
BRANCH  20  21
ATOM     21  C   UNL     1      19.951  27.194  47.352  1.00  0.00     0.000 C 
BRANCH  21  22
ATOM     22  C   UNL     1      20.858  28.339  46.857  1.00  0.00     0.000 C 
BRANCH  22  23
ATOM     23  C   UNL     1      21.997  27.904  45.917  1.00  0.00     0.000 C 
BRANCH  23  24
ATOM     24  C   UNL     1      23.280  27.415  46.622  1.00  0.00    -0.000 C 
BRANCH  24  25
ATOM     25  C   UNL     1      23.435  25.886  46.720  1.00  0.00    -0.000 C 
BRANCH  25  26
ATOM     26  C   UNL     1      24.635  25.458  47.582  1.00  0.00    -0.000 C 
BRANCH  26  27
ATOM     27  C   UNL     1      24.355  24.178  48.384  1.00  0.00    -0.000 C 
BRANCH  27  28
ATOM     28  C   UNL     1      25.014  24.190  49.775  1.00  0.00    -0.000 C 
BRANCH  28  29
ATOM     29  C   UNL     1      25.870  25.447  50.010  1.00  0.00    -0.000 C 
BRANCH  29  30
ATOM     30  C   UNL     1      27.290  25.112  50.493  1.00  0.00    -0.000 C 
BRANCH  30  31
ATOM     31  C   UNL     1      27.949  24.071  49.582  1.00  0.00    -0.003 C 
ATOM     32  C   UNL     1      28.196  24.640  48.187  1.00  0.00     0.004 C 
ENDBRANCH  30  31
ENDBRANCH  29  30
ENDBRANCH  28  29
ENDBRANCH  27  28
ENDBRANCH  26  27
ENDBRANCH  25  26
ENDBRANCH  24  25
ENDBRANCH  23  24
ENDBRANCH  22  23
ENDBRANCH  21  22
ENDBRANCH  20  21
ENDBRANCH  19  20
ENDBRANCH  18  19
ENDBRANCH   1  18
TORSDOF 28
ENDMDL
MODEL 2
REMARK VINA RESULT:    -2.772      3.013      6.040
REMARK INTER + INTRA:         -12.532
REMARK INTER:                  -6.097
REMARK INTRA:                  -6.435
REMARK UNBOUND:                -5.222
REMARK SMILES CCCCCCCCCCCCCCCCCCCCCCCCCCCCCC(=O)[O-]
REMARK SMILES IDX 16 1 17 2 18 3 19 4 20 5 21 6 22 7 23 8 24 9 25 10 26 11
REMARK SMILES IDX 27 12 28 13 29 14 30 15 31 16 32 17 15 18 14 19 13 20 12 21
REMARK SMILES IDX 11 22 10 23 9 24 8 25 7 26 6 27 5 28 4 29 3 30 2 31 1 32
REMARK H PARENT
REMARK Flexibility Score: inf
ROOT
ATOM      1  C   UNL     1      19.607  31.779  48.600  1.00  0.00     0.000 C 
ENDROOT
BRANCH   1   2
ATOM      2  C   UNL     1      20.542  32.078  47.414  1.00  0.00     0.000 C 
BRANCH   2   3
ATOM      3  C   UNL     1      22.027  31.860  47.774  1.00  0.00     0.000 C 
BRANCH   3   4
ATOM      4  C   UNL     1      22.983  31.985  46.574  1.00  0.00     0.000 C 
BRANCH   4   5
ATOM      5  C   UNL     1      24.136  30.965  46.615  1.00  0.00     0.000 C 
BRANCH   5   6
ATOM      6  C   UNL     1      23.864  29.784  47.570  1.00  0.00     0.000 C 
BRANCH   6   7
ATOM      7  C   UNL     1      23.350  28.514  46.872  1.00  0.00     0.000 C 
BRANCH   7   8
ATOM      8  C   UNL     1      23.343  28.627  45.341  1.00  0.00     0.000 C 
BRANCH   8   9
ATOM      9  C   UNL     1      21.988  28.183  44.767  1.00  0.00     0.000 C 
BRANCH   9  10
ATOM     10  C   UNL     1      20.824  29.079  45.219  1.00  0.00     0.000 C 
BRANCH  10  11
ATOM     11  C   UNL     1      19.725  28.287  45.950  1.00  0.00     0.000 C 
BRANCH  11  12
ATOM     12  C   UNL     1      19.783  28.440  47.481  1.00  0.00     0.000 C 
BRANCH  12  13
ATOM     13  C   UNL     1      18.740  27.620  48.266  1.00  0.00     0.006 C 
BRANCH  13  14
ATOM     14  C   UNL     1      17.684  28.492  48.960  1.00  0.00     0.053 C 
BRANCH  14  15
ATOM     15  C   UNL     1      16.616  28.904  47.996  1.00  0.00     0.041 C 
ATOM     16  O   UNL     1      15.692  28.103  47.696  1.00  0.00    -0.550 OA
ATOM     17  O   UNL     1      16.646  30.168  47.420  1.00  0.00    -0.550 OA
ENDBRANCH  14  15
ENDBRANCH  13  14
ENDBRANCH  12  13
ENDBRANCH  11  12
ENDBRANCH  10  11
ENDBRANCH   9  10
ENDBRANCH   8   9
ENDBRANCH   7   8
ENDBRANCH   6   7
ENDBRANCH   5   6
ENDBRANCH   4   5
ENDBRANCH   3   4
ENDBRANCH   2   3
ENDBRANCH   1   2
BRANCH   1  18
ATOM     18  C   UNL     1      20.015  32.524  49.882  1.00  0.00     0.000 C 
BRANCH  18  19
ATOM     19  C   UNL     1      20.523  31.623  51.025  1.00  0.00     0.000 C 
BRANCH  19  20
ATOM     20  C   UNL     1      20.533  30.113  50.717  1.00  0.00     0.000 C 
BRANCH  20  21
ATOM     21  C   UNL     1      21.929  29.456  50.714  1.00  0.00     0.000 C 
BRANCH  21  22
ATOM     22  C   UNL     1      21.932  27.947  50.396  1.00  0.00     0.000 C 
BRANCH  22  23
ATOM     23  C   UNL     1      23.326  27.293  50.366  1.00  0.00     0.000 C 
BRANCH  23  24
ATOM     24  C   UNL     1      23.367  25.816  50.811  1.00  0.00    -0.000 C 
BRANCH  24  25
ATOM     25  C   UNL     1      24.763  25.166  50.807  1.00  0.00    -0.000 C 
BRANCH  25  26
ATOM     26  C   UNL     1      24.884  24.008  49.802  1.00  0.00    -0.000 C 
BRANCH  26  27
ATOM     27  C   UNL     1      25.611  24.423  48.513  1.00  0.00    -0.000 C 
BRANCH  27  28
ATOM     28  C   UNL     1      24.685  25.138  47.512  1.00  0.00    -0.000 C 
BRANCH  28  29
ATOM     29  C   UNL     1      23.725  24.169  46.801  1.00  0.00    -0.000 C 
BRANCH  29  30
ATOM     30  C   UNL     1      22.409  24.844  46.382  1.00  0.00    -0.000 C 
BRANCH  30  31
ATOM     31  C   UNL     1      21.607  25.293  47.609  1.00  0.00    -0.003 C 
ATOM     32  C   UNL     1      21.152  24.094  48.436  1.00  0.00     0.004 C 
ENDBRANCH  30  31
ENDBRANCH  29  30
ENDBRANCH  28  29
ENDBRANCH  27  28
ENDBRANCH  26  27
ENDBRANCH  25  26
ENDBRANCH  24  25
ENDBRANCH  23  24
ENDBRANCH  22  23
ENDBRANCH  21  22
ENDBRANCH  20  21
ENDBRANCH  19  20
ENDBRANCH  18  19
ENDBRANCH   1  18
TORSDOF 28
ENDMDL
MODEL 3
REMARK VINA RESULT:    -2.768      2.190      6.271
REMARK INTER + INTRA:         -12.522
REMARK INTER:                  -7.224
REMARK INTRA:                  -5.298
REMARK UNBOUND:                -5.222
REMARK SMILES CCCCCCCCCCCCCCCCCCCCCCCCCCCCCC(=O)[O-]
REMARK SMILES IDX 16 1 17 2 18 3 19 4 20 5 21 6 22 7 23 8 24 9 25 10 26 11
REMARK SMILES IDX 27 12 28 13 29 14 30 15 31 16 32 17 15 18 14 19 13 20 12 21
REMARK SMILES IDX 11 22 10 23 9 24 8 25 7 26 6 27 5 28 4 29 3 30 2 31 1 32
REMARK H PARENT
REMARK Flexibility Score: inf
ROOT
ATOM      1  C   UNL     1      24.535  32.102  44.565  1.00  0.00     0.000 C 
ENDROOT
BRANCH   1   2
ATOM      2  C   UNL     1      25.765  32.066  43.641  1.00  0.00     0.000 C 
BRANCH   2   3
ATOM      3  C   UNL     1      26.297  30.631  43.436  1.00  0.00     0.000 C 
BRANCH   3   4
ATOM      4  C   UNL     1      26.362  30.196  41.960  1.00  0.00     0.000 C 
BRANCH   4   5
ATOM      5  C   UNL     1      25.135  29.376  41.521  1.00  0.00     0.000 C 
BRANCH   5   6
ATOM      6  C   UNL     1      24.375  28.746  42.706  1.00  0.00     0.000 C 
BRANCH   6   7
ATOM      7  C   UNL     1      23.920  27.296  42.464  1.00  0.00     0.000 C 
BRANCH   7   8
ATOM      8  C   UNL     1      23.267  26.654  43.696  1.00  0.00     0.000 C 
BRANCH   8   9
ATOM      9  C   UNL     1      22.988  27.708  44.778  1.00  0.00     0.000 C 
BRANCH   9  10
ATOM     10  C   UNL     1      21.572  27.602  45.366  1.00  0.00     0.000 C 
BRANCH  10  11
ATOM     11  C   UNL     1      20.838  28.955  45.371  1.00  0.00     0.000 C 
BRANCH  11  12
ATOM     12  C   UNL     1      21.440  29.976  44.388  1.00  0.00     0.000 C 
BRANCH  12  13
ATOM     13  C   UNL     1      20.449  31.013  43.823  1.00  0.00     0.006 C 
BRANCH  13  14
ATOM     14  C   UNL     1      20.837  32.461  44.151  1.00  0.00     0.053 C 
BRANCH  14  15
ATOM     15  C   UNL     1      21.157  33.222  42.903  1.00  0.00     0.041 C 
ATOM     16  O   UNL     1      21.980  32.757  42.071  1.00  0.00    -0.550 OA
ATOM     17  O   UNL     1      20.557  34.453  42.662  1.00  0.00    -0.550 OA
ENDBRANCH  14  15
ENDBRANCH  13  14
ENDBRANCH  12  13
ENDBRANCH  11  12
ENDBRANCH  10  11
ENDBRANCH   9  10
ENDBRANCH   8   9
ENDBRANCH   7   8
ENDBRANCH   6   7
ENDBRANCH   5   6
ENDBRANCH   4   5
ENDBRANCH   3   4
ENDBRANCH   2   3
ENDBRANCH   1   2
BRANCH   1  18
ATOM     18  C   UNL     1      24.873  31.744  46.022  1.00  0.00     0.000 C 
BRANCH  18  19
ATOM     19  C   UNL     1      24.164  30.487  46.565  1.00  0.00     0.000 C 
BRANCH  19  20
ATOM     20  C   UNL     1      23.203  30.732  47.744  1.00  0.00     0.000 C 
BRANCH  20  21
ATOM     21  C   UNL     1      22.170  31.856  47.521  1.00  0.00     0.000 C 
BRANCH  21  22
ATOM     22  C   UNL     1      20.890  31.735  48.373  1.00  0.00     0.000 C 
BRANCH  22  23
ATOM     23  C   UNL     1      20.904  32.544  49.683  1.00  0.00     0.000 C 
BRANCH  23  24
ATOM     24  C   UNL     1      21.273  31.740  50.948  1.00  0.00    -0.000 C 
BRANCH  24  25
ATOM     25  C   UNL     1      20.727  30.302  50.996  1.00  0.00    -0.000 C 
BRANCH  25  26
ATOM     26  C   UNL     1      21.824  29.237  50.822  1.00  0.00    -0.000 C 
BRANCH  26  27
ATOM     27  C   UNL     1      21.263  27.893  50.330  1.00  0.00    -0.000 C 
BRANCH  27  28
ATOM     28  C   UNL     1      21.977  27.377  49.067  1.00  0.00    -0.000 C 
BRANCH  28  29
ATOM     29  C   UNL     1      23.501  27.573  49.131  1.00  0.00    -0.000 C 
BRANCH  29  30
ATOM     30  C   UNL     1      24.276  26.283  48.815  1.00  0.00    -0.000 C 
BRANCH  30  31
ATOM     31  C   UNL     1      23.559  25.463  47.737  1.00  0.00    -0.003 C 
ATOM     32  C   UNL     1      24.559  24.815  46.783  1.00  0.00     0.004 C 
ENDBRANCH  30  31
ENDBRANCH  29  30
ENDBRANCH  28  29
ENDBRANCH  27  28
ENDBRANCH  26  27
ENDBRANCH  25  26
ENDBRANCH  24  25
ENDBRANCH  23  24
ENDBRANCH  22  23
ENDBRANCH  21  22
ENDBRANCH  20  21
ENDBRANCH  19  20
ENDBRANCH  18  19
ENDBRANCH   1  18
TORSDOF 28
ENDMDL
MODEL 4
REMARK VINA RESULT:    -2.733      2.538      5.835
REMARK INTER + INTRA:         -12.429
REMARK INTER:                  -6.404
REMARK INTRA:                  -6.025
REMARK UNBOUND:                -5.222
REMARK SMILES CCCCCCCCCCCCCCCCCCCCCCCCCCCCCC(=O)[O-]
REMARK SMILES IDX 16 1 17 2 18 3 19 4 20 5 21 6 22 7 23 8 24 9 25 10 26 11
REMARK SMILES IDX 27 12 28 13 29 14 30 15 31 16 32 17 15 18 14 19 13 20 12 21
REMARK SMILES IDX 11 22 10 23 9 24 8 25 7 26 6 27 5 28 4 29 3 30 2 31 1 32
REMARK H PARENT
REMARK Flexibility Score: inf
ROOT
ATOM      1  C   UNL     1      23.574  29.051  46.670  1.00  0.00     0.000 C 
ENDROOT
BRANCH   1   2
ATOM      2  C   UNL     1      23.779  30.256  47.603  1.00  0.00     0.000 C 
BRANCH   2   3
ATOM      3  C   UNL     1      23.843  31.590  46.827  1.00  0.00     0.000 C 
BRANCH   3   4
ATOM      4  C   UNL     1      24.982  31.654  45.793  1.00  0.00     0.000 C 
BRANCH   4   5
ATOM      5  C   UNL     1      24.480  31.921  44.362  1.00  0.00     0.000 C 
BRANCH   5   6
ATOM      6  C   UNL     1      24.642  30.704  43.429  1.00  0.00     0.000 C 
BRANCH   6   7
ATOM      7  C   UNL     1      23.339  29.928  43.173  1.00  0.00     0.000 C 
BRANCH   7   8
ATOM      8  C   UNL     1      23.552  28.412  43.056  1.00  0.00     0.000 C 
BRANCH   8   9
ATOM      9  C   UNL     1      22.221  27.692  42.792  1.00  0.00     0.000 C 
BRANCH   9  10
ATOM     10  C   UNL     1      22.065  26.402  43.613  1.00  0.00     0.000 C 
BRANCH  10  11
ATOM     11  C   UNL     1      23.359  26.018  44.352  1.00  0.00     0.000 C 
BRANCH  11  12
ATOM     12  C   UNL     1      23.138  24.973  45.461  1.00  0.00     0.000 C 
BRANCH  12  13
ATOM     13  C   UNL     1      21.678  24.516  45.657  1.00  0.00     0.006 C 
BRANCH  13  14
ATOM     14  C   UNL     1      21.129  24.831  47.055  1.00  0.00     0.053 C 
BRANCH  14  15
ATOM     15  C   UNL     1      19.659  25.105  47.001  1.00  0.00     0.041 C 
ATOM     16  O   UNL     1      18.854  24.185  46.699  1.00  0.00    -0.550 OA
ATOM     17  O   UNL     1      19.176  26.380  47.272  1.00  0.00    -0.550 OA
ENDBRANCH  14  15
ENDBRANCH  13  14
ENDBRANCH  12  13
ENDBRANCH  11  12
ENDBRANCH  10  11
ENDBRANCH   9  10
ENDBRANCH   8   9
ENDBRANCH   7   8
ENDBRANCH   6   7
ENDBRANCH   5   6
ENDBRANCH   4   5
ENDBRANCH   3   4
ENDBRANCH   2   3
ENDBRANCH   1   2
BRANCH   1  18
ATOM     18  C   UNL     1      22.184  28.410  46.820  1.00  0.00     0.000 C 
BRANCH  18  19
ATOM     19  C   UNL     1      21.027  29.207  46.184  1.00  0.00     0.000 C 
BRANCH  19  20
ATOM     20  C   UNL     1      20.072  29.889  47.183  1.00  0.00     0.000 C 
BRANCH  20  21
ATOM     21  C   UNL     1      20.180  31.427  47.244  1.00  0.00     0.000 C 
BRANCH  21  22
ATOM     22  C   UNL     1      19.701  32.056  48.568  1.00  0.00     0.000 C 
BRANCH  22  23
ATOM     23  C   UNL     1      20.826  32.457  49.540  1.00  0.00     0.000 C 
BRANCH  23  24
ATOM     24  C   UNL     1      20.944  31.581  50.805  1.00  0.00    -0.000 C 
BRANCH  24  25
ATOM     25  C   UNL     1      22.066  30.527  50.775  1.00  0.00    -0.000 C 
BRANCH  25  26
ATOM     26  C   UNL     1      21.537  29.092  50.611  1.00  0.00    -0.000 C 
BRANCH  26  27
ATOM     27  C   UNL     1      22.669  28.064  50.452  1.00  0.00    -0.000 C 
BRANCH  27  28
ATOM     28  C   UNL     1      22.147  26.645  50.162  1.00  0.00    -0.000 C 
BRANCH  28  29
ATOM     29  C   UNL     1      23.284  25.645  49.889  1.00  0.00    -0.000 C 
BRANCH  29  30
ATOM     30  C   UNL     1      24.269  26.148  48.821  1.00  0.00    -0.000 C 
BRANCH  30  31
ATOM     31  C   UNL     1      25.583  25.360  48.872  1.00  0.00    -0.003 C 
ATOM     32  C   UNL     1      26.483  25.866  49.995  1.00  0.00     0.004 C 
ENDBRANCH  30  31
ENDBRANCH  29  30
ENDBRANCH  28  29
ENDBRANCH  27  28
ENDBRANCH  26  27
ENDBRANCH  25  26
ENDBRANCH  24  25
ENDBRANCH  23  24
ENDBRANCH  22  23
ENDBRANCH  21  22
ENDBRANCH  20  21
ENDBRANCH  19  20
ENDBRANCH  18  19
ENDBRANCH   1  18
TORSDOF 28
ENDMDL
MODEL 5
REMARK VINA RESULT:    -2.720      2.647      6.112
REMARK INTER + INTRA:         -12.393
REMARK INTER:                  -6.214
REMARK INTRA:                  -6.179
REMARK UNBOUND:                -5.222
REMARK SMILES CCCCCCCCCCCCCCCCCCCCCCCCCCCCCC(=O)[O-]
REMARK SMILES IDX 16 1 17 2 18 3 19 4 20 5 21 6 22 7 23 8 24 9 25 10 26 11
REMARK SMILES IDX 27 12 28 13 29 14 30 15 31 16 32 17 15 18 14 19 13 20 12 21
REMARK SMILES IDX 11 22 10 23 9 24 8 25 7 26 6 27 5 28 4 29 3 30 2 31 1 32
REMARK H PARENT
REMARK Flexibility Score: inf
ROOT
ATOM      1  C   UNL     1      24.142  30.487  46.504  1.00  0.00     0.000 C 
ENDROOT
BRANCH   1   2
ATOM      2  C   UNL     1      24.941  31.750  46.136  1.00  0.00     0.000 C 
BRANCH   2   3
ATOM      3  C   UNL     1      25.039  31.952  44.608  1.00  0.00     0.000 C 
BRANCH   3   4
ATOM      4  C   UNL     1      25.788  30.823  43.877  1.00  0.00     0.000 C 
BRANCH   4   5
ATOM      5  C   UNL     1      25.395  30.703  42.393  1.00  0.00     0.000 C 
BRANCH   5   6
ATOM      6  C   UNL     1      24.115  29.872  42.173  1.00  0.00     0.000 C 
BRANCH   6   7
ATOM      7  C   UNL     1      24.021  28.614  43.053  1.00  0.00     0.000 C 
BRANCH   7   8
ATOM      8  C   UNL     1      22.715  28.536  43.858  1.00  0.00     0.000 C 
BRANCH   8   9
ATOM      9  C   UNL     1      21.689  29.553  43.334  1.00  0.00     0.000 C 
BRANCH   9  10
ATOM     10  C   UNL     1      20.704  30.021  44.416  1.00  0.00     0.000 C 
BRANCH  10  11
ATOM     11  C   UNL     1      20.487  31.545  44.391  1.00  0.00     0.000 C 
BRANCH  11  12
ATOM     12  C   UNL     1      21.695  32.321  43.836  1.00  0.00     0.000 C 
BRANCH  12  13
ATOM     13  C   UNL     1      21.359  33.418  42.806  1.00  0.00     0.006 C 
BRANCH  13  14
ATOM     14  C   UNL     1      22.469  33.632  41.768  1.00  0.00     0.053 C 
BRANCH  14  15
ATOM     15  C   UNL     1      22.057  33.103  40.430  1.00  0.00     0.041 C 
ATOM     16  O   UNL     1      22.025  31.862  40.223  1.00  0.00    -0.550 OA
ATOM     17  O   UNL     1      21.720  33.981  39.406  1.00  0.00    -0.550 OA
ENDBRANCH  14  15
ENDBRANCH  13  14
ENDBRANCH  12  13
ENDBRANCH  11  12
ENDBRANCH  10  11
ENDBRANCH   9  10
ENDBRANCH   8   9
ENDBRANCH   7   8
ENDBRANCH   6   7
ENDBRANCH   5   6
ENDBRANCH   4   5
ENDBRANCH   3   4
ENDBRANCH   2   3
ENDBRANCH   1   2
BRANCH   1  18
ATOM     18  C   UNL     1      22.850  30.804  47.276  1.00  0.00     0.000 C 
BRANCH  18  19
ATOM     19  C   UNL     1      22.535  32.305  47.430  1.00  0.00     0.000 C 
BRANCH  19  20
ATOM     20  C   UNL     1      21.204  32.628  48.138  1.00  0.00     0.000 C 
BRANCH  20  21
ATOM     21  C   UNL     1      20.345  31.400  48.505  1.00  0.00     0.000 C 
BRANCH  21  22
ATOM     22  C   UNL     1      19.726  31.444  49.917  1.00  0.00     0.000 C 
BRANCH  22  23
ATOM     23  C   UNL     1      20.680  31.039  51.056  1.00  0.00     0.000 C 
BRANCH  23  24
ATOM     24  C   UNL     1      21.148  29.569  51.028  1.00  0.00    -0.000 C 
BRANCH  24  25
ATOM     25  C   UNL     1      22.617  29.353  50.618  1.00  0.00    -0.000 C 
BRANCH  25  26
ATOM     26  C   UNL     1      22.977  27.869  50.434  1.00  0.00    -0.000 C 
BRANCH  26  27
ATOM     27  C   UNL     1      21.934  27.110  49.599  1.00  0.00    -0.000 C 
BRANCH  27  28
ATOM     28  C   UNL     1      22.473  26.677  48.224  1.00  0.00    -0.000 C 
BRANCH  28  29
ATOM     29  C   UNL     1      21.455  26.905  47.093  1.00  0.00    -0.000 C 
BRANCH  29  30
ATOM     30  C   UNL     1      20.543  28.114  47.356  1.00  0.00    -0.000 C 
BRANCH  30  31
ATOM     31  C   UNL     1      19.071  27.689  47.408  1.00  0.00    -0.003 C 
ATOM     32  C   UNL     1      18.420  28.123  48.719  1.00  0.00     0.004 C 
ENDBRANCH  30  31
ENDBRANCH  29  30
ENDBRANCH  28  29
ENDBRANCH  27  28
ENDBRANCH  26  27
ENDBRANCH  25  26
ENDBRANCH  24  25
ENDBRANCH  23  24
ENDBRANCH  22  23
ENDBRANCH  21  22
ENDBRANCH  20  21
ENDBRANCH  19  20
ENDBRANCH  18  19
ENDBRANCH   1  18
TORSDOF 28
ENDMDL
MODEL 6
REMARK VINA RESULT:    -2.714      2.652      5.896
REMARK INTER + INTRA:         -12.378
REMARK INTER:                  -5.842
REMARK INTRA:                  -6.536
REMARK UNBOUND:                -5.222
REMARK SMILES CCCCCCCCCCCCCCCCCCCCCCCCCCCCCC(=O)[O-]
REMARK SMILES IDX 16 1 17 2 18 3 19 4 20 5 21 6 22 7 23 8 24 9 25 10 26 11
REMARK SMILES IDX 27 12 28 13 29 14 30 15 31 16 32 17 15 18 14 19 13 20 12 21
REMARK SMILES IDX 11 22 10 23 9 24 8 25 7 26 6 27 5 28 4 29 3 30 2 31 1 32
REMARK H PARENT
REMARK Flexibility Score: inf
ROOT
ATOM      1  C   UNL     1      23.711  30.311  45.594  1.00  0.00     0.000 C 
ENDROOT
BRANCH   1   2
ATOM      2  C   UNL     1      24.456  31.492  46.239  1.00  0.00     0.000 C 
BRANCH   2   3
ATOM      3  C   UNL     1      25.638  31.979  45.373  1.00  0.00     0.000 C 
BRANCH   3   4
ATOM      4  C   UNL     1      25.926  31.084  44.153  1.00  0.00     0.000 C 
BRANCH   4   5
ATOM      5  C   UNL     1      25.978  31.870  42.830  1.00  0.00     0.000 C 
BRANCH   5   6
ATOM      6  C   UNL     1      25.221  33.213  42.895  1.00  0.00     0.000 C 
BRANCH   6   7
ATOM      7  C   UNL     1      23.857  33.202  42.186  1.00  0.00     0.000 C 
BRANCH   7   8
ATOM      8  C   UNL     1      22.705  32.757  43.098  1.00  0.00     0.000 C 
BRANCH   8   9
ATOM      9  C   UNL     1      21.851  31.678  42.414  1.00  0.00     0.000 C 
BRANCH   9  10
ATOM     10  C   UNL     1      22.685  30.501  41.886  1.00  0.00     0.000 C 
BRANCH  10  11
ATOM     11  C   UNL     1      22.043  29.139  42.204  1.00  0.00     0.000 C 
BRANCH  11  12
ATOM     12  C   UNL     1      23.066  28.069  42.627  1.00  0.00     0.000 C 
BRANCH  12  13
ATOM     13  C   UNL     1      24.544  28.435  42.381  1.00  0.00     0.006 C 
BRANCH  13  14
ATOM     14  C   UNL     1      25.167  27.672  41.204  1.00  0.00     0.053 C 
BRANCH  14  15
ATOM     15  C   UNL     1      26.650  27.561  41.366  1.00  0.00     0.041 C 
ATOM     16  O   UNL     1      27.225  26.454  41.191  1.00  0.00    -0.550 OA
ATOM     17  O   UNL     1      27.399  28.676  41.724  1.00  0.00    -0.550 OA
ENDBRANCH  14  15
ENDBRANCH  13  14
ENDBRANCH  12  13
ENDBRANCH  11  12
ENDBRANCH  10  11
ENDBRANCH   9  10
ENDBRANCH   8   9
ENDBRANCH   7   8
ENDBRANCH   6   7
ENDBRANCH   5   6
ENDBRANCH   4   5
ENDBRANCH   3   4
ENDBRANCH   2   3
ENDBRANCH   1   2
BRANCH   1  18
ATOM     18  C   UNL     1      23.501  29.136  46.564  1.00  0.00     0.000 C 
BRANCH  18  19
ATOM     19  C   UNL     1      23.829  29.444  48.039  1.00  0.00     0.000 C 
BRANCH  19  20
ATOM     20  C   UNL     1      22.752  29.014  49.055  1.00  0.00     0.000 C 
BRANCH  20  21
ATOM     21  C   UNL     1      21.435  29.815  48.989  1.00  0.00     0.000 C 
BRANCH  21  22
ATOM     22  C   UNL     1      21.563  31.302  49.377  1.00  0.00     0.000 C 
BRANCH  22  23
ATOM     23  C   UNL     1      21.473  32.290  48.200  1.00  0.00     0.000 C 
BRANCH  23  24
ATOM     24  C   UNL     1      20.188  32.188  47.353  1.00  0.00    -0.000 C 
BRANCH  24  25
ATOM     25  C   UNL     1      20.409  31.995  45.841  1.00  0.00    -0.000 C 
BRANCH  25  26
ATOM     26  C   UNL     1      19.441  30.973  45.219  1.00  0.00    -0.000 C 
BRANCH  26  27
ATOM     27  C   UNL     1      20.055  29.567  45.120  1.00  0.00    -0.000 C 
BRANCH  27  28
ATOM     28  C   UNL     1      19.570  28.627  46.238  1.00  0.00    -0.000 C 
BRANCH  28  29
ATOM     29  C   UNL     1      20.412  27.343  46.334  1.00  0.00    -0.000 C 
BRANCH  29  30
ATOM     30  C   UNL     1      19.982  26.441  47.502  1.00  0.00    -0.000 C 
BRANCH  30  31
ATOM     31  C   UNL     1      21.190  25.724  48.115  1.00  0.00    -0.003 C 
ATOM     32  C   UNL     1      22.377  25.728  47.155  1.00  0.00     0.004 C 
ENDBRANCH  30  31
ENDBRANCH  29  30
ENDBRANCH  28  29
ENDBRANCH  27  28
ENDBRANCH  26  27
ENDBRANCH  25  26
ENDBRANCH  24  25
ENDBRANCH  23  24
ENDBRANCH  22  23
ENDBRANCH  21  22
ENDBRANCH  20  21
ENDBRANCH  19  20
ENDBRANCH  18  19
ENDBRANCH   1  18
TORSDOF 28
ENDMDL
MODEL 7
REMARK VINA RESULT:    -2.709     12.699     15.262
REMARK INTER + INTRA:         -12.366
REMARK INTER:                  -5.370
REMARK INTRA:                  -6.996
REMARK UNBOUND:                -5.222
REMARK SMILES CCCCCCCCCCCCCCCCCCCCCCCCCCCCCC(=O)[O-]
REMARK SMILES IDX 16 1 17 2 18 3 19 4 20 5 21 6 22 7 23 8 24 9 25 10 26 11
REMARK SMILES IDX 27 12 28 13 29 14 30 15 31 16 32 17 15 18 14 19 13 20 12 21
REMARK SMILES IDX 11 22 10 23 9 24 8 25 7 26 6 27 5 28 4 29 3 30 2 31 1 32
REMARK H PARENT
REMARK Flexibility Score: inf
ROOT
ATOM      1  C   UNL     1      21.561  29.267  35.655  1.00  0.00     0.000 C 
ENDROOT
BRANCH   1   2
ATOM      2  C   UNL     1      20.360  30.103  36.130  1.00  0.00     0.000 C 
BRANCH   2   3
ATOM      3  C   UNL     1      20.594  31.618  35.946  1.00  0.00     0.000 C 
BRANCH   3   4
ATOM      4  C   UNL     1      19.524  32.313  35.085  1.00  0.00     0.000 C 
BRANCH   4   5
ATOM      5  C   UNL     1      19.197  31.542  33.793  1.00  0.00     0.000 C 
BRANCH   5   6
ATOM      6  C   UNL     1      18.608  32.440  32.686  1.00  0.00     0.000 C 
BRANCH   6   7
ATOM      7  C   UNL     1      19.100  32.099  31.270  1.00  0.00     0.000 C 
BRANCH   7   8
ATOM      8  C   UNL     1      20.066  30.906  31.236  1.00  0.00     0.000 C 
BRANCH   8   9
ATOM      9  C   UNL     1      21.505  31.376  30.973  1.00  0.00     0.000 C 
BRANCH   9  10
ATOM     10  C   UNL     1      22.446  31.118  32.160  1.00  0.00     0.000 C 
BRANCH  10  11
ATOM     11  C   UNL     1      22.702  32.389  32.991  1.00  0.00     0.000 C 
BRANCH  11  12
ATOM     12  C   UNL     1      22.520  33.688  32.184  1.00  0.00     0.000 C 
BRANCH  12  13
ATOM     13  C   UNL     1      21.443  34.652  32.720  1.00  0.00     0.006 C 
BRANCH  13  14
ATOM     14  C   UNL     1      21.743  35.167  34.134  1.00  0.00     0.053 C 
BRANCH  14  15
ATOM     15  C   UNL     1      22.026  36.636  34.117  1.00  0.00     0.041 C 
ATOM     16  O   UNL     1      23.215  37.052  34.127  1.00  0.00    -0.550 OA
ATOM     17  O   UNL     1      20.978  37.549  34.102  1.00  0.00    -0.550 OA
ENDBRANCH  14  15
ENDBRANCH  13  14
ENDBRANCH  12  13
ENDBRANCH  11  12
ENDBRANCH  10  11
ENDBRANCH   9  10
ENDBRANCH   8   9
ENDBRANCH   7   8
ENDBRANCH   6   7
ENDBRANCH   5   6
ENDBRANCH   4   5
ENDBRANCH   3   4
ENDBRANCH   2   3
ENDBRANCH   1   2
BRANCH   1  18
ATOM     18  C   UNL     1      21.141  27.944  34.993  1.00  0.00     0.000 C 
BRANCH  18  19
ATOM     19  C   UNL     1      20.657  28.070  33.534  1.00  0.00     0.000 C 
BRANCH  19  20
ATOM     20  C   UNL     1      19.133  27.951  33.335  1.00  0.00     0.000 C 
BRANCH  20  21
ATOM     21  C   UNL     1      18.685  27.630  31.894  1.00  0.00     0.000 C 
BRANCH  21  22
ATOM     22  C   UNL     1      17.235  28.035  31.564  1.00  0.00     0.000 C 
BRANCH  22  23
ATOM     23  C   UNL     1      16.753  29.332  32.239  1.00  0.00     0.000 C 
BRANCH  23  24
ATOM     24  C   UNL     1      15.861  29.134  33.482  1.00  0.00    -0.000 C 
BRANCH  24  25
ATOM     25  C   UNL     1      15.884  30.289  34.500  1.00  0.00    -0.000 C 
BRANCH  25  26
ATOM     26  C   UNL     1      16.619  29.928  35.802  1.00  0.00    -0.000 C 
BRANCH  26  27
ATOM     27  C   UNL     1      16.345  28.483  36.249  1.00  0.00    -0.000 C 
BRANCH  27  28
ATOM     28  C   UNL     1      17.634  27.701  36.561  1.00  0.00    -0.000 C 
BRANCH  28  29
ATOM     29  C   UNL     1      17.540  26.222  36.149  1.00  0.00    -0.000 C 
BRANCH  29  30
ATOM     30  C   UNL     1      16.182  25.870  35.521  1.00  0.00    -0.000 C 
BRANCH  30  31
ATOM     31  C   UNL     1      16.345  25.469  34.050  1.00  0.00    -0.003 C 
ATOM     32  C   UNL     1      15.014  25.557  33.307  1.00  0.00     0.004 C 
ENDBRANCH  30  31
ENDBRANCH  29  30
ENDBRANCH  28  29
ENDBRANCH  27  28
ENDBRANCH  26  27
ENDBRANCH  25  26
ENDBRANCH  24  25
ENDBRANCH  23  24
ENDBRANCH  22  23
ENDBRANCH  21  22
ENDBRANCH  20  21
ENDBRANCH  19  20
ENDBRANCH  18  19
ENDBRANCH   1  18
TORSDOF 28
ENDMDL
MODEL 8
REMARK VINA RESULT:    -2.675      2.502      6.990
REMARK INTER + INTRA:         -12.275
REMARK INTER:                  -5.717
REMARK INTRA:                  -6.558
REMARK UNBOUND:                -5.222
REMARK SMILES CCCCCCCCCCCCCCCCCCCCCCCCCCCCCC(=O)[O-]
REMARK SMILES IDX 16 1 17 2 18 3 19 4 20 5 21 6 22 7 23 8 24 9 25 10 26 11
REMARK SMILES IDX 27 12 28 13 29 14 30 15 31 16 32 17 15 18 14 19 13 20 12 21
REMARK SMILES IDX 11 22 10 23 9 24 8 25 7 26 6 27 5 28 4 29 3 30 2 31 1 32
REMARK H PARENT
REMARK Flexibility Score: inf
ROOT
ATOM      1  C   UNL     1      22.103  27.725  46.312  1.00  0.00     0.000 C 
ENDROOT
BRANCH   1   2
ATOM      2  C   UNL     1      20.845  28.601  46.429  1.00  0.00     0.000 C 
BRANCH   2   3
ATOM      3  C   UNL     1      20.198  28.508  47.829  1.00  0.00     0.000 C 
BRANCH   3   4
ATOM      4  C   UNL     1      20.140  29.851  48.579  1.00  0.00     0.000 C 
BRANCH   4   5
ATOM      5  C   UNL     1      21.092  29.905  49.788  1.00  0.00     0.000 C 
BRANCH   5   6
ATOM      6  C   UNL     1      21.466  28.508  50.325  1.00  0.00     0.000 C 
BRANCH   6   7
ATOM      7  C   UNL     1      22.966  28.323  50.608  1.00  0.00     0.000 C 
BRANCH   7   8
ATOM      8  C   UNL     1      23.404  26.851  50.607  1.00  0.00     0.000 C 
BRANCH   8   9
ATOM      9  C   UNL     1      24.005  26.462  49.247  1.00  0.00     0.000 C 
BRANCH   9  10
ATOM     10  C   UNL     1      23.307  25.250  48.610  1.00  0.00     0.000 C 
BRANCH  10  11
ATOM     11  C   UNL     1      22.052  24.819  49.390  1.00  0.00     0.000 C 
BRANCH  11  12
ATOM     12  C   UNL     1      20.743  25.071  48.620  1.00  0.00     0.000 C 
BRANCH  12  13
ATOM     13  C   UNL     1      20.452  24.085  47.471  1.00  0.00     0.006 C 
BRANCH  13  14
ATOM     14  C   UNL     1      19.672  24.722  46.312  1.00  0.00     0.053 C 
BRANCH  14  15
ATOM     15  C   UNL     1      20.484  24.714  45.055  1.00  0.00     0.041 C 
ATOM     16  O   UNL     1      21.696  24.374  45.086  1.00  0.00    -0.550 OA
ATOM     17  O   UNL     1      19.907  25.094  43.849  1.00  0.00    -0.550 OA
ENDBRANCH  14  15
ENDBRANCH  13  14
ENDBRANCH  12  13
ENDBRANCH  11  12
ENDBRANCH  10  11
ENDBRANCH   9  10
ENDBRANCH   8   9
ENDBRANCH   7   8
ENDBRANCH   6   7
ENDBRANCH   5   6
ENDBRANCH   4   5
ENDBRANCH   3   4
ENDBRANCH   2   3
ENDBRANCH   1   2
BRANCH   1  18
ATOM     18  C   UNL     1      23.385  28.548  46.099  1.00  0.00     0.000 C 
BRANCH  18  19
ATOM     19  C   UNL     1      23.730  29.524  47.243  1.00  0.00     0.000 C 
BRANCH  19  20
ATOM     20  C   UNL     1      23.974  30.983  46.810  1.00  0.00     0.000 C 
BRANCH  20  21
ATOM     21  C   UNL     1      22.784  31.938  47.035  1.00  0.00     0.000 C 
BRANCH  21  22
ATOM     22  C   UNL     1      21.766  31.986  45.877  1.00  0.00     0.000 C 
BRANCH  22  23
ATOM     23  C   UNL     1      22.385  31.960  44.468  1.00  0.00     0.000 C 
BRANCH  23  24
ATOM     24  C   UNL     1      22.040  30.716  43.622  1.00  0.00    -0.000 C 
BRANCH  24  25
ATOM     25  C   UNL     1      22.229  30.879  42.103  1.00  0.00    -0.000 C 
BRANCH  25  26
ATOM     26  C   UNL     1      23.320  29.957  41.531  1.00  0.00    -0.000 C 
BRANCH  26  27
ATOM     27  C   UNL     1      24.253  29.406  42.621  1.00  0.00    -0.000 C 
BRANCH  27  28
ATOM     28  C   UNL     1      25.650  30.052  42.591  1.00  0.00    -0.000 C 
BRANCH  28  29
ATOM     29  C   UNL     1      25.982  30.798  43.894  1.00  0.00    -0.000 C 
BRANCH  29  30
ATOM     30  C   UNL     1      25.983  32.325  43.716  1.00  0.00    -0.000 C 
BRANCH  30  31
ATOM     31  C   UNL     1      25.756  32.707  42.249  1.00  0.00    -0.003 C 
ATOM     32  C   UNL     1      24.643  33.743  42.117  1.00  0.00     0.004 C 
ENDBRANCH  30  31
ENDBRANCH  29  30
ENDBRANCH  28  29
ENDBRANCH  27  28
ENDBRANCH  26  27
ENDBRANCH  25  26
ENDBRANCH  24  25
ENDBRANCH  23  24
ENDBRANCH  22  23
ENDBRANCH  21  22
ENDBRANCH  20  21
ENDBRANCH  19  20
ENDBRANCH  18  19
ENDBRANCH   1  18
TORSDOF 28
ENDMDL
MODEL 9
REMARK VINA RESULT:    -2.626      1.612      4.243
REMARK INTER + INTRA:         -12.147
REMARK INTER:                  -6.108
REMARK INTRA:                  -6.039
REMARK UNBOUND:                -5.222
REMARK SMILES CCCCCCCCCCCCCCCCCCCCCCCCCCCCCC(=O)[O-]
REMARK SMILES IDX 16 1 17 2 18 3 19 4 20 5 21 6 22 7 23 8 24 9 25 10 26 11
REMARK SMILES IDX 27 12 28 13 29 14 30 15 31 16 32 17 15 18 14 19 13 20 12 21
REMARK SMILES IDX 11 22 10 23 9 24 8 25 7 26 6 27 5 28 4 29 3 30 2 31 1 32
REMARK H PARENT
REMARK Flexibility Score: inf
ROOT
ATOM      1  C   UNL     1      19.221  31.841  45.950  1.00  0.00     0.000 C 
ENDROOT
BRANCH   1   2
ATOM      2  C   UNL     1      18.145  30.744  45.885  1.00  0.00     0.000 C 
BRANCH   2   3
ATOM      3  C   UNL     1      17.917  30.068  47.255  1.00  0.00     0.000 C 
BRANCH   3   4
ATOM      4  C   UNL     1      18.939  28.964  47.581  1.00  0.00     0.000 C 
BRANCH   4   5
ATOM      5  C   UNL     1      19.440  28.220  46.329  1.00  0.00     0.000 C 
BRANCH   5   6
ATOM      6  C   UNL     1      20.976  28.081  46.283  1.00  0.00     0.000 C 
BRANCH   6   7
ATOM      7  C   UNL     1      21.734  29.250  46.935  1.00  0.00     0.000 C 
BRANCH   7   8
ATOM      8  C   UNL     1      23.259  29.090  46.874  1.00  0.00     0.000 C 
BRANCH   8   9
ATOM      9  C   UNL     1      23.962  30.311  47.487  1.00  0.00     0.000 C 
BRANCH   9  10
ATOM     10  C   UNL     1      23.883  31.559  46.593  1.00  0.00     0.000 C 
BRANCH  10  11
ATOM     11  C   UNL     1      25.185  31.802  45.810  1.00  0.00     0.000 C 
BRANCH  11  12
ATOM     12  C   UNL     1      25.005  31.697  44.285  1.00  0.00     0.000 C 
BRANCH  12  13
ATOM     13  C   UNL     1      24.930  30.262  43.726  1.00  0.00     0.006 C 
BRANCH  13  14
ATOM     14  C   UNL     1      23.514  29.854  43.298  1.00  0.00     0.053 C 
BRANCH  14  15
ATOM     15  C   UNL     1      23.476  28.419  42.877  1.00  0.00     0.041 C 
ATOM     16  O   UNL     1      23.492  27.505  43.743  1.00  0.00    -0.550 OA
ATOM     17  O   UNL     1      23.437  28.087  41.528  1.00  0.00    -0.550 OA
ENDBRANCH  14  15
ENDBRANCH  13  14
ENDBRANCH  12  13
ENDBRANCH  11  12
ENDBRANCH  10  11
ENDBRANCH   9  10
ENDBRANCH   8   9
ENDBRANCH   7   8
ENDBRANCH   6   7
ENDBRANCH   5   6
ENDBRANCH   4   5
ENDBRANCH   3   4
ENDBRANCH   2   3
ENDBRANCH   1   2
BRANCH   1  18
ATOM     18  C   UNL     1      19.188  32.630  47.270  1.00  0.00     0.000 C 
BRANCH  18  19
ATOM     19  C   UNL     1      20.458  32.503  48.136  1.00  0.00     0.000 C 
BRANCH  19  20
ATOM     20  C   UNL     1      20.243  31.881  49.530  1.00  0.00     0.000 C 
BRANCH  20  21
ATOM     21  C   UNL     1      21.504  31.268  50.173  1.00  0.00     0.000 C 
BRANCH  21  22
ATOM     22  C   UNL     1      21.343  29.810  50.648  1.00  0.00     0.000 C 
BRANCH  22  23
ATOM     23  C   UNL     1      22.636  28.974  50.625  1.00  0.00     0.000 C 
BRANCH  23  24
ATOM     24  C   UNL     1      22.439  27.469  50.348  1.00  0.00    -0.000 C 
BRANCH  24  25
ATOM     25  C   UNL     1      21.026  27.062  49.891  1.00  0.00    -0.000 C 
BRANCH  25  26
ATOM     26  C   UNL     1      20.989  25.681  49.214  1.00  0.00    -0.000 C 
BRANCH  26  27
ATOM     27  C   UNL     1      20.878  24.532  50.229  1.00  0.00    -0.000 C 
BRANCH  27  28
ATOM     28  C   UNL     1      22.234  23.865  50.522  1.00  0.00    -0.000 C 
BRANCH  28  29
ATOM     29  C   UNL     1      23.196  23.935  49.324  1.00  0.00    -0.000 C 
BRANCH  29  30
ATOM     30  C   UNL     1      24.582  24.477  49.711  1.00  0.00    -0.000 C 
BRANCH  30  31
ATOM     31  C   UNL     1      25.086  25.485  48.672  1.00  0.00    -0.003 C 
ATOM     32  C   UNL     1      24.164  25.528  47.456  1.00  0.00     0.004 C 
ENDBRANCH  30  31
ENDBRANCH  29  30
ENDBRANCH  28  29
ENDBRANCH  27  28
ENDBRANCH  26  27
ENDBRANCH  25  26
ENDBRANCH  24  25
ENDBRANCH  23  24
ENDBRANCH  22  23
ENDBRANCH  21  22
ENDBRANCH  20  21
ENDBRANCH  19  20
ENDBRANCH  18  19
ENDBRANCH   1  18
TORSDOF 28
ENDMDL
