MODEL 1
REMARK VINA RESULT:    -5.295      0.000      0.000
REMARK INTER + INTRA:         -10.866
REMARK INTER:                  -9.629
REMARK INTRA:                  -1.237
REMARK UNBOUND:                -1.237
REMARK SMILES CCCCCCCCCCCCCCCC(=O)[O-]
REMARK SMILES IDX 9 1 10 2 11 3 12 4 13 5 14 6 15 7 16 8 17 9 18 10 8 11 7 12
REMARK SMILES IDX 6 13 5 14 4 15 3 16 2 17 1 18
REMARK H PARENT
REMARK Flexibility Score: inf
ROOT
ATOM      1  C   UNL     1     -10.332  15.582   9.572  1.00  0.00     0.000 C 
ENDROOT
BRANCH   1   2
ATOM      2  C   UNL     1      -9.561  16.722  10.266  1.00  0.00     0.000 C 
BRANCH   2   3
ATOM      3  C   UNL     1      -8.140  16.354  10.737  1.00  0.00     0.000 C 
BRANCH   3   4
ATOM      4  C   UNL     1      -7.974  16.225  12.264  1.00  0.00     0.000 C 
BRANCH   4   5
ATOM      5  C   UNL     1      -7.891  14.779  12.792  1.00  0.00     0.000 C 
BRANCH   5   6
ATOM      6  C   UNL     1      -6.905  13.864  12.038  1.00  0.00     0.006 C 
BRANCH   6   7
ATOM      7  C   UNL     1      -7.288  12.375  12.044  1.00  0.00     0.053 C 
BRANCH   7   8
ATOM      8  C   UNL     1      -6.898  11.701  13.322  1.00  0.00     0.041 C 
ATOM      9  O   UNL     1      -7.422  10.603  13.646  1.00  0.00    -0.550 OA
ATOM     10  O   UNL     1      -5.931  12.270  14.142  1.00  0.00    -0.550 OA
ENDBRANCH   7   8
ENDBRANCH   6   7
ENDBRANCH   5   6
ENDBRANCH   4   5
ENDBRANCH   3   4
ENDBRANCH   2   3
ENDBRANCH   1   2
BRANCH   1  11
ATOM     11  C   UNL     1      -9.512  14.301   9.321  1.00  0.00     0.000 C 
BRANCH  11  12
ATOM     12  C   UNL     1     -10.183  12.993   9.790  1.00  0.00    -0.000 C 
BRANCH  12  13
ATOM     13  C   UNL     1     -11.377  12.531   8.936  1.00  0.00    -0.000 C 
BRANCH  13  14
ATOM     14  C   UNL     1     -10.961  12.062   7.534  1.00  0.00    -0.000 C 
BRANCH  14  15
ATOM     15  C   UNL     1     -11.774  10.834   7.101  1.00  0.00    -0.000 C 
BRANCH  15  16
ATOM     16  C   UNL     1     -11.823  10.658   5.574  1.00  0.00    -0.000 C 
BRANCH  16  17
ATOM     17  C   UNL     1     -10.920  11.648   4.809  1.00  0.00    -0.003 C 
ATOM     18  C   UNL     1     -10.455  11.090   3.463  1.00  0.00     0.004 C 
ENDBRANCH  16  17
ENDBRANCH  15  16
ENDBRANCH  14  15
ENDBRANCH  13  14
ENDBRANCH  12  13
ENDBRANCH  11  12
ENDBRANCH   1  11
TORSDOF 14
ENDMDL
MODEL 2
REMARK VINA RESULT:    -5.277      2.052      4.271
REMARK INTER + INTRA:         -10.833
REMARK INTER:                  -9.914
REMARK INTRA:                  -0.919
REMARK UNBOUND:                -1.237
REMARK SMILES CCCCCCCCCCCCCCCC(=O)[O-]
REMARK SMILES IDX 9 1 10 2 11 3 12 4 13 5 14 6 15 7 16 8 17 9 18 10 8 11 7 12
REMARK SMILES IDX 6 13 5 14 4 15 3 16 2 17 1 18
REMARK H PARENT
REMARK Flexibility Score: inf
ROOT
ATOM      1  C   UNL     1     -13.025  11.269   8.093  1.00  0.00     0.000 C 
ENDROOT
BRANCH   1   2
ATOM      2  C   UNL     1     -12.413  12.576   8.635  1.00  0.00     0.000 C 
BRANCH   2   3
ATOM      3  C   UNL     1     -10.948  12.464   9.102  1.00  0.00     0.000 C 
BRANCH   3   4
ATOM      4  C   UNL     1     -10.024  13.600   8.621  1.00  0.00     0.000 C 
BRANCH   4   5
ATOM      5  C   UNL     1      -9.590  14.596   9.716  1.00  0.00     0.000 C 
BRANCH   5   6
ATOM      6  C   UNL     1      -8.065  14.743   9.896  1.00  0.00     0.006 C 
BRANCH   6   7
ATOM      7  C   UNL     1      -7.489  13.959  11.088  1.00  0.00     0.053 C 
BRANCH   7   8
ATOM      8  C   UNL     1      -7.881  14.565  12.399  1.00  0.00     0.041 C 
ATOM      9  O   UNL     1      -7.877  15.815  12.546  1.00  0.00    -0.550 OA
ATOM     10  O   UNL     1      -8.282  13.750  13.451  1.00  0.00    -0.550 OA
ENDBRANCH   7   8
ENDBRANCH   6   7
ENDBRANCH   5   6
ENDBRANCH   4   5
ENDBRANCH   3   4
ENDBRANCH   2   3
ENDBRANCH   1   2
BRANCH   1  11
ATOM     11  C   UNL     1     -12.045  10.363   7.322  1.00  0.00     0.000 C 
BRANCH  11  12
ATOM     12  C   UNL     1     -12.127  10.470   5.786  1.00  0.00    -0.000 C 
BRANCH  12  13
ATOM     13  C   UNL     1     -11.120  11.443   5.147  1.00  0.00    -0.000 C 
BRANCH  13  14
ATOM     14  C   UNL     1     -10.866  11.148   3.661  1.00  0.00    -0.000 C 
BRANCH  14  15
ATOM     15  C   UNL     1      -9.925  12.192   3.045  1.00  0.00    -0.000 C 
BRANCH  15  16
ATOM     16  C   UNL     1      -9.022  12.872   4.089  1.00  0.00    -0.000 C 
BRANCH  16  17
ATOM     17  C   UNL     1      -7.802  13.590   3.476  1.00  0.00    -0.003 C 
ATOM     18  C   UNL     1      -8.154  14.346   2.194  1.00  0.00     0.004 C 
ENDBRANCH  16  17
ENDBRANCH  15  16
ENDBRANCH  14  15
ENDBRANCH  13  14
ENDBRANCH  12  13
ENDBRANCH  11  12
ENDBRANCH   1  11
TORSDOF 14
ENDMDL
MODEL 3
REMARK VINA RESULT:    -5.233      3.314      6.293
REMARK INTER + INTRA:         -10.753
REMARK INTER:                  -9.511
REMARK INTRA:                  -1.242
REMARK UNBOUND:                -1.237
REMARK SMILES CCCCCCCCCCCCCCCC(=O)[O-]
REMARK SMILES IDX 9 1 10 2 11 3 12 4 13 5 14 6 15 7 16 8 17 9 18 10 8 11 7 12
REMARK SMILES IDX 6 13 5 14 4 15 3 16 2 17 1 18
REMARK H PARENT
REMARK Flexibility Score: inf
ROOT
ATOM      1  C   UNL     1     -10.827  11.143   4.410  1.00  0.00     0.000 C 
ENDROOT
BRANCH   1   2
ATOM      2  C   UNL     1     -11.486  11.582   5.732  1.00  0.00     0.000 C 
BRANCH   2   3
ATOM      3  C   UNL     1     -11.927  10.428   6.654  1.00  0.00     0.000 C 
BRANCH   3   4
ATOM      4  C   UNL     1     -11.925  10.761   8.159  1.00  0.00     0.000 C 
BRANCH   4   5
ATOM      5  C   UNL     1     -11.902  12.266   8.494  1.00  0.00     0.000 C 
BRANCH   5   6
ATOM      6  C   UNL     1     -10.641  12.750   9.238  1.00  0.00     0.006 C 
BRANCH   6   7
ATOM      7  C   UNL     1      -9.785  13.756   8.450  1.00  0.00     0.053 C 
BRANCH   7   8
ATOM      8  C   UNL     1      -9.035  14.683   9.355  1.00  0.00     0.041 C 
ATOM      9  O   UNL     1      -9.633  15.632   9.926  1.00  0.00    -0.550 OA
ATOM     10  O   UNL     1      -7.682  14.480   9.593  1.00  0.00    -0.550 OA
ENDBRANCH   7   8
ENDBRANCH   6   7
ENDBRANCH   5   6
ENDBRANCH   4   5
ENDBRANCH   3   4
ENDBRANCH   2   3
ENDBRANCH   1   2
BRANCH   1  11
ATOM     11  C   UNL     1     -10.101  12.265   3.641  1.00  0.00     0.000 C 
BRANCH  11  12
ATOM     12  C   UNL     1      -9.162  13.141   4.495  1.00  0.00    -0.000 C 
BRANCH  12  13
ATOM     13  C   UNL     1      -7.742  13.319   3.927  1.00  0.00    -0.000 C 
BRANCH  13  14
ATOM     14  C   UNL     1      -7.144  12.009   3.395  1.00  0.00    -0.000 C 
BRANCH  14  15
ATOM     15  C   UNL     1      -6.488  12.221   2.024  1.00  0.00    -0.000 C 
BRANCH  15  16
ATOM     16  C   UNL     1      -6.766  13.615   1.437  1.00  0.00    -0.000 C 
BRANCH  16  17
ATOM     17  C   UNL     1      -7.822  13.612   0.312  1.00  0.00    -0.003 C 
ATOM     18  C   UNL     1      -7.898  12.267  -0.413  1.00  0.00     0.004 C 
ENDBRANCH  16  17
ENDBRANCH  15  16
ENDBRANCH  14  15
ENDBRANCH  13  14
ENDBRANCH  12  13
ENDBRANCH  11  12
ENDBRANCH   1  11
TORSDOF 14
ENDMDL
MODEL 4
REMARK VINA RESULT:    -5.232      5.923      9.088
REMARK INTER + INTRA:         -10.752
REMARK INTER:                  -9.793
REMARK INTRA:                  -0.959
REMARK UNBOUND:                -1.237
REMARK SMILES CCCCCCCCCCCCCCCC(=O)[O-]
REMARK SMILES IDX 9 1 10 2 11 3 12 4 13 5 14 6 15 7 16 8 17 9 18 10 8 11 7 12
REMARK SMILES IDX 6 13 5 14 4 15 3 16 2 17 1 18
REMARK H PARENT
REMARK Flexibility Score: inf
ROOT
ATOM      1  C   UNL     1      -9.926  12.183   3.147  1.00  0.00     0.000 C 
ENDROOT
BRANCH   1   2
ATOM      2  C   UNL     1      -9.244  13.192   4.091  1.00  0.00     0.000 C 
BRANCH   2   3
ATOM      3  C   UNL     1      -7.708  13.257   3.974  1.00  0.00     0.000 C 
BRANCH   3   4
ATOM      4  C   UNL     1      -7.096  12.308   2.924  1.00  0.00     0.000 C 
BRANCH   4   5
ATOM      5  C   UNL     1      -6.244  12.997   1.839  1.00  0.00     0.000 C 
BRANCH   5   6
ATOM      6  C   UNL     1      -7.025  13.462   0.593  1.00  0.00     0.006 C 
BRANCH   6   7
ATOM      7  C   UNL     1      -7.279  14.978   0.533  1.00  0.00     0.053 C 
BRANCH   7   8
ATOM      8  C   UNL     1      -6.184  15.701  -0.188  1.00  0.00     0.041 C 
ATOM      9  O   UNL     1      -6.244  15.862  -1.435  1.00  0.00    -0.550 OA
ATOM     10  O   UNL     1      -5.112  16.227   0.522  1.00  0.00    -0.550 OA
ENDBRANCH   7   8
ENDBRANCH   6   7
ENDBRANCH   5   6
ENDBRANCH   4   5
ENDBRANCH   3   4
ENDBRANCH   2   3
ENDBRANCH   1   2
BRANCH   1  11
ATOM     11  C   UNL     1     -10.786  11.114   3.850  1.00  0.00     0.000 C 
BRANCH  11  12
ATOM     12  C   UNL     1     -11.221  11.466   5.287  1.00  0.00    -0.000 C 
BRANCH  12  13
ATOM     13  C   UNL     1     -12.120  10.419   5.970  1.00  0.00    -0.000 C 
BRANCH  13  14
ATOM     14  C   UNL     1     -12.698  10.910   7.305  1.00  0.00    -0.000 C 
BRANCH  14  15
ATOM     15  C   UNL     1     -11.579  11.224   8.307  1.00  0.00    -0.000 C 
BRANCH  15  16
ATOM     16  C   UNL     1     -11.640  12.665   8.841  1.00  0.00    -0.000 C 
BRANCH  16  17
ATOM     17  C   UNL     1     -10.257  13.337   8.965  1.00  0.00    -0.003 C 
ATOM     18  C   UNL     1     -10.352  14.775   9.479  1.00  0.00     0.004 C 
ENDBRANCH  16  17
ENDBRANCH  15  16
ENDBRANCH  14  15
ENDBRANCH  13  14
ENDBRANCH  12  13
ENDBRANCH  11  12
ENDBRANCH   1  11
TORSDOF 14
ENDMDL
MODEL 5
REMARK VINA RESULT:    -5.209      6.041      8.100
REMARK INTER + INTRA:         -10.710
REMARK INTER:                  -9.423
REMARK INTRA:                  -1.287
REMARK UNBOUND:                -1.237
REMARK SMILES CCCCCCCCCCCCCCCC(=O)[O-]
REMARK SMILES IDX 9 1 10 2 11 3 12 4 13 5 14 6 15 7 16 8 17 9 18 10 8 11 7 12
REMARK SMILES IDX 6 13 5 14 4 15 3 16 2 17 1 18
REMARK H PARENT
REMARK Flexibility Score: inf
ROOT
ATOM      1  C   UNL     1      -6.041   8.762   3.355  1.00  0.00     0.000 C 
ENDROOT
BRANCH   1   2
ATOM      2  C   UNL     1      -5.234   7.785   4.233  1.00  0.00     0.000 C 
BRANCH   2   3
ATOM      3  C   UNL     1      -3.720   8.067   4.298  1.00  0.00     0.000 C 
BRANCH   3   4
ATOM      4  C   UNL     1      -3.222   8.638   5.641  1.00  0.00     0.000 C 
BRANCH   4   5
ATOM      5  C   UNL     1      -4.333   9.114   6.599  1.00  0.00     0.000 C 
BRANCH   5   6
ATOM      6  C   UNL     1      -4.486   8.279   7.886  1.00  0.00     0.006 C 
BRANCH   6   7
ATOM      7  C   UNL     1      -5.633   7.256   7.847  1.00  0.00     0.053 C 
BRANCH   7   8
ATOM      8  C   UNL     1      -5.129   5.854   7.705  1.00  0.00     0.041 C 
ATOM      9  O   UNL     1      -5.911   4.880   7.860  1.00  0.00    -0.550 OA
ATOM     10  O   UNL     1      -3.801   5.622   7.369  1.00  0.00    -0.550 OA
ENDBRANCH   7   8
ENDBRANCH   6   7
ENDBRANCH   5   6
ENDBRANCH   4   5
ENDBRANCH   3   4
ENDBRANCH   2   3
ENDBRANCH   1   2
BRANCH   1  11
ATOM     11  C   UNL     1      -5.254   9.992   2.859  1.00  0.00     0.000 C 
BRANCH  11  12
ATOM     12  C   UNL     1      -5.567  11.309   3.598  1.00  0.00    -0.000 C 
BRANCH  12  13
ATOM     13  C   UNL     1      -6.362  12.342   2.779  1.00  0.00    -0.000 C 
BRANCH  13  14
ATOM     14  C   UNL     1      -7.645  12.802   3.485  1.00  0.00    -0.000 C 
BRANCH  14  15
ATOM     15  C   UNL     1      -8.811  11.852   3.182  1.00  0.00    -0.000 C 
BRANCH  15  16
ATOM     16  C   UNL     1     -10.135  12.308   3.817  1.00  0.00    -0.000 C 
BRANCH  16  17
ATOM     17  C   UNL     1     -10.971  11.149   4.401  1.00  0.00    -0.003 C 
ATOM     18  C   UNL     1     -11.339  11.378   5.868  1.00  0.00     0.004 C 
ENDBRANCH  16  17
ENDBRANCH  15  16
ENDBRANCH  14  15
ENDBRANCH  13  14
ENDBRANCH  12  13
ENDBRANCH  11  12
ENDBRANCH   1  11
TORSDOF 14
ENDMDL
MODEL 6
REMARK VINA RESULT:    -5.177      3.687      7.664
REMARK INTER + INTRA:         -10.651
REMARK INTER:                  -9.615
REMARK INTRA:                  -1.036
REMARK UNBOUND:                -1.237
REMARK SMILES CCCCCCCCCCCCCCCC(=O)[O-]
REMARK SMILES IDX 9 1 10 2 11 3 12 4 13 5 14 6 15 7 16 8 17 9 18 10 8 11 7 12
REMARK SMILES IDX 6 13 5 14 4 15 3 16 2 17 1 18
REMARK H PARENT
REMARK Flexibility Score: inf
ROOT
ATOM      1  C   UNL     1     -10.475  13.837   9.374  1.00  0.00     0.000 C 
ENDROOT
BRANCH   1   2
ATOM      2  C   UNL     1     -10.920  12.362   9.332  1.00  0.00     0.000 C 
BRANCH   2   3
ATOM      3  C   UNL     1     -12.111  12.068   8.397  1.00  0.00     0.000 C 
BRANCH   3   4
ATOM      4  C   UNL     1     -12.175  10.624   7.862  1.00  0.00     0.000 C 
BRANCH   4   5
ATOM      5  C   UNL     1     -11.979  10.483   6.339  1.00  0.00     0.000 C 
BRANCH   5   6
ATOM      6  C   UNL     1     -11.090  11.564   5.693  1.00  0.00     0.006 C 
BRANCH   6   7
ATOM      7  C   UNL     1     -10.957  11.446   4.165  1.00  0.00     0.053 C 
BRANCH   7   8
ATOM      8  C   UNL     1      -9.830  12.276   3.635  1.00  0.00     0.041 C 
ATOM      9  O   UNL     1      -9.262  11.959   2.557  1.00  0.00    -0.550 OA
ATOM     10  O   UNL     1      -9.428  13.419   4.314  1.00  0.00    -0.550 OA
ENDBRANCH   7   8
ENDBRANCH   6   7
ENDBRANCH   5   6
ENDBRANCH   4   5
ENDBRANCH   3   4
ENDBRANCH   2   3
ENDBRANCH   1   2
BRANCH   1  11
ATOM     11  C   UNL     1      -9.247  14.170   8.504  1.00  0.00     0.000 C 
BRANCH  11  12
ATOM     12  C   UNL     1      -8.036  14.738   9.272  1.00  0.00    -0.000 C 
BRANCH  12  13
ATOM     13  C   UNL     1      -8.302  15.075  10.751  1.00  0.00    -0.000 C 
BRANCH  13  14
ATOM     14  C   UNL     1      -7.370  14.322  11.711  1.00  0.00    -0.000 C 
BRANCH  14  15
ATOM     15  C   UNL     1      -7.698  12.823  11.733  1.00  0.00    -0.000 C 
BRANCH  15  16
ATOM     16  C   UNL     1      -7.871  12.270  13.158  1.00  0.00    -0.000 C 
BRANCH  16  17
ATOM     17  C   UNL     1      -6.934  11.087  13.480  1.00  0.00    -0.003 C 
ATOM     18  C   UNL     1      -6.285  10.500  12.225  1.00  0.00     0.004 C 
ENDBRANCH  16  17
ENDBRANCH  15  16
ENDBRANCH  14  15
ENDBRANCH  13  14
ENDBRANCH  12  13
ENDBRANCH  11  12
ENDBRANCH   1  11
TORSDOF 14
ENDMDL
MODEL 7
REMARK VINA RESULT:    -5.142      5.633      8.501
REMARK INTER + INTRA:         -10.587
REMARK INTER:                  -9.742
REMARK INTRA:                  -0.844
REMARK UNBOUND:                -1.237
REMARK SMILES CCCCCCCCCCCCCCCC(=O)[O-]
REMARK SMILES IDX 9 1 10 2 11 3 12 4 13 5 14 6 15 7 16 8 17 9 18 10 8 11 7 12
REMARK SMILES IDX 6 13 5 14 4 15 3 16 2 17 1 18
REMARK H PARENT
REMARK Flexibility Score: inf
ROOT
ATOM      1  C   UNL     1      -7.391  10.106   2.619  1.00  0.00     0.000 C 
ENDROOT
BRANCH   1   2
ATOM      2  C   UNL     1      -8.749  10.828   2.511  1.00  0.00     0.000 C 
BRANCH   2   3
ATOM      3  C   UNL     1      -8.811  12.204   3.205  1.00  0.00     0.000 C 
BRANCH   3   4
ATOM      4  C   UNL     1     -10.099  12.468   4.009  1.00  0.00     0.000 C 
BRANCH   4   5
ATOM      5  C   UNL     1     -10.849  11.203   4.474  1.00  0.00     0.000 C 
BRANCH   5   6
ATOM      6  C   UNL     1     -11.647  11.362   5.784  1.00  0.00     0.006 C 
BRANCH   6   7
ATOM      7  C   UNL     1     -12.322  10.071   6.276  1.00  0.00     0.053 C 
BRANCH   7   8
ATOM      8  C   UNL     1     -12.301   9.962   7.769  1.00  0.00     0.041 C 
ATOM      9  O   UNL     1     -11.819  10.893   8.466  1.00  0.00    -0.550 OA
ATOM     10  O   UNL     1     -12.845   8.846   8.393  1.00  0.00    -0.550 OA
ENDBRANCH   7   8
ENDBRANCH   6   7
ENDBRANCH   5   6
ENDBRANCH   4   5
ENDBRANCH   3   4
ENDBRANCH   2   3
ENDBRANCH   1   2
BRANCH   1  11
ATOM     11  C   UNL     1      -6.165  11.035   2.699  1.00  0.00     0.000 C 
BRANCH  11  12
ATOM     12  C   UNL     1      -5.206  10.752   3.874  1.00  0.00    -0.000 C 
BRANCH  12  13
ATOM     13  C   UNL     1      -4.493   9.389   3.818  1.00  0.00    -0.000 C 
BRANCH  13  14
ATOM     14  C   UNL     1      -4.976   8.418   4.905  1.00  0.00    -0.000 C 
BRANCH  14  15
ATOM     15  C   UNL     1      -3.893   8.201   5.970  1.00  0.00    -0.000 C 
BRANCH  15  16
ATOM     16  C   UNL     1      -4.468   7.766   7.329  1.00  0.00    -0.000 C 
BRANCH  16  17
ATOM     17  C   UNL     1      -4.617   8.926   8.336  1.00  0.00    -0.003 C 
ATOM     18  C   UNL     1      -3.693  10.101   8.013  1.00  0.00     0.004 C 
ENDBRANCH  16  17
ENDBRANCH  15  16
ENDBRANCH  14  15
ENDBRANCH  13  14
ENDBRANCH  12  13
ENDBRANCH  11  12
ENDBRANCH   1  11
TORSDOF 14
ENDMDL
MODEL 8
REMARK VINA RESULT:    -5.136      3.180      5.045
REMARK INTER + INTRA:         -10.576
REMARK INTER:                  -9.562
REMARK INTRA:                  -1.014
REMARK UNBOUND:                -1.237
REMARK SMILES CCCCCCCCCCCCCCCC(=O)[O-]
REMARK SMILES IDX 9 1 10 2 11 3 12 4 13 5 14 6 15 7 16 8 17 9 18 10 8 11 7 12
REMARK SMILES IDX 6 13 5 14 4 15 3 16 2 17 1 18
REMARK H PARENT
REMARK Flexibility Score: inf
ROOT
ATOM      1  C   UNL     1     -13.020  11.729   7.888  1.00  0.00     0.000 C 
ENDROOT
BRANCH   1   2
ATOM      2  C   UNL     1     -12.385  12.802   8.794  1.00  0.00     0.000 C 
BRANCH   2   3
ATOM      3  C   UNL     1     -10.898  12.573   9.131  1.00  0.00     0.000 C 
BRANCH   3   4
ATOM      4  C   UNL     1      -9.947  13.694   8.666  1.00  0.00     0.000 C 
BRANCH   4   5
ATOM      5  C   UNL     1     -10.110  15.037   9.405  1.00  0.00     0.000 C 
BRANCH   5   6
ATOM      6  C   UNL     1      -8.902  15.460  10.264  1.00  0.00     0.006 C 
BRANCH   6   7
ATOM      7  C   UNL     1      -7.694  14.513  10.170  1.00  0.00     0.053 C 
BRANCH   7   8
ATOM      8  C   UNL     1      -7.480  13.749  11.439  1.00  0.00     0.041 C 
ATOM      9  O   UNL     1      -6.649  14.156  12.292  1.00  0.00    -0.550 OA
ATOM     10  O   UNL     1      -8.224  12.604  11.695  1.00  0.00    -0.550 OA
ENDBRANCH   7   8
ENDBRANCH   6   7
ENDBRANCH   5   6
ENDBRANCH   4   5
ENDBRANCH   3   4
ENDBRANCH   2   3
ENDBRANCH   1   2
BRANCH   1  11
ATOM     11  C   UNL     1     -12.036  10.677   7.339  1.00  0.00     0.000 C 
BRANCH  11  12
ATOM     12  C   UNL     1     -12.656   9.641   6.380  1.00  0.00    -0.000 C 
BRANCH  12  13
ATOM     13  C   UNL     1     -13.447   8.511   7.064  1.00  0.00    -0.000 C 
BRANCH  13  14
ATOM     14  C   UNL     1     -13.014   8.276   8.518  1.00  0.00    -0.000 C 
BRANCH  14  15
ATOM     15  C   UNL     1     -14.221   7.932   9.402  1.00  0.00    -0.000 C 
BRANCH  15  16
ATOM     16  C   UNL     1     -15.332   7.196   8.636  1.00  0.00    -0.000 C 
BRANCH  16  17
ATOM     17  C   UNL     1     -15.221   5.659   8.712  1.00  0.00    -0.003 C 
ATOM     18  C   UNL     1     -14.979   5.024   7.343  1.00  0.00     0.004 C 
ENDBRANCH  16  17
ENDBRANCH  15  16
ENDBRANCH  14  15
ENDBRANCH  13  14
ENDBRANCH  12  13
ENDBRANCH  11  12
ENDBRANCH   1  11
TORSDOF 14
ENDMDL
MODEL 9
REMARK VINA RESULT:    -5.111      5.907      7.873
REMARK INTER + INTRA:         -10.532
REMARK INTER:                  -9.423
REMARK INTRA:                  -1.109
REMARK UNBOUND:                -1.237
REMARK SMILES CCCCCCCCCCCCCCCC(=O)[O-]
REMARK SMILES IDX 9 1 10 2 11 3 12 4 13 5 14 6 15 7 16 8 17 9 18 10 8 11 7 12
REMARK SMILES IDX 6 13 5 14 4 15 3 16 2 17 1 18
REMARK H PARENT
REMARK Flexibility Score: inf
ROOT
ATOM      1  C   UNL     1      -5.962  10.872   3.255  1.00  0.00     0.000 C 
ENDROOT
BRANCH   1   2
ATOM      2  C   UNL     1      -6.770   9.699   2.667  1.00  0.00     0.000 C 
BRANCH   2   3
ATOM      3  C   UNL     1      -6.054   8.333   2.704  1.00  0.00     0.000 C 
BRANCH   3   4
ATOM      4  C   UNL     1      -4.972   8.197   3.794  1.00  0.00     0.000 C 
BRANCH   4   5
ATOM      5  C   UNL     1      -5.487   7.732   5.171  1.00  0.00     0.000 C 
BRANCH   5   6
ATOM      6  C   UNL     1      -4.696   8.272   6.379  1.00  0.00     0.006 C 
BRANCH   6   7
ATOM      7  C   UNL     1      -5.223   7.801   7.745  1.00  0.00     0.053 C 
BRANCH   7   8
ATOM      8  C   UNL     1      -5.315   6.309   7.826  1.00  0.00     0.041 C 
ATOM      9  O   UNL     1      -6.404   5.756   8.131  1.00  0.00    -0.550 OA
ATOM     10  O   UNL     1      -4.205   5.526   7.532  1.00  0.00    -0.550 OA
ENDBRANCH   7   8
ENDBRANCH   6   7
ENDBRANCH   5   6
ENDBRANCH   4   5
ENDBRANCH   3   4
ENDBRANCH   2   3
ENDBRANCH   1   2
BRANCH   1  11
ATOM     11  C   UNL     1      -6.144  12.217   2.525  1.00  0.00     0.000 C 
BRANCH  11  12
ATOM     12  C   UNL     1      -7.577  12.786   2.550  1.00  0.00    -0.000 C 
BRANCH  12  13
ATOM     13  C   UNL     1      -7.960  13.531   3.842  1.00  0.00    -0.000 C 
BRANCH  13  14
ATOM     14  C   UNL     1      -9.359  13.157   4.353  1.00  0.00    -0.000 C 
BRANCH  14  15
ATOM     15  C   UNL     1     -10.047  12.169   3.401  1.00  0.00    -0.000 C 
BRANCH  15  16
ATOM     16  C   UNL     1     -10.879  11.108   4.140  1.00  0.00    -0.000 C 
BRANCH  16  17
ATOM     17  C   UNL     1     -11.068  11.406   5.642  1.00  0.00    -0.003 C 
ATOM     18  C   UNL     1     -12.213  10.601   6.256  1.00  0.00     0.004 C 
ENDBRANCH  16  17
ENDBRANCH  15  16
ENDBRANCH  14  15
ENDBRANCH  13  14
ENDBRANCH  12  13
ENDBRANCH  11  12
ENDBRANCH   1  11
TORSDOF 14
ENDMDL
