MODEL 1
REMARK VINA RESULT:    -5.217      0.000      0.000
REMARK INTER + INTRA:         -10.768
REMARK INTER:                  -9.487
REMARK INTRA:                  -1.281
REMARK UNBOUND:                -1.281
REMARK SMILES CCCCCCCCCCCCCCCC(=O)[O-]
REMARK SMILES IDX 9 1 10 2 11 3 12 4 13 5 14 6 15 7 16 8 17 9 18 10 8 11 7 12
REMARK SMILES IDX 6 13 5 14 4 15 3 16 2 17 1 18
REMARK H PARENT
REMARK Flexibility Score: inf
ROOT
ATOM      1  C   UNL     1      42.416  -0.829  18.224  1.00  0.00     0.000 C 
ENDROOT
BRANCH   1   2
ATOM      2  C   UNL     1      41.821  -0.840  16.801  1.00  0.00     0.000 C 
BRANCH   2   3
ATOM      3  C   UNL     1      41.636   0.548  16.160  1.00  0.00     0.000 C 
BRANCH   3   4
ATOM      4  C   UNL     1      41.438   0.481  14.639  1.00  0.00     0.000 C 
BRANCH   4   5
ATOM      5  C   UNL     1      41.303   1.886  14.041  1.00  0.00     0.000 C 
BRANCH   5   6
ATOM      6  C   UNL     1      40.356   2.754  14.883  1.00  0.00     0.006 C 
BRANCH   6   7
ATOM      7  C   UNL     1      39.139   3.233  14.081  1.00  0.00     0.053 C 
BRANCH   7   8
ATOM      8  C   UNL     1      39.538   3.796  12.751  1.00  0.00     0.041 C 
ATOM      9  O   UNL     1      40.157   4.892  12.686  1.00  0.00    -0.550 OA
ATOM     10  O   UNL     1      39.197   3.127  11.582  1.00  0.00    -0.550 OA
ENDBRANCH   7   8
ENDBRANCH   6   7
ENDBRANCH   5   6
ENDBRANCH   4   5
ENDBRANCH   3   4
ENDBRANCH   2   3
ENDBRANCH   1   2
BRANCH   1  11
ATOM     11  C   UNL     1      42.722   0.568  18.792  1.00  0.00     0.000 C 
BRANCH  11  12
ATOM     12  C   UNL     1      43.422   0.517  20.159  1.00  0.00    -0.000 C 
BRANCH  12  13
ATOM     13  C   UNL     1      42.771   1.501  21.144  1.00  0.00    -0.000 C 
BRANCH  13  14
ATOM     14  C   UNL     1      43.706   2.658  21.532  1.00  0.00    -0.000 C 
BRANCH  14  15
ATOM     15  C   UNL     1      43.752   3.763  20.463  1.00  0.00    -0.000 C 
BRANCH  15  16
ATOM     16  C   UNL     1      42.440   4.565  20.375  1.00  0.00    -0.000 C 
BRANCH  16  17
ATOM     17  C   UNL     1      41.876   4.735  18.954  1.00  0.00    -0.003 C 
ATOM     18  C   UNL     1      40.970   3.580  18.527  1.00  0.00     0.004 C 
ENDBRANCH  16  17
ENDBRANCH  15  16
ENDBRANCH  14  15
ENDBRANCH  13  14
ENDBRANCH  12  13
ENDBRANCH  11  12
ENDBRANCH   1  11
TORSDOF 14
ENDMDL
MODEL 2
REMARK VINA RESULT:    -4.945      2.590      3.728
REMARK INTER + INTRA:         -10.274
REMARK INTER:                  -9.742
REMARK INTRA:                  -0.531
REMARK UNBOUND:                -1.281
REMARK SMILES CCCCCCCCCCCCCCCC(=O)[O-]
REMARK SMILES IDX 9 1 10 2 11 3 12 4 13 5 14 6 15 7 16 8 17 9 18 10 8 11 7 12
REMARK SMILES IDX 6 13 5 14 4 15 3 16 2 17 1 18
REMARK H PARENT
REMARK Flexibility Score: inf
ROOT
ATOM      1  C   UNL     1      41.107   3.343  18.351  1.00  0.00     0.000 C 
ENDROOT
BRANCH   1   2
ATOM      2  C   UNL     1      41.966   2.069  18.218  1.00  0.00     0.000 C 
BRANCH   2   3
ATOM      3  C   UNL     1      41.632   1.181  17.005  1.00  0.00     0.000 C 
BRANCH   3   4
ATOM      4  C   UNL     1      40.990   1.964  15.851  1.00  0.00     0.000 C 
BRANCH   4   5
ATOM      5  C   UNL     1      41.328   1.324  14.499  1.00  0.00     0.000 C 
BRANCH   5   6
ATOM      6  C   UNL     1      41.181   2.341  13.357  1.00  0.00     0.006 C 
BRANCH   6   7
ATOM      7  C   UNL     1      39.997   3.292  13.575  1.00  0.00     0.053 C 
BRANCH   7   8
ATOM      8  C   UNL     1      39.604   3.989  12.308  1.00  0.00     0.041 C 
ATOM      9  O   UNL     1      38.914   3.389  11.442  1.00  0.00    -0.550 OA
ATOM     10  O   UNL     1      40.030   5.289  12.069  1.00  0.00    -0.550 OA
ENDBRANCH   7   8
ENDBRANCH   6   7
ENDBRANCH   5   6
ENDBRANCH   4   5
ENDBRANCH   3   4
ENDBRANCH   2   3
ENDBRANCH   1   2
BRANCH   1  11
ATOM     11  C   UNL     1      41.891   4.627  18.681  1.00  0.00     0.000 C 
BRANCH  11  12
ATOM     12  C   UNL     1      42.285   4.721  20.162  1.00  0.00    -0.000 C 
BRANCH  12  13
ATOM     13  C   UNL     1      43.703   5.294  20.315  1.00  0.00    -0.000 C 
BRANCH  13  14
ATOM     14  C   UNL     1      43.733   6.830  20.266  1.00  0.00    -0.000 C 
BRANCH  14  15
ATOM     15  C   UNL     1      43.721   7.374  18.828  1.00  0.00    -0.000 C 
BRANCH  15  16
ATOM     16  C   UNL     1      43.733   8.913  18.771  1.00  0.00    -0.000 C 
BRANCH  16  17
ATOM     17  C   UNL     1      45.125   9.558  18.898  1.00  0.00    -0.003 C 
ATOM     18  C   UNL     1      46.163   8.930  17.969  1.00  0.00     0.004 C 
ENDBRANCH  16  17
ENDBRANCH  15  16
ENDBRANCH  14  15
ENDBRANCH  13  14
ENDBRANCH  12  13
ENDBRANCH  11  12
ENDBRANCH   1  11
TORSDOF 14
ENDMDL
MODEL 3
REMARK VINA RESULT:    -4.931      1.474      2.556
REMARK INTER + INTRA:         -10.247
REMARK INTER:                  -9.066
REMARK INTRA:                  -1.181
REMARK UNBOUND:                -1.281
REMARK SMILES CCCCCCCCCCCCCCCC(=O)[O-]
REMARK SMILES IDX 9 1 10 2 11 3 12 4 13 5 14 6 15 7 16 8 17 9 18 10 8 11 7 12
REMARK SMILES IDX 6 13 5 14 4 15 3 16 2 17 1 18
REMARK H PARENT
REMARK Flexibility Score: inf
ROOT
ATOM      1  C   UNL     1      42.614   2.015  19.117  1.00  0.00     0.000 C 
ENDROOT
BRANCH   1   2
ATOM      2  C   UNL     1      41.661   1.972  17.904  1.00  0.00     0.000 C 
BRANCH   2   3
ATOM      3  C   UNL     1      41.725   0.680  17.069  1.00  0.00     0.000 C 
BRANCH   3   4
ATOM      4  C   UNL     1      41.356   0.903  15.595  1.00  0.00     0.000 C 
BRANCH   4   5
ATOM      5  C   UNL     1      40.717   2.282  15.392  1.00  0.00     0.000 C 
BRANCH   5   6
ATOM      6  C   UNL     1      40.557   2.599  13.897  1.00  0.00     0.006 C 
BRANCH   6   7
ATOM      7  C   UNL     1      39.727   3.867  13.659  1.00  0.00     0.053 C 
BRANCH   7   8
ATOM      8  C   UNL     1      39.650   4.215  12.203  1.00  0.00     0.041 C 
ATOM      9  O   UNL     1      39.143   3.405  11.384  1.00  0.00    -0.550 OA
ATOM     10  O   UNL     1      40.170   5.421  11.749  1.00  0.00    -0.550 OA
ENDBRANCH   7   8
ENDBRANCH   6   7
ENDBRANCH   5   6
ENDBRANCH   4   5
ENDBRANCH   3   4
ENDBRANCH   2   3
ENDBRANCH   1   2
BRANCH   1  11
ATOM     11  C   UNL     1      43.344   0.694  19.419  1.00  0.00     0.000 C 
BRANCH  11  12
ATOM     12  C   UNL     1      43.505   0.432  20.924  1.00  0.00    -0.000 C 
BRANCH  12  13
ATOM     13  C   UNL     1      42.739   1.480  21.747  1.00  0.00    -0.000 C 
BRANCH  13  14
ATOM     14  C   UNL     1      43.399   1.768  23.105  1.00  0.00    -0.000 C 
BRANCH  14  15
ATOM     15  C   UNL     1      44.741   2.506  22.964  1.00  0.00    -0.000 C 
BRANCH  15  16
ATOM     16  C   UNL     1      44.631   3.790  22.120  1.00  0.00    -0.000 C 
BRANCH  16  17
ATOM     17  C   UNL     1      45.443   3.780  20.812  1.00  0.00    -0.003 C 
ATOM     18  C   UNL     1      46.952   3.730  21.045  1.00  0.00     0.004 C 
ENDBRANCH  16  17
ENDBRANCH  15  16
ENDBRANCH  14  15
ENDBRANCH  13  14
ENDBRANCH  12  13
ENDBRANCH  11  12
ENDBRANCH   1  11
TORSDOF 14
ENDMDL
MODEL 4
REMARK VINA RESULT:    -4.923      3.751      7.466
REMARK INTER + INTRA:         -10.234
REMARK INTER:                  -9.143
REMARK INTRA:                  -1.091
REMARK UNBOUND:                -1.281
REMARK SMILES CCCCCCCCCCCCCCCC(=O)[O-]
REMARK SMILES IDX 9 1 10 2 11 3 12 4 13 5 14 6 15 7 16 8 17 9 18 10 8 11 7 12
REMARK SMILES IDX 6 13 5 14 4 15 3 16 2 17 1 18
REMARK H PARENT
REMARK Flexibility Score: inf
ROOT
ATOM      1  C   UNL     1      41.452   2.956  19.097  1.00  0.00     0.000 C 
ENDROOT
BRANCH   1   2
ATOM      2  C   UNL     1      41.596   4.472  18.851  1.00  0.00     0.000 C 
BRANCH   2   3
ATOM      3  C   UNL     1      42.784   5.140  19.567  1.00  0.00     0.000 C 
BRANCH   3   4
ATOM      4  C   UNL     1      43.378   4.264  20.680  1.00  0.00     0.000 C 
BRANCH   4   5
ATOM      5  C   UNL     1      44.900   4.431  20.756  1.00  0.00     0.000 C 
BRANCH   5   6
ATOM      6  C   UNL     1      45.587   3.087  21.044  1.00  0.00     0.006 C 
BRANCH   6   7
ATOM      7  C   UNL     1      45.044   1.957  20.160  1.00  0.00     0.053 C 
BRANCH   7   8
ATOM      8  C   UNL     1      44.514   0.819  20.978  1.00  0.00     0.041 C 
ATOM      9  O   UNL     1      45.195   0.349  21.927  1.00  0.00    -0.550 OA
ATOM     10  O   UNL     1      43.281   0.257  20.670  1.00  0.00    -0.550 OA
ENDBRANCH   7   8
ENDBRANCH   6   7
ENDBRANCH   5   6
ENDBRANCH   4   5
ENDBRANCH   3   4
ENDBRANCH   2   3
ENDBRANCH   1   2
BRANCH   1  11
ATOM     11  C   UNL     1      41.974   2.058  17.961  1.00  0.00     0.000 C 
BRANCH  11  12
ATOM     12  C   UNL     1      41.214   2.262  16.642  1.00  0.00    -0.000 C 
BRANCH  12  13
ATOM     13  C   UNL     1      41.280   0.997  15.771  1.00  0.00    -0.000 C 
BRANCH  13  14
ATOM     14  C   UNL     1      41.274   1.310  14.266  1.00  0.00    -0.000 C 
BRANCH  14  15
ATOM     15  C   UNL     1      41.013   2.797  13.974  1.00  0.00    -0.000 C 
BRANCH  15  16
ATOM     16  C   UNL     1      39.581   3.066  13.477  1.00  0.00    -0.000 C 
BRANCH  16  17
ATOM     17  C   UNL     1      39.487   3.751  12.102  1.00  0.00    -0.003 C 
ATOM     18  C   UNL     1      40.108   5.147  12.085  1.00  0.00     0.004 C 
ENDBRANCH  16  17
ENDBRANCH  15  16
ENDBRANCH  14  15
ENDBRANCH  13  14
ENDBRANCH  12  13
ENDBRANCH  11  12
ENDBRANCH   1  11
TORSDOF 14
ENDMDL
MODEL 5
REMARK VINA RESULT:    -4.897      4.418      8.310
REMARK INTER + INTRA:         -10.187
REMARK INTER:                  -9.422
REMARK INTRA:                  -0.765
REMARK UNBOUND:                -1.281
REMARK SMILES CCCCCCCCCCCCCCCC(=O)[O-]
REMARK SMILES IDX 9 1 10 2 11 3 12 4 13 5 14 6 15 7 16 8 17 9 18 10 8 11 7 12
REMARK SMILES IDX 6 13 5 14 4 15 3 16 2 17 1 18
REMARK H PARENT
REMARK Flexibility Score: inf
ROOT
ATOM      1  C   UNL     1      42.419   2.730  18.674  1.00  0.00     0.000 C 
ENDROOT
BRANCH   1   2
ATOM      2  C   UNL     1      42.543   2.187  20.113  1.00  0.00     0.000 C 
BRANCH   2   3
ATOM      3  C   UNL     1      42.903   3.239  21.178  1.00  0.00     0.000 C 
BRANCH   3   4
ATOM      4  C   UNL     1      43.854   2.697  22.255  1.00  0.00     0.000 C 
BRANCH   4   5
ATOM      5  C   UNL     1      43.084   2.306  23.521  1.00  0.00     0.000 C 
BRANCH   5   6
ATOM      6  C   UNL     1      43.713   1.074  24.189  1.00  0.00     0.006 C 
BRANCH   6   7
ATOM      7  C   UNL     1      44.766   0.404  23.297  1.00  0.00     0.053 C 
BRANCH   7   8
ATOM      8  C   UNL     1      44.242  -0.852  22.669  1.00  0.00     0.041 C 
ATOM      9  O   UNL     1      43.676  -0.812  21.545  1.00  0.00    -0.550 OA
ATOM     10  O   UNL     1      44.350  -2.063  23.343  1.00  0.00    -0.550 OA
ENDBRANCH   7   8
ENDBRANCH   6   7
ENDBRANCH   5   6
ENDBRANCH   4   5
ENDBRANCH   3   4
ENDBRANCH   2   3
ENDBRANCH   1   2
BRANCH   1  11
ATOM     11  C   UNL     1      41.202   2.214  17.885  1.00  0.00     0.000 C 
BRANCH  11  12
ATOM     12  C   UNL     1      41.573   1.143  16.848  1.00  0.00    -0.000 C 
BRANCH  12  13
ATOM     13  C   UNL     1      41.115   1.562  15.442  1.00  0.00    -0.000 C 
BRANCH  13  14
ATOM     14  C   UNL     1      40.400   2.923  15.430  1.00  0.00    -0.000 C 
BRANCH  14  15
ATOM     15  C   UNL     1      39.294   2.998  14.364  1.00  0.00    -0.000 C 
BRANCH  15  16
ATOM     16  C   UNL     1      39.840   2.897  12.927  1.00  0.00    -0.000 C 
BRANCH  16  17
ATOM     17  C   UNL     1      39.271   3.932  11.941  1.00  0.00    -0.003 C 
ATOM     18  C   UNL     1      40.080   5.228  11.900  1.00  0.00     0.004 C 
ENDBRANCH  16  17
ENDBRANCH  15  16
ENDBRANCH  14  15
ENDBRANCH  13  14
ENDBRANCH  12  13
ENDBRANCH  11  12
ENDBRANCH   1  11
TORSDOF 14
ENDMDL
MODEL 6
REMARK VINA RESULT:    -4.868      2.517      6.445
REMARK INTER + INTRA:         -10.134
REMARK INTER:                  -9.204
REMARK INTRA:                  -0.929
REMARK UNBOUND:                -1.281
REMARK SMILES CCCCCCCCCCCCCCCC(=O)[O-]
REMARK SMILES IDX 9 1 10 2 11 3 12 4 13 5 14 6 15 7 16 8 17 9 18 10 8 11 7 12
REMARK SMILES IDX 6 13 5 14 4 15 3 16 2 17 1 18
REMARK H PARENT
REMARK Flexibility Score: inf
ROOT
ATOM      1  C   UNL     1      42.946   0.188  18.631  1.00  0.00     0.000 C 
ENDROOT
BRANCH   1   2
ATOM      2  C   UNL     1      43.277   1.021  19.886  1.00  0.00     0.000 C 
BRANCH   2   3
ATOM      3  C   UNL     1      44.760   1.408  20.040  1.00  0.00     0.000 C 
BRANCH   3   4
ATOM      4  C   UNL     1      45.000   2.413  21.177  1.00  0.00     0.000 C 
BRANCH   4   5
ATOM      5  C   UNL     1      43.722   3.200  21.492  1.00  0.00     0.000 C 
BRANCH   5   6
ATOM      6  C   UNL     1      43.832   4.649  20.993  1.00  0.00     0.006 C 
BRANCH   6   7
ATOM      7  C   UNL     1      42.458   5.272  20.714  1.00  0.00     0.053 C 
BRANCH   7   8
ATOM      8  C   UNL     1      42.153   5.309  19.247  1.00  0.00     0.041 C 
ATOM      9  O   UNL     1      41.687   4.291  18.670  1.00  0.00    -0.550 OA
ATOM     10  O   UNL     1      42.415   6.458  18.512  1.00  0.00    -0.550 OA
ENDBRANCH   7   8
ENDBRANCH   6   7
ENDBRANCH   5   6
ENDBRANCH   4   5
ENDBRANCH   3   4
ENDBRANCH   2   3
ENDBRANCH   1   2
BRANCH   1  11
ATOM     11  C   UNL     1      41.939   0.836  17.665  1.00  0.00     0.000 C 
BRANCH  11  12
ATOM     12  C   UNL     1      41.724   0.013  16.386  1.00  0.00    -0.000 C 
BRANCH  12  13
ATOM     13  C   UNL     1      41.261   0.911  15.228  1.00  0.00    -0.000 C 
BRANCH  13  14
ATOM     14  C   UNL     1      40.770   2.288  15.704  1.00  0.00    -0.000 C 
BRANCH  14  15
ATOM     15  C   UNL     1      39.994   3.046  14.613  1.00  0.00    -0.000 C 
BRANCH  15  16
ATOM     16  C   UNL     1      40.473   2.702  13.190  1.00  0.00    -0.000 C 
BRANCH  16  17
ATOM     17  C   UNL     1      39.507   3.107  12.063  1.00  0.00    -0.003 C 
ATOM     18  C   UNL     1      39.496   4.612  11.795  1.00  0.00     0.004 C 
ENDBRANCH  16  17
ENDBRANCH  15  16
ENDBRANCH  14  15
ENDBRANCH  13  14
ENDBRANCH  12  13
ENDBRANCH  11  12
ENDBRANCH   1  11
TORSDOF 14
ENDMDL
MODEL 7
REMARK VINA RESULT:    -4.810      1.805      2.529
REMARK INTER + INTRA:         -10.029
REMARK INTER:                  -9.004
REMARK INTRA:                  -1.025
REMARK UNBOUND:                -1.281
REMARK SMILES CCCCCCCCCCCCCCCC(=O)[O-]
REMARK SMILES IDX 9 1 10 2 11 3 12 4 13 5 14 6 15 7 16 8 17 9 18 10 8 11 7 12
REMARK SMILES IDX 6 13 5 14 4 15 3 16 2 17 1 18
REMARK H PARENT
REMARK Flexibility Score: inf
ROOT
ATOM      1  C   UNL     1      42.819   0.621  18.185  1.00  0.00     0.000 C 
ENDROOT
BRANCH   1   2
ATOM      2  C   UNL     1      41.538   0.624  17.326  1.00  0.00     0.000 C 
BRANCH   2   3
ATOM      3  C   UNL     1      41.733   0.187  15.862  1.00  0.00     0.000 C 
BRANCH   3   4
ATOM      4  C   UNL     1      41.279   1.254  14.855  1.00  0.00     0.000 C 
BRANCH   4   5
ATOM      5  C   UNL     1      40.513   2.381  15.558  1.00  0.00     0.000 C 
BRANCH   5   6
ATOM      6  C   UNL     1      40.004   3.416  14.544  1.00  0.00     0.006 C 
BRANCH   6   7
ATOM      7  C   UNL     1      40.251   2.978  13.094  1.00  0.00     0.053 C 
BRANCH   7   8
ATOM      8  C   UNL     1      39.621   3.922  12.115  1.00  0.00     0.041 C 
ATOM      9  O   UNL     1      39.953   5.136  12.101  1.00  0.00    -0.550 OA
ATOM     10  O   UNL     1      38.644   3.465  11.240  1.00  0.00    -0.550 OA
ENDBRANCH   7   8
ENDBRANCH   6   7
ENDBRANCH   5   6
ENDBRANCH   4   5
ENDBRANCH   3   4
ENDBRANCH   2   3
ENDBRANCH   1   2
BRANCH   1  11
ATOM     11  C   UNL     1      43.087   1.923  18.961  1.00  0.00     0.000 C 
BRANCH  11  12
ATOM     12  C   UNL     1      41.842   2.816  19.077  1.00  0.00    -0.000 C 
BRANCH  12  13
ATOM     13  C   UNL     1      42.228   4.302  19.031  1.00  0.00    -0.000 C 
BRANCH  13  14
ATOM     14  C   UNL     1      41.961   5.027  20.360  1.00  0.00    -0.000 C 
BRANCH  14  15
ATOM     15  C   UNL     1      42.783   6.319  20.502  1.00  0.00    -0.000 C 
BRANCH  15  16
ATOM     16  C   UNL     1      43.653   6.613  19.266  1.00  0.00    -0.000 C 
BRANCH  16  17
ATOM     17  C   UNL     1      43.400   7.978  18.601  1.00  0.00    -0.003 C 
ATOM     18  C   UNL     1      44.674   8.802  18.423  1.00  0.00     0.004 C 
ENDBRANCH  16  17
ENDBRANCH  15  16
ENDBRANCH  14  15
ENDBRANCH  13  14
ENDBRANCH  12  13
ENDBRANCH  11  12
ENDBRANCH   1  11
TORSDOF 14
ENDMDL
MODEL 8
REMARK VINA RESULT:    -4.808      4.684      6.764
REMARK INTER + INTRA:         -10.025
REMARK INTER:                  -8.743
REMARK INTRA:                  -1.282
REMARK UNBOUND:                -1.281
REMARK SMILES CCCCCCCCCCCCCCCC(=O)[O-]
REMARK SMILES IDX 9 1 10 2 11 3 12 4 13 5 14 6 15 7 16 8 17 9 18 10 8 11 7 12
REMARK SMILES IDX 6 13 5 14 4 15 3 16 2 17 1 18
REMARK H PARENT
REMARK Flexibility Score: inf
ROOT
ATOM      1  C   UNL     1      41.398   0.119  14.843  1.00  0.00     0.000 C 
ENDROOT
BRANCH   1   2
ATOM      2  C   UNL     1      42.327  -0.877  15.569  1.00  0.00     0.000 C 
BRANCH   2   3
ATOM      3  C   UNL     1      41.823  -2.331  15.605  1.00  0.00     0.000 C 
BRANCH   3   4
ATOM      4  C   UNL     1      40.968  -2.635  16.844  1.00  0.00     0.000 C 
BRANCH   4   5
ATOM      5  C   UNL     1      41.552  -1.964  18.092  1.00  0.00     0.000 C 
BRANCH   5   6
ATOM      6  C   UNL     1      42.743  -2.763  18.641  1.00  0.00     0.006 C 
BRANCH   6   7
ATOM      7  C   UNL     1      42.312  -4.108  19.242  1.00  0.00     0.053 C 
BRANCH   7   8
ATOM      8  C   UNL     1      43.440  -4.778  19.967  1.00  0.00     0.041 C 
ATOM      9  O   UNL     1      43.890  -5.881  19.558  1.00  0.00    -0.550 OA
ATOM     10  O   UNL     1      43.970  -4.200  21.114  1.00  0.00    -0.550 OA
ENDBRANCH   7   8
ENDBRANCH   6   7
ENDBRANCH   5   6
ENDBRANCH   4   5
ENDBRANCH   3   4
ENDBRANCH   2   3
ENDBRANCH   1   2
BRANCH   1  11
ATOM     11  C   UNL     1      41.232   1.482  15.539  1.00  0.00     0.000 C 
BRANCH  11  12
ATOM     12  C   UNL     1      41.496   1.417  17.051  1.00  0.00    -0.000 C 
BRANCH  12  13
ATOM     13  C   UNL     1      41.231   2.778  17.711  1.00  0.00    -0.000 C 
BRANCH  13  14
ATOM     14  C   UNL     1      42.023   2.970  19.015  1.00  0.00    -0.000 C 
BRANCH  14  15
ATOM     15  C   UNL     1      42.894   1.751  19.361  1.00  0.00    -0.000 C 
BRANCH  15  16
ATOM     16  C   UNL     1      43.560   1.865  20.745  1.00  0.00    -0.000 C 
BRANCH  16  17
ATOM     17  C   UNL     1      43.030   0.884  21.806  1.00  0.00    -0.003 C 
ATOM     18  C   UNL     1      43.868  -0.389  21.916  1.00  0.00     0.004 C 
ENDBRANCH  16  17
ENDBRANCH  15  16
ENDBRANCH  14  15
ENDBRANCH  13  14
ENDBRANCH  12  13
ENDBRANCH  11  12
ENDBRANCH   1  11
TORSDOF 14
ENDMDL
MODEL 9
REMARK VINA RESULT:    -4.697      3.585      7.069
REMARK INTER + INTRA:          -9.823
REMARK INTER:                  -9.101
REMARK INTRA:                  -0.722
REMARK UNBOUND:                -1.281
REMARK SMILES CCCCCCCCCCCCCCCC(=O)[O-]
REMARK SMILES IDX 9 1 10 2 11 3 12 4 13 5 14 6 15 7 16 8 17 9 18 10 8 11 7 12
REMARK SMILES IDX 6 13 5 14 4 15 3 16 2 17 1 18
REMARK H PARENT
REMARK Flexibility Score: inf
ROOT
ATOM      1  C   UNL     1      42.881   1.902  18.822  1.00  0.00     0.000 C 
ENDROOT
BRANCH   1   2
ATOM      2  C   UNL     1      42.679   2.560  20.203  1.00  0.00     0.000 C 
BRANCH   2   3
ATOM      3  C   UNL     1      43.879   3.375  20.719  1.00  0.00     0.000 C 
BRANCH   3   4
ATOM      4  C   UNL     1      43.774   4.869  20.382  1.00  0.00     0.000 C 
BRANCH   4   5
ATOM      5  C   UNL     1      42.454   5.180  19.668  1.00  0.00     0.000 C 
BRANCH   5   6
ATOM      6  C   UNL     1      42.495   6.570  19.016  1.00  0.00     0.006 C 
BRANCH   6   7
ATOM      7  C   UNL     1      43.897   7.191  19.061  1.00  0.00     0.053 C 
BRANCH   7   8
ATOM      8  C   UNL     1      43.887   8.536  19.724  1.00  0.00     0.041 C 
ATOM      9  O   UNL     1      43.560   8.643  20.935  1.00  0.00    -0.550 OA
ATOM     10  O   UNL     1      44.206   9.673  18.993  1.00  0.00    -0.550 OA
ENDBRANCH   7   8
ENDBRANCH   6   7
ENDBRANCH   5   6
ENDBRANCH   4   5
ENDBRANCH   3   4
ENDBRANCH   2   3
ENDBRANCH   1   2
BRANCH   1  11
ATOM     11  C   UNL     1      41.725   2.105  17.827  1.00  0.00     0.000 C 
BRANCH  11  12
ATOM     12  C   UNL     1      41.585   0.946  16.829  1.00  0.00    -0.000 C 
BRANCH  12  13
ATOM     13  C   UNL     1      41.179   1.465  15.441  1.00  0.00    -0.000 C 
BRANCH  13  14
ATOM     14  C   UNL     1      40.453   2.819  15.501  1.00  0.00    -0.000 C 
BRANCH  14  15
ATOM     15  C   UNL     1      39.580   3.075  14.262  1.00  0.00    -0.000 C 
BRANCH  15  16
ATOM     16  C   UNL     1      40.392   3.567  13.049  1.00  0.00    -0.000 C 
BRANCH  16  17
ATOM     17  C   UNL     1      39.600   4.415  12.037  1.00  0.00    -0.003 C 
ATOM     18  C   UNL     1      38.416   3.667  11.426  1.00  0.00     0.004 C 
ENDBRANCH  16  17
ENDBRANCH  15  16
ENDBRANCH  14  15
ENDBRANCH  13  14
ENDBRANCH  12  13
ENDBRANCH  11  12
ENDBRANCH   1  11
TORSDOF 14
ENDMDL
