MODEL 1
REMARK VINA RESULT:    -6.318      0.000      0.000
REMARK INTER + INTRA:         -10.688
REMARK INTER:                  -8.718
REMARK INTRA:                  -1.970
REMARK UNBOUND:                -1.970
REMARK SMILES CC[C@@H](CC[C@H](C)[C@H]1CC[C@H]2C3=CC[C@H]4C[C@H](O)CC[C@@]4(C)[C@H]3CC[C@@]12C)C(C)C
REMARK SMILES IDX 5 1 4 2 3 3 2 4 1 5 28 6 29 7 30 8 6 9 7 10 8 11 9 12 26 13
REMARK SMILES IDX 10 14 11 15 25 16 27 17 12 18 24 19 23 20 13 21 21 22 14 23
REMARK SMILES IDX 15 24 20 25 22 26 16 27 19 28 17 29 18 30
REMARK H PARENT 18 31
REMARK Flexibility Score: inf
ROOT
ATOM      1  C   UNL     1     136.779 132.364 149.315  1.00  0.00     0.004 C 
ENDROOT
BRANCH   1   2
ATOM      2  C   UNL     1     137.034 131.409 150.510  1.00  0.00     0.004 C 
BRANCH   2   3
ATOM      3  C   UNL     1     136.176 130.100 150.459  1.00  0.00    -0.009 C 
BRANCH   3   4
ATOM      4  C   UNL     1     137.032 128.875 150.920  1.00  0.00     0.000 C 
ATOM      5  C   UNL     1     138.525 129.200 151.017  1.00  0.00     0.004 C 
ENDBRANCH   3   4
BRANCH   3   6
ATOM      6  C   UNL     1     135.564 129.871 149.030  1.00  0.00    -0.014 C 
ATOM      7  C   UNL     1     134.158 129.245 149.083  1.00  0.00     0.007 C 
ATOM      8  C   UNL     1     136.455 128.980 148.146  1.00  0.00     0.007 C 
ENDBRANCH   3   6
ENDBRANCH   2   3
ENDBRANCH   1   2
BRANCH   1   9
ATOM      9  C   UNL     1     138.051 132.729 148.500  1.00  0.00    -0.011 C 
ATOM     10  C   UNL     1     137.876 132.267 147.035  1.00  0.00     0.008 C 
BRANCH   9  11
ATOM     11  C   UNL     1     139.344 132.093 149.140  1.00  0.00    -0.002 C 
ATOM     12  C   UNL     1     140.084 131.156 148.176  1.00  0.00     0.005 C 
ATOM     13  C   UNL     1     140.473 133.049 149.692  1.00  0.00    -0.023 C 
ATOM     14  C   UNL     1     141.429 130.912 148.818  1.00  0.00     0.009 C 
ATOM     15  C   UNL     1     141.814 132.247 149.455  1.00  0.00     0.021 C 
ATOM     16  C   UNL     1     140.503 134.441 148.954  1.00  0.00     0.008 C 
ATOM     17  C   UNL     1     140.294 133.279 151.216  1.00  0.00     0.012 C 
ATOM     18  C   UNL     1     142.820 133.099 148.691  1.00  0.00    -0.067 C 
ATOM     19  C   UNL     1     141.789 135.284 149.197  1.00  0.00     0.009 C 
ATOM     20  C   UNL     1     143.076 134.426 149.356  1.00  0.00     0.021 C 
ATOM     21  C   UNL     1     143.062 132.981 147.368  1.00  0.00    -0.027 C 
ATOM     22  C   UNL     1     144.430 135.066 148.872  1.00  0.00    -0.023 C 
ATOM     23  C   UNL     1     143.515 134.172 146.571  1.00  0.00     0.031 C 
ATOM     24  C   UNL     1     144.591 135.015 147.296  1.00  0.00     0.002 C 
ATOM     25  C   UNL     1     144.560 136.524 149.424  1.00  0.00     0.010 C 
ATOM     26  C   UNL     1     145.579 134.222 149.500  1.00  0.00     0.012 C 
ATOM     27  C   UNL     1     144.661 136.420 146.660  1.00  0.00     0.036 C 
ATOM     28  C   UNL     1     145.755 137.284 148.828  1.00  0.00     0.032 C 
ATOM     29  C   UNL     1     145.785 137.270 147.277  1.00  0.00     0.114 C 
BRANCH  29  30
ATOM     30  O   UNL     1     147.025 136.790 146.823  1.00  0.00    -0.393 OA
ATOM     31  H   UNL     1     146.833 136.158 146.081  1.00  0.00     0.210 HD
ENDBRANCH  29  30
ENDBRANCH   9  11
ENDBRANCH   1   9
TORSDOF 7
ENDMDL
MODEL 2
REMARK VINA RESULT:    -6.313      2.715      5.581
REMARK INTER + INTRA:         -10.682
REMARK INTER:                  -8.958
REMARK INTRA:                  -1.724
REMARK UNBOUND:                -1.970
REMARK SMILES CC[C@@H](CC[C@H](C)[C@H]1CC[C@H]2C3=CC[C@H]4C[C@H](O)CC[C@@]4(C)[C@H]3CC[C@@]12C)C(C)C
REMARK SMILES IDX 5 1 4 2 3 3 2 4 1 5 28 6 29 7 30 8 6 9 7 10 8 11 9 12 26 13
REMARK SMILES IDX 10 14 11 15 25 16 27 17 12 18 24 19 23 20 13 21 21 22 14 23
REMARK SMILES IDX 15 24 20 25 22 26 16 27 19 28 17 29 18 30
REMARK H PARENT 18 31
REMARK Flexibility Score: inf
ROOT
ATOM      1  C   UNL     1     141.230 135.003 148.138  1.00  0.00     0.004 C 
ENDROOT
BRANCH   1   2
ATOM      2  C   UNL     1     141.104 134.832 149.674  1.00  0.00     0.004 C 
BRANCH   2   3
ATOM      3  C   UNL     1     140.632 133.404 150.108  1.00  0.00    -0.009 C 
BRANCH   3   4
ATOM      4  C   UNL     1     139.501 133.513 151.183  1.00  0.00     0.000 C 
ATOM      5  C   UNL     1     138.105 133.279 150.599  1.00  0.00     0.004 C 
ENDBRANCH   3   4
BRANCH   3   6
ATOM      6  C   UNL     1     141.835 132.534 150.624  1.00  0.00    -0.014 C 
ATOM      7  C   UNL     1     141.963 131.198 149.869  1.00  0.00     0.007 C 
ATOM      8  C   UNL     1     141.738 132.230 152.129  1.00  0.00     0.007 C 
ENDBRANCH   3   6
ENDBRANCH   2   3
ENDBRANCH   1   2
BRANCH   1   9
ATOM      9  C   UNL     1     142.682 135.235 147.633  1.00  0.00    -0.011 C 
ATOM     10  C   UNL     1     142.987 134.262 146.472  1.00  0.00     0.008 C 
BRANCH   9  11
ATOM     11  C   UNL     1     143.729 135.066 148.799  1.00  0.00    -0.002 C 
ATOM     12  C   UNL     1     144.594 133.808 148.643  1.00  0.00     0.005 C 
ATOM     13  C   UNL     1     144.772 136.220 149.065  1.00  0.00    -0.023 C 
ATOM     14  C   UNL     1     145.723 133.981 149.629  1.00  0.00     0.009 C 
ATOM     15  C   UNL     1     146.058 135.472 149.595  1.00  0.00     0.021 C 
ATOM     16  C   UNL     1     145.093 137.058 147.769  1.00  0.00     0.008 C 
ATOM     17  C   UNL     1     144.258 137.173 150.177  1.00  0.00     0.012 C 
ATOM     18  C   UNL     1     147.284 135.873 148.785  1.00  0.00    -0.067 C 
ATOM     19  C   UNL     1     146.351 137.968 147.871  1.00  0.00     0.009 C 
ATOM     20  C   UNL     1     147.487 137.365 148.745  1.00  0.00     0.021 C 
ATOM     21  C   UNL     1     147.821 135.121 147.800  1.00  0.00    -0.027 C 
ATOM     22  C   UNL     1     148.967 137.740 148.358  1.00  0.00    -0.023 C 
ATOM     23  C   UNL     1     148.549 135.774 146.658  1.00  0.00     0.031 C 
ATOM     24  C   UNL     1     149.490 136.916 147.110  1.00  0.00     0.002 C 
ATOM     25  C   UNL     1     149.085 139.283 148.130  1.00  0.00     0.010 C 
ATOM     26  C   UNL     1     149.859 137.377 149.583  1.00  0.00     0.012 C 
ATOM     27  C   UNL     1     149.827 137.816 145.902  1.00  0.00     0.036 C 
ATOM     28  C   UNL     1     150.446 139.698 147.550  1.00  0.00     0.032 C 
ATOM     29  C   UNL     1     150.841 138.912 146.273  1.00  0.00     0.114 C 
BRANCH  29  30
ATOM     30  O   UNL     1     152.108 138.328 146.437  1.00  0.00    -0.393 OA
ATOM     31  H   UNL     1     152.297 137.817 145.607  1.00  0.00     0.210 HD
ENDBRANCH  29  30
ENDBRANCH   9  11
ENDBRANCH   1   9
TORSDOF 7
ENDMDL
MODEL 3
REMARK VINA RESULT:    -6.310      2.824      9.180
REMARK INTER + INTRA:         -10.677
REMARK INTER:                  -8.725
REMARK INTRA:                  -1.952
REMARK UNBOUND:                -1.970
REMARK SMILES CC[C@@H](CC[C@H](C)[C@H]1CC[C@H]2C3=CC[C@H]4C[C@H](O)CC[C@@]4(C)[C@H]3CC[C@@]12C)C(C)C
REMARK SMILES IDX 5 1 4 2 3 3 2 4 1 5 28 6 29 7 30 8 6 9 7 10 8 11 9 12 26 13
REMARK SMILES IDX 10 14 11 15 25 16 27 17 12 18 24 19 23 20 13 21 21 22 14 23
REMARK SMILES IDX 15 24 20 25 22 26 16 27 19 28 17 29 18 30
REMARK H PARENT 18 31
REMARK Flexibility Score: inf
ROOT
ATOM      1  C   UNL     1     145.559 136.916 147.020  1.00  0.00     0.004 C 
ENDROOT
BRANCH   1   2
ATOM      2  C   UNL     1     146.868 136.090 146.931  1.00  0.00     0.004 C 
BRANCH   2   3
ATOM      3  C   UNL     1     148.148 136.902 147.318  1.00  0.00    -0.009 C 
BRANCH   3   4
ATOM      4  C   UNL     1     148.630 136.500 148.751  1.00  0.00     0.000 C 
ATOM      5  C   UNL     1     148.334 135.035 149.086  1.00  0.00     0.004 C 
ENDBRANCH   3   4
BRANCH   3   6
ATOM      6  C   UNL     1     147.901 138.450 147.208  1.00  0.00    -0.014 C 
ATOM      7  C   UNL     1     148.752 139.107 146.105  1.00  0.00     0.007 C 
ATOM      8  C   UNL     1     148.176 139.186 148.531  1.00  0.00     0.007 C 
ENDBRANCH   3   6
ENDBRANCH   2   3
ENDBRANCH   1   2
BRANCH   1   9
ATOM      9  C   UNL     1     144.580 136.453 148.135  1.00  0.00    -0.011 C 
ATOM     10  C   UNL     1     144.900 137.201 149.449  1.00  0.00     0.008 C 
BRANCH   9  11
ATOM     11  C   UNL     1     144.647 134.892 148.346  1.00  0.00    -0.002 C 
ATOM     12  C   UNL     1     144.809 134.498 149.820  1.00  0.00     0.005 C 
ATOM     13  C   UNL     1     143.450 133.998 147.836  1.00  0.00    -0.023 C 
ATOM     14  C   UNL     1     144.527 133.016 149.865  1.00  0.00     0.009 C 
ATOM     15  C   UNL     1     143.399 132.794 148.857  1.00  0.00     0.021 C 
ATOM     16  C   UNL     1     142.081 134.779 147.806  1.00  0.00     0.008 C 
ATOM     17  C   UNL     1     143.753 133.438 146.421  1.00  0.00     0.012 C 
ATOM     18  C   UNL     1     141.997 132.637 149.431  1.00  0.00    -0.067 C 
ATOM     19  C   UNL     1     140.818 133.882 147.656  1.00  0.00     0.009 C 
ATOM     20  C   UNL     1     140.946 132.502 148.361  1.00  0.00     0.021 C 
ATOM     21  C   UNL     1     141.624 133.079 150.652  1.00  0.00    -0.027 C 
ATOM     22  C   UNL     1     139.624 131.857 148.923  1.00  0.00    -0.023 C 
ATOM     23  C   UNL     1     140.200 133.487 150.907  1.00  0.00     0.031 C 
ATOM     24  C   UNL     1     139.168 132.514 150.291  1.00  0.00     0.002 C 
ATOM     25  C   UNL     1     138.497 131.921 147.840  1.00  0.00     0.010 C 
ATOM     26  C   UNL     1     139.933 130.354 149.190  1.00  0.00     0.012 C 
ATOM     27  C   UNL     1     137.796 133.215 150.186  1.00  0.00     0.036 C 
ATOM     28  C   UNL     1     137.122 131.499 148.383  1.00  0.00     0.032 C 
ATOM     29  C   UNL     1     136.706 132.259 149.670  1.00  0.00     0.114 C 
BRANCH  29  30
ATOM     30  O   UNL     1     136.379 131.346 150.686  1.00  0.00    -0.393 OA
ATOM     31  H   UNL     1     137.201 131.212 151.226  1.00  0.00     0.210 HD
ENDBRANCH  29  30
ENDBRANCH   9  11
ENDBRANCH   1   9
TORSDOF 7
ENDMDL
MODEL 4
REMARK VINA RESULT:    -6.110      1.824      3.825
REMARK INTER + INTRA:         -10.401
REMARK INTER:                  -8.760
REMARK INTRA:                  -1.640
REMARK UNBOUND:                -1.970
REMARK SMILES CC[C@@H](CC[C@H](C)[C@H]1CC[C@H]2C3=CC[C@H]4C[C@H](O)CC[C@@]4(C)[C@H]3CC[C@@]12C)C(C)C
REMARK SMILES IDX 5 1 4 2 3 3 2 4 1 5 28 6 29 7 30 8 6 9 7 10 8 11 9 12 26 13
REMARK SMILES IDX 10 14 11 15 25 16 27 17 12 18 24 19 23 20 13 21 21 22 14 23
REMARK SMILES IDX 15 24 20 25 22 26 16 27 19 28 17 29 18 30
REMARK H PARENT 18 31
REMARK Flexibility Score: inf
ROOT
ATOM      1  C   UNL     1     139.764 132.829 149.962  1.00  0.00     0.004 C 
ENDROOT
BRANCH   1   2
ATOM      2  C   UNL     1     138.392 133.538 149.823  1.00  0.00     0.004 C 
BRANCH   2   3
ATOM      3  C   UNL     1     137.529 133.003 148.632  1.00  0.00    -0.009 C 
BRANCH   3   4
ATOM      4  C   UNL     1     137.241 131.476 148.817  1.00  0.00     0.000 C 
ATOM      5  C   UNL     1     136.380 131.182 150.049  1.00  0.00     0.004 C 
ENDBRANCH   3   4
BRANCH   3   6
ATOM      6  C   UNL     1     138.215 133.295 147.249  1.00  0.00    -0.014 C 
ATOM      7  C   UNL     1     137.285 134.042 146.274  1.00  0.00     0.007 C 
ATOM      8  C   UNL     1     138.711 132.014 146.555  1.00  0.00     0.007 C 
ENDBRANCH   3   6
ENDBRANCH   2   3
ENDBRANCH   1   2
BRANCH   1   9
ATOM      9  C   UNL     1     140.993 133.764 149.783  1.00  0.00    -0.011 C 
ATOM     10  C   UNL     1     140.539 135.239 149.879  1.00  0.00     0.008 C 
BRANCH   9  11
ATOM     11  C   UNL     1     141.729 133.490 148.416  1.00  0.00    -0.002 C 
ATOM     12  C   UNL     1     141.472 134.585 147.373  1.00  0.00     0.005 C 
ATOM     13  C   UNL     1     143.297 133.315 148.414  1.00  0.00    -0.023 C 
ATOM     14  C   UNL     1     142.488 134.338 146.284  1.00  0.00     0.009 C 
ATOM     15  C   UNL     1     143.753 133.887 147.014  1.00  0.00     0.021 C 
ATOM     16  C   UNL     1     143.995 134.084 149.599  1.00  0.00     0.008 C 
ATOM     17  C   UNL     1     143.677 131.812 148.484  1.00  0.00     0.012 C 
ATOM     18  C   UNL     1     144.844 134.935 147.193  1.00  0.00    -0.067 C 
ATOM     19  C   UNL     1     145.537 134.245 149.459  1.00  0.00     0.009 C 
ATOM     20  C   UNL     1     146.014 134.421 147.989  1.00  0.00     0.021 C 
ATOM     21  C   UNL     1     144.629 136.267 147.144  1.00  0.00    -0.027 C 
ATOM     22  C   UNL     1     147.305 135.291 147.752  1.00  0.00    -0.023 C 
ATOM     23  C   UNL     1     145.506 137.205 147.926  1.00  0.00     0.031 C 
ATOM     24  C   UNL     1     147.009 136.845 147.842  1.00  0.00     0.002 C 
ATOM     25  C   UNL     1     148.433 134.854 148.744  1.00  0.00     0.010 C 
ATOM     26  C   UNL     1     147.801 134.978 146.309  1.00  0.00     0.012 C 
ATOM     27  C   UNL     1     147.769 137.529 148.999  1.00  0.00     0.036 C 
ATOM     28  C   UNL     1     149.650 135.791 148.714  1.00  0.00     0.032 C 
ATOM     29  C   UNL     1     149.285 137.286 148.907  1.00  0.00     0.114 C 
BRANCH  29  30
ATOM     30  O   UNL     1     149.810 138.051 147.852  1.00  0.00    -0.393 OA
ATOM     31  H   UNL     1     149.104 138.100 147.155  1.00  0.00     0.210 HD
ENDBRANCH  29  30
ENDBRANCH   9  11
ENDBRANCH   1   9
TORSDOF 7
ENDMDL
MODEL 5
REMARK VINA RESULT:    -6.026      1.686      3.803
REMARK INTER + INTRA:         -10.286
REMARK INTER:                  -7.903
REMARK INTRA:                  -2.383
REMARK UNBOUND:                -1.970
REMARK SMILES CC[C@@H](CC[C@H](C)[C@H]1CC[C@H]2C3=CC[C@H]4C[C@H](O)CC[C@@]4(C)[C@H]3CC[C@@]12C)C(C)C
REMARK SMILES IDX 5 1 4 2 3 3 2 4 1 5 28 6 29 7 30 8 6 9 7 10 8 11 9 12 26 13
REMARK SMILES IDX 10 14 11 15 25 16 27 17 12 18 24 19 23 20 13 21 21 22 14 23
REMARK SMILES IDX 15 24 20 25 22 26 16 27 19 28 17 29 18 30
REMARK H PARENT 18 31
REMARK Flexibility Score: inf
ROOT
ATOM      1  C   UNL     1     139.783 130.599 148.736  1.00  0.00     0.004 C 
ENDROOT
BRANCH   1   2
ATOM      2  C   UNL     1     138.957 131.261 147.603  1.00  0.00     0.004 C 
BRANCH   2   3
ATOM      3  C   UNL     1     137.585 131.840 148.085  1.00  0.00    -0.009 C 
BRANCH   3   4
ATOM      4  C   UNL     1     137.453 133.340 147.662  1.00  0.00     0.000 C 
ATOM      5  C   UNL     1     138.144 133.641 146.329  1.00  0.00     0.004 C 
ENDBRANCH   3   4
BRANCH   3   6
ATOM      6  C   UNL     1     137.400 131.660 149.636  1.00  0.00    -0.014 C 
ATOM      7  C   UNL     1     136.172 130.799 149.988  1.00  0.00     0.007 C 
ATOM      8  C   UNL     1     137.272 133.006 150.372  1.00  0.00     0.007 C 
ENDBRANCH   3   6
ENDBRANCH   2   3
ENDBRANCH   1   2
BRANCH   1   9
ATOM      9  C   UNL     1     141.003 131.435 149.216  1.00  0.00    -0.011 C 
ATOM     10  C   UNL     1     141.009 131.500 150.761  1.00  0.00     0.008 C 
BRANCH   9  11
ATOM     11  C   UNL     1     140.988 132.883 148.593  1.00  0.00    -0.002 C 
ATOM     12  C   UNL     1     140.921 133.986 149.656  1.00  0.00     0.005 C 
ATOM     13  C   UNL     1     142.177 133.323 147.653  1.00  0.00    -0.023 C 
ATOM     14  C   UNL     1     141.244 135.264 148.919  1.00  0.00     0.009 C 
ATOM     15  C   UNL     1     142.318 134.876 147.902  1.00  0.00     0.021 C 
ATOM     16  C   UNL     1     143.521 132.569 147.983  1.00  0.00     0.008 C 
ATOM     17  C   UNL     1     141.810 133.089 146.164  1.00  0.00     0.012 C 
ATOM     18  C   UNL     1     143.754 135.234 148.263  1.00  0.00    -0.067 C 
ATOM     19  C   UNL     1     144.797 133.193 147.346  1.00  0.00     0.009 C 
ATOM     20  C   UNL     1     144.745 134.744 147.241  1.00  0.00     0.021 C 
ATOM     21  C   UNL     1     144.183 135.465 149.522  1.00  0.00    -0.027 C 
ATOM     22  C   UNL     1     146.113 135.517 147.341  1.00  0.00    -0.023 C 
ATOM     23  C   UNL     1     145.608 135.173 149.902  1.00  0.00     0.031 C 
ATOM     24  C   UNL     1     146.630 135.635 148.835  1.00  0.00     0.002 C 
ATOM     25  C   UNL     1     147.176 134.846 146.409  1.00  0.00     0.010 C 
ATOM     26  C   UNL     1     145.860 136.956 146.804  1.00  0.00     0.012 C 
ATOM     27  C   UNL     1     147.974 134.911 149.059  1.00  0.00     0.036 C 
ATOM     28  C   UNL     1     148.589 135.416 146.607  1.00  0.00     0.032 C 
ATOM     29  C   UNL     1     149.058 135.406 148.086  1.00  0.00     0.114 C 
BRANCH  29  30
ATOM     30  O   UNL     1     149.466 136.694 148.471  1.00  0.00    -0.393 OA
ATOM     31  H   UNL     1     149.171 136.818 149.412  1.00  0.00     0.210 HD
ENDBRANCH  29  30
ENDBRANCH   9  11
ENDBRANCH   1   9
TORSDOF 7
ENDMDL
MODEL 6
REMARK VINA RESULT:    -6.016      1.725      3.460
REMARK INTER + INTRA:         -10.272
REMARK INTER:                  -9.643
REMARK INTRA:                  -0.629
REMARK UNBOUND:                -1.970
REMARK SMILES CC[C@@H](CC[C@H](C)[C@H]1CC[C@H]2C3=CC[C@H]4C[C@H](O)CC[C@@]4(C)[C@H]3CC[C@@]12C)C(C)C
REMARK SMILES IDX 5 1 4 2 3 3 2 4 1 5 28 6 29 7 30 8 6 9 7 10 8 11 9 12 26 13
REMARK SMILES IDX 10 14 11 15 25 16 27 17 12 18 24 19 23 20 13 21 21 22 14 23
REMARK SMILES IDX 15 24 20 25 22 26 16 27 19 28 17 29 18 30
REMARK H PARENT 18 31
REMARK Flexibility Score: inf
ROOT
ATOM      1  C   UNL     1     137.630 131.924 148.154  1.00  0.00     0.004 C 
ENDROOT
BRANCH   1   2
ATOM      2  C   UNL     1     137.457 133.321 147.504  1.00  0.00     0.004 C 
BRANCH   2   3
ATOM      3  C   UNL     1     137.884 133.369 145.999  1.00  0.00    -0.009 C 
BRANCH   3   4
ATOM      4  C   UNL     1     139.255 134.108 145.850  1.00  0.00     0.000 C 
ATOM      5  C   UNL     1     140.157 133.472 144.788  1.00  0.00     0.004 C 
ENDBRANCH   3   4
BRANCH   3   6
ATOM      6  C   UNL     1     136.773 134.032 145.108  1.00  0.00    -0.014 C 
ATOM      7  C   UNL     1     136.631 133.349 143.735  1.00  0.00     0.007 C 
ATOM      8  C   UNL     1     137.022 135.533 144.877  1.00  0.00     0.007 C 
ENDBRANCH   3   6
ENDBRANCH   2   3
ENDBRANCH   1   2
BRANCH   1   9
ATOM      9  C   UNL     1     137.418 131.899 149.694  1.00  0.00    -0.011 C 
ATOM     10  C   UNL     1     136.866 133.266 150.161  1.00  0.00     0.008 C 
BRANCH   9  11
ATOM     11  C   UNL     1     138.753 131.543 150.452  1.00  0.00    -0.002 C 
ATOM     12  C   UNL     1     139.496 130.357 149.821  1.00  0.00     0.005 C 
ATOM     13  C   UNL     1     139.863 132.654 150.609  1.00  0.00    -0.023 C 
ATOM     14  C   UNL     1     140.868 130.373 150.450  1.00  0.00     0.009 C 
ATOM     15  C   UNL     1     141.224 131.853 150.595  1.00  0.00     0.021 C 
ATOM     16  C   UNL     1     139.818 133.724 149.453  1.00  0.00     0.008 C 
ATOM     17  C   UNL     1     139.724 133.372 151.978  1.00  0.00     0.012 C 
ATOM     18  C   UNL     1     142.173 132.427 149.551  1.00  0.00    -0.067 C 
ATOM     19  C   UNL     1     141.079 134.631 149.350  1.00  0.00     0.009 C 
ATOM     20  C   UNL     1     142.401 133.905 149.728  1.00  0.00     0.021 C 
ATOM     21  C   UNL     1     142.377 131.883 148.332  1.00  0.00    -0.027 C 
ATOM     22  C   UNL     1     143.715 134.381 149.003  1.00  0.00    -0.023 C 
ATOM     23  C   UNL     1     142.761 132.754 147.168  1.00  0.00     0.031 C 
ATOM     24  C   UNL     1     143.827 133.815 147.527  1.00  0.00     0.002 C 
ATOM     25  C   UNL     1     143.809 135.942 149.038  1.00  0.00     0.010 C 
ATOM     26  C   UNL     1     144.914 133.821 149.826  1.00  0.00     0.012 C 
ATOM     27  C   UNL     1     143.826 134.932 146.461  1.00  0.00     0.036 C 
ATOM     28  C   UNL     1     144.955 136.492 148.174  1.00  0.00     0.032 C 
ATOM     29  C   UNL     1     144.937 135.965 146.715  1.00  0.00     0.114 C 
BRANCH  29  30
ATOM     30  O   UNL     1     146.178 135.392 146.393  1.00  0.00    -0.393 OA
ATOM     31  H   UNL     1     146.354 134.689 147.072  1.00  0.00     0.210 HD
ENDBRANCH  29  30
ENDBRANCH   9  11
ENDBRANCH   1   9
TORSDOF 7
ENDMDL
MODEL 7
REMARK VINA RESULT:    -5.837      1.562      3.263
REMARK INTER + INTRA:         -10.025
REMARK INTER:                  -8.333
REMARK INTRA:                  -1.692
REMARK UNBOUND:                -1.970
REMARK SMILES CC[C@@H](CC[C@H](C)[C@H]1CC[C@H]2C3=CC[C@H]4C[C@H](O)CC[C@@]4(C)[C@H]3CC[C@@]12C)C(C)C
REMARK SMILES IDX 5 1 4 2 3 3 2 4 1 5 28 6 29 7 30 8 6 9 7 10 8 11 9 12 26 13
REMARK SMILES IDX 10 14 11 15 25 16 27 17 12 18 24 19 23 20 13 21 21 22 14 23
REMARK SMILES IDX 15 24 20 25 22 26 16 27 19 28 17 29 18 30
REMARK H PARENT 18 31
REMARK Flexibility Score: inf
ROOT
ATOM      1  C   UNL     1     140.624 132.727 151.267  1.00  0.00     0.004 C 
ENDROOT
BRANCH   1   2
ATOM      2  C   UNL     1     139.075 132.680 151.260  1.00  0.00     0.004 C 
BRANCH   2   3
ATOM      3  C   UNL     1     138.493 131.323 150.741  1.00  0.00    -0.009 C 
BRANCH   3   4
ATOM      4  C   UNL     1     139.631 130.452 150.112  1.00  0.00     0.000 C 
ATOM      5  C   UNL     1     139.545 130.380 148.585  1.00  0.00     0.004 C 
ENDBRANCH   3   4
BRANCH   3   6
ATOM      6  C   UNL     1     137.317 131.554 149.724  1.00  0.00    -0.014 C 
ATOM      7  C   UNL     1     136.755 132.987 149.788  1.00  0.00     0.007 C 
ATOM      8  C   UNL     1     136.153 130.570 149.937  1.00  0.00     0.007 C 
ENDBRANCH   3   6
ENDBRANCH   2   3
ENDBRANCH   1   2
BRANCH   1   9
ATOM      9  C   UNL     1     141.243 133.722 150.246  1.00  0.00    -0.011 C 
ATOM     10  C   UNL     1     140.121 134.337 149.378  1.00  0.00     0.008 C 
BRANCH   9  11
ATOM     11  C   UNL     1     142.329 133.019 149.345  1.00  0.00    -0.002 C 
ATOM     12  C   UNL     1     141.973 133.050 147.852  1.00  0.00     0.005 C 
ATOM     13  C   UNL     1     143.819 133.537 149.397  1.00  0.00    -0.023 C 
ATOM     14  C   UNL     1     143.239 132.645 147.137  1.00  0.00     0.009 C 
ATOM     15  C   UNL     1     144.372 133.285 147.939  1.00  0.00     0.021 C 
ATOM     16  C   UNL     1     143.917 135.061 149.789  1.00  0.00     0.008 C 
ATOM     17  C   UNL     1     144.653 132.695 150.398  1.00  0.00     0.012 C 
ATOM     18  C   UNL     1     144.973 134.562 147.366  1.00  0.00    -0.067 C 
ATOM     19  C   UNL     1     145.303 135.718 149.521  1.00  0.00     0.009 C 
ATOM     20  C   UNL     1     146.025 135.159 148.263  1.00  0.00     0.021 C 
ATOM     21  C   UNL     1     144.341 135.367 146.484  1.00  0.00    -0.027 C 
ATOM     22  C   UNL     1     146.966 136.147 147.477  1.00  0.00    -0.023 C 
ATOM     23  C   UNL     1     144.642 136.839 146.452  1.00  0.00     0.031 C 
ATOM     24  C   UNL     1     146.153 137.155 146.563  1.00  0.00     0.002 C 
ATOM     25  C   UNL     1     147.908 136.896 148.476  1.00  0.00     0.010 C 
ATOM     26  C   UNL     1     147.864 135.274 146.550  1.00  0.00     0.012 C 
ATOM     27  C   UNL     1     146.344 138.627 146.985  1.00  0.00     0.036 C 
ATOM     28  C   UNL     1     148.711 138.024 147.809  1.00  0.00     0.032 C 
ATOM     29  C   UNL     1     147.830 139.023 147.014  1.00  0.00     0.114 C 
BRANCH  29  30
ATOM     30  O   UNL     1     148.300 139.139 145.695  1.00  0.00    -0.393 OA
ATOM     31  H   UNL     1     147.508 139.064 145.101  1.00  0.00     0.210 HD
ENDBRANCH  29  30
ENDBRANCH   9  11
ENDBRANCH   1   9
TORSDOF 7
ENDMDL
MODEL 8
REMARK VINA RESULT:    -5.833      2.085      4.163
REMARK INTER + INTRA:         -10.019
REMARK INTER:                  -8.017
REMARK INTRA:                  -2.002
REMARK UNBOUND:                -1.970
REMARK SMILES CC[C@@H](CC[C@H](C)[C@H]1CC[C@H]2C3=CC[C@H]4C[C@H](O)CC[C@@]4(C)[C@H]3CC[C@@]12C)C(C)C
REMARK SMILES IDX 5 1 4 2 3 3 2 4 1 5 28 6 29 7 30 8 6 9 7 10 8 11 9 12 26 13
REMARK SMILES IDX 10 14 11 15 25 16 27 17 12 18 24 19 23 20 13 21 21 22 14 23
REMARK SMILES IDX 15 24 20 25 22 26 16 27 19 28 17 29 18 30
REMARK H PARENT 18 31
REMARK Flexibility Score: inf
ROOT
ATOM      1  C   UNL     1     140.701 131.378 146.883  1.00  0.00     0.004 C 
ENDROOT
BRANCH   1   2
ATOM      2  C   UNL     1     139.864 131.603 148.168  1.00  0.00     0.004 C 
BRANCH   2   3
ATOM      3  C   UNL     1     138.550 132.419 147.924  1.00  0.00    -0.009 C 
BRANCH   3   4
ATOM      4  C   UNL     1     138.672 133.257 146.608  1.00  0.00     0.000 C 
ATOM      5  C   UNL     1     137.383 134.009 146.265  1.00  0.00     0.004 C 
ENDBRANCH   3   4
BRANCH   3   6
ATOM      6  C   UNL     1     138.204 133.330 149.157  1.00  0.00    -0.014 C 
ATOM      7  C   UNL     1     139.342 133.379 150.193  1.00  0.00     0.007 C 
ATOM      8  C   UNL     1     136.917 132.885 149.874  1.00  0.00     0.007 C 
ENDBRANCH   3   6
ENDBRANCH   2   3
ENDBRANCH   1   2
BRANCH   1   9
ATOM      9  C   UNL     1     142.168 131.884 146.974  1.00  0.00    -0.011 C 
ATOM     10  C   UNL     1     143.128 130.675 147.060  1.00  0.00     0.008 C 
BRANCH   9  11
ATOM     11  C   UNL     1     142.367 132.849 148.206  1.00  0.00    -0.002 C 
ATOM     12  C   UNL     1     143.426 132.341 149.193  1.00  0.00     0.005 C 
ATOM     13  C   UNL     1     142.773 134.351 147.943  1.00  0.00    -0.023 C 
ATOM     14  C   UNL     1     143.714 133.513 150.100  1.00  0.00     0.009 C 
ATOM     15  C   UNL     1     143.656 134.742 149.194  1.00  0.00     0.021 C 
ATOM     16  C   UNL     1     143.574 134.536 146.599  1.00  0.00     0.008 C 
ATOM     17  C   UNL     1     141.515 135.259 147.920  1.00  0.00     0.012 C 
ATOM     18  C   UNL     1     144.993 135.319 148.746  1.00  0.00    -0.067 C 
ATOM     19  C   UNL     1     144.300 135.906 146.451  1.00  0.00     0.009 C 
ATOM     20  C   UNL     1     144.834 136.476 147.795  1.00  0.00     0.021 C 
ATOM     21  C   UNL     1     146.151 134.624 148.732  1.00  0.00    -0.027 C 
ATOM     22  C   UNL     1     146.135 137.360 147.734  1.00  0.00    -0.023 C 
ATOM     23  C   UNL     1     147.227 134.965 147.739  1.00  0.00     0.031 C 
ATOM     24  C   UNL     1     147.450 136.488 147.582  1.00  0.00     0.002 C 
ATOM     25  C   UNL     1     146.006 138.423 146.594  1.00  0.00     0.010 C 
ATOM     26  C   UNL     1     146.223 138.130 149.085  1.00  0.00     0.012 C 
ATOM     27  C   UNL     1     148.199 136.766 146.261  1.00  0.00     0.036 C 
ATOM     28  C   UNL     1     147.314 139.186 146.337  1.00  0.00     0.032 C 
ATOM     29  C   UNL     1     148.535 138.259 146.101  1.00  0.00     0.114 C 
BRANCH  29  30
ATOM     30  O   UNL     1     149.574 138.593 146.985  1.00  0.00    -0.393 OA
ATOM     31  H   UNL     1     149.385 138.122 147.839  1.00  0.00     0.210 HD
ENDBRANCH  29  30
ENDBRANCH   9  11
ENDBRANCH   1   9
TORSDOF 7
ENDMDL
MODEL 9
REMARK VINA RESULT:    -5.827      3.957      6.086
REMARK INTER + INTRA:         -10.011
REMARK INTER:                  -7.926
REMARK INTRA:                  -2.085
REMARK UNBOUND:                -1.970
REMARK SMILES CC[C@@H](CC[C@H](C)[C@H]1CC[C@H]2C3=CC[C@H]4C[C@H](O)CC[C@@]4(C)[C@H]3CC[C@@]12C)C(C)C
REMARK SMILES IDX 5 1 4 2 3 3 2 4 1 5 28 6 29 7 30 8 6 9 7 10 8 11 9 12 26 13
REMARK SMILES IDX 10 14 11 15 25 16 27 17 12 18 24 19 23 20 13 21 21 22 14 23
REMARK SMILES IDX 15 24 20 25 22 26 16 27 19 28 17 29 18 30
REMARK H PARENT 18 31
REMARK Flexibility Score: inf
ROOT
ATOM      1  C   UNL     1     142.152 130.165 145.946  1.00  0.00     0.004 C 
ENDROOT
BRANCH   1   2
ATOM      2  C   UNL     1     142.625 130.059 144.474  1.00  0.00     0.004 C 
BRANCH   2   3
ATOM      3  C   UNL     1     143.916 130.891 144.170  1.00  0.00    -0.009 C 
BRANCH   3   4
ATOM      4  C   UNL     1     143.605 132.006 143.118  1.00  0.00     0.000 C 
ATOM      5  C   UNL     1     142.395 132.862 143.503  1.00  0.00     0.004 C 
ENDBRANCH   3   4
BRANCH   3   6
ATOM      6  C   UNL     1     145.097 129.967 143.698  1.00  0.00    -0.014 C 
ATOM      7  C   UNL     1     146.308 130.025 144.648  1.00  0.00     0.007 C 
ATOM      8  C   UNL     1     145.580 130.310 142.278  1.00  0.00     0.007 C 
ENDBRANCH   3   6
ENDBRANCH   2   3
ENDBRANCH   1   2
BRANCH   1   9
ATOM      9  C   UNL     1     143.283 130.478 146.965  1.00  0.00    -0.011 C 
ATOM     10  C   UNL     1     143.754 129.165 147.634  1.00  0.00     0.008 C 
BRANCH   9  11
ATOM     11  C   UNL     1     142.808 131.521 148.048  1.00  0.00    -0.002 C 
ATOM     12  C   UNL     1     143.483 131.313 149.409  1.00  0.00     0.005 C 
ATOM     13  C   UNL     1     142.991 133.061 147.757  1.00  0.00    -0.023 C 
ATOM     14  C   UNL     1     143.174 132.563 150.198  1.00  0.00     0.009 C 
ATOM     15  C   UNL     1     143.236 133.702 149.180  1.00  0.00     0.021 C 
ATOM     16  C   UNL     1     144.195 133.356 146.784  1.00  0.00     0.008 C 
ATOM     17  C   UNL     1     141.690 133.661 147.160  1.00  0.00     0.012 C 
ATOM     18  C   UNL     1     144.507 134.542 149.179  1.00  0.00    -0.067 C 
ATOM     19  C   UNL     1     144.648 134.844 146.733  1.00  0.00     0.009 C 
ATOM     20  C   UNL     1     144.508 135.585 148.093  1.00  0.00     0.021 C 
ATOM     21  C   UNL     1     145.691 134.125 149.677  1.00  0.00    -0.027 C 
ATOM     22  C   UNL     1     145.540 136.735 148.394  1.00  0.00    -0.023 C 
ATOM     23  C   UNL     1     146.979 134.650 149.108  1.00  0.00     0.031 C 
ATOM     24  C   UNL     1     146.953 136.174 148.845  1.00  0.00     0.002 C 
ATOM     25  C   UNL     1     145.659 137.685 147.157  1.00  0.00     0.010 C 
ATOM     26  C   UNL     1     144.956 137.570 149.572  1.00  0.00     0.012 C 
ATOM     27  C   UNL     1     148.083 136.549 147.863  1.00  0.00     0.036 C 
ATOM     28  C   UNL     1     146.796 138.709 147.296  1.00  0.00     0.032 C 
ATOM     29  C   UNL     1     148.165 138.069 147.643  1.00  0.00     0.114 C 
BRANCH  29  30
ATOM     30  O   UNL     1     148.702 138.671 148.793  1.00  0.00    -0.393 OA
ATOM     31  H   UNL     1     149.045 139.561 148.517  1.00  0.00     0.210 HD
ENDBRANCH  29  30
ENDBRANCH   9  11
ENDBRANCH   1   9
TORSDOF 7
ENDMDL
