MODEL 1
REMARK VINA RESULT:    -1.833      0.000      0.000
REMARK INTER + INTRA:          -1.796
REMARK INTER:                  -2.101
REMARK INTRA:                   0.306
REMARK UNBOUND:                 0.306
REMARK SMILES O=C([O-])C=Cc1ccc(O)cc1
REMARK SMILES IDX 6 1 7 2 12 3 8 4 11 5 9 6 5 7 4 8 2 9 1 10 3 11 10 12
REMARK H PARENT 10 13
REMARK Flexibility Score: inf
ROOT
ATOM      1  C   UNL     1      27.654  28.543   2.813  1.00  0.00    -0.025 A 
ATOM      2  C   UNL     1      26.599  29.457   2.675  1.00  0.00     0.012 A 
ATOM      3  C   UNL     1      28.932  28.891   2.341  1.00  0.00     0.012 A 
ATOM      4  C   UNL     1      26.804  30.680   2.028  1.00  0.00     0.047 A 
ATOM      5  C   UNL     1      29.135  30.114   1.694  1.00  0.00     0.047 A 
ATOM      6  C   UNL     1      28.070  31.010   1.533  1.00  0.00     0.115 A 
ENDROOT
BRANCH   1   7
ATOM      7  C   UNL     1      27.427  27.281   3.546  1.00  0.00     0.010 C 
ATOM      8  C   UNL     1      27.099  26.106   2.987  1.00  0.00     0.025 C 
BRANCH   8   9
ATOM      9  C   UNL     1      26.722  25.905   1.576  1.00  0.00     0.064 C 
ATOM     10  O   UNL     1      26.183  26.850   0.943  1.00  0.00    -0.545 OA
ATOM     11  O   UNL     1      27.012  24.723   0.907  1.00  0.00    -0.545 OA
ENDBRANCH   8   9
ENDBRANCH   1   7
BRANCH   6  12
ATOM     12  O   UNL     1      28.259  32.231   0.889  1.00  0.00    -0.508 OA
ATOM     13  H   UNL     1      29.079  32.800   1.065  1.00  0.00     0.293 HD
ENDBRANCH   6  12
TORSDOF 3
ENDMDL
MODEL 2
REMARK VINA RESULT:    -1.231      2.461      3.019
REMARK INTER + INTRA:          -1.106
REMARK INTER:                  -1.006
REMARK INTRA:                  -0.099
REMARK UNBOUND:                 0.306
REMARK SMILES O=C([O-])C=Cc1ccc(O)cc1
REMARK SMILES IDX 6 1 7 2 12 3 8 4 11 5 9 6 5 7 4 8 2 9 1 10 3 11 10 12
REMARK H PARENT 10 13
REMARK Flexibility Score: inf
ROOT
ATOM      1  C   UNL     1      29.061  29.317   1.913  1.00  0.00    -0.025 A 
ATOM      2  C   UNL     1      28.950  30.336   2.870  1.00  0.00     0.012 A 
ATOM      3  C   UNL     1      30.222  28.525   1.884  1.00  0.00     0.012 A 
ATOM      4  C   UNL     1      30.005  30.595   3.751  1.00  0.00     0.047 A 
ATOM      5  C   UNL     1      31.276  28.786   2.764  1.00  0.00     0.047 A 
ATOM      6  C   UNL     1      31.171  29.825   3.699  1.00  0.00     0.115 A 
ENDROOT
BRANCH   1   7
ATOM      7  C   UNL     1      27.914  29.026   1.029  1.00  0.00     0.010 C 
ATOM      8  C   UNL     1      27.011  28.053   1.223  1.00  0.00     0.025 C 
BRANCH   8   9
ATOM      9  C   UNL     1      27.108  26.985   2.235  1.00  0.00     0.064 C 
ATOM     10  O   UNL     1      27.054  27.287   3.455  1.00  0.00    -0.545 OA
ATOM     11  O   UNL     1      27.187  25.646   1.874  1.00  0.00    -0.545 OA
ENDBRANCH   8   9
ENDBRANCH   1   7
BRANCH   6  12
ATOM     12  O   UNL     1      32.214  30.096   4.582  1.00  0.00    -0.508 OA
ATOM     13  H   UNL     1      32.473  29.442   5.311  1.00  0.00     0.293 HD
ENDBRANCH   6  12
TORSDOF 3
ENDMDL
MODEL 3
REMARK VINA RESULT:    -0.936      1.162      4.535
REMARK INTER + INTRA:          -0.768
REMARK INTER:                  -0.885
REMARK INTRA:                   0.118
REMARK UNBOUND:                 0.306
REMARK SMILES O=C([O-])C=Cc1ccc(O)cc1
REMARK SMILES IDX 6 1 7 2 12 3 8 4 11 5 9 6 5 7 4 8 2 9 1 10 3 11 10 12
REMARK H PARENT 10 13
REMARK Flexibility Score: inf
ROOT
ATOM      1  C   UNL     1      28.190  28.607   2.831  1.00  0.00    -0.025 A 
ATOM      2  C   UNL     1      27.138  27.940   3.476  1.00  0.00     0.012 A 
ATOM      3  C   UNL     1      28.634  28.144   1.580  1.00  0.00     0.012 A 
ATOM      4  C   UNL     1      26.574  26.794   2.905  1.00  0.00     0.047 A 
ATOM      5  C   UNL     1      28.069  26.998   1.012  1.00  0.00     0.047 A 
ATOM      6  C   UNL     1      27.039  26.318   1.676  1.00  0.00     0.115 A 
ENDROOT
BRANCH   1   7
ATOM      7  C   UNL     1      28.735  29.845   3.426  1.00  0.00     0.010 C 
ATOM      8  C   UNL     1      28.526  31.087   2.963  1.00  0.00     0.025 C 
BRANCH   8   9
ATOM      9  C   UNL     1      27.884  31.424   1.680  1.00  0.00     0.064 C 
ATOM     10  O   UNL     1      28.479  32.186   0.875  1.00  0.00    -0.545 OA
ATOM     11  O   UNL     1      26.668  30.864   1.306  1.00  0.00    -0.545 OA
ENDBRANCH   8   9
ENDBRANCH   1   7
BRANCH   6  12
ATOM     12  O   UNL     1      26.468  25.176   1.120  1.00  0.00    -0.508 OA
ATOM     13  H   UNL     1      25.568  24.829   1.431  1.00  0.00     0.293 HD
ENDBRANCH   6  12
TORSDOF 3
ENDMDL
MODEL 4
REMARK VINA RESULT:     0.988      1.906      2.237
REMARK INTER + INTRA:           1.438
REMARK INTER:                   1.108
REMARK INTRA:                   0.329
REMARK UNBOUND:                 0.306
REMARK SMILES O=C([O-])C=Cc1ccc(O)cc1
REMARK SMILES IDX 6 1 7 2 12 3 8 4 11 5 9 6 5 7 4 8 2 9 1 10 3 11 10 12
REMARK H PARENT 10 13
REMARK Flexibility Score: inf
ROOT
ATOM      1  C   UNL     1      27.545  28.411   1.675  1.00  0.00    -0.025 A 
ATOM      2  C   UNL     1      27.423  29.310   2.745  1.00  0.00     0.012 A 
ATOM      3  C   UNL     1      28.824  28.093   1.185  1.00  0.00     0.012 A 
ATOM      4  C   UNL     1      28.559  29.924   3.283  1.00  0.00     0.047 A 
ATOM      5  C   UNL     1      29.957  28.708   1.724  1.00  0.00     0.047 A 
ATOM      6  C   UNL     1      29.827  29.629   2.773  1.00  0.00     0.115 A 
ENDROOT
BRANCH   1   7
ATOM      7  C   UNL     1      26.337  27.735   1.158  1.00  0.00     0.010 C 
ATOM      8  C   UNL     1      26.046  26.435   1.319  1.00  0.00     0.025 C 
BRANCH   8   9
ATOM      9  C   UNL     1      26.960  25.415   1.866  1.00  0.00     0.064 C 
ATOM     10  O   UNL     1      27.063  24.305   1.282  1.00  0.00    -0.545 OA
ATOM     11  O   UNL     1      27.763  25.676   2.969  1.00  0.00    -0.545 OA
ENDBRANCH   8   9
ENDBRANCH   1   7
BRANCH   6  12
ATOM     12  O   UNL     1      30.949  30.249   3.318  1.00  0.00    -0.508 OA
ATOM     13  H   UNL     1      30.917  31.207   3.647  1.00  0.00     0.293 HD
ENDBRANCH   6  12
TORSDOF 3
ENDMDL
