MODEL 1
REMARK VINA RESULT:    -4.528      0.000      0.000
REMARK INTER + INTRA:          -9.305
REMARK INTER:                  -8.233
REMARK INTRA:                  -1.072
REMARK UNBOUND:                -1.072
REMARK SMILES CCCCCCCCCCCCCCCC(=O)[O-]
REMARK SMILES IDX 9 1 10 2 11 3 12 4 13 5 14 6 15 7 16 8 17 9 18 10 8 11 7 12
REMARK SMILES IDX 6 13 5 14 4 15 3 16 2 17 1 18
REMARK H PARENT
REMARK Flexibility Score: inf
ROOT
ATOM      1  C   UNL     1      15.597  50.692  94.930  1.00  0.00     0.000 C 
ENDROOT
BRANCH   1   2
ATOM      2  C   UNL     1      14.238  51.027  95.572  1.00  0.00     0.000 C 
BRANCH   2   3
ATOM      3  C   UNL     1      14.146  50.527  97.029  1.00  0.00     0.000 C 
BRANCH   3   4
ATOM      4  C   UNL     1      12.900  49.670  97.310  1.00  0.00     0.000 C 
BRANCH   4   5
ATOM      5  C   UNL     1      12.366  48.964  96.052  1.00  0.00     0.000 C 
BRANCH   5   6
ATOM      6  C   UNL     1      10.918  48.469  96.218  1.00  0.00     0.006 C 
BRANCH   6   7
ATOM      7  C   UNL     1      10.426  48.420  97.675  1.00  0.00     0.053 C 
BRANCH   7   8
ATOM      8  C   UNL     1       9.195  49.248  97.880  1.00  0.00     0.041 C 
ATOM      9  O   UNL     1       9.281  50.395  98.392  1.00  0.00    -0.550 OA
ATOM     10  O   UNL     1       7.949  48.740  97.535  1.00  0.00    -0.550 OA
ENDBRANCH   7   8
ENDBRANCH   6   7
ENDBRANCH   5   6
ENDBRANCH   4   5
ENDBRANCH   3   4
ENDBRANCH   2   3
ENDBRANCH   1   2
BRANCH   1  11
ATOM     11  C   UNL     1      15.839  49.179  94.800  1.00  0.00     0.000 C 
BRANCH  11  12
ATOM     12  C   UNL     1      15.740  48.687  93.347  1.00  0.00    -0.000 C 
BRANCH  12  13
ATOM     13  C   UNL     1      16.618  47.453  93.075  1.00  0.00    -0.000 C 
BRANCH  13  14
ATOM     14  C   UNL     1      17.471  46.980  94.269  1.00  0.00    -0.000 C 
BRANCH  14  15
ATOM     15  C   UNL     1      18.662  46.071  93.907  1.00  0.00    -0.000 C 
BRANCH  15  16
ATOM     16  C   UNL     1      18.797  45.744  92.409  1.00  0.00    -0.000 C 
BRANCH  16  17
ATOM     17  C   UNL     1      20.070  46.331  91.784  1.00  0.00    -0.003 C 
ATOM     18  C   UNL     1      19.756  47.585  90.974  1.00  0.00     0.004 C 
ENDBRANCH  16  17
ENDBRANCH  15  16
ENDBRANCH  14  15
ENDBRANCH  13  14
ENDBRANCH  12  13
ENDBRANCH  11  12
ENDBRANCH   1  11
TORSDOF 14
ENDMDL
MODEL 2
REMARK VINA RESULT:    -4.329      3.950      8.664
REMARK INTER + INTRA:          -8.944
REMARK INTER:                  -7.822
REMARK INTRA:                  -1.122
REMARK UNBOUND:                -1.072
REMARK SMILES CCCCCCCCCCCCCCCC(=O)[O-]
REMARK SMILES IDX 9 1 10 2 11 3 12 4 13 5 14 6 15 7 16 8 17 9 18 10 8 11 7 12
REMARK SMILES IDX 6 13 5 14 4 15 3 16 2 17 1 18
REMARK H PARENT
REMARK Flexibility Score: inf
ROOT
ATOM      1  C   UNL     1      12.998  49.800  97.567  1.00  0.00     0.000 C 
ENDROOT
BRANCH   1   2
ATOM      2  C   UNL     1      14.097  50.735  97.031  1.00  0.00     0.000 C 
BRANCH   2   3
ATOM      3  C   UNL     1      14.168  50.722  95.489  1.00  0.00     0.000 C 
BRANCH   3   4
ATOM      4  C   UNL     1      15.584  50.480  94.938  1.00  0.00     0.000 C 
BRANCH   4   5
ATOM      5  C   UNL     1      15.844  49.004  94.593  1.00  0.00     0.000 C 
BRANCH   5   6
ATOM      6  C   UNL     1      15.804  48.732  93.078  1.00  0.00     0.006 C 
BRANCH   6   7
ATOM      7  C   UNL     1      16.019  47.258  92.691  1.00  0.00     0.053 C 
BRANCH   7   8
ATOM      8  C   UNL     1      17.438  46.825  92.895  1.00  0.00     0.041 C 
ATOM      9  O   UNL     1      18.302  47.044  92.007  1.00  0.00    -0.550 OA
ATOM     10  O   UNL     1      17.798  46.150  94.055  1.00  0.00    -0.550 OA
ENDBRANCH   7   8
ENDBRANCH   6   7
ENDBRANCH   5   6
ENDBRANCH   4   5
ENDBRANCH   3   4
ENDBRANCH   2   3
ENDBRANCH   1   2
BRANCH   1  11
ATOM     11  C   UNL     1      12.283  49.019  96.454  1.00  0.00     0.000 C 
BRANCH  11  12
ATOM     12  C   UNL     1      10.841  48.639  96.831  1.00  0.00    -0.000 C 
BRANCH  12  13
ATOM     13  C   UNL     1      10.425  49.179  98.211  1.00  0.00    -0.000 C 
BRANCH  13  14
ATOM     14  C   UNL     1       9.144  50.037  98.220  1.00  0.00    -0.000 C 
BRANCH  14  15
ATOM     15  C   UNL     1       8.010  49.535  97.305  1.00  0.00    -0.000 C 
BRANCH  15  16
ATOM     16  C   UNL     1       7.177  50.644  96.637  1.00  0.00    -0.000 C 
BRANCH  16  17
ATOM     17  C   UNL     1       7.712  51.038  95.253  1.00  0.00    -0.003 C 
ATOM     18  C   UNL     1       8.204  49.815  94.485  1.00  0.00     0.004 C 
ENDBRANCH  16  17
ENDBRANCH  15  16
ENDBRANCH  14  15
ENDBRANCH  13  14
ENDBRANCH  12  13
ENDBRANCH  11  12
ENDBRANCH   1  11
TORSDOF 14
ENDMDL
MODEL 3
REMARK VINA RESULT:    -4.262      1.480      2.518
REMARK INTER + INTRA:          -8.823
REMARK INTER:                  -7.858
REMARK INTRA:                  -0.965
REMARK UNBOUND:                -1.072
REMARK SMILES CCCCCCCCCCCCCCCC(=O)[O-]
REMARK SMILES IDX 9 1 10 2 11 3 12 4 13 5 14 6 15 7 16 8 17 9 18 10 8 11 7 12
REMARK SMILES IDX 6 13 5 14 4 15 3 16 2 17 1 18
REMARK H PARENT
REMARK Flexibility Score: inf
ROOT
ATOM      1  C   UNL     1      14.529  50.766  95.954  1.00  0.00     0.000 C 
ENDROOT
BRANCH   1   2
ATOM      2  C   UNL     1      13.362  49.764  95.881  1.00  0.00     0.000 C 
BRANCH   2   3
ATOM      3  C   UNL     1      12.860  49.354  97.282  1.00  0.00     0.000 C 
BRANCH   3   4
ATOM      4  C   UNL     1      11.388  48.907  97.304  1.00  0.00     0.000 C 
BRANCH   4   5
ATOM      5  C   UNL     1      10.584  49.561  98.439  1.00  0.00     0.000 C 
BRANCH   5   6
ATOM      6  C   UNL     1       9.134  49.884  98.032  1.00  0.00     0.006 C 
BRANCH   6   7
ATOM      7  C   UNL     1       8.752  49.412  96.618  1.00  0.00     0.053 C 
BRANCH   7   8
ATOM      8  C   UNL     1       7.709  48.337  96.648  1.00  0.00     0.041 C 
ATOM      9  O   UNL     1       6.919  48.193  95.679  1.00  0.00    -0.550 OA
ATOM     10  O   UNL     1       7.592  47.513  97.760  1.00  0.00    -0.550 OA
ENDBRANCH   7   8
ENDBRANCH   6   7
ENDBRANCH   5   6
ENDBRANCH   4   5
ENDBRANCH   3   4
ENDBRANCH   2   3
ENDBRANCH   1   2
BRANCH   1  11
ATOM     11  C   UNL     1      15.630  50.476  94.922  1.00  0.00     0.000 C 
BRANCH  11  12
ATOM     12  C   UNL     1      15.686  48.993  94.518  1.00  0.00    -0.000 C 
BRANCH  12  13
ATOM     13  C   UNL     1      16.046  48.793  93.035  1.00  0.00    -0.000 C 
BRANCH  13  14
ATOM     14  C   UNL     1      16.223  47.326  92.595  1.00  0.00    -0.000 C 
BRANCH  14  15
ATOM     15  C   UNL     1      17.679  46.822  92.558  1.00  0.00    -0.000 C 
BRANCH  15  16
ATOM     16  C   UNL     1      18.044  45.812  93.660  1.00  0.00    -0.000 C 
BRANCH  16  17
ATOM     17  C   UNL     1      18.788  46.460  94.837  1.00  0.00    -0.003 C 
ATOM     18  C   UNL     1      17.899  46.535  96.074  1.00  0.00     0.004 C 
ENDBRANCH  16  17
ENDBRANCH  15  16
ENDBRANCH  14  15
ENDBRANCH  13  14
ENDBRANCH  12  13
ENDBRANCH  11  12
ENDBRANCH   1  11
TORSDOF 14
ENDMDL
MODEL 4
REMARK VINA RESULT:    -4.231      3.401      6.365
REMARK INTER + INTRA:          -8.765
REMARK INTER:                  -7.415
REMARK INTRA:                  -1.350
REMARK UNBOUND:                -1.072
REMARK SMILES CCCCCCCCCCCCCCCC(=O)[O-]
REMARK SMILES IDX 9 1 10 2 11 3 12 4 13 5 14 6 15 7 16 8 17 9 18 10 8 11 7 12
REMARK SMILES IDX 6 13 5 14 4 15 3 16 2 17 1 18
REMARK H PARENT
REMARK Flexibility Score: inf
ROOT
ATOM      1  C   UNL     1       8.778  50.132  97.992  1.00  0.00     0.000 C 
ENDROOT
BRANCH   1   2
ATOM      2  C   UNL     1       8.244  49.340  96.785  1.00  0.00     0.000 C 
BRANCH   2   3
ATOM      3  C   UNL     1       8.076  50.230  95.536  1.00  0.00     0.000 C 
BRANCH   3   4
ATOM      4  C   UNL     1       8.349  49.495  94.212  1.00  0.00     0.000 C 
BRANCH   4   5
ATOM      5  C   UNL     1       9.828  49.114  94.037  1.00  0.00     0.000 C 
BRANCH   5   6
ATOM      6  C   UNL     1      10.398  49.548  92.674  1.00  0.00     0.006 C 
BRANCH   6   7
ATOM      7  C   UNL     1       9.487  50.500  91.880  1.00  0.00     0.053 C 
BRANCH   7   8
ATOM      8  C   UNL     1      10.113  51.847  91.687  1.00  0.00     0.041 C 
ATOM      9  O   UNL     1      10.008  52.443  90.584  1.00  0.00    -0.550 OA
ATOM     10  O   UNL     1      10.839  52.430  92.718  1.00  0.00    -0.550 OA
ENDBRANCH   7   8
ENDBRANCH   6   7
ENDBRANCH   5   6
ENDBRANCH   4   5
ENDBRANCH   3   4
ENDBRANCH   2   3
ENDBRANCH   1   2
BRANCH   1  11
ATOM     11  C   UNL     1      10.167  49.658  98.449  1.00  0.00     0.000 C 
BRANCH  11  12
ATOM     12  C   UNL     1      10.731  48.535  97.562  1.00  0.00    -0.000 C 
BRANCH  12  13
ATOM     13  C   UNL     1      12.045  48.931  96.865  1.00  0.00    -0.000 C 
BRANCH  13  14
ATOM     14  C   UNL     1      12.868  50.016  97.586  1.00  0.00    -0.000 C 
BRANCH  14  15
ATOM     15  C   UNL     1      14.220  50.361  96.930  1.00  0.00    -0.000 C 
BRANCH  15  16
ATOM     16  C   UNL     1      14.162  50.593  95.409  1.00  0.00    -0.000 C 
BRANCH  16  17
ATOM     17  C   UNL     1      15.522  50.398  94.726  1.00  0.00    -0.003 C 
ATOM     18  C   UNL     1      15.525  49.145  93.854  1.00  0.00     0.004 C 
ENDBRANCH  16  17
ENDBRANCH  15  16
ENDBRANCH  14  15
ENDBRANCH  13  14
ENDBRANCH  12  13
ENDBRANCH  11  12
ENDBRANCH   1  11
TORSDOF 14
ENDMDL
MODEL 5
REMARK VINA RESULT:    -4.170      4.489      7.267
REMARK INTER + INTRA:          -8.655
REMARK INTER:                  -7.817
REMARK INTRA:                  -0.838
REMARK UNBOUND:                -1.072
REMARK SMILES CCCCCCCCCCCCCCCC(=O)[O-]
REMARK SMILES IDX 9 1 10 2 11 3 12 4 13 5 14 6 15 7 16 8 17 9 18 10 8 11 7 12
REMARK SMILES IDX 6 13 5 14 4 15 3 16 2 17 1 18
REMARK H PARENT
REMARK Flexibility Score: inf
ROOT
ATOM      1  C   UNL     1      10.532  48.896  97.662  1.00  0.00     0.000 C 
ENDROOT
BRANCH   1   2
ATOM      2  C   UNL     1      11.898  49.591  97.806  1.00  0.00     0.000 C 
BRANCH   2   3
ATOM      3  C   UNL     1      12.854  49.240  96.647  1.00  0.00     0.000 C 
BRANCH   3   4
ATOM      4  C   UNL     1      14.138  50.087  96.627  1.00  0.00     0.000 C 
BRANCH   4   5
ATOM      5  C   UNL     1      14.644  50.368  95.202  1.00  0.00     0.000 C 
BRANCH   5   6
ATOM      6  C   UNL     1      15.797  49.437  94.785  1.00  0.00     0.006 C 
BRANCH   6   7
ATOM      7  C   UNL     1      15.536  48.640  93.495  1.00  0.00     0.053 C 
BRANCH   7   8
ATOM      8  C   UNL     1      16.663  47.709  93.172  1.00  0.00     0.041 C 
ATOM      9  O   UNL     1      17.056  47.577  91.984  1.00  0.00    -0.550 OA
ATOM     10  O   UNL     1      17.259  46.962  94.181  1.00  0.00    -0.550 OA
ENDBRANCH   7   8
ENDBRANCH   6   7
ENDBRANCH   5   6
ENDBRANCH   4   5
ENDBRANCH   3   4
ENDBRANCH   2   3
ENDBRANCH   1   2
BRANCH   1  11
ATOM     11  C   UNL     1      10.213  48.502  96.211  1.00  0.00     0.000 C 
BRANCH  11  12
ATOM     12  C   UNL     1      10.178  46.978  96.006  1.00  0.00    -0.000 C 
BRANCH  12  13
ATOM     13  C   UNL     1      10.534  46.563  94.567  1.00  0.00    -0.000 C 
BRANCH  13  14
ATOM     14  C   UNL     1      10.251  45.087  94.223  1.00  0.00    -0.000 C 
BRANCH  14  15
ATOM     15  C   UNL     1      11.468  44.284  93.722  1.00  0.00    -0.000 C 
BRANCH  15  16
ATOM     16  C   UNL     1      11.707  42.948  94.448  1.00  0.00    -0.000 C 
BRANCH  16  17
ATOM     17  C   UNL     1      10.939  42.846  95.774  1.00  0.00    -0.003 C 
ATOM     18  C   UNL     1      11.782  42.161  96.845  1.00  0.00     0.004 C 
ENDBRANCH  16  17
ENDBRANCH  15  16
ENDBRANCH  14  15
ENDBRANCH  13  14
ENDBRANCH  12  13
ENDBRANCH  11  12
ENDBRANCH   1  11
TORSDOF 14
ENDMDL
MODEL 6
REMARK VINA RESULT:    -4.168      4.295      6.843
REMARK INTER + INTRA:          -8.652
REMARK INTER:                  -7.843
REMARK INTRA:                  -0.809
REMARK UNBOUND:                -1.072
REMARK SMILES CCCCCCCCCCCCCCCC(=O)[O-]
REMARK SMILES IDX 9 1 10 2 11 3 12 4 13 5 14 6 15 7 16 8 17 9 18 10 8 11 7 12
REMARK SMILES IDX 6 13 5 14 4 15 3 16 2 17 1 18
REMARK H PARENT
REMARK Flexibility Score: inf
ROOT
ATOM      1  C   UNL     1       8.983  47.449  96.908  1.00  0.00     0.000 C 
ENDROOT
BRANCH   1   2
ATOM      2  C   UNL     1       8.653  48.895  97.323  1.00  0.00     0.000 C 
BRANCH   2   3
ATOM      3  C   UNL     1       9.827  49.569  98.064  1.00  0.00     0.000 C 
BRANCH   3   4
ATOM      4  C   UNL     1      11.173  48.850  97.872  1.00  0.00     0.000 C 
BRANCH   4   5
ATOM      5  C   UNL     1      12.358  49.824  97.764  1.00  0.00     0.000 C 
BRANCH   5   6
ATOM      6  C   UNL     1      13.535  49.241  96.960  1.00  0.00     0.006 C 
BRANCH   6   7
ATOM      7  C   UNL     1      13.871  50.016  95.674  1.00  0.00     0.053 C 
BRANCH   7   8
ATOM      8  C   UNL     1      15.302  49.839  95.268  1.00  0.00     0.041 C 
ATOM      9  O   UNL     1      15.888  50.733  94.604  1.00  0.00    -0.550 OA
ATOM     10  O   UNL     1      15.979  48.672  95.599  1.00  0.00    -0.550 OA
ENDBRANCH   7   8
ENDBRANCH   6   7
ENDBRANCH   5   6
ENDBRANCH   4   5
ENDBRANCH   3   4
ENDBRANCH   2   3
ENDBRANCH   1   2
BRANCH   1  11
ATOM     11  C   UNL     1       9.079  47.273  95.384  1.00  0.00     0.000 C 
BRANCH  11  12
ATOM     12  C   UNL     1      10.181  46.282  94.972  1.00  0.00    -0.000 C 
BRANCH  12  13
ATOM     13  C   UNL     1       9.894  44.844  95.440  1.00  0.00    -0.000 C 
BRANCH  13  14
ATOM     14  C   UNL     1      10.904  43.784  94.960  1.00  0.00    -0.000 C 
BRANCH  14  15
ATOM     15  C   UNL     1      10.774  42.400  95.627  1.00  0.00    -0.000 C 
BRANCH  15  16
ATOM     16  C   UNL     1      12.012  41.943  96.419  1.00  0.00    -0.000 C 
BRANCH  16  17
ATOM     17  C   UNL     1      13.327  42.214  95.676  1.00  0.00    -0.003 C 
ATOM     18  C   UNL     1      14.486  42.383  96.653  1.00  0.00     0.004 C 
ENDBRANCH  16  17
ENDBRANCH  15  16
ENDBRANCH  14  15
ENDBRANCH  13  14
ENDBRANCH  12  13
ENDBRANCH  11  12
ENDBRANCH   1  11
TORSDOF 14
ENDMDL
MODEL 7
REMARK VINA RESULT:    -4.168      4.285      7.329
REMARK INTER + INTRA:          -8.652
REMARK INTER:                  -7.691
REMARK INTRA:                  -0.961
REMARK UNBOUND:                -1.072
REMARK SMILES CCCCCCCCCCCCCCCC(=O)[O-]
REMARK SMILES IDX 9 1 10 2 11 3 12 4 13 5 14 6 15 7 16 8 17 9 18 10 8 11 7 12
REMARK SMILES IDX 6 13 5 14 4 15 3 16 2 17 1 18
REMARK H PARENT
REMARK Flexibility Score: inf
ROOT
ATOM      1  C   UNL     1       8.137  47.232  97.331  1.00  0.00     0.000 C 
ENDROOT
BRANCH   1   2
ATOM      2  C   UNL     1       9.456  46.610  96.839  1.00  0.00     0.000 C 
BRANCH   2   3
ATOM      3  C   UNL     1       9.237  45.650  95.651  1.00  0.00     0.000 C 
BRANCH   3   4
ATOM      4  C   UNL     1      10.407  45.627  94.652  1.00  0.00     0.000 C 
BRANCH   4   5
ATOM      5  C   UNL     1      10.986  44.217  94.446  1.00  0.00     0.000 C 
BRANCH   5   6
ATOM      6  C   UNL     1      10.764  43.299  95.662  1.00  0.00     0.006 C 
BRANCH   6   7
ATOM      7  C   UNL     1      11.602  42.009  95.646  1.00  0.00     0.053 C 
BRANCH   7   8
ATOM      8  C   UNL     1      13.071  42.292  95.718  1.00  0.00     0.041 C 
ATOM      9  O   UNL     1      13.734  42.476  94.664  1.00  0.00    -0.550 OA
ATOM     10  O   UNL     1      13.714  42.322  96.950  1.00  0.00    -0.550 OA
ENDBRANCH   7   8
ENDBRANCH   6   7
ENDBRANCH   5   6
ENDBRANCH   4   5
ENDBRANCH   3   4
ENDBRANCH   2   3
ENDBRANCH   1   2
BRANCH   1  11
ATOM     11  C   UNL     1       8.228  48.755  97.521  1.00  0.00     0.000 C 
BRANCH  11  12
ATOM     12  C   UNL     1       9.540  49.341  96.972  1.00  0.00    -0.000 C 
BRANCH  12  13
ATOM     13  C   UNL     1      10.611  49.526  98.062  1.00  0.00    -0.000 C 
BRANCH  13  14
ATOM     14  C   UNL     1      12.059  49.249  97.611  1.00  0.00    -0.000 C 
BRANCH  14  15
ATOM     15  C   UNL     1      12.220  48.824  96.138  1.00  0.00    -0.000 C 
BRANCH  15  16
ATOM     16  C   UNL     1      13.210  49.674  95.322  1.00  0.00    -0.000 C 
BRANCH  16  17
ATOM     17  C   UNL     1      14.632  49.647  95.899  1.00  0.00    -0.003 C 
ATOM     18  C   UNL     1      15.671  49.501  94.791  1.00  0.00     0.004 C 
ENDBRANCH  16  17
ENDBRANCH  15  16
ENDBRANCH  14  15
ENDBRANCH  13  14
ENDBRANCH  12  13
ENDBRANCH  11  12
ENDBRANCH   1  11
TORSDOF 14
ENDMDL
MODEL 8
REMARK VINA RESULT:    -4.131      4.509      6.618
REMARK INTER + INTRA:          -8.584
REMARK INTER:                  -7.441
REMARK INTRA:                  -1.144
REMARK UNBOUND:                -1.072
REMARK SMILES CCCCCCCCCCCCCCCC(=O)[O-]
REMARK SMILES IDX 9 1 10 2 11 3 12 4 13 5 14 6 15 7 16 8 17 9 18 10 8 11 7 12
REMARK SMILES IDX 6 13 5 14 4 15 3 16 2 17 1 18
REMARK H PARENT
REMARK Flexibility Score: inf
ROOT
ATOM      1  C   UNL     1       9.335  46.455  95.494  1.00  0.00     0.000 C 
ENDROOT
BRANCH   1   2
ATOM      2  C   UNL     1       9.586  46.783  96.977  1.00  0.00     0.000 C 
BRANCH   2   3
ATOM      3  C   UNL     1       9.513  48.298  97.257  1.00  0.00     0.000 C 
BRANCH   3   4
ATOM      4  C   UNL     1      10.825  48.891  97.798  1.00  0.00     0.000 C 
BRANCH   4   5
ATOM      5  C   UNL     1      11.935  48.949  96.735  1.00  0.00     0.000 C 
BRANCH   5   6
ATOM      6  C   UNL     1      13.310  49.302  97.331  1.00  0.00     0.006 C 
BRANCH   6   7
ATOM      7  C   UNL     1      14.010  50.492  96.651  1.00  0.00     0.053 C 
BRANCH   7   8
ATOM      8  C   UNL     1      15.123  50.050  95.752  1.00  0.00     0.041 C 
ATOM      9  O   UNL     1      15.586  48.884  95.842  1.00  0.00    -0.550 OA
ATOM     10  O   UNL     1      15.670  50.939  94.834  1.00  0.00    -0.550 OA
ENDBRANCH   7   8
ENDBRANCH   6   7
ENDBRANCH   5   6
ENDBRANCH   4   5
ENDBRANCH   3   4
ENDBRANCH   2   3
ENDBRANCH   1   2
BRANCH   1  11
ATOM     11  C   UNL     1      10.280  45.370  94.954  1.00  0.00     0.000 C 
BRANCH  11  12
ATOM     12  C   UNL     1      10.146  44.038  95.713  1.00  0.00    -0.000 C 
BRANCH  12  13
ATOM     13  C   UNL     1      11.168  42.984  95.250  1.00  0.00    -0.000 C 
BRANCH  13  14
ATOM     14  C   UNL     1      12.082  43.423  94.089  1.00  0.00    -0.000 C 
BRANCH  14  15
ATOM     15  C   UNL     1      12.090  42.483  92.867  1.00  0.00    -0.000 C 
BRANCH  15  16
ATOM     16  C   UNL     1      12.089  43.194  91.502  1.00  0.00    -0.000 C 
BRANCH  16  17
ATOM     17  C   UNL     1      11.910  44.714  91.623  1.00  0.00    -0.003 C 
ATOM     18  C   UNL     1      10.495  45.132  91.237  1.00  0.00     0.004 C 
ENDBRANCH  16  17
ENDBRANCH  15  16
ENDBRANCH  14  15
ENDBRANCH  13  14
ENDBRANCH  12  13
ENDBRANCH  11  12
ENDBRANCH   1  11
TORSDOF 14
ENDMDL
MODEL 9
REMARK VINA RESULT:    -4.022      4.563      7.202
REMARK INTER + INTRA:          -8.386
REMARK INTER:                  -6.294
REMARK INTRA:                  -2.092
REMARK UNBOUND:                -1.072
REMARK SMILES CCCCCCCCCCCCCCCC(=O)[O-]
REMARK SMILES IDX 9 1 10 2 11 3 12 4 13 5 14 6 15 7 16 8 17 9 18 10 8 11 7 12
REMARK SMILES IDX 6 13 5 14 4 15 3 16 2 17 1 18
REMARK H PARENT
REMARK Flexibility Score: inf
ROOT
ATOM      1  C   UNL     1       7.555  48.971  95.841  1.00  0.00     0.000 C 
ENDROOT
BRANCH   1   2
ATOM      2  C   UNL     1       7.878  48.838  97.340  1.00  0.00     0.000 C 
BRANCH   2   3
ATOM      3  C   UNL     1       8.776  49.987  97.845  1.00  0.00     0.000 C 
BRANCH   3   4
ATOM      4  C   UNL     1      10.150  49.520  98.356  1.00  0.00     0.000 C 
BRANCH   4   5
ATOM      5  C   UNL     1      10.724  48.352  97.537  1.00  0.00     0.000 C 
BRANCH   5   6
ATOM      6  C   UNL     1      11.788  48.804  96.521  1.00  0.00     0.006 C 
BRANCH   6   7
ATOM      7  C   UNL     1      13.076  49.358  97.154  1.00  0.00     0.053 C 
BRANCH   7   8
ATOM      8  C   UNL     1      14.068  49.795  96.120  1.00  0.00     0.041 C 
ATOM      9  O   UNL     1      14.955  50.640  96.410  1.00  0.00    -0.550 OA
ATOM     10  O   UNL     1      13.993  49.290  94.828  1.00  0.00    -0.550 OA
ENDBRANCH   7   8
ENDBRANCH   6   7
ENDBRANCH   5   6
ENDBRANCH   4   5
ENDBRANCH   3   4
ENDBRANCH   2   3
ENDBRANCH   1   2
BRANCH   1  11
ATOM     11  C   UNL     1       8.434  50.012  95.131  1.00  0.00     0.000 C 
BRANCH  11  12
ATOM     12  C   UNL     1       9.102  49.455  93.863  1.00  0.00    -0.000 C 
BRANCH  12  13
ATOM     13  C   UNL     1       8.481  48.125  93.398  1.00  0.00    -0.000 C 
BRANCH  13  14
ATOM     14  C   UNL     1       9.487  46.986  93.138  1.00  0.00    -0.000 C 
BRANCH  14  15
ATOM     15  C   UNL     1      10.142  46.388  94.399  1.00  0.00    -0.000 C 
BRANCH  15  16
ATOM     16  C   UNL     1       9.163  45.740  95.394  1.00  0.00    -0.000 C 
BRANCH  16  17
ATOM     17  C   UNL     1       9.850  44.754  96.349  1.00  0.00    -0.003 C 
ATOM     18  C   UNL     1      10.543  43.635  95.578  1.00  0.00     0.004 C 
ENDBRANCH  16  17
ENDBRANCH  15  16
ENDBRANCH  14  15
ENDBRANCH  13  14
ENDBRANCH  12  13
ENDBRANCH  11  12
ENDBRANCH   1  11
TORSDOF 14
ENDMDL
