MODEL 1
REMARK VINA RESULT:    -5.121      0.000      0.000
REMARK INTER + INTRA:          -5.632
REMARK INTER:                  -5.570
REMARK INTRA:                  -0.062
REMARK UNBOUND:                -0.062
REMARK SMILES COc1cc2ccc(=O)oc2cc1O
REMARK SMILES IDX 3 1 13 2 12 3 11 4 5 5 4 6 6 7 7 8 8 9 9 10 10 11 2 12 1 13
REMARK SMILES IDX 14 14
REMARK H PARENT 14 15
REMARK Flexibility Score: inf
ROOT
ATOM      1  C   UNL     1       7.928  -6.602  -6.999  1.00  0.00     0.161 A 
ATOM      2  C   UNL     1       7.587  -5.237  -6.920  1.00  0.00     0.161 A 
ATOM      3  C   UNL     1       7.539  -4.455  -8.079  1.00  0.00     0.098 A 
ATOM      4  C   UNL     1       7.830  -5.017  -9.325  1.00  0.00     0.142 A 
ATOM      5  C   UNL     1       8.172  -6.382  -9.414  1.00  0.00     0.022 A 
ATOM      6  C   UNL     1       8.222  -7.170  -8.255  1.00  0.00     0.062 A 
ATOM      7  C   UNL     1       8.458  -6.917 -10.675  1.00  0.00     0.019 A 
ATOM      8  C   UNL     1       8.396  -6.092 -11.798  1.00  0.00     0.094 A 
ATOM      9  C   UNL     1       8.048  -4.747 -11.633  1.00  0.00     0.336 A 
ATOM     10  O   UNL     1       7.987  -3.986 -12.634  1.00  0.00    -0.246 OA
ATOM     11  O   UNL     1       7.782  -4.265 -10.422  1.00  0.00    -0.423 OA
ENDROOT
BRANCH   1  12
ATOM     12  O   UNL     1       7.967  -7.359  -5.816  1.00  0.00    -0.493 OA
ATOM     13  C   UNL     1       7.042  -8.391  -5.486  1.00  0.00     0.278 C 
ENDBRANCH   1  12
BRANCH   2  14
ATOM     14  O   UNL     1       7.291  -4.640  -5.695  1.00  0.00    -0.504 OA
ATOM     15  H   UNL     1       7.974  -4.097  -5.180  1.00  0.00     0.293 HD
ENDBRANCH   2  14
TORSDOF 2
ENDMDL
MODEL 2
REMARK VINA RESULT:    -5.073      2.745      3.225
REMARK INTER + INTRA:          -5.580
REMARK INTER:                  -5.549
REMARK INTRA:                  -0.031
REMARK UNBOUND:                -0.062
REMARK SMILES COc1cc2ccc(=O)oc2cc1O
REMARK SMILES IDX 3 1 13 2 12 3 11 4 5 5 4 6 6 7 7 8 8 9 9 10 10 11 2 12 1 13
REMARK SMILES IDX 14 14
REMARK H PARENT 14 15
REMARK Flexibility Score: inf
ROOT
ATOM      1  C   UNL     1       8.603  -5.563  -5.848  1.00  0.00     0.161 A 
ATOM      2  C   UNL     1       9.906  -5.217  -6.259  1.00  0.00     0.161 A 
ATOM      3  C   UNL     1      10.458  -5.791  -7.409  1.00  0.00     0.098 A 
ATOM      4  C   UNL     1       9.725  -6.713  -8.162  1.00  0.00     0.142 A 
ATOM      5  C   UNL     1       8.421  -7.065  -7.759  1.00  0.00     0.022 A 
ATOM      6  C   UNL     1       7.864  -6.493  -6.607  1.00  0.00     0.062 A 
ATOM      7  C   UNL     1       7.711  -7.990  -8.532  1.00  0.00     0.019 A 
ATOM      8  C   UNL     1       8.309  -8.532  -9.670  1.00  0.00     0.094 A 
ATOM      9  C   UNL     1       9.607  -8.135 -10.008  1.00  0.00     0.336 A 
ATOM     10  O   UNL     1      10.164  -8.613 -11.031  1.00  0.00    -0.246 OA
ATOM     11  O   UNL     1      10.259  -7.254  -9.254  1.00  0.00    -0.423 OA
ENDROOT
BRANCH   1  12
ATOM     12  O   UNL     1       8.080  -4.968  -4.688  1.00  0.00    -0.493 OA
ATOM     13  C   UNL     1       8.297  -5.448  -3.365  1.00  0.00     0.278 C 
ENDBRANCH   1  12
BRANCH   2  14
ATOM     14  O   UNL     1      10.670  -4.302  -5.534  1.00  0.00    -0.504 OA
ATOM     15  H   UNL     1      11.550  -4.555  -5.102  1.00  0.00     0.293 HD
ENDBRANCH   2  14
TORSDOF 2
ENDMDL
MODEL 3
REMARK VINA RESULT:    -5.069     15.662     17.706
REMARK INTER + INTRA:          -5.575
REMARK INTER:                  -5.534
REMARK INTRA:                  -0.041
REMARK UNBOUND:                -0.062
REMARK SMILES COc1cc2ccc(=O)oc2cc1O
REMARK SMILES IDX 3 1 13 2 12 3 11 4 5 5 4 6 6 7 7 8 8 9 9 10 10 11 2 12 1 13
REMARK SMILES IDX 14 14
REMARK H PARENT 14 15
REMARK Flexibility Score: inf
ROOT
ATOM      1  C   UNL     1      19.870  -1.055 -17.946  1.00  0.00     0.161 A 
ATOM      2  C   UNL     1      20.880  -0.116 -17.660  1.00  0.00     0.161 A 
ATOM      3  C   UNL     1      21.684   0.388 -18.688  1.00  0.00     0.098 A 
ATOM      4  C   UNL     1      21.494  -0.033 -20.006  1.00  0.00     0.142 A 
ATOM      5  C   UNL     1      20.486  -0.973 -20.302  1.00  0.00     0.022 A 
ATOM      6  C   UNL     1      19.678  -1.481 -19.275  1.00  0.00     0.062 A 
ATOM      7  C   UNL     1      20.319  -1.376 -21.631  1.00  0.00     0.019 A 
ATOM      8  C   UNL     1      21.148  -0.842 -22.618  1.00  0.00     0.094 A 
ATOM      9  C   UNL     1      22.128   0.087 -22.249  1.00  0.00     0.336 A 
ATOM     10  O   UNL     1      22.886   0.581 -23.124  1.00  0.00    -0.246 OA
ATOM     11  O   UNL     1      22.265   0.452 -20.977  1.00  0.00    -0.423 OA
ENDROOT
BRANCH   1  12
ATOM     12  O   UNL     1      19.081  -1.541 -16.890  1.00  0.00    -0.493 OA
ATOM     13  C   UNL     1      17.891  -0.917 -16.416  1.00  0.00     0.278 C 
ENDBRANCH   1  12
BRANCH   2  14
ATOM     14  O   UNL     1      21.101   0.329 -16.356  1.00  0.00    -0.504 OA
ATOM     15  H   UNL     1      21.973   0.163 -15.869  1.00  0.00     0.293 HD
ENDBRANCH   2  14
TORSDOF 2
ENDMDL
MODEL 4
REMARK VINA RESULT:    -4.958      1.442      2.501
REMARK INTER + INTRA:          -5.455
REMARK INTER:                  -5.409
REMARK INTRA:                  -0.046
REMARK UNBOUND:                -0.062
REMARK SMILES COc1cc2ccc(=O)oc2cc1O
REMARK SMILES IDX 3 1 13 2 12 3 11 4 5 5 4 6 6 7 7 8 8 9 9 10 10 11 2 12 1 13
REMARK SMILES IDX 14 14
REMARK H PARENT 14 15
REMARK Flexibility Score: inf
ROOT
ATOM      1  C   UNL     1       8.073  -6.405  -6.667  1.00  0.00     0.161 A 
ATOM      2  C   UNL     1       8.398  -7.685  -7.158  1.00  0.00     0.161 A 
ATOM      3  C   UNL     1       8.551  -7.893  -8.533  1.00  0.00     0.098 A 
ATOM      4  C   UNL     1       8.381  -6.838  -9.432  1.00  0.00     0.142 A 
ATOM      5  C   UNL     1       8.055  -5.553  -8.950  1.00  0.00     0.022 A 
ATOM      6  C   UNL     1       7.901  -5.340  -7.573  1.00  0.00     0.062 A 
ATOM      7  C   UNL     1       7.891  -4.516  -9.874  1.00  0.00     0.019 A 
ATOM      8  C   UNL     1       8.054  -4.779 -11.234  1.00  0.00     0.094 A 
ATOM      9  C   UNL     1       8.378  -6.078 -11.639  1.00  0.00     0.336 A 
ATOM     10  O   UNL     1       8.530  -6.336 -12.862  1.00  0.00    -0.246 OA
ATOM     11  O   UNL     1       8.528  -7.046 -10.738  1.00  0.00    -0.423 OA
ENDROOT
BRANCH   1  12
ATOM     12  O   UNL     1       7.927  -6.231  -5.280  1.00  0.00    -0.493 OA
ATOM     13  C   UNL     1       8.258  -5.037  -4.576  1.00  0.00     0.278 C 
ENDBRANCH   1  12
BRANCH   2  14
ATOM     14  O   UNL     1       8.576  -8.764  -6.292  1.00  0.00    -0.504 OA
ATOM     15  H   UNL     1       9.226  -9.515  -6.490  1.00  0.00     0.293 HD
ENDBRANCH   2  14
TORSDOF 2
ENDMDL
MODEL 5
REMARK VINA RESULT:    -4.948      1.444      4.975
REMARK INTER + INTRA:          -5.444
REMARK INTER:                  -5.389
REMARK INTRA:                  -0.055
REMARK UNBOUND:                -0.062
REMARK SMILES COc1cc2ccc(=O)oc2cc1O
REMARK SMILES IDX 3 1 13 2 12 3 11 4 5 5 4 6 6 7 7 8 8 9 9 10 10 11 2 12 1 13
REMARK SMILES IDX 14 14
REMARK H PARENT 14 15
REMARK Flexibility Score: inf
ROOT
ATOM      1  C   UNL     1       7.613  -4.022 -10.811  1.00  0.00     0.161 A 
ATOM      2  C   UNL     1       6.580  -3.516  -9.997  1.00  0.00     0.161 A 
ATOM      3  C   UNL     1       6.465  -3.933  -8.666  1.00  0.00     0.098 A 
ATOM      4  C   UNL     1       7.369  -4.853  -8.131  1.00  0.00     0.142 A 
ATOM      5  C   UNL     1       8.406  -5.365  -8.938  1.00  0.00     0.022 A 
ATOM      6  C   UNL     1       8.526  -4.951 -10.272  1.00  0.00     0.062 A 
ATOM      7  C   UNL     1       9.296  -6.286  -8.375  1.00  0.00     0.019 A 
ATOM      8  C   UNL     1       9.135  -6.667  -7.043  1.00  0.00     0.094 A 
ATOM      9  C   UNL     1       8.083  -6.117  -6.303  1.00  0.00     0.336 A 
ATOM     10  O   UNL     1       7.919  -6.448  -5.099  1.00  0.00    -0.246 OA
ATOM     11  O   UNL     1       7.250  -5.244  -6.864  1.00  0.00    -0.423 OA
ENDROOT
BRANCH   1  12
ATOM     12  O   UNL     1       7.701  -3.582 -12.142  1.00  0.00    -0.493 OA
ATOM     13  C   UNL     1       7.690  -4.441 -13.279  1.00  0.00     0.278 C 
ENDBRANCH   1  12
BRANCH   2  14
ATOM     14  O   UNL     1       5.658  -2.596 -10.494  1.00  0.00    -0.504 OA
ATOM     15  H   UNL     1       5.928  -1.667 -10.792  1.00  0.00     0.293 HD
ENDBRANCH   2  14
TORSDOF 2
ENDMDL
MODEL 6
REMARK VINA RESULT:    -4.902      1.471      5.592
REMARK INTER + INTRA:          -5.394
REMARK INTER:                  -5.351
REMARK INTRA:                  -0.043
REMARK UNBOUND:                -0.062
REMARK SMILES COc1cc2ccc(=O)oc2cc1O
REMARK SMILES IDX 3 1 13 2 12 3 11 4 5 5 4 6 6 7 7 8 8 9 9 10 10 11 2 12 1 13
REMARK SMILES IDX 14 14
REMARK H PARENT 14 15
REMARK Flexibility Score: inf
ROOT
ATOM      1  C   UNL     1       7.972  -5.007 -12.207  1.00  0.00     0.161 A 
ATOM      2  C   UNL     1       8.374  -6.357 -12.165  1.00  0.00     0.161 A 
ATOM      3  C   UNL     1       8.527  -7.008 -10.937  1.00  0.00     0.098 A 
ATOM      4  C   UNL     1       8.284  -6.330  -9.740  1.00  0.00     0.142 A 
ATOM      5  C   UNL     1       7.881  -4.978  -9.772  1.00  0.00     0.022 A 
ATOM      6  C   UNL     1       7.727  -4.321 -11.000  1.00  0.00     0.062 A 
ATOM      7  C   UNL     1       7.645  -4.325  -8.558  1.00  0.00     0.019 A 
ATOM      8  C   UNL     1       7.813  -5.021  -7.361  1.00  0.00     0.094 A 
ATOM      9  C   UNL     1       8.215  -6.361  -7.408  1.00  0.00     0.336 A 
ATOM     10  O   UNL     1       8.372  -7.007  -6.339  1.00  0.00    -0.246 OA
ATOM     11  O   UNL     1       8.433  -6.958  -8.576  1.00  0.00    -0.423 OA
ENDROOT
BRANCH   1  12
ATOM     12  O   UNL     1       7.828  -4.383 -13.458  1.00  0.00    -0.493 OA
ATOM     13  C   UNL     1       7.598  -2.990 -13.644  1.00  0.00     0.278 C 
ENDBRANCH   1  12
BRANCH   2  14
ATOM     14  O   UNL     1       8.626  -7.069 -13.338  1.00  0.00    -0.504 OA
ATOM     15  H   UNL     1       7.882  -7.449 -13.910  1.00  0.00     0.293 HD
ENDBRANCH   2  14
TORSDOF 2
ENDMDL
MODEL 7
REMARK VINA RESULT:    -4.864      3.143      3.686
REMARK INTER + INTRA:          -5.352
REMARK INTER:                  -5.305
REMARK INTRA:                  -0.048
REMARK UNBOUND:                -0.062
REMARK SMILES COc1cc2ccc(=O)oc2cc1O
REMARK SMILES IDX 3 1 13 2 12 3 11 4 5 5 4 6 6 7 7 8 8 9 9 10 10 11 2 12 1 13
REMARK SMILES IDX 14 14
REMARK H PARENT 14 15
REMARK Flexibility Score: inf
ROOT
ATOM      1  C   UNL     1       8.917  -5.804  -8.313  1.00  0.00     0.161 A 
ATOM      2  C   UNL     1      10.244  -5.640  -7.869  1.00  0.00     0.161 A 
ATOM      3  C   UNL     1      11.310  -6.093  -8.654  1.00  0.00     0.098 A 
ATOM      4  C   UNL     1      11.072  -6.712  -9.883  1.00  0.00     0.142 A 
ATOM      5  C   UNL     1       9.746  -6.880 -10.336  1.00  0.00     0.022 A 
ATOM      6  C   UNL     1       8.675  -6.428  -9.553  1.00  0.00     0.062 A 
ATOM      7  C   UNL     1       9.538  -7.503 -11.571  1.00  0.00     0.019 A 
ATOM      8  C   UNL     1      10.637  -7.936 -12.313  1.00  0.00     0.094 A 
ATOM      9  C   UNL     1      11.923  -7.735 -11.800  1.00  0.00     0.336 A 
ATOM     10  O   UNL     1      12.928  -8.119 -12.454  1.00  0.00    -0.246 OA
ATOM     11  O   UNL     1      12.092  -7.140 -10.622  1.00  0.00    -0.423 OA
ENDROOT
BRANCH   1  12
ATOM     12  O   UNL     1       7.870  -5.337  -7.501  1.00  0.00    -0.493 OA
ATOM     13  C   UNL     1       6.690  -4.705  -7.987  1.00  0.00     0.278 C 
ENDBRANCH   1  12
BRANCH   2  14
ATOM     14  O   UNL     1      10.524  -5.028  -6.647  1.00  0.00    -0.504 OA
ATOM     15  H   UNL     1      10.746  -5.560  -5.815  1.00  0.00     0.293 HD
ENDBRANCH   2  14
TORSDOF 2
ENDMDL
MODEL 8
REMARK VINA RESULT:    -4.811      2.194      2.758
REMARK INTER + INTRA:          -5.295
REMARK INTER:                  -5.250
REMARK INTRA:                  -0.045
REMARK UNBOUND:                -0.062
REMARK SMILES COc1cc2ccc(=O)oc2cc1O
REMARK SMILES IDX 3 1 13 2 12 3 11 4 5 5 4 6 6 7 7 8 8 9 9 10 10 11 2 12 1 13
REMARK SMILES IDX 14 14
REMARK H PARENT 14 15
REMARK Flexibility Score: inf
ROOT
ATOM      1  C   UNL     1       8.091  -5.377  -7.050  1.00  0.00     0.161 A 
ATOM      2  C   UNL     1       7.534  -4.795  -8.206  1.00  0.00     0.161 A 
ATOM      3  C   UNL     1       8.036  -5.123  -9.470  1.00  0.00     0.098 A 
ATOM      4  C   UNL     1       9.093  -6.028  -9.600  1.00  0.00     0.142 A 
ATOM      5  C   UNL     1       9.657  -6.615  -8.448  1.00  0.00     0.022 A 
ATOM      6  C   UNL     1       9.157  -6.289  -7.179  1.00  0.00     0.062 A 
ATOM      7  C   UNL     1      10.713  -7.517  -8.609  1.00  0.00     0.019 A 
ATOM      8  C   UNL     1      11.176  -7.808  -9.893  1.00  0.00     0.094 A 
ATOM      9  C   UNL     1      10.567  -7.187 -10.989  1.00  0.00     0.336 A 
ATOM     10  O   UNL     1      10.970  -7.435 -12.156  1.00  0.00    -0.246 OA
ATOM     11  O   UNL     1       9.564  -6.332 -10.807  1.00  0.00    -0.423 OA
ENDROOT
BRANCH   1  12
ATOM     12  O   UNL     1       7.562  -5.026  -5.796  1.00  0.00    -0.493 OA
ATOM     13  C   UNL     1       8.303  -5.022  -4.579  1.00  0.00     0.278 C 
ENDBRANCH   1  12
BRANCH   2  14
ATOM     14  O   UNL     1       6.478  -3.888  -8.118  1.00  0.00    -0.504 OA
ATOM     15  H   UNL     1       5.798  -3.922  -7.369  1.00  0.00     0.293 HD
ENDBRANCH   2  14
TORSDOF 2
ENDMDL
