MODEL 1
REMARK VINA RESULT:    -4.113      0.000      0.000
REMARK INTER + INTRA:         -16.467
REMARK INTER:                 -10.845
REMARK INTRA:                  -5.622
REMARK UNBOUND:                -5.622
REMARK SMILES CCCCCCCCCCCCCCCCCCCCCCCCCCCCCC(=O)[O-]
REMARK SMILES IDX 16 1 17 2 18 3 19 4 20 5 21 6 22 7 23 8 24 9 25 10 26 11
REMARK SMILES IDX 27 12 28 13 29 14 30 15 31 16 32 17 15 18 14 19 13 20 12 21
REMARK SMILES IDX 11 22 10 23 9 24 8 25 7 26 6 27 5 28 4 29 3 30 2 31 1 32
REMARK H PARENT
REMARK Flexibility Score: inf
ROOT
ATOM      1  C   UNL     1      25.746   2.962  15.048  1.00  0.00     0.000 C 
ENDROOT
BRANCH   1   2
ATOM      2  C   UNL     1      25.626   2.651  16.551  1.00  0.00     0.000 C 
BRANCH   2   3
ATOM      3  C   UNL     1      24.911   1.320  16.829  1.00  0.00     0.000 C 
BRANCH   3   4
ATOM      4  C   UNL     1      25.242   0.747  18.217  1.00  0.00     0.000 C 
BRANCH   4   5
ATOM      5  C   UNL     1      25.120   1.805  19.327  1.00  0.00     0.000 C 
BRANCH   5   6
ATOM      6  C   UNL     1      23.659   2.195  19.604  1.00  0.00     0.000 C 
BRANCH   6   7
ATOM      7  C   UNL     1      23.558   3.659  20.058  1.00  0.00     0.000 C 
BRANCH   7   8
ATOM      8  C   UNL     1      22.932   4.579  18.994  1.00  0.00     0.000 C 
BRANCH   8   9
ATOM      9  C   UNL     1      22.430   3.866  17.725  1.00  0.00     0.000 C 
BRANCH   9  10
ATOM     10  C   UNL     1      22.510   4.748  16.466  1.00  0.00     0.000 C 
BRANCH  10  11
ATOM     11  C   UNL     1      23.221   6.084  16.738  1.00  0.00     0.000 C 
BRANCH  11  12
ATOM     12  C   UNL     1      23.755   6.732  15.449  1.00  0.00     0.000 C 
BRANCH  12  13
ATOM     13  C   UNL     1      23.492   5.876  14.201  1.00  0.00     0.006 C 
BRANCH  13  14
ATOM     14  C   UNL     1      22.356   6.427  13.329  1.00  0.00     0.053 C 
BRANCH  14  15
ATOM     15  C   UNL     1      22.910   7.223  12.190  1.00  0.00     0.041 C 
ATOM     16  O   UNL     1      22.162   7.994  11.533  1.00  0.00    -0.550 OA
ATOM     17  O   UNL     1      24.246   7.085  11.828  1.00  0.00    -0.550 OA
ENDBRANCH  14  15
ENDBRANCH  13  14
ENDBRANCH  12  13
ENDBRANCH  11  12
ENDBRANCH  10  11
ENDBRANCH   9  10
ENDBRANCH   8   9
ENDBRANCH   7   8
ENDBRANCH   6   7
ENDBRANCH   5   6
ENDBRANCH   4   5
ENDBRANCH   3   4
ENDBRANCH   2   3
ENDBRANCH   1   2
BRANCH   1  18
ATOM     18  C   UNL     1      26.895   3.937  14.740  1.00  0.00     0.000 C 
BRANCH  18  19
ATOM     19  C   UNL     1      27.159   4.920  15.890  1.00  0.00     0.000 C 
BRANCH  19  20
ATOM     20  C   UNL     1      27.453   6.349  15.402  1.00  0.00     0.000 C 
BRANCH  20  21
ATOM     21  C   UNL     1      28.956   6.659  15.236  1.00  0.00     0.000 C 
BRANCH  21  22
ATOM     22  C   UNL     1      29.848   5.675  16.015  1.00  0.00     0.000 C 
BRANCH  22  23
ATOM     23  C   UNL     1      30.579   6.340  17.191  1.00  0.00     0.000 C 
BRANCH  23  24
ATOM     24  C   UNL     1      30.021   5.918  18.558  1.00  0.00    -0.000 C 
BRANCH  24  25
ATOM     25  C   UNL     1      30.107   4.395  18.732  1.00  0.00    -0.000 C 
BRANCH  25  26
ATOM     26  C   UNL     1      28.723   3.785  18.985  1.00  0.00    -0.000 C 
BRANCH  26  27
ATOM     27  C   UNL     1      28.586   2.356  18.429  1.00  0.00    -0.000 C 
BRANCH  27  28
ATOM     28  C   UNL     1      29.289   2.150  17.071  1.00  0.00    -0.000 C 
BRANCH  28  29
ATOM     29  C   UNL     1      30.045   0.810  17.006  1.00  0.00    -0.000 C 
BRANCH  29  30
ATOM     30  C   UNL     1      29.128  -0.369  16.643  1.00  0.00    -0.000 C 
BRANCH  30  31
ATOM     31  C   UNL     1      28.101  -0.008  15.560  1.00  0.00    -0.003 C 
ATOM     32  C   UNL     1      28.734  -0.045  14.172  1.00  0.00     0.004 C 
ENDBRANCH  30  31
ENDBRANCH  29  30
ENDBRANCH  28  29
ENDBRANCH  27  28
ENDBRANCH  26  27
ENDBRANCH  25  26
ENDBRANCH  24  25
ENDBRANCH  23  24
ENDBRANCH  22  23
ENDBRANCH  21  22
ENDBRANCH  20  21
ENDBRANCH  19  20
ENDBRANCH  18  19
ENDBRANCH   1  18
TORSDOF 28
ENDMDL
MODEL 2
REMARK VINA RESULT:    -4.027      1.340      5.069
REMARK INTER + INTRA:         -16.241
REMARK INTER:                 -10.737
REMARK INTRA:                  -5.504
REMARK UNBOUND:                -5.622
REMARK SMILES CCCCCCCCCCCCCCCCCCCCCCCCCCCCCC(=O)[O-]
REMARK SMILES IDX 16 1 17 2 18 3 19 4 20 5 21 6 22 7 23 8 24 9 25 10 26 11
REMARK SMILES IDX 27 12 28 13 29 14 30 15 31 16 32 17 15 18 14 19 13 20 12 21
REMARK SMILES IDX 11 22 10 23 9 24 8 25 7 26 6 27 5 28 4 29 3 30 2 31 1 32
REMARK H PARENT
REMARK Flexibility Score: inf
ROOT
ATOM      1  C   UNL     1      23.181   5.417  17.701  1.00  0.00     0.000 C 
ENDROOT
BRANCH   1   2
ATOM      2  C   UNL     1      22.258   5.947  16.589  1.00  0.00     0.000 C 
BRANCH   2   3
ATOM      3  C   UNL     1      23.004   6.802  15.553  1.00  0.00     0.000 C 
BRANCH   3   4
ATOM      4  C   UNL     1      24.442   7.137  15.984  1.00  0.00     0.000 C 
BRANCH   4   5
ATOM      5  C   UNL     1      25.458   6.902  14.853  1.00  0.00     0.000 C 
BRANCH   5   6
ATOM      6  C   UNL     1      26.691   6.118  15.330  1.00  0.00     0.000 C 
BRANCH   6   7
ATOM      7  C   UNL     1      26.614   4.650  14.883  1.00  0.00     0.000 C 
BRANCH   7   8
ATOM      8  C   UNL     1      25.984   3.728  15.943  1.00  0.00     0.000 C 
BRANCH   8   9
ATOM      9  C   UNL     1      24.742   2.947  15.477  1.00  0.00     0.000 C 
BRANCH   9  10
ATOM     10  C   UNL     1      24.136   3.499  14.174  1.00  0.00     0.000 C 
BRANCH  10  11
ATOM     11  C   UNL     1      22.617   3.269  14.097  1.00  0.00     0.000 C 
BRANCH  11  12
ATOM     12  C   UNL     1      21.985   3.960  12.878  1.00  0.00     0.000 C 
BRANCH  12  13
ATOM     13  C   UNL     1      22.765   5.205  12.430  1.00  0.00     0.006 C 
BRANCH  13  14
ATOM     14  C   UNL     1      22.042   5.999  11.333  1.00  0.00     0.053 C 
BRANCH  14  15
ATOM     15  C   UNL     1      21.756   7.392  11.798  1.00  0.00     0.041 C 
ATOM     16  O   UNL     1      22.301   8.374  11.228  1.00  0.00    -0.550 OA
ATOM     17  O   UNL     1      20.918   7.605  12.887  1.00  0.00    -0.550 OA
ENDBRANCH  14  15
ENDBRANCH  13  14
ENDBRANCH  12  13
ENDBRANCH  11  12
ENDBRANCH  10  11
ENDBRANCH   9  10
ENDBRANCH   8   9
ENDBRANCH   7   8
ENDBRANCH   6   7
ENDBRANCH   5   6
ENDBRANCH   4   5
ENDBRANCH   3   4
ENDBRANCH   2   3
ENDBRANCH   1   2
BRANCH   1  18
ATOM     18  C   UNL     1      22.733   4.045  18.231  1.00  0.00     0.000 C 
BRANCH  18  19
ATOM     19  C   UNL     1      22.736   3.975  19.767  1.00  0.00     0.000 C 
BRANCH  19  20
ATOM     20  C   UNL     1      23.622   2.843  20.313  1.00  0.00     0.000 C 
BRANCH  20  21
ATOM     21  C   UNL     1      24.910   2.603  19.496  1.00  0.00     0.000 C 
BRANCH  21  22
ATOM     22  C   UNL     1      25.422   1.155  19.618  1.00  0.00     0.000 C 
BRANCH  22  23
ATOM     23  C   UNL     1      26.549   0.839  18.623  1.00  0.00     0.000 C 
BRANCH  23  24
ATOM     24  C   UNL     1      26.042   0.157  17.344  1.00  0.00    -0.000 C 
BRANCH  24  25
ATOM     25  C   UNL     1      27.167  -0.642  16.672  1.00  0.00    -0.000 C 
BRANCH  25  26
ATOM     26  C   UNL     1      28.540  -0.024  16.968  1.00  0.00    -0.000 C 
BRANCH  26  27
ATOM     27  C   UNL     1      29.064   0.854  15.818  1.00  0.00    -0.000 C 
BRANCH  27  28
ATOM     28  C   UNL     1      29.347   2.314  16.231  1.00  0.00    -0.000 C 
BRANCH  28  29
ATOM     29  C   UNL     1      30.353   2.403  17.393  1.00  0.00    -0.000 C 
BRANCH  29  30
ATOM     30  C   UNL     1      29.709   2.906  18.695  1.00  0.00    -0.000 C 
BRANCH  30  31
ATOM     31  C   UNL     1      28.733   4.068  18.461  1.00  0.00    -0.003 C 
ATOM     32  C   UNL     1      29.479   5.395  18.349  1.00  0.00     0.004 C 
ENDBRANCH  30  31
ENDBRANCH  29  30
ENDBRANCH  28  29
ENDBRANCH  27  28
ENDBRANCH  26  27
ENDBRANCH  25  26
ENDBRANCH  24  25
ENDBRANCH  23  24
ENDBRANCH  22  23
ENDBRANCH  21  22
ENDBRANCH  20  21
ENDBRANCH  19  20
ENDBRANCH  18  19
ENDBRANCH   1  18
TORSDOF 28
ENDMDL
MODEL 3
REMARK VINA RESULT:    -4.011      1.565      5.499
REMARK INTER + INTRA:         -16.199
REMARK INTER:                 -10.641
REMARK INTRA:                  -5.558
REMARK UNBOUND:                -5.622
REMARK SMILES CCCCCCCCCCCCCCCCCCCCCCCCCCCCCC(=O)[O-]
REMARK SMILES IDX 16 1 17 2 18 3 19 4 20 5 21 6 22 7 23 8 24 9 25 10 26 11
REMARK SMILES IDX 27 12 28 13 29 14 30 15 31 16 32 17 15 18 14 19 13 20 12 21
REMARK SMILES IDX 11 22 10 23 9 24 8 25 7 26 6 27 5 28 4 29 3 30 2 31 1 32
REMARK H PARENT
REMARK Flexibility Score: inf
ROOT
ATOM      1  C   UNL     1      23.168   4.123  16.519  1.00  0.00     0.000 C 
ENDROOT
BRANCH   1   2
ATOM      2  C   UNL     1      24.145   5.303  16.663  1.00  0.00     0.000 C 
BRANCH   2   3
ATOM      3  C   UNL     1      24.125   6.245  15.450  1.00  0.00     0.000 C 
BRANCH   3   4
ATOM      4  C   UNL     1      25.382   7.129  15.363  1.00  0.00     0.000 C 
BRANCH   4   5
ATOM      5  C   UNL     1      26.665   6.298  15.191  1.00  0.00     0.000 C 
BRANCH   5   6
ATOM      6  C   UNL     1      26.561   5.295  14.030  1.00  0.00     0.000 C 
BRANCH   6   7
ATOM      7  C   UNL     1      27.562   4.143  14.209  1.00  0.00     0.000 C 
BRANCH   7   8
ATOM      8  C   UNL     1      26.919   2.754  14.046  1.00  0.00     0.000 C 
BRANCH   8   9
ATOM      9  C   UNL     1      25.388   2.756  13.879  1.00  0.00     0.000 C 
BRANCH   9  10
ATOM     10  C   UNL     1      24.937   2.398  12.451  1.00  0.00     0.000 C 
BRANCH  10  11
ATOM     11  C   UNL     1      24.063   3.498  11.826  1.00  0.00     0.000 C 
BRANCH  11  12
ATOM     12  C   UNL     1      22.951   3.969  12.778  1.00  0.00     0.000 C 
BRANCH  12  13
ATOM     13  C   UNL     1      21.949   4.914  12.099  1.00  0.00     0.006 C 
BRANCH  13  14
ATOM     14  C   UNL     1      22.583   5.752  10.981  1.00  0.00     0.053 C 
BRANCH  14  15
ATOM     15  C   UNL     1      22.967   7.104  11.494  1.00  0.00     0.041 C 
ATOM     16  O   UNL     1      24.104   7.290  12.001  1.00  0.00    -0.550 OA
ATOM     17  O   UNL     1      22.053   8.151  11.448  1.00  0.00    -0.550 OA
ENDBRANCH  14  15
ENDBRANCH  13  14
ENDBRANCH  12  13
ENDBRANCH  11  12
ENDBRANCH  10  11
ENDBRANCH   9  10
ENDBRANCH   8   9
ENDBRANCH   7   8
ENDBRANCH   6   7
ENDBRANCH   5   6
ENDBRANCH   4   5
ENDBRANCH   3   4
ENDBRANCH   2   3
ENDBRANCH   1   2
BRANCH   1  18
ATOM     18  C   UNL     1      22.427   3.810  17.830  1.00  0.00     0.000 C 
BRANCH  18  19
ATOM     19  C   UNL     1      22.951   4.635  19.016  1.00  0.00     0.000 C 
BRANCH  19  20
ATOM     20  C   UNL     1      22.833   3.895  20.359  1.00  0.00     0.000 C 
BRANCH  20  21
ATOM     21  C   UNL     1      22.093   2.543  20.268  1.00  0.00     0.000 C 
BRANCH  21  22
ATOM     22  C   UNL     1      23.018   1.347  20.565  1.00  0.00     0.000 C 
BRANCH  22  23
ATOM     23  C   UNL     1      24.502   1.742  20.613  1.00  0.00     0.000 C 
BRANCH  23  24
ATOM     24  C   UNL     1      25.338   1.057  19.523  1.00  0.00    -0.000 C 
BRANCH  24  25
ATOM     25  C   UNL     1      25.610   2.023  18.361  1.00  0.00    -0.000 C 
BRANCH  25  26
ATOM     26  C   UNL     1      26.499   3.191  18.807  1.00  0.00    -0.000 C 
BRANCH  26  27
ATOM     27  C   UNL     1      27.465   3.664  17.706  1.00  0.00    -0.000 C 
BRANCH  27  28
ATOM     28  C   UNL     1      28.811   2.910  17.697  1.00  0.00    -0.000 C 
BRANCH  28  29
ATOM     29  C   UNL     1      30.010   3.864  17.545  1.00  0.00    -0.000 C 
BRANCH  29  30
ATOM     30  C   UNL     1      29.715   5.274  18.080  1.00  0.00    -0.000 C 
BRANCH  30  31
ATOM     31  C   UNL     1      29.950   6.367  17.027  1.00  0.00    -0.003 C 
ATOM     32  C   UNL     1      30.389   5.760  15.697  1.00  0.00     0.004 C 
ENDBRANCH  30  31
ENDBRANCH  29  30
ENDBRANCH  28  29
ENDBRANCH  27  28
ENDBRANCH  26  27
ENDBRANCH  25  26
ENDBRANCH  24  25
ENDBRANCH  23  24
ENDBRANCH  22  23
ENDBRANCH  21  22
ENDBRANCH  20  21
ENDBRANCH  19  20
ENDBRANCH  18  19
ENDBRANCH   1  18
TORSDOF 28
ENDMDL
MODEL 4
REMARK VINA RESULT:    -4.006      2.944      7.636
REMARK INTER + INTRA:         -16.185
REMARK INTER:                 -10.270
REMARK INTRA:                  -5.914
REMARK UNBOUND:                -5.622
REMARK SMILES CCCCCCCCCCCCCCCCCCCCCCCCCCCCCC(=O)[O-]
REMARK SMILES IDX 16 1 17 2 18 3 19 4 20 5 21 6 22 7 23 8 24 9 25 10 26 11
REMARK SMILES IDX 27 12 28 13 29 14 30 15 31 16 32 17 15 18 14 19 13 20 12 21
REMARK SMILES IDX 11 22 10 23 9 24 8 25 7 26 6 27 5 28 4 29 3 30 2 31 1 32
REMARK H PARENT
REMARK Flexibility Score: inf
ROOT
ATOM      1  C   UNL     1      28.082   4.866  14.978  1.00  0.00     0.000 C 
ENDROOT
BRANCH   1   2
ATOM      2  C   UNL     1      27.396   6.146  15.489  1.00  0.00     0.000 C 
BRANCH   2   3
ATOM      3  C   UNL     1      26.325   6.674  14.522  1.00  0.00     0.000 C 
BRANCH   3   4
ATOM      4  C   UNL     1      25.043   7.124  15.244  1.00  0.00     0.000 C 
BRANCH   4   5
ATOM      5  C   UNL     1      24.668   6.184  16.403  1.00  0.00     0.000 C 
BRANCH   5   6
ATOM      6  C   UNL     1      23.150   6.116  16.631  1.00  0.00     0.000 C 
BRANCH   6   7
ATOM      7  C   UNL     1      22.736   4.735  17.162  1.00  0.00     0.000 C 
BRANCH   7   8
ATOM      8  C   UNL     1      23.597   4.261  18.347  1.00  0.00     0.000 C 
BRANCH   8   9
ATOM      9  C   UNL     1      24.421   2.987  18.089  1.00  0.00     0.000 C 
BRANCH   9  10
ATOM     10  C   UNL     1      25.647   2.864  19.012  1.00  0.00     0.000 C 
BRANCH  10  11
ATOM     11  C   UNL     1      26.858   3.646  18.477  1.00  0.00     0.000 C 
BRANCH  11  12
ATOM     12  C   UNL     1      28.138   2.795  18.459  1.00  0.00     0.000 C 
BRANCH  12  13
ATOM     13  C   UNL     1      29.365   3.557  18.983  1.00  0.00     0.006 C 
BRANCH  13  14
ATOM     14  C   UNL     1      30.217   4.160  17.859  1.00  0.00     0.053 C 
BRANCH  14  15
ATOM     15  C   UNL     1      30.336   5.642  18.030  1.00  0.00     0.041 C 
ATOM     16  O   UNL     1      29.996   6.183  19.115  1.00  0.00    -0.550 OA
ATOM     17  O   UNL     1      30.784   6.431  16.976  1.00  0.00    -0.550 OA
ENDBRANCH  14  15
ENDBRANCH  13  14
ENDBRANCH  12  13
ENDBRANCH  11  12
ENDBRANCH  10  11
ENDBRANCH   9  10
ENDBRANCH   8   9
ENDBRANCH   7   8
ENDBRANCH   6   7
ENDBRANCH   5   6
ENDBRANCH   4   5
ENDBRANCH   3   4
ENDBRANCH   2   3
ENDBRANCH   1   2
BRANCH   1  18
ATOM     18  C   UNL     1      27.147   4.004  14.113  1.00  0.00     0.000 C 
BRANCH  18  19
ATOM     19  C   UNL     1      26.192   3.142  14.954  1.00  0.00     0.000 C 
BRANCH  19  20
ATOM     20  C   UNL     1      25.050   2.532  14.126  1.00  0.00     0.000 C 
BRANCH  20  21
ATOM     21  C   UNL     1      24.601   3.406  12.935  1.00  0.00     0.000 C 
BRANCH  21  22
ATOM     22  C   UNL     1      23.552   4.458  13.341  1.00  0.00     0.000 C 
BRANCH  22  23
ATOM     23  C   UNL     1      22.112   3.937  13.221  1.00  0.00     0.000 C 
BRANCH  23  24
ATOM     24  C   UNL     1      21.064   5.058  13.288  1.00  0.00    -0.000 C 
BRANCH  24  25
ATOM     25  C   UNL     1      21.740   6.423  13.468  1.00  0.00    -0.000 C 
BRANCH  25  26
ATOM     26  C   UNL     1      21.615   7.277  12.199  1.00  0.00    -0.000 C 
BRANCH  26  27
ATOM     27  C   UNL     1      22.973   7.559  11.530  1.00  0.00    -0.000 C 
BRANCH  27  28
ATOM     28  C   UNL     1      23.017   7.180  10.035  1.00  0.00    -0.000 C 
BRANCH  28  29
ATOM     29  C   UNL     1      23.939   5.976   9.768  1.00  0.00    -0.000 C 
BRANCH  29  30
ATOM     30  C   UNL     1      23.167   4.652   9.659  1.00  0.00    -0.000 C 
BRANCH  30  31
ATOM     31  C   UNL     1      21.658   4.863   9.466  1.00  0.00    -0.003 C 
ATOM     32  C   UNL     1      20.896   3.552   9.637  1.00  0.00     0.004 C 
ENDBRANCH  30  31
ENDBRANCH  29  30
ENDBRANCH  28  29
ENDBRANCH  27  28
ENDBRANCH  26  27
ENDBRANCH  25  26
ENDBRANCH  24  25
ENDBRANCH  23  24
ENDBRANCH  22  23
ENDBRANCH  21  22
ENDBRANCH  20  21
ENDBRANCH  19  20
ENDBRANCH  18  19
ENDBRANCH   1  18
TORSDOF 28
ENDMDL
MODEL 5
REMARK VINA RESULT:    -3.967      3.061      7.054
REMARK INTER + INTRA:         -16.082
REMARK INTER:                 -10.628
REMARK INTRA:                  -5.453
REMARK UNBOUND:                -5.622
REMARK SMILES CCCCCCCCCCCCCCCCCCCCCCCCCCCCCC(=O)[O-]
REMARK SMILES IDX 16 1 17 2 18 3 19 4 20 5 21 6 22 7 23 8 24 9 25 10 26 11
REMARK SMILES IDX 27 12 28 13 29 14 30 15 31 16 32 17 15 18 14 19 13 20 12 21
REMARK SMILES IDX 11 22 10 23 9 24 8 25 7 26 6 27 5 28 4 29 3 30 2 31 1 32
REMARK H PARENT
REMARK Flexibility Score: inf
ROOT
ATOM      1  C   UNL     1      26.478   3.547  18.006  1.00  0.00     0.000 C 
ENDROOT
BRANCH   1   2
ATOM      2  C   UNL     1      25.407   3.177  19.048  1.00  0.00     0.000 C 
BRANCH   2   3
ATOM      3  C   UNL     1      23.979   3.242  18.483  1.00  0.00     0.000 C 
BRANCH   3   4
ATOM      4  C   UNL     1      23.069   4.193  19.278  1.00  0.00     0.000 C 
BRANCH   4   5
ATOM      5  C   UNL     1      23.037   5.608  18.673  1.00  0.00     0.000 C 
BRANCH   5   6
ATOM      6  C   UNL     1      23.095   5.588  17.137  1.00  0.00     0.000 C 
BRANCH   6   7
ATOM      7  C   UNL     1      23.085   7.015  16.569  1.00  0.00     0.000 C 
BRANCH   7   8
ATOM      8  C   UNL     1      24.418   7.413  15.911  1.00  0.00     0.000 C 
BRANCH   8   9
ATOM      9  C   UNL     1      25.400   6.253  15.667  1.00  0.00     0.000 C 
BRANCH   9  10
ATOM     10  C   UNL     1      26.264   6.449  14.408  1.00  0.00     0.000 C 
BRANCH  10  11
ATOM     11  C   UNL     1      27.637   5.767  14.535  1.00  0.00     0.000 C 
BRANCH  11  12
ATOM     12  C   UNL     1      28.661   6.652  15.265  1.00  0.00     0.000 C 
BRANCH  12  13
ATOM     13  C   UNL     1      29.412   5.899  16.374  1.00  0.00     0.006 C 
BRANCH  13  14
ATOM     14  C   UNL     1      30.369   4.832  15.827  1.00  0.00     0.053 C 
BRANCH  14  15
ATOM     15  C   UNL     1      31.752   5.051  16.352  1.00  0.00     0.041 C 
ATOM     16  O   UNL     1      32.752   4.780  15.635  1.00  0.00    -0.550 OA
ATOM     17  O   UNL     1      31.940   5.518  17.648  1.00  0.00    -0.550 OA
ENDBRANCH  14  15
ENDBRANCH  13  14
ENDBRANCH  12  13
ENDBRANCH  11  12
ENDBRANCH  10  11
ENDBRANCH   9  10
ENDBRANCH   8   9
ENDBRANCH   7   8
ENDBRANCH   6   7
ENDBRANCH   5   6
ENDBRANCH   4   5
ENDBRANCH   3   4
ENDBRANCH   2   3
ENDBRANCH   1   2
BRANCH   1  18
ATOM     18  C   UNL     1      27.904   3.251  18.500  1.00  0.00     0.000 C 
BRANCH  18  19
ATOM     19  C   UNL     1      28.601   2.160  17.672  1.00  0.00     0.000 C 
BRANCH  19  20
ATOM     20  C   UNL     1      27.626   1.367  16.785  1.00  0.00     0.000 C 
BRANCH  20  21
ATOM     21  C   UNL     1      27.890   1.517  15.271  1.00  0.00     0.000 C 
BRANCH  21  22
ATOM     22  C   UNL     1      26.772   2.299  14.555  1.00  0.00     0.000 C 
BRANCH  22  23
ATOM     23  C   UNL     1      25.368   1.899  15.034  1.00  0.00     0.000 C 
BRANCH  23  24
ATOM     24  C   UNL     1      24.301   2.950  14.698  1.00  0.00    -0.000 C 
BRANCH  24  25
ATOM     25  C   UNL     1      24.121   3.074  13.179  1.00  0.00    -0.000 C 
BRANCH  25  26
ATOM     26  C   UNL     1      23.834   4.525  12.769  1.00  0.00    -0.000 C 
BRANCH  26  27
ATOM     27  C   UNL     1      22.562   5.092  13.424  1.00  0.00    -0.000 C 
BRANCH  27  28
ATOM     28  C   UNL     1      22.212   6.522  12.961  1.00  0.00    -0.000 C 
BRANCH  28  29
ATOM     29  C   UNL     1      23.256   7.087  11.980  1.00  0.00    -0.000 C 
BRANCH  29  30
ATOM     30  C   UNL     1      22.722   7.188  10.543  1.00  0.00    -0.000 C 
BRANCH  30  31
ATOM     31  C   UNL     1      23.435   6.228   9.579  1.00  0.00    -0.003 C 
ATOM     32  C   UNL     1      24.667   6.884   8.964  1.00  0.00     0.004 C 
ENDBRANCH  30  31
ENDBRANCH  29  30
ENDBRANCH  28  29
ENDBRANCH  27  28
ENDBRANCH  26  27
ENDBRANCH  25  26
ENDBRANCH  24  25
ENDBRANCH  23  24
ENDBRANCH  22  23
ENDBRANCH  21  22
ENDBRANCH  20  21
ENDBRANCH  19  20
ENDBRANCH  18  19
ENDBRANCH   1  18
TORSDOF 28
ENDMDL
MODEL 6
REMARK VINA RESULT:    -3.932      1.741      5.528
REMARK INTER + INTRA:         -15.992
REMARK INTER:                  -9.911
REMARK INTRA:                  -6.080
REMARK UNBOUND:                -5.622
REMARK SMILES CCCCCCCCCCCCCCCCCCCCCCCCCCCCCC(=O)[O-]
REMARK SMILES IDX 16 1 17 2 18 3 19 4 20 5 21 6 22 7 23 8 24 9 25 10 26 11
REMARK SMILES IDX 27 12 28 13 29 14 30 15 31 16 32 17 15 18 14 19 13 20 12 21
REMARK SMILES IDX 11 22 10 23 9 24 8 25 7 26 6 27 5 28 4 29 3 30 2 31 1 32
REMARK H PARENT
REMARK Flexibility Score: inf
ROOT
ATOM      1  C   UNL     1      24.381   3.713  17.536  1.00  0.00     0.000 C 
ENDROOT
BRANCH   1   2
ATOM      2  C   UNL     1      25.608   3.939  18.438  1.00  0.00     0.000 C 
BRANCH   2   3
ATOM      3  C   UNL     1      26.437   2.662  18.646  1.00  0.00     0.000 C 
BRANCH   3   4
ATOM      4  C   UNL     1      27.912   2.840  18.247  1.00  0.00     0.000 C 
BRANCH   4   5
ATOM      5  C   UNL     1      28.560   4.052  18.940  1.00  0.00     0.000 C 
BRANCH   5   6
ATOM      6  C   UNL     1      29.448   4.865  17.984  1.00  0.00     0.000 C 
BRANCH   6   7
ATOM      7  C   UNL     1      29.221   4.436  16.526  1.00  0.00     0.000 C 
BRANCH   7   8
ATOM      8  C   UNL     1      29.215   5.619  15.542  1.00  0.00     0.000 C 
BRANCH   8   9
ATOM      9  C   UNL     1      27.872   6.363  15.420  1.00  0.00     0.000 C 
BRANCH   9  10
ATOM     10  C   UNL     1      26.657   5.417  15.421  1.00  0.00     0.000 C 
BRANCH  10  11
ATOM     11  C   UNL     1      26.146   5.127  14.000  1.00  0.00     0.000 C 
BRANCH  11  12
ATOM     12  C   UNL     1      24.610   5.134  13.921  1.00  0.00     0.000 C 
BRANCH  12  13
ATOM     13  C   UNL     1      24.015   6.543  14.055  1.00  0.00     0.006 C 
BRANCH  13  14
ATOM     14  C   UNL     1      23.228   6.736  15.358  1.00  0.00     0.053 C 
BRANCH  14  15
ATOM     15  C   UNL     1      21.801   6.326  15.173  1.00  0.00     0.041 C 
ATOM     16  O   UNL     1      21.425   5.172  15.510  1.00  0.00    -0.550 OA
ATOM     17  O   UNL     1      20.893   7.204  14.592  1.00  0.00    -0.550 OA
ENDBRANCH  14  15
ENDBRANCH  13  14
ENDBRANCH  12  13
ENDBRANCH  11  12
ENDBRANCH  10  11
ENDBRANCH   9  10
ENDBRANCH   8   9
ENDBRANCH   7   8
ENDBRANCH   6   7
ENDBRANCH   5   6
ENDBRANCH   4   5
ENDBRANCH   3   4
ENDBRANCH   2   3
ENDBRANCH   1   2
BRANCH   1  18
ATOM     18  C   UNL     1      23.084   4.251  18.163  1.00  0.00     0.000 C 
BRANCH  18  19
ATOM     19  C   UNL     1      23.252   4.612  19.647  1.00  0.00     0.000 C 
BRANCH  19  20
ATOM     20  C   UNL     1      22.574   3.603  20.589  1.00  0.00     0.000 C 
BRANCH  20  21
ATOM     21  C   UNL     1      23.521   2.507  21.123  1.00  0.00     0.000 C 
BRANCH  21  22
ATOM     22  C   UNL     1      23.439   1.208  20.298  1.00  0.00     0.000 C 
BRANCH  22  23
ATOM     23  C   UNL     1      22.062   1.004  19.649  1.00  0.00     0.000 C 
BRANCH  23  24
ATOM     24  C   UNL     1      22.146   0.350  18.262  1.00  0.00    -0.000 C 
BRANCH  24  25
ATOM     25  C   UNL     1      23.609   0.143  17.848  1.00  0.00    -0.000 C 
BRANCH  25  26
ATOM     26  C   UNL     1      23.836   0.550  16.386  1.00  0.00    -0.000 C 
BRANCH  26  27
ATOM     27  C   UNL     1      25.313   0.461  15.961  1.00  0.00    -0.000 C 
BRANCH  27  28
ATOM     28  C   UNL     1      25.690   1.433  14.823  1.00  0.00    -0.000 C 
BRANCH  28  29
ATOM     29  C   UNL     1      27.204   1.710  14.773  1.00  0.00    -0.000 C 
BRANCH  29  30
ATOM     30  C   UNL     1      28.035   0.558  15.361  1.00  0.00    -0.000 C 
BRANCH  30  31
ATOM     31  C   UNL     1      29.520   0.918  15.509  1.00  0.00    -0.003 C 
ATOM     32  C   UNL     1      30.169   0.115  16.633  1.00  0.00     0.004 C 
ENDBRANCH  30  31
ENDBRANCH  29  30
ENDBRANCH  28  29
ENDBRANCH  27  28
ENDBRANCH  26  27
ENDBRANCH  25  26
ENDBRANCH  24  25
ENDBRANCH  23  24
ENDBRANCH  22  23
ENDBRANCH  21  22
ENDBRANCH  20  21
ENDBRANCH  19  20
ENDBRANCH  18  19
ENDBRANCH   1  18
TORSDOF 28
ENDMDL
MODEL 7
REMARK VINA RESULT:    -3.928      7.493     11.769
REMARK INTER + INTRA:         -15.981
REMARK INTER:                 -10.305
REMARK INTRA:                  -5.676
REMARK UNBOUND:                -5.622
REMARK SMILES CCCCCCCCCCCCCCCCCCCCCCCCCCCCCC(=O)[O-]
REMARK SMILES IDX 16 1 17 2 18 3 19 4 20 5 21 6 22 7 23 8 24 9 25 10 26 11
REMARK SMILES IDX 27 12 28 13 29 14 30 15 31 16 32 17 15 18 14 19 13 20 12 21
REMARK SMILES IDX 11 22 10 23 9 24 8 25 7 26 6 27 5 28 4 29 3 30 2 31 1 32
REMARK H PARENT
REMARK Flexibility Score: inf
ROOT
ATOM      1  C   UNL     1      28.626  -3.814   5.900  1.00  0.00     0.000 C 
ENDROOT
BRANCH   1   2
ATOM      2  C   UNL     1      29.284  -3.852   4.508  1.00  0.00     0.000 C 
BRANCH   2   3
ATOM      3  C   UNL     1      30.811  -4.008   4.576  1.00  0.00     0.000 C 
BRANCH   3   4
ATOM      4  C   UNL     1      31.557  -2.806   3.971  1.00  0.00     0.000 C 
BRANCH   4   5
ATOM      5  C   UNL     1      32.770  -2.388   4.821  1.00  0.00     0.000 C 
BRANCH   5   6
ATOM      6  C   UNL     1      32.651  -2.859   6.279  1.00  0.00     0.000 C 
BRANCH   6   7
ATOM      7  C   UNL     1      32.700  -1.667   7.247  1.00  0.00     0.000 C 
BRANCH   7   8
ATOM      8  C   UNL     1      31.362  -1.418   7.966  1.00  0.00     0.000 C 
BRANCH   8   9
ATOM      9  C   UNL     1      31.108   0.041   8.390  1.00  0.00     0.000 C 
BRANCH   9  10
ATOM     10  C   UNL     1      30.058   0.749   7.515  1.00  0.00     0.000 C 
BRANCH  10  11
ATOM     11  C   UNL     1      29.034  -0.236   6.926  1.00  0.00     0.000 C 
BRANCH  11  12
ATOM     12  C   UNL     1      29.022  -0.213   5.389  1.00  0.00     0.000 C 
BRANCH  12  13
ATOM     13  C   UNL     1      30.194   0.586   4.798  1.00  0.00     0.006 C 
BRANCH  13  14
ATOM     14  C   UNL     1      29.765   1.514   3.654  1.00  0.00     0.053 C 
BRANCH  14  15
ATOM     15  C   UNL     1      29.726   2.935   4.120  1.00  0.00     0.041 C 
ATOM     16  O   UNL     1      29.046   3.789   3.492  1.00  0.00    -0.550 OA
ATOM     17  O   UNL     1      30.471   3.326   5.227  1.00  0.00    -0.550 OA
ENDBRANCH  14  15
ENDBRANCH  13  14
ENDBRANCH  12  13
ENDBRANCH  11  12
ENDBRANCH  10  11
ENDBRANCH   9  10
ENDBRANCH   8   9
ENDBRANCH   7   8
ENDBRANCH   6   7
ENDBRANCH   5   6
ENDBRANCH   4   5
ENDBRANCH   3   4
ENDBRANCH   2   3
ENDBRANCH   1   2
BRANCH   1  18
ATOM     18  C   UNL     1      29.467  -4.534   6.967  1.00  0.00     0.000 C 
BRANCH  18  19
ATOM     19  C   UNL     1      29.080  -4.127   8.398  1.00  0.00     0.000 C 
BRANCH  19  20
ATOM     20  C   UNL     1      27.906  -3.135   8.441  1.00  0.00     0.000 C 
BRANCH  20  21
ATOM     21  C   UNL     1      26.940  -3.357   9.626  1.00  0.00     0.000 C 
BRANCH  21  22
ATOM     22  C   UNL     1      26.582  -2.043  10.345  1.00  0.00     0.000 C 
BRANCH  22  23
ATOM     23  C   UNL     1      27.721  -1.014  10.302  1.00  0.00     0.000 C 
BRANCH  23  24
ATOM     24  C   UNL     1      28.102  -0.486  11.693  1.00  0.00    -0.000 C 
BRANCH  24  25
ATOM     25  C   UNL     1      29.586  -0.749  11.985  1.00  0.00    -0.000 C 
BRANCH  25  26
ATOM     26  C   UNL     1      30.062  -2.048  11.321  1.00  0.00    -0.000 C 
BRANCH  26  27
ATOM     27  C   UNL     1      30.527  -3.105  12.338  1.00  0.00    -0.000 C 
BRANCH  27  28
ATOM     28  C   UNL     1      30.831  -2.529  13.737  1.00  0.00    -0.000 C 
BRANCH  28  29
ATOM     29  C   UNL     1      30.447  -3.506  14.863  1.00  0.00    -0.000 C 
BRANCH  29  30
ATOM     30  C   UNL     1      29.192  -3.060  15.630  1.00  0.00    -0.000 C 
BRANCH  30  31
ATOM     31  C   UNL     1      27.898  -3.316  14.844  1.00  0.00    -0.003 C 
ATOM     32  C   UNL     1      26.985  -2.093  14.878  1.00  0.00     0.004 C 
ENDBRANCH  30  31
ENDBRANCH  29  30
ENDBRANCH  28  29
ENDBRANCH  27  28
ENDBRANCH  26  27
ENDBRANCH  25  26
ENDBRANCH  24  25
ENDBRANCH  23  24
ENDBRANCH  22  23
ENDBRANCH  21  22
ENDBRANCH  20  21
ENDBRANCH  19  20
ENDBRANCH  18  19
ENDBRANCH   1  18
TORSDOF 28
ENDMDL
MODEL 8
REMARK VINA RESULT:    -3.908      3.007      6.145
REMARK INTER + INTRA:         -15.928
REMARK INTER:                 -11.007
REMARK INTRA:                  -4.921
REMARK UNBOUND:                -5.622
REMARK SMILES CCCCCCCCCCCCCCCCCCCCCCCCCCCCCC(=O)[O-]
REMARK SMILES IDX 16 1 17 2 18 3 19 4 20 5 21 6 22 7 23 8 24 9 25 10 26 11
REMARK SMILES IDX 27 12 28 13 29 14 30 15 31 16 32 17 15 18 14 19 13 20 12 21
REMARK SMILES IDX 11 22 10 23 9 24 8 25 7 26 6 27 5 28 4 29 3 30 2 31 1 32
REMARK H PARENT
REMARK Flexibility Score: inf
ROOT
ATOM      1  C   UNL     1      22.363   5.046  13.961  1.00  0.00     0.000 C 
ENDROOT
BRANCH   1   2
ATOM      2  C   UNL     1      22.993   3.969  14.864  1.00  0.00     0.000 C 
BRANCH   2   3
ATOM      3  C   UNL     1      24.148   3.221  14.181  1.00  0.00     0.000 C 
BRANCH   3   4
ATOM      4  C   UNL     1      24.226   3.502  12.671  1.00  0.00     0.000 C 
BRANCH   4   5
ATOM      5  C   UNL     1      25.544   4.192  12.275  1.00  0.00     0.000 C 
BRANCH   5   6
ATOM      6  C   UNL     1      25.325   5.637  11.797  1.00  0.00     0.000 C 
BRANCH   6   7
ATOM      7  C   UNL     1      24.215   5.701  10.736  1.00  0.00     0.000 C 
BRANCH   7   8
ATOM      8  C   UNL     1      23.643   7.118  10.546  1.00  0.00     0.000 C 
BRANCH   8   9
ATOM      9  C   UNL     1      22.109   7.196  10.440  1.00  0.00     0.000 C 
BRANCH   9  10
ATOM     10  C   UNL     1      21.435   5.813  10.417  1.00  0.00     0.000 C 
BRANCH  10  11
ATOM     11  C   UNL     1      19.910   5.907  10.596  1.00  0.00     0.000 C 
BRANCH  11  12
ATOM     12  C   UNL     1      19.180   6.129   9.262  1.00  0.00     0.000 C 
BRANCH  12  13
ATOM     13  C   UNL     1      18.446   7.478   9.204  1.00  0.00     0.006 C 
BRANCH  13  14
ATOM     14  C   UNL     1      18.095   8.025  10.594  1.00  0.00     0.053 C 
BRANCH  14  15
ATOM     15  C   UNL     1      16.631   7.872  10.862  1.00  0.00     0.041 C 
ATOM     16  O   UNL     1      15.928   7.126  10.131  1.00  0.00    -0.550 OA
ATOM     17  O   UNL     1      16.034   8.585  11.896  1.00  0.00    -0.550 OA
ENDBRANCH  14  15
ENDBRANCH  13  14
ENDBRANCH  12  13
ENDBRANCH  11  12
ENDBRANCH  10  11
ENDBRANCH   9  10
ENDBRANCH   8   9
ENDBRANCH   7   8
ENDBRANCH   6   7
ENDBRANCH   5   6
ENDBRANCH   4   5
ENDBRANCH   3   4
ENDBRANCH   2   3
ENDBRANCH   1   2
BRANCH   1  18
ATOM     18  C   UNL     1      22.538   6.464  14.529  1.00  0.00     0.000 C 
BRANCH  18  19
ATOM     19  C   UNL     1      23.551   6.517  15.684  1.00  0.00     0.000 C 
BRANCH  19  20
ATOM     20  C   UNL     1      24.961   6.926  15.226  1.00  0.00     0.000 C 
BRANCH  20  21
ATOM     21  C   UNL     1      26.053   5.883  15.546  1.00  0.00     0.000 C 
BRANCH  21  22
ATOM     22  C   UNL     1      27.465   6.378  15.179  1.00  0.00     0.000 C 
BRANCH  22  23
ATOM     23  C   UNL     1      28.561   5.738  16.044  1.00  0.00     0.000 C 
BRANCH  23  24
ATOM     24  C   UNL     1      28.214   4.309  16.486  1.00  0.00    -0.000 C 
BRANCH  24  25
ATOM     25  C   UNL     1      28.376   4.156  18.005  1.00  0.00    -0.000 C 
BRANCH  25  26
ATOM     26  C   UNL     1      27.320   3.205  18.584  1.00  0.00    -0.000 C 
BRANCH  26  27
ATOM     27  C   UNL     1      26.365   2.647  17.514  1.00  0.00    -0.000 C 
BRANCH  27  28
ATOM     28  C   UNL     1      24.872   2.800  17.875  1.00  0.00    -0.000 C 
BRANCH  28  29
ATOM     29  C   UNL     1      24.567   4.166  18.515  1.00  0.00    -0.000 C 
BRANCH  29  30
ATOM     30  C   UNL     1      23.066   4.380  18.765  1.00  0.00    -0.000 C 
BRANCH  30  31
ATOM     31  C   UNL     1      22.728   4.513  20.257  1.00  0.00    -0.003 C 
ATOM     32  C   UNL     1      22.756   3.153  20.949  1.00  0.00     0.004 C 
ENDBRANCH  30  31
ENDBRANCH  29  30
ENDBRANCH  28  29
ENDBRANCH  27  28
ENDBRANCH  26  27
ENDBRANCH  25  26
ENDBRANCH  24  25
ENDBRANCH  23  24
ENDBRANCH  22  23
ENDBRANCH  21  22
ENDBRANCH  20  21
ENDBRANCH  19  20
ENDBRANCH  18  19
ENDBRANCH   1  18
TORSDOF 28
ENDMDL
MODEL 9
REMARK VINA RESULT:    -3.861      1.734      6.068
REMARK INTER + INTRA:         -15.802
REMARK INTER:                 -10.160
REMARK INTRA:                  -5.642
REMARK UNBOUND:                -5.622
REMARK SMILES CCCCCCCCCCCCCCCCCCCCCCCCCCCCCC(=O)[O-]
REMARK SMILES IDX 16 1 17 2 18 3 19 4 20 5 21 6 22 7 23 8 24 9 25 10 26 11
REMARK SMILES IDX 27 12 28 13 29 14 30 15 31 16 32 17 15 18 14 19 13 20 12 21
REMARK SMILES IDX 11 22 10 23 9 24 8 25 7 26 6 27 5 28 4 29 3 30 2 31 1 32
REMARK H PARENT
REMARK Flexibility Score: inf
ROOT
ATOM      1  C   UNL     1      27.666   6.378  15.628  1.00  0.00     0.000 C 
ENDROOT
BRANCH   1   2
ATOM      2  C   UNL     1      29.155   6.592  15.298  1.00  0.00     0.000 C 
BRANCH   2   3
ATOM      3  C   UNL     1      30.071   5.579  16.001  1.00  0.00     0.000 C 
BRANCH   3   4
ATOM      4  C   UNL     1      30.539   6.062  17.385  1.00  0.00     0.000 C 
BRANCH   4   5
ATOM      5  C   UNL     1      29.699   5.461  18.525  1.00  0.00     0.000 C 
BRANCH   5   6
ATOM      6  C   UNL     1      29.365   3.979  18.285  1.00  0.00     0.000 C 
BRANCH   6   7
ATOM      7  C   UNL     1      27.846   3.749  18.313  1.00  0.00     0.000 C 
BRANCH   7   8
ATOM      8  C   UNL     1      27.391   2.617  17.374  1.00  0.00     0.000 C 
BRANCH   8   9
ATOM      9  C   UNL     1      27.711   2.833  15.884  1.00  0.00     0.000 C 
BRANCH   9  10
ATOM     10  C   UNL     1      26.757   2.073  14.945  1.00  0.00     0.000 C 
BRANCH  10  11
ATOM     11  C   UNL     1      26.808   2.612  13.506  1.00  0.00     0.000 C 
BRANCH  11  12
ATOM     12  C   UNL     1      25.435   3.107  13.021  1.00  0.00     0.000 C 
BRANCH  12  13
ATOM     13  C   UNL     1      25.543   4.184  11.932  1.00  0.00     0.006 C 
BRANCH  13  14
ATOM     14  C   UNL     1      24.188   4.811  11.576  1.00  0.00     0.053 C 
BRANCH  14  15
ATOM     15  C   UNL     1      24.346   6.270  11.286  1.00  0.00     0.041 C 
ATOM     16  O   UNL     1      25.403   6.699  10.753  1.00  0.00    -0.550 OA
ATOM     17  O   UNL     1      23.341   7.163  11.640  1.00  0.00    -0.550 OA
ENDBRANCH  14  15
ENDBRANCH  13  14
ENDBRANCH  12  13
ENDBRANCH  11  12
ENDBRANCH  10  11
ENDBRANCH   9  10
ENDBRANCH   8   9
ENDBRANCH   7   8
ENDBRANCH   6   7
ENDBRANCH   5   6
ENDBRANCH   4   5
ENDBRANCH   3   4
ENDBRANCH   2   3
ENDBRANCH   1   2
BRANCH   1  18
ATOM     18  C   UNL     1      26.783   6.359  14.369  1.00  0.00     0.000 C 
BRANCH  18  19
ATOM     19  C   UNL     1      25.332   6.774  14.659  1.00  0.00     0.000 C 
BRANCH  19  20
ATOM     20  C   UNL     1      24.796   6.195  15.979  1.00  0.00     0.000 C 
BRANCH  20  21
ATOM     21  C   UNL     1      24.395   4.706  15.896  1.00  0.00     0.000 C 
BRANCH  21  22
ATOM     22  C   UNL     1      22.898   4.517  15.588  1.00  0.00     0.000 C 
BRANCH  22  23
ATOM     23  C   UNL     1      22.506   3.039  15.439  1.00  0.00     0.000 C 
BRANCH  23  24
ATOM     24  C   UNL     1      23.437   2.093  16.212  1.00  0.00    -0.000 C 
BRANCH  24  25
ATOM     25  C   UNL     1      22.898   1.838  17.626  1.00  0.00    -0.000 C 
BRANCH  25  26
ATOM     26  C   UNL     1      24.042   1.710  18.642  1.00  0.00    -0.000 C 
BRANCH  26  27
ATOM     27  C   UNL     1      24.334   3.026  19.385  1.00  0.00    -0.000 C 
BRANCH  27  28
ATOM     28  C   UNL     1      23.174   4.042  19.325  1.00  0.00    -0.000 C 
BRANCH  28  29
ATOM     29  C   UNL     1      22.615   4.367  20.722  1.00  0.00    -0.000 C 
BRANCH  29  30
ATOM     30  C   UNL     1      22.745   3.188  21.700  1.00  0.00    -0.000 C 
BRANCH  30  31
ATOM     31  C   UNL     1      21.390   2.559  22.051  1.00  0.00    -0.003 C 
ATOM     32  C   UNL     1      20.973   1.534  21.000  1.00  0.00     0.004 C 
ENDBRANCH  30  31
ENDBRANCH  29  30
ENDBRANCH  28  29
ENDBRANCH  27  28
ENDBRANCH  26  27
ENDBRANCH  25  26
ENDBRANCH  24  25
ENDBRANCH  23  24
ENDBRANCH  22  23
ENDBRANCH  21  22
ENDBRANCH  20  21
ENDBRANCH  19  20
ENDBRANCH  18  19
ENDBRANCH   1  18
TORSDOF 28
ENDMDL
