MODEL 1
REMARK VINA RESULT:    -5.954      0.000      0.000
REMARK INTER + INTRA:          -6.538
REMARK INTER:                  -6.476
REMARK INTRA:                  -0.062
REMARK UNBOUND:                -0.062
REMARK SMILES COc1cc2ccc(=O)oc2cc1O
REMARK SMILES IDX 3 1 13 2 12 3 11 4 5 5 4 6 6 7 7 8 8 9 9 10 10 11 2 12 1 13
REMARK SMILES IDX 14 14
REMARK H PARENT 14 15
REMARK Flexibility Score: inf
ROOT
ATOM      1  C   UNL     1       2.665  14.453   2.808  1.00  0.00     0.161 A 
ATOM      2  C   UNL     1       3.504  13.736   3.684  1.00  0.00     0.161 A 
ATOM      3  C   UNL     1       2.961  13.048   4.776  1.00  0.00     0.098 A 
ATOM      4  C   UNL     1       1.584  13.064   5.007  1.00  0.00     0.142 A 
ATOM      5  C   UNL     1       0.735  13.779   4.136  1.00  0.00     0.022 A 
ATOM      6  C   UNL     1       1.275  14.469   3.042  1.00  0.00     0.062 A 
ATOM      7  C   UNL     1      -0.639  13.776   4.394  1.00  0.00     0.019 A 
ATOM      8  C   UNL     1      -1.128  13.074   5.495  1.00  0.00     0.094 A 
ATOM      9  C   UNL     1      -0.226  12.388   6.316  1.00  0.00     0.336 A 
ATOM     10  O   UNL     1      -0.647  11.748   7.315  1.00  0.00    -0.246 OA
ATOM     11  O   UNL     1       1.077  12.408   6.048  1.00  0.00    -0.423 OA
ENDROOT
BRANCH   1  12
ATOM     12  O   UNL     1       3.243  15.132   1.723  1.00  0.00    -0.493 OA
ATOM     13  C   UNL     1       3.297  16.549   1.594  1.00  0.00     0.278 C 
ENDBRANCH   1  12
BRANCH   2  14
ATOM     14  O   UNL     1       4.884  13.697   3.487  1.00  0.00    -0.504 OA
ATOM     15  H   UNL     1       5.304  13.231   2.690  1.00  0.00     0.293 HD
ENDBRANCH   2  14
TORSDOF 2
ENDMDL
MODEL 2
REMARK VINA RESULT:    -5.384      2.527      3.834
REMARK INTER + INTRA:          -5.918
REMARK INTER:                  -5.853
REMARK INTRA:                  -0.064
REMARK UNBOUND:                -0.062
REMARK SMILES COc1cc2ccc(=O)oc2cc1O
REMARK SMILES IDX 3 1 13 2 12 3 11 4 5 5 4 6 6 7 7 8 8 9 9 10 10 11 2 12 1 13
REMARK SMILES IDX 14 14
REMARK H PARENT 14 15
REMARK Flexibility Score: inf
ROOT
ATOM      1  C   UNL     1       0.507  13.783   0.919  1.00  0.00     0.161 A 
ATOM      2  C   UNL     1      -0.564  14.211   1.728  1.00  0.00     0.161 A 
ATOM      3  C   UNL     1      -0.436  14.218   3.122  1.00  0.00     0.098 A 
ATOM      4  C   UNL     1       0.753  13.803   3.725  1.00  0.00     0.142 A 
ATOM      5  C   UNL     1       1.831  13.372   2.923  1.00  0.00     0.022 A 
ATOM      6  C   UNL     1       1.708  13.363   1.528  1.00  0.00     0.062 A 
ATOM      7  C   UNL     1       3.009  12.962   3.557  1.00  0.00     0.019 A 
ATOM      8  C   UNL     1       3.084  12.989   4.949  1.00  0.00     0.094 A 
ATOM      9  C   UNL     1       1.974  13.428   5.678  1.00  0.00     0.336 A 
ATOM     10  O   UNL     1       2.021  13.461   6.936  1.00  0.00    -0.246 OA
ATOM     11  O   UNL     1       0.865  13.813   5.051  1.00  0.00    -0.423 OA
ENDROOT
BRANCH   1  12
ATOM     12  O   UNL     1       0.345  13.788  -0.476  1.00  0.00    -0.493 OA
ATOM     13  C   UNL     1       0.127  12.624  -1.268  1.00  0.00     0.278 C 
ENDBRANCH   1  12
BRANCH   2  14
ATOM     14  O   UNL     1      -1.767  14.633   1.163  1.00  0.00    -0.504 OA
ATOM     15  H   UNL     1      -2.558  14.923   1.728  1.00  0.00     0.293 HD
ENDBRANCH   2  14
TORSDOF 2
ENDMDL
MODEL 3
REMARK VINA RESULT:    -5.302      2.254      3.180
REMARK INTER + INTRA:          -5.829
REMARK INTER:                  -5.765
REMARK INTRA:                  -0.064
REMARK UNBOUND:                -0.062
REMARK SMILES COc1cc2ccc(=O)oc2cc1O
REMARK SMILES IDX 3 1 13 2 12 3 11 4 5 5 4 6 6 7 7 8 8 9 9 10 10 11 2 12 1 13
REMARK SMILES IDX 14 14
REMARK H PARENT 14 15
REMARK Flexibility Score: inf
ROOT
ATOM      1  C   UNL     1      -0.207  14.150   1.680  1.00  0.00     0.161 A 
ATOM      2  C   UNL     1       1.175  13.964   1.483  1.00  0.00     0.161 A 
ATOM      3  C   UNL     1       2.022  13.754   2.578  1.00  0.00     0.098 A 
ATOM      4  C   UNL     1       1.506  13.727   3.875  1.00  0.00     0.142 A 
ATOM      5  C   UNL     1       0.123  13.913   4.083  1.00  0.00     0.022 A 
ATOM      6  C   UNL     1      -0.728  14.123   2.990  1.00  0.00     0.062 A 
ATOM      7  C   UNL     1      -0.362  13.881   5.394  1.00  0.00     0.019 A 
ATOM      8  C   UNL     1       0.524  13.668   6.449  1.00  0.00     0.094 A 
ATOM      9  C   UNL     1       1.883  13.491   6.166  1.00  0.00     0.336 A 
ATOM     10  O   UNL     1       2.700  13.298   7.104  1.00  0.00    -0.246 OA
ATOM     11  O   UNL     1       2.319  13.527   4.910  1.00  0.00    -0.423 OA
ENDROOT
BRANCH   1  12
ATOM     12  O   UNL     1      -1.027  14.359   0.560  1.00  0.00    -0.493 OA
ATOM     13  C   UNL     1      -1.910  13.385   0.012  1.00  0.00     0.278 C 
ENDBRANCH   1  12
BRANCH   2  14
ATOM     14  O   UNL     1       1.728  13.984   0.203  1.00  0.00    -0.504 OA
ATOM     15  H   UNL     1       2.184  13.175  -0.203  1.00  0.00     0.293 HD
ENDBRANCH   2  14
TORSDOF 2
ENDMDL
MODEL 4
REMARK VINA RESULT:    -5.299      2.306      5.176
REMARK INTER + INTRA:          -5.825
REMARK INTER:                  -5.761
REMARK INTRA:                  -0.065
REMARK UNBOUND:                -0.062
REMARK SMILES COc1cc2ccc(=O)oc2cc1O
REMARK SMILES IDX 3 1 13 2 12 3 11 4 5 5 4 6 6 7 7 8 8 9 9 10 10 11 2 12 1 13
REMARK SMILES IDX 14 14
REMARK H PARENT 14 15
REMARK Flexibility Score: inf
ROOT
ATOM      1  C   UNL     1      -1.762  14.448   5.399  1.00  0.00     0.161 A 
ATOM      2  C   UNL     1      -1.667  14.558   3.998  1.00  0.00     0.161 A 
ATOM      3  C   UNL     1      -0.458  14.279   3.348  1.00  0.00     0.098 A 
ATOM      4  C   UNL     1       0.664  13.887   4.082  1.00  0.00     0.142 A 
ATOM      5  C   UNL     1       0.579  13.775   5.486  1.00  0.00     0.022 A 
ATOM      6  C   UNL     1      -0.628  14.053   6.139  1.00  0.00     0.062 A 
ATOM      7  C   UNL     1       1.720  13.381   6.191  1.00  0.00     0.019 A 
ATOM      8  C   UNL     1       2.899  13.114   5.496  1.00  0.00     0.094 A 
ATOM      9  C   UNL     1       2.908  13.248   4.104  1.00  0.00     0.336 A 
ATOM     10  O   UNL     1       3.962  13.012   3.456  1.00  0.00    -0.246 OA
ATOM     11  O   UNL     1       1.809  13.624   3.456  1.00  0.00    -0.423 OA
ENDROOT
BRANCH   1  12
ATOM     12  O   UNL     1      -2.989  14.737   6.018  1.00  0.00    -0.493 OA
ATOM     13  C   UNL     1      -3.896  13.756   6.510  1.00  0.00     0.278 C 
ENDBRANCH   1  12
BRANCH   2  14
ATOM     14  O   UNL     1      -2.765  14.946   3.231  1.00  0.00    -0.504 OA
ATOM     15  H   UNL     1      -3.043  15.916   3.135  1.00  0.00     0.293 HD
ENDBRANCH   2  14
TORSDOF 2
ENDMDL
MODEL 5
REMARK VINA RESULT:    -5.272      1.656      5.017
REMARK INTER + INTRA:          -5.795
REMARK INTER:                  -5.751
REMARK INTRA:                  -0.044
REMARK UNBOUND:                -0.062
REMARK SMILES COc1cc2ccc(=O)oc2cc1O
REMARK SMILES IDX 3 1 13 2 12 3 11 4 5 5 4 6 6 7 7 8 8 9 9 10 10 11 2 12 1 13
REMARK SMILES IDX 14 14
REMARK H PARENT 14 15
REMARK Flexibility Score: inf
ROOT
ATOM      1  C   UNL     1      -1.671  13.357   5.742  1.00  0.00     0.161 A 
ATOM      2  C   UNL     1      -1.125  12.156   6.237  1.00  0.00     0.161 A 
ATOM      3  C   UNL     1       0.107  11.692   5.761  1.00  0.00     0.098 A 
ATOM      4  C   UNL     1       0.808  12.414   4.792  1.00  0.00     0.142 A 
ATOM      5  C   UNL     1       0.269  13.617   4.289  1.00  0.00     0.022 A 
ATOM      6  C   UNL     1      -0.964  14.085   4.763  1.00  0.00     0.062 A 
ATOM      7  C   UNL     1       0.994  14.316   3.320  1.00  0.00     0.019 A 
ATOM      8  C   UNL     1       2.217  13.811   2.880  1.00  0.00     0.094 A 
ATOM      9  C   UNL     1       2.688  12.611   3.424  1.00  0.00     0.336 A 
ATOM     10  O   UNL     1       3.790  12.137   3.041  1.00  0.00    -0.246 OA
ATOM     11  O   UNL     1       1.978  11.965   4.345  1.00  0.00    -0.423 OA
ENDROOT
BRANCH   1  12
ATOM     12  O   UNL     1      -2.909  13.793   6.240  1.00  0.00    -0.493 OA
ATOM     13  C   UNL     1      -3.380  15.134   6.172  1.00  0.00     0.278 C 
ENDBRANCH   1  12
BRANCH   2  14
ATOM     14  O   UNL     1      -1.794  11.408   7.205  1.00  0.00    -0.504 OA
ATOM     15  H   UNL     1      -1.599  10.425   7.359  1.00  0.00     0.293 HD
ENDBRANCH   2  14
TORSDOF 2
ENDMDL
MODEL 6
REMARK VINA RESULT:    -5.257      1.677      2.868
REMARK INTER + INTRA:          -5.780
REMARK INTER:                  -5.729
REMARK INTRA:                  -0.051
REMARK UNBOUND:                -0.062
REMARK SMILES COc1cc2ccc(=O)oc2cc1O
REMARK SMILES IDX 3 1 13 2 12 3 11 4 5 5 4 6 6 7 7 8 8 9 9 10 10 11 2 12 1 13
REMARK SMILES IDX 14 14
REMARK H PARENT 14 15
REMARK Flexibility Score: inf
ROOT
ATOM      1  C   UNL     1       1.613  14.943   1.457  1.00  0.00     0.161 A 
ATOM      2  C   UNL     1       0.205  14.893   1.501  1.00  0.00     0.161 A 
ATOM      3  C   UNL     1      -0.447  14.356   2.618  1.00  0.00     0.098 A 
ATOM      4  C   UNL     1       0.291  13.867   3.699  1.00  0.00     0.142 A 
ATOM      5  C   UNL     1       1.700  13.912   3.664  1.00  0.00     0.022 A 
ATOM      6  C   UNL     1       2.356  14.449   2.548  1.00  0.00     0.062 A 
ATOM      7  C   UNL     1       2.409  13.415   4.761  1.00  0.00     0.019 A 
ATOM      8  C   UNL     1       1.711  12.891   5.849  1.00  0.00     0.094 A 
ATOM      9  C   UNL     1       0.313  12.878   5.812  1.00  0.00     0.336 A 
ATOM     10  O   UNL     1      -0.337  12.411   6.784  1.00  0.00    -0.246 OA
ATOM     11  O   UNL     1      -0.338  13.358   4.756  1.00  0.00    -0.423 OA
ENDROOT
BRANCH   1  12
ATOM     12  O   UNL     1       2.234  15.487   0.321  1.00  0.00    -0.493 OA
ATOM     13  C   UNL     1       3.275  16.457   0.356  1.00  0.00     0.278 C 
ENDBRANCH   1  12
BRANCH   2  14
ATOM     14  O   UNL     1      -0.565  15.371   0.442  1.00  0.00    -0.504 OA
ATOM     15  H   UNL     1      -0.686  16.362   0.265  1.00  0.00     0.293 HD
ENDBRANCH   2  14
TORSDOF 2
ENDMDL
MODEL 7
REMARK VINA RESULT:    -5.253      2.070      4.533
REMARK INTER + INTRA:          -5.775
REMARK INTER:                  -5.724
REMARK INTRA:                  -0.051
REMARK UNBOUND:                -0.062
REMARK SMILES COc1cc2ccc(=O)oc2cc1O
REMARK SMILES IDX 3 1 13 2 12 3 11 4 5 5 4 6 6 7 7 8 8 9 9 10 10 11 2 12 1 13
REMARK SMILES IDX 14 14
REMARK H PARENT 14 15
REMARK Flexibility Score: inf
ROOT
ATOM      1  C   UNL     1       2.136  13.570   4.331  1.00  0.00     0.161 A 
ATOM      2  C   UNL     1       3.167  14.015   3.479  1.00  0.00     0.161 A 
ATOM      3  C   UNL     1       2.859  14.625   2.257  1.00  0.00     0.098 A 
ATOM      4  C   UNL     1       1.528  14.800   1.871  1.00  0.00     0.142 A 
ATOM      5  C   UNL     1       0.489  14.358   2.716  1.00  0.00     0.022 A 
ATOM      6  C   UNL     1       0.793  13.747   3.940  1.00  0.00     0.062 A 
ATOM      7  C   UNL     1      -0.833  14.548   2.301  1.00  0.00     0.019 A 
ATOM      8  C   UNL     1      -1.086  15.161   1.075  1.00  0.00     0.094 A 
ATOM      9  C   UNL     1      -0.004  15.574   0.289  1.00  0.00     0.336 A 
ATOM     10  O   UNL     1      -0.210  16.130  -0.822  1.00  0.00    -0.246 OA
ATOM     11  O   UNL     1       1.244  15.381   0.707  1.00  0.00    -0.423 OA
ENDROOT
BRANCH   1  12
ATOM     12  O   UNL     1       2.481  12.962   5.548  1.00  0.00    -0.493 OA
ATOM     13  C   UNL     1       1.911  13.297   6.809  1.00  0.00     0.278 C 
ENDBRANCH   1  12
BRANCH   2  14
ATOM     14  O   UNL     1       4.507  13.858   3.830  1.00  0.00    -0.504 OA
ATOM     15  H   UNL     1       5.093  14.641   4.095  1.00  0.00     0.293 HD
ENDBRANCH   2  14
TORSDOF 2
ENDMDL
MODEL 8
REMARK VINA RESULT:    -5.230      1.576      5.085
REMARK INTER + INTRA:          -5.751
REMARK INTER:                  -5.686
REMARK INTRA:                  -0.064
REMARK UNBOUND:                -0.062
REMARK SMILES COc1cc2ccc(=O)oc2cc1O
REMARK SMILES IDX 3 1 13 2 12 3 11 4 5 5 4 6 6 7 7 8 8 9 9 10 10 11 2 12 1 13
REMARK SMILES IDX 14 14
REMARK H PARENT 14 15
REMARK Flexibility Score: inf
ROOT
ATOM      1  C   UNL     1       1.692  13.396   4.123  1.00  0.00     0.161 A 
ATOM      2  C   UNL     1       3.077  13.651   4.065  1.00  0.00     0.161 A 
ATOM      3  C   UNL     1       3.604  14.460   3.052  1.00  0.00     0.098 A 
ATOM      4  C   UNL     1       2.763  15.023   2.088  1.00  0.00     0.142 A 
ATOM      5  C   UNL     1       1.376  14.773   2.137  1.00  0.00     0.022 A 
ATOM      6  C   UNL     1       0.844  13.964   3.150  1.00  0.00     0.062 A 
ATOM      7  C   UNL     1       0.561  15.351   1.158  1.00  0.00     0.019 A 
ATOM      8  C   UNL     1       1.136  16.149   0.170  1.00  0.00     0.094 A 
ATOM      9  C   UNL     1       2.521  16.352   0.186  1.00  0.00     0.336 A 
ATOM     10  O   UNL     1       3.060  17.070  -0.697  1.00  0.00    -0.246 OA
ATOM     11  O   UNL     1       3.273  15.791   1.128  1.00  0.00    -0.423 OA
ENDROOT
BRANCH   1  12
ATOM     12  O   UNL     1       1.198  12.579   5.152  1.00  0.00    -0.493 OA
ATOM     13  C   UNL     1       0.653  13.062   6.376  1.00  0.00     0.278 C 
ENDBRANCH   1  12
BRANCH   2  14
ATOM     14  O   UNL     1       3.948  13.107   5.009  1.00  0.00    -0.504 OA
ATOM     15  H   UNL     1       4.394  12.206   4.878  1.00  0.00     0.293 HD
ENDBRANCH   2  14
TORSDOF 2
ENDMDL
MODEL 9
REMARK VINA RESULT:    -5.193      1.344      2.318
REMARK INTER + INTRA:          -5.711
REMARK INTER:                  -5.649
REMARK INTRA:                  -0.061
REMARK UNBOUND:                -0.062
REMARK SMILES COc1cc2ccc(=O)oc2cc1O
REMARK SMILES IDX 3 1 13 2 12 3 11 4 5 5 4 6 6 7 7 8 8 9 9 10 10 11 2 12 1 13
REMARK SMILES IDX 14 14
REMARK H PARENT 14 15
REMARK Flexibility Score: inf
ROOT
ATOM      1  C   UNL     1       3.036  13.940   3.669  1.00  0.00     0.161 A 
ATOM      2  C   UNL     1       1.985  14.310   2.807  1.00  0.00     0.161 A 
ATOM      3  C   UNL     1       0.653  14.121   3.195  1.00  0.00     0.098 A 
ATOM      4  C   UNL     1       0.353  13.564   4.441  1.00  0.00     0.142 A 
ATOM      5  C   UNL     1       1.398  13.190   5.311  1.00  0.00     0.022 A 
ATOM      6  C   UNL     1       2.732  13.378   4.926  1.00  0.00     0.062 A 
ATOM      7  C   UNL     1       1.065  12.636   6.551  1.00  0.00     0.019 A 
ATOM      8  C   UNL     1      -0.277  12.469   6.889  1.00  0.00     0.094 A 
ATOM      9  C   UNL     1      -1.260  12.863   5.975  1.00  0.00     0.336 A 
ATOM     10  O   UNL     1      -2.478  12.722   6.260  1.00  0.00    -0.246 OA
ATOM     11  O   UNL     1      -0.916  13.388   4.801  1.00  0.00    -0.423 OA
ENDROOT
BRANCH   1  12
ATOM     12  O   UNL     1       4.360  14.143   3.247  1.00  0.00    -0.493 OA
ATOM     13  C   UNL     1       5.135  15.298   3.548  1.00  0.00     0.278 C 
ENDBRANCH   1  12
BRANCH   2  14
ATOM     14  O   UNL     1       2.245  14.868   1.555  1.00  0.00    -0.504 OA
ATOM     15  H   UNL     1       1.573  14.833   0.797  1.00  0.00     0.293 HD
ENDBRANCH   2  14
TORSDOF 2
ENDMDL
