MODEL 1
REMARK VINA RESULT:    -4.412      0.000      0.000
REMARK INTER + INTRA:         -14.001
REMARK INTER:                 -10.087
REMARK INTRA:                  -3.914
REMARK UNBOUND:                -3.914
REMARK SMILES CCCCCCCCCCCCCCCCCCCCCCCC(=O)[O-]
REMARK SMILES IDX 13 1 14 2 15 3 16 4 17 5 18 6 19 7 20 8 21 9 22 10 23 11
REMARK SMILES IDX 24 12 25 13 26 14 12 15 11 16 10 17 9 18 8 19 7 20 6 21 5 22
REMARK SMILES IDX 4 23 3 24 2 25 1 26
REMARK H PARENT
REMARK Flexibility Score: inf
ROOT
ATOM      1  C   UNL     1      59.628  29.159  10.519  1.00  0.00     0.000 C 
ENDROOT
BRANCH   1   2
ATOM      2  C   UNL     1      59.546  28.780  12.012  1.00  0.00     0.000 C 
BRANCH   2   3
ATOM      3  C   UNL     1      60.715  27.925  12.539  1.00  0.00     0.000 C 
BRANCH   3   4
ATOM      4  C   UNL     1      61.589  28.595  13.614  1.00  0.00     0.000 C 
BRANCH   4   5
ATOM      5  C   UNL     1      62.844  29.270  13.034  1.00  0.00     0.000 C 
BRANCH   5   6
ATOM      6  C   UNL     1      62.886  30.785  13.309  1.00  0.00     0.000 C 
BRANCH   6   7
ATOM      7  C   UNL     1      62.127  31.661  12.292  1.00  0.00     0.000 C 
BRANCH   7   8
ATOM      8  C   UNL     1      61.016  32.541  12.893  1.00  0.00     0.000 C 
BRANCH   8   9
ATOM      9  C   UNL     1      60.148  31.786  13.912  1.00  0.00     0.000 C 
BRANCH   9  10
ATOM     10  C   UNL     1      60.114  32.520  15.257  1.00  0.00     0.006 C 
BRANCH  10  11
ATOM     11  C   UNL     1      61.035  33.744  15.239  1.00  0.00     0.053 C 
BRANCH  11  12
ATOM     12  C   UNL     1      60.756  34.637  16.408  1.00  0.00     0.041 C 
ATOM     13  O   UNL     1      61.508  34.611  17.419  1.00  0.00    -0.550 OA
ATOM     14  O   UNL     1      59.676  35.510  16.374  1.00  0.00    -0.550 OA
ENDBRANCH  11  12
ENDBRANCH  10  11
ENDBRANCH   9  10
ENDBRANCH   8   9
ENDBRANCH   7   8
ENDBRANCH   6   7
ENDBRANCH   5   6
ENDBRANCH   4   5
ENDBRANCH   3   4
ENDBRANCH   2   3
ENDBRANCH   1   2
BRANCH   1  15
ATOM     15  C   UNL     1      60.820  28.551   9.758  1.00  0.00     0.000 C 
BRANCH  15  16
ATOM     16  C   UNL     1      61.883  29.597   9.381  1.00  0.00     0.000 C 
BRANCH  16  17
ATOM     17  C   UNL     1      63.270  28.969   9.163  1.00  0.00     0.000 C 
BRANCH  17  18
ATOM     18  C   UNL     1      64.390  29.755   9.868  1.00  0.00    -0.000 C 
BRANCH  18  19
ATOM     19  C   UNL     1      65.312  30.498   8.882  1.00  0.00    -0.000 C 
BRANCH  19  20
ATOM     20  C   UNL     1      65.924  31.807   9.417  1.00  0.00    -0.000 C 
BRANCH  20  21
ATOM     21  C   UNL     1      65.120  32.411  10.578  1.00  0.00    -0.000 C 
BRANCH  21  22
ATOM     22  C   UNL     1      65.856  33.571  11.276  1.00  0.00    -0.000 C 
BRANCH  22  23
ATOM     23  C   UNL     1      65.940  33.466  12.811  1.00  0.00    -0.000 C 
BRANCH  23  24
ATOM     24  C   UNL     1      64.694  33.961  13.572  1.00  0.00    -0.000 C 
BRANCH  24  25
ATOM     25  C   UNL     1      64.701  33.607  15.074  1.00  0.00    -0.003 C 
ATOM     26  C   UNL     1      64.867  34.834  15.969  1.00  0.00     0.004 C 
ENDBRANCH  24  25
ENDBRANCH  23  24
ENDBRANCH  22  23
ENDBRANCH  21  22
ENDBRANCH  20  21
ENDBRANCH  19  20
ENDBRANCH  18  19
ENDBRANCH  17  18
ENDBRANCH  16  17
ENDBRANCH  15  16
ENDBRANCH   1  15
TORSDOF 22
ENDMDL
MODEL 2
REMARK VINA RESULT:    -4.364      1.385      4.626
REMARK INTER + INTRA:         -13.891
REMARK INTER:                 -10.597
REMARK INTRA:                  -3.294
REMARK UNBOUND:                -3.914
REMARK SMILES CCCCCCCCCCCCCCCCCCCCCCCC(=O)[O-]
REMARK SMILES IDX 13 1 14 2 15 3 16 4 17 5 18 6 19 7 20 8 21 9 22 10 23 11
REMARK SMILES IDX 24 12 25 13 26 14 12 15 11 16 10 17 9 18 8 19 7 20 6 21 5 22
REMARK SMILES IDX 4 23 3 24 2 25 1 26
REMARK H PARENT
REMARK Flexibility Score: inf
ROOT
ATOM      1  C   UNL     1      61.534  28.484   8.891  1.00  0.00     0.000 C 
ENDROOT
BRANCH   1   2
ATOM      2  C   UNL     1      63.046  28.748   9.049  1.00  0.00     0.000 C 
BRANCH   2   3
ATOM      3  C   UNL     1      63.445  30.231   9.185  1.00  0.00     0.000 C 
BRANCH   3   4
ATOM      4  C   UNL     1      64.535  30.526  10.232  1.00  0.00     0.000 C 
BRANCH   4   5
ATOM      5  C   UNL     1      65.036  31.979  10.183  1.00  0.00     0.000 C 
BRANCH   5   6
ATOM      6  C   UNL     1      65.136  32.621  11.580  1.00  0.00     0.000 C 
BRANCH   6   7
ATOM      7  C   UNL     1      65.695  34.058  11.606  1.00  0.00     0.000 C 
BRANCH   7   8
ATOM      8  C   UNL     1      65.942  34.635  13.012  1.00  0.00     0.000 C 
BRANCH   8   9
ATOM      9  C   UNL     1      65.365  33.748  14.125  1.00  0.00     0.000 C 
BRANCH   9  10
ATOM     10  C   UNL     1      64.775  34.598  15.257  1.00  0.00     0.006 C 
BRANCH  10  11
ATOM     11  C   UNL     1      65.794  34.797  16.384  1.00  0.00     0.053 C 
BRANCH  11  12
ATOM     12  C   UNL     1      65.102  35.046  17.688  1.00  0.00     0.041 C 
ATOM     13  O   UNL     1      64.063  35.760  17.728  1.00  0.00    -0.550 OA
ATOM     14  O   UNL     1      65.593  34.477  18.856  1.00  0.00    -0.550 OA
ENDBRANCH  11  12
ENDBRANCH  10  11
ENDBRANCH   9  10
ENDBRANCH   8   9
ENDBRANCH   7   8
ENDBRANCH   6   7
ENDBRANCH   5   6
ENDBRANCH   4   5
ENDBRANCH   3   4
ENDBRANCH   2   3
ENDBRANCH   1   2
BRANCH   1  15
ATOM     15  C   UNL     1      60.645  29.739   8.960  1.00  0.00     0.000 C 
BRANCH  15  16
ATOM     16  C   UNL     1      60.003  29.941  10.343  1.00  0.00     0.000 C 
BRANCH  16  17
ATOM     17  C   UNL     1      59.942  28.635  11.155  1.00  0.00     0.000 C 
BRANCH  17  18
ATOM     18  C   UNL     1      59.651  28.882  12.646  1.00  0.00    -0.000 C 
BRANCH  18  19
ATOM     19  C   UNL     1      60.882  28.651  13.542  1.00  0.00    -0.000 C 
BRANCH  19  20
ATOM     20  C   UNL     1      62.234  28.621  12.805  1.00  0.00    -0.000 C 
BRANCH  20  21
ATOM     21  C   UNL     1      63.180  29.748  13.248  1.00  0.00    -0.000 C 
BRANCH  21  22
ATOM     22  C   UNL     1      62.452  30.884  13.991  1.00  0.00    -0.000 C 
BRANCH  22  23
ATOM     23  C   UNL     1      62.118  32.121  13.135  1.00  0.00    -0.000 C 
BRANCH  23  24
ATOM     24  C   UNL     1      60.692  32.678  13.314  1.00  0.00    -0.000 C 
BRANCH  24  25
ATOM     25  C   UNL     1      60.245  32.779  14.788  1.00  0.00    -0.003 C 
ATOM     26  C   UNL     1      60.911  33.938  15.528  1.00  0.00     0.004 C 
ENDBRANCH  24  25
ENDBRANCH  23  24
ENDBRANCH  22  23
ENDBRANCH  21  22
ENDBRANCH  20  21
ENDBRANCH  19  20
ENDBRANCH  18  19
ENDBRANCH  17  18
ENDBRANCH  16  17
ENDBRANCH  15  16
ENDBRANCH   1  15
TORSDOF 22
ENDMDL
MODEL 3
REMARK VINA RESULT:    -4.109      1.744      3.934
REMARK INTER + INTRA:         -13.309
REMARK INTER:                 -10.234
REMARK INTRA:                  -3.075
REMARK UNBOUND:                -3.914
REMARK SMILES CCCCCCCCCCCCCCCCCCCCCCCC(=O)[O-]
REMARK SMILES IDX 13 1 14 2 15 3 16 4 17 5 18 6 19 7 20 8 21 9 22 10 23 11
REMARK SMILES IDX 24 12 25 13 26 14 12 15 11 16 10 17 9 18 8 19 7 20 6 21 5 22
REMARK SMILES IDX 4 23 3 24 2 25 1 26
REMARK H PARENT
REMARK Flexibility Score: inf
ROOT
ATOM      1  C   UNL     1      60.501  28.878  12.565  1.00  0.00     0.000 C 
ENDROOT
BRANCH   1   2
ATOM      2  C   UNL     1      60.299  30.173  13.378  1.00  0.00     0.000 C 
BRANCH   2   3
ATOM      3  C   UNL     1      59.995  31.433  12.544  1.00  0.00     0.000 C 
BRANCH   3   4
ATOM      4  C   UNL     1      60.663  32.728  13.041  1.00  0.00     0.000 C 
BRANCH   4   5
ATOM      5  C   UNL     1      60.368  33.026  14.521  1.00  0.00     0.000 C 
BRANCH   5   6
ATOM      6  C   UNL     1      61.550  33.704  15.238  1.00  0.00     0.000 C 
BRANCH   6   7
ATOM      7  C   UNL     1      62.937  33.444  14.615  1.00  0.00     0.000 C 
BRANCH   7   8
ATOM      8  C   UNL     1      64.081  34.296  15.193  1.00  0.00     0.000 C 
BRANCH   8   9
ATOM      9  C   UNL     1      65.404  33.522  15.292  1.00  0.00     0.000 C 
BRANCH   9  10
ATOM     10  C   UNL     1      66.432  34.294  16.128  1.00  0.00     0.006 C 
BRANCH  10  11
ATOM     11  C   UNL     1      65.777  35.474  16.853  1.00  0.00     0.053 C 
BRANCH  11  12
ATOM     12  C   UNL     1      65.674  35.203  18.322  1.00  0.00     0.041 C 
ATOM     13  O   UNL     1      64.543  35.125  18.874  1.00  0.00    -0.550 OA
ATOM     14  O   UNL     1      66.824  35.020  19.078  1.00  0.00    -0.550 OA
ENDBRANCH  11  12
ENDBRANCH  10  11
ENDBRANCH   9  10
ENDBRANCH   8   9
ENDBRANCH   7   8
ENDBRANCH   6   7
ENDBRANCH   5   6
ENDBRANCH   4   5
ENDBRANCH   3   4
ENDBRANCH   2   3
ENDBRANCH   1   2
BRANCH   1  15
ATOM     15  C   UNL     1      59.609  28.747  11.317  1.00  0.00     0.000 C 
BRANCH  15  16
ATOM     16  C   UNL     1      60.332  29.156  10.022  1.00  0.00     0.000 C 
BRANCH  16  17
ATOM     17  C   UNL     1      61.797  28.687   9.997  1.00  0.00     0.000 C 
BRANCH  17  18
ATOM     18  C   UNL     1      62.656  29.494   9.008  1.00  0.00    -0.000 C 
BRANCH  18  19
ATOM     19  C   UNL     1      64.108  28.985   8.922  1.00  0.00    -0.000 C 
BRANCH  19  20
ATOM     20  C   UNL     1      65.188  30.083   8.921  1.00  0.00    -0.000 C 
BRANCH  20  21
ATOM     21  C   UNL     1      64.603  31.497   9.061  1.00  0.00    -0.000 C 
BRANCH  21  22
ATOM     22  C   UNL     1      65.433  32.399   9.994  1.00  0.00    -0.000 C 
BRANCH  22  23
ATOM     23  C   UNL     1      64.820  32.645  11.386  1.00  0.00    -0.000 C 
BRANCH  23  24
ATOM     24  C   UNL     1      63.849  31.553  11.878  1.00  0.00    -0.000 C 
BRANCH  24  25
ATOM     25  C   UNL     1      64.446  30.637  12.968  1.00  0.00    -0.003 C 
ATOM     26  C   UNL     1      63.792  29.256  12.999  1.00  0.00     0.004 C 
ENDBRANCH  24  25
ENDBRANCH  23  24
ENDBRANCH  22  23
ENDBRANCH  21  22
ENDBRANCH  20  21
ENDBRANCH  19  20
ENDBRANCH  18  19
ENDBRANCH  17  18
ENDBRANCH  16  17
ENDBRANCH  15  16
ENDBRANCH   1  15
TORSDOF 22
ENDMDL
MODEL 4
REMARK VINA RESULT:    -4.104      1.273      1.890
REMARK INTER + INTRA:         -13.297
REMARK INTER:                 -10.017
REMARK INTRA:                  -3.279
REMARK UNBOUND:                -3.914
REMARK SMILES CCCCCCCCCCCCCCCCCCCCCCCC(=O)[O-]
REMARK SMILES IDX 13 1 14 2 15 3 16 4 17 5 18 6 19 7 20 8 21 9 22 10 23 11
REMARK SMILES IDX 24 12 25 13 26 14 12 15 11 16 10 17 9 18 8 19 7 20 6 21 5 22
REMARK SMILES IDX 4 23 3 24 2 25 1 26
REMARK H PARENT
REMARK Flexibility Score: inf
ROOT
ATOM      1  C   UNL     1      59.620  29.215  12.593  1.00  0.00     0.000 C 
ENDROOT
BRANCH   1   2
ATOM      2  C   UNL     1      60.765  28.957  13.594  1.00  0.00     0.000 C 
BRANCH   2   3
ATOM      3  C   UNL     1      62.028  28.305  12.997  1.00  0.00     0.000 C 
BRANCH   3   4
ATOM      4  C   UNL     1      63.353  29.019  13.320  1.00  0.00     0.000 C 
BRANCH   4   5
ATOM      5  C   UNL     1      63.454  30.415  12.682  1.00  0.00     0.000 C 
BRANCH   5   6
ATOM      6  C   UNL     1      63.605  31.536  13.727  1.00  0.00     0.000 C 
BRANCH   6   7
ATOM      7  C   UNL     1      62.808  32.824  13.433  1.00  0.00     0.000 C 
BRANCH   7   8
ATOM      8  C   UNL     1      61.320  32.608  13.107  1.00  0.00     0.000 C 
BRANCH   8   9
ATOM      9  C   UNL     1      60.395  33.014  14.265  1.00  0.00     0.000 C 
BRANCH   9  10
ATOM     10  C   UNL     1      61.195  33.249  15.552  1.00  0.00     0.006 C 
BRANCH  10  11
ATOM     11  C   UNL     1      60.772  34.555  16.232  1.00  0.00     0.053 C 
BRANCH  11  12
ATOM     12  C   UNL     1      61.344  34.645  17.613  1.00  0.00     0.041 C 
ATOM     13  O   UNL     1      60.790  34.038  18.569  1.00  0.00    -0.550 OA
ATOM     14  O   UNL     1      62.498  35.383  17.841  1.00  0.00    -0.550 OA
ENDBRANCH  11  12
ENDBRANCH  10  11
ENDBRANCH   9  10
ENDBRANCH   8   9
ENDBRANCH   7   8
ENDBRANCH   6   7
ENDBRANCH   5   6
ENDBRANCH   4   5
ENDBRANCH   3   4
ENDBRANCH   2   3
ENDBRANCH   1   2
BRANCH   1  15
ATOM     15  C   UNL     1      59.691  28.386  11.297  1.00  0.00     0.000 C 
BRANCH  15  16
ATOM     16  C   UNL     1      60.012  29.240  10.059  1.00  0.00     0.000 C 
BRANCH  16  17
ATOM     17  C   UNL     1      61.294  28.777   9.346  1.00  0.00     0.000 C 
BRANCH  17  18
ATOM     18  C   UNL     1      62.431  29.808   9.449  1.00  0.00    -0.000 C 
BRANCH  18  19
ATOM     19  C   UNL     1      63.768  29.285   8.891  1.00  0.00    -0.000 C 
BRANCH  19  20
ATOM     20  C   UNL     1      65.001  30.145   9.227  1.00  0.00    -0.000 C 
BRANCH  20  21
ATOM     21  C   UNL     1      64.641  31.604   9.549  1.00  0.00    -0.000 C 
BRANCH  21  22
ATOM     22  C   UNL     1      65.869  32.454   9.923  1.00  0.00    -0.000 C 
BRANCH  22  23
ATOM     23  C   UNL     1      65.867  33.015  11.359  1.00  0.00    -0.000 C 
BRANCH  23  24
ATOM     24  C   UNL     1      65.969  34.550  11.465  1.00  0.00    -0.000 C 
BRANCH  24  25
ATOM     25  C   UNL     1      66.135  35.063  12.911  1.00  0.00    -0.003 C 
ATOM     26  C   UNL     1      66.452  33.944  13.901  1.00  0.00     0.004 C 
ENDBRANCH  24  25
ENDBRANCH  23  24
ENDBRANCH  22  23
ENDBRANCH  21  22
ENDBRANCH  20  21
ENDBRANCH  19  20
ENDBRANCH  18  19
ENDBRANCH  17  18
ENDBRANCH  16  17
ENDBRANCH  15  16
ENDBRANCH   1  15
TORSDOF 22
ENDMDL
MODEL 5
REMARK VINA RESULT:    -4.071      1.819      3.919
REMARK INTER + INTRA:         -13.220
REMARK INTER:                 -10.017
REMARK INTRA:                  -3.204
REMARK UNBOUND:                -3.914
REMARK SMILES CCCCCCCCCCCCCCCCCCCCCCCC(=O)[O-]
REMARK SMILES IDX 13 1 14 2 15 3 16 4 17 5 18 6 19 7 20 8 21 9 22 10 23 11
REMARK SMILES IDX 24 12 25 13 26 14 12 15 11 16 10 17 9 18 8 19 7 20 6 21 5 22
REMARK SMILES IDX 4 23 3 24 2 25 1 26
REMARK H PARENT
REMARK Flexibility Score: inf
ROOT
ATOM      1  C   UNL     1      61.650  29.409  13.672  1.00  0.00     0.000 C 
ENDROOT
BRANCH   1   2
ATOM      2  C   UNL     1      63.099  29.080  13.258  1.00  0.00     0.000 C 
BRANCH   2   3
ATOM      3  C   UNL     1      64.144  30.159  13.605  1.00  0.00     0.000 C 
BRANCH   3   4
ATOM      4  C   UNL     1      64.947  29.907  14.895  1.00  0.00     0.000 C 
BRANCH   4   5
ATOM      5  C   UNL     1      66.232  30.748  14.976  1.00  0.00     0.000 C 
BRANCH   5   6
ATOM      6  C   UNL     1      66.047  32.172  14.420  1.00  0.00     0.000 C 
BRANCH   6   7
ATOM      7  C   UNL     1      65.665  33.243  15.462  1.00  0.00     0.000 C 
BRANCH   7   8
ATOM      8  C   UNL     1      64.650  34.293  14.975  1.00  0.00     0.000 C 
BRANCH   8   9
ATOM      9  C   UNL     1      63.215  33.982  15.426  1.00  0.00     0.000 C 
BRANCH   9  10
ATOM     10  C   UNL     1      62.425  33.287  14.311  1.00  0.00     0.006 C 
BRANCH  10  11
ATOM     11  C   UNL     1      60.926  33.580  14.434  1.00  0.00     0.053 C 
BRANCH  11  12
ATOM     12  C   UNL     1      60.124  32.579  13.662  1.00  0.00     0.041 C 
ATOM     13  O   UNL     1      60.342  32.404  12.433  1.00  0.00    -0.550 OA
ATOM     14  O   UNL     1      59.148  31.826  14.303  1.00  0.00    -0.550 OA
ENDBRANCH  11  12
ENDBRANCH  10  11
ENDBRANCH   9  10
ENDBRANCH   8   9
ENDBRANCH   7   8
ENDBRANCH   6   7
ENDBRANCH   5   6
ENDBRANCH   4   5
ENDBRANCH   3   4
ENDBRANCH   2   3
ENDBRANCH   1   2
BRANCH   1  15
ATOM     15  C   UNL     1      60.590  28.405  13.184  1.00  0.00     0.000 C 
BRANCH  15  16
ATOM     16  C   UNL     1      59.825  28.899  11.945  1.00  0.00     0.000 C 
BRANCH  16  17
ATOM     17  C   UNL     1      60.403  28.334  10.637  1.00  0.00     0.000 C 
BRANCH  17  18
ATOM     18  C   UNL     1      60.369  29.357   9.487  1.00  0.00    -0.000 C 
BRANCH  18  19
ATOM     19  C   UNL     1      61.758  29.617   8.875  1.00  0.00    -0.000 C 
BRANCH  19  20
ATOM     20  C   UNL     1      62.950  29.172   9.743  1.00  0.00    -0.000 C 
BRANCH  20  21
ATOM     21  C   UNL     1      64.278  29.155   8.969  1.00  0.00    -0.000 C 
BRANCH  21  22
ATOM     22  C   UNL     1      65.233  30.287   9.393  1.00  0.00    -0.000 C 
BRANCH  22  23
ATOM     23  C   UNL     1      64.576  31.672   9.560  1.00  0.00    -0.000 C 
BRANCH  23  24
ATOM     24  C   UNL     1      64.957  32.428  10.848  1.00  0.00    -0.000 C 
BRANCH  24  25
ATOM     25  C   UNL     1      66.281  33.213  10.740  1.00  0.00    -0.003 C 
ATOM     26  C   UNL     1      66.268  34.507  11.554  1.00  0.00     0.004 C 
ENDBRANCH  24  25
ENDBRANCH  23  24
ENDBRANCH  22  23
ENDBRANCH  21  22
ENDBRANCH  20  21
ENDBRANCH  19  20
ENDBRANCH  18  19
ENDBRANCH  17  18
ENDBRANCH  16  17
ENDBRANCH  15  16
ENDBRANCH   1  15
TORSDOF 22
ENDMDL
MODEL 6
REMARK VINA RESULT:    -3.980      1.708      4.193
REMARK INTER + INTRA:         -13.013
REMARK INTER:                  -9.913
REMARK INTRA:                  -3.099
REMARK UNBOUND:                -3.914
REMARK SMILES CCCCCCCCCCCCCCCCCCCCCCCC(=O)[O-]
REMARK SMILES IDX 13 1 14 2 15 3 16 4 17 5 18 6 19 7 20 8 21 9 22 10 23 11
REMARK SMILES IDX 24 12 25 13 26 14 12 15 11 16 10 17 9 18 8 19 7 20 6 21 5 22
REMARK SMILES IDX 4 23 3 24 2 25 1 26
REMARK H PARENT
REMARK Flexibility Score: inf
ROOT
ATOM      1  C   UNL     1      60.084  29.832  13.018  1.00  0.00     0.000 C 
ENDROOT
BRANCH   1   2
ATOM      2  C   UNL     1      59.623  31.191  12.454  1.00  0.00     0.000 C 
BRANCH   2   3
ATOM      3  C   UNL     1      60.400  32.417  12.973  1.00  0.00     0.000 C 
BRANCH   3   4
ATOM      4  C   UNL     1      60.628  32.456  14.496  1.00  0.00     0.000 C 
BRANCH   4   5
ATOM      5  C   UNL     1      61.050  33.845  15.004  1.00  0.00     0.000 C 
BRANCH   5   6
ATOM      6  C   UNL     1      62.527  33.896  15.439  1.00  0.00     0.000 C 
BRANCH   6   7
ATOM      7  C   UNL     1      63.540  33.391  14.392  1.00  0.00     0.000 C 
BRANCH   7   8
ATOM      8  C   UNL     1      64.829  34.224  14.278  1.00  0.00     0.000 C 
BRANCH   8   9
ATOM      9  C   UNL     1      65.920  33.762  15.257  1.00  0.00     0.000 C 
BRANCH   9  10
ATOM     10  C   UNL     1      66.284  34.878  16.243  1.00  0.00     0.006 C 
BRANCH  10  11
ATOM     11  C   UNL     1      66.098  34.414  17.691  1.00  0.00     0.053 C 
BRANCH  11  12
ATOM     12  C   UNL     1      65.075  35.253  18.391  1.00  0.00     0.041 C 
ATOM     13  O   UNL     1      64.099  35.727  17.751  1.00  0.00    -0.550 OA
ATOM     14  O   UNL     1      65.189  35.496  19.754  1.00  0.00    -0.550 OA
ENDBRANCH  11  12
ENDBRANCH  10  11
ENDBRANCH   9  10
ENDBRANCH   8   9
ENDBRANCH   7   8
ENDBRANCH   6   7
ENDBRANCH   5   6
ENDBRANCH   4   5
ENDBRANCH   3   4
ENDBRANCH   2   3
ENDBRANCH   1   2
BRANCH   1  15
ATOM     15  C   UNL     1      59.662  28.606  12.187  1.00  0.00     0.000 C 
BRANCH  15  16
ATOM     16  C   UNL     1      60.508  28.428  10.915  1.00  0.00     0.000 C 
BRANCH  16  17
ATOM     17  C   UNL     1      60.230  29.523   9.871  1.00  0.00     0.000 C 
BRANCH  17  18
ATOM     18  C   UNL     1      61.397  29.704   8.884  1.00  0.00    -0.000 C 
BRANCH  18  19
ATOM     19  C   UNL     1      62.465  28.601   9.009  1.00  0.00    -0.000 C 
BRANCH  19  20
ATOM     20  C   UNL     1      63.923  29.096   9.002  1.00  0.00    -0.000 C 
BRANCH  20  21
ATOM     21  C   UNL     1      64.040  30.611   9.234  1.00  0.00    -0.000 C 
BRANCH  21  22
ATOM     22  C   UNL     1      64.540  30.963  10.648  1.00  0.00    -0.000 C 
BRANCH  22  23
ATOM     23  C   UNL     1      63.489  30.828  11.768  1.00  0.00    -0.000 C 
BRANCH  23  24
ATOM     24  C   UNL     1      63.601  29.551  12.624  1.00  0.00    -0.000 C 
BRANCH  24  25
ATOM     25  C   UNL     1      63.722  29.826  14.138  1.00  0.00    -0.003 C 
ATOM     26  C   UNL     1      65.161  30.098  14.574  1.00  0.00     0.004 C 
ENDBRANCH  24  25
ENDBRANCH  23  24
ENDBRANCH  22  23
ENDBRANCH  21  22
ENDBRANCH  20  21
ENDBRANCH  19  20
ENDBRANCH  18  19
ENDBRANCH  17  18
ENDBRANCH  16  17
ENDBRANCH  15  16
ENDBRANCH   1  15
TORSDOF 22
ENDMDL
MODEL 7
REMARK VINA RESULT:    -3.963      1.596      3.507
REMARK INTER + INTRA:         -12.974
REMARK INTER:                  -9.784
REMARK INTRA:                  -3.190
REMARK UNBOUND:                -3.914
REMARK SMILES CCCCCCCCCCCCCCCCCCCCCCCC(=O)[O-]
REMARK SMILES IDX 13 1 14 2 15 3 16 4 17 5 18 6 19 7 20 8 21 9 22 10 23 11
REMARK SMILES IDX 24 12 25 13 26 14 12 15 11 16 10 17 9 18 8 19 7 20 6 21 5 22
REMARK SMILES IDX 4 23 3 24 2 25 1 26
REMARK H PARENT
REMARK Flexibility Score: inf
ROOT
ATOM      1  C   UNL     1      63.648  28.997   9.800  1.00  0.00     0.000 C 
ENDROOT
BRANCH   1   2
ATOM      2  C   UNL     1      62.434  29.340   8.913  1.00  0.00     0.000 C 
BRANCH   2   3
ATOM      3  C   UNL     1      61.161  28.518   9.192  1.00  0.00     0.000 C 
BRANCH   3   4
ATOM      4  C   UNL     1      59.921  29.339   9.593  1.00  0.00     0.000 C 
BRANCH   4   5
ATOM      5  C   UNL     1      59.968  29.822  11.053  1.00  0.00     0.000 C 
BRANCH   5   6
ATOM      6  C   UNL     1      59.414  28.780  12.042  1.00  0.00     0.000 C 
BRANCH   6   7
ATOM      7  C   UNL     1      60.475  27.901  12.736  1.00  0.00     0.000 C 
BRANCH   7   8
ATOM      8  C   UNL     1      61.741  28.647  13.193  1.00  0.00     0.000 C 
BRANCH   8   9
ATOM      9  C   UNL     1      61.448  29.708  14.265  1.00  0.00     0.000 C 
BRANCH   9  10
ATOM     10  C   UNL     1      62.540  30.785  14.287  1.00  0.00     0.006 C 
BRANCH  10  11
ATOM     11  C   UNL     1      62.169  31.961  13.378  1.00  0.00     0.053 C 
BRANCH  11  12
ATOM     12  C   UNL     1      61.616  33.098  14.179  1.00  0.00     0.041 C 
ATOM     13  O   UNL     1      62.333  33.671  15.044  1.00  0.00    -0.550 OA
ATOM     14  O   UNL     1      60.317  33.537  13.960  1.00  0.00    -0.550 OA
ENDBRANCH  11  12
ENDBRANCH  10  11
ENDBRANCH   9  10
ENDBRANCH   8   9
ENDBRANCH   7   8
ENDBRANCH   6   7
ENDBRANCH   5   6
ENDBRANCH   4   5
ENDBRANCH   3   4
ENDBRANCH   2   3
ENDBRANCH   1   2
BRANCH   1  15
ATOM     15  C   UNL     1      64.119  30.135  10.725  1.00  0.00     0.000 C 
BRANCH  15  16
ATOM     16  C   UNL     1      64.519  31.404   9.953  1.00  0.00     0.000 C 
BRANCH  16  17
ATOM     17  C   UNL     1      65.917  31.287   9.321  1.00  0.00     0.000 C 
BRANCH  17  18
ATOM     18  C   UNL     1      66.793  32.521   9.597  1.00  0.00    -0.000 C 
BRANCH  18  19
ATOM     19  C   UNL     1      66.166  33.483  10.624  1.00  0.00    -0.000 C 
BRANCH  19  20
ATOM     20  C   UNL     1      67.073  33.858  11.811  1.00  0.00    -0.000 C 
BRANCH  20  21
ATOM     21  C   UNL     1      66.444  34.914  12.733  1.00  0.00    -0.000 C 
BRANCH  21  22
ATOM     22  C   UNL     1      65.479  34.307  13.768  1.00  0.00    -0.000 C 
BRANCH  22  23
ATOM     23  C   UNL     1      65.690  32.809  14.064  1.00  0.00    -0.000 C 
BRANCH  23  24
ATOM     24  C   UNL     1      66.190  32.484  15.485  1.00  0.00    -0.000 C 
BRANCH  24  25
ATOM     25  C   UNL     1      66.790  31.069  15.625  1.00  0.00    -0.003 C 
ATOM     26  C   UNL     1      65.971  30.007  14.892  1.00  0.00     0.004 C 
ENDBRANCH  24  25
ENDBRANCH  23  24
ENDBRANCH  22  23
ENDBRANCH  21  22
ENDBRANCH  20  21
ENDBRANCH  19  20
ENDBRANCH  18  19
ENDBRANCH  17  18
ENDBRANCH  16  17
ENDBRANCH  15  16
ENDBRANCH   1  15
TORSDOF 22
ENDMDL
MODEL 8
REMARK VINA RESULT:    -3.917      1.342      5.910
REMARK INTER + INTRA:         -12.870
REMARK INTER:                  -9.711
REMARK INTRA:                  -3.159
REMARK UNBOUND:                -3.914
REMARK SMILES CCCCCCCCCCCCCCCCCCCCCCCC(=O)[O-]
REMARK SMILES IDX 13 1 14 2 15 3 16 4 17 5 18 6 19 7 20 8 21 9 22 10 23 11
REMARK SMILES IDX 24 12 25 13 26 14 12 15 11 16 10 17 9 18 8 19 7 20 6 21 5 22
REMARK SMILES IDX 4 23 3 24 2 25 1 26
REMARK H PARENT
REMARK Flexibility Score: inf
ROOT
ATOM      1  C   UNL     1      65.453  33.822  14.862  1.00  0.00     0.000 C 
ENDROOT
BRANCH   1   2
ATOM      2  C   UNL     1      66.324  34.191  13.644  1.00  0.00     0.000 C 
BRANCH   2   3
ATOM      3  C   UNL     1      65.586  34.222  12.292  1.00  0.00     0.000 C 
BRANCH   3   4
ATOM      4  C   UNL     1      65.550  32.885  11.529  1.00  0.00     0.000 C 
BRANCH   4   5
ATOM      5  C   UNL     1      64.143  32.269  11.462  1.00  0.00     0.000 C 
BRANCH   5   6
ATOM      6  C   UNL     1      63.225  32.756  12.599  1.00  0.00     0.000 C 
BRANCH   6   7
ATOM      7  C   UNL     1      61.796  32.175  12.589  1.00  0.00     0.000 C 
BRANCH   7   8
ATOM      8  C   UNL     1      60.718  33.088  13.198  1.00  0.00     0.000 C 
BRANCH   8   9
ATOM      9  C   UNL     1      60.526  32.853  14.704  1.00  0.00     0.000 C 
BRANCH   9  10
ATOM     10  C   UNL     1      61.473  33.738  15.524  1.00  0.00     0.006 C 
BRANCH  10  11
ATOM     11  C   UNL     1      60.717  34.467  16.640  1.00  0.00     0.053 C 
BRANCH  11  12
ATOM     12  C   UNL     1      61.625  34.762  17.792  1.00  0.00     0.041 C 
ATOM     13  O   UNL     1      61.258  34.506  18.970  1.00  0.00    -0.550 OA
ATOM     14  O   UNL     1      62.884  35.304  17.565  1.00  0.00    -0.550 OA
ENDBRANCH  11  12
ENDBRANCH  10  11
ENDBRANCH   9  10
ENDBRANCH   8   9
ENDBRANCH   7   8
ENDBRANCH   6   7
ENDBRANCH   5   6
ENDBRANCH   4   5
ENDBRANCH   3   4
ENDBRANCH   2   3
ENDBRANCH   1   2
BRANCH   1  15
ATOM     15  C   UNL     1      65.964  32.628  15.690  1.00  0.00     0.000 C 
BRANCH  15  16
ATOM     16  C   UNL     1      66.243  31.383  14.831  1.00  0.00     0.000 C 
BRANCH  16  17
ATOM     17  C   UNL     1      65.281  30.226  15.151  1.00  0.00     0.000 C 
BRANCH  17  18
ATOM     18  C   UNL     1      64.517  29.735  13.908  1.00  0.00    -0.000 C 
BRANCH  18  19
ATOM     19  C   UNL     1      63.059  29.346  14.215  1.00  0.00    -0.000 C 
BRANCH  19  20
ATOM     20  C   UNL     1      62.277  28.746  13.032  1.00  0.00    -0.000 C 
BRANCH  20  21
ATOM     21  C   UNL     1      60.791  28.518  13.352  1.00  0.00    -0.000 C 
BRANCH  21  22
ATOM     22  C   UNL     1      59.850  29.265  12.389  1.00  0.00    -0.000 C 
BRANCH  22  23
ATOM     23  C   UNL     1      59.813  28.718  10.949  1.00  0.00    -0.000 C 
BRANCH  23  24
ATOM     24  C   UNL     1      60.647  29.511   9.923  1.00  0.00    -0.000 C 
BRANCH  24  25
ATOM     25  C   UNL     1      61.804  28.700   9.302  1.00  0.00    -0.003 C 
ATOM     26  C   UNL     1      63.144  29.431   9.377  1.00  0.00     0.004 C 
ENDBRANCH  24  25
ENDBRANCH  23  24
ENDBRANCH  22  23
ENDBRANCH  21  22
ENDBRANCH  20  21
ENDBRANCH  19  20
ENDBRANCH  18  19
ENDBRANCH  17  18
ENDBRANCH  16  17
ENDBRANCH  15  16
ENDBRANCH   1  15
TORSDOF 22
ENDMDL
MODEL 9
REMARK VINA RESULT:    -3.895      2.345      5.467
REMARK INTER + INTRA:         -12.820
REMARK INTER:                  -9.406
REMARK INTRA:                  -3.414
REMARK UNBOUND:                -3.914
REMARK SMILES CCCCCCCCCCCCCCCCCCCCCCCC(=O)[O-]
REMARK SMILES IDX 13 1 14 2 15 3 16 4 17 5 18 6 19 7 20 8 21 9 22 10 23 11
REMARK SMILES IDX 24 12 25 13 26 14 12 15 11 16 10 17 9 18 8 19 7 20 6 21 5 22
REMARK SMILES IDX 4 23 3 24 2 25 1 26
REMARK H PARENT
REMARK Flexibility Score: inf
ROOT
ATOM      1  C   UNL     1      63.502  28.993   9.981  1.00  0.00     0.000 C 
ENDROOT
BRANCH   1   2
ATOM      2  C   UNL     1      64.273  29.742   8.875  1.00  0.00     0.000 C 
BRANCH   2   3
ATOM      3  C   UNL     1      64.446  31.256   9.102  1.00  0.00     0.000 C 
BRANCH   3   4
ATOM      4  C   UNL     1      65.641  31.657   9.987  1.00  0.00     0.000 C 
BRANCH   4   5
ATOM      5  C   UNL     1      65.236  32.546  11.176  1.00  0.00     0.000 C 
BRANCH   5   6
ATOM      6  C   UNL     1      66.019  33.872  11.221  1.00  0.00     0.000 C 
BRANCH   6   7
ATOM      7  C   UNL     1      65.660  34.810  12.392  1.00  0.00     0.000 C 
BRANCH   7   8
ATOM      8  C   UNL     1      66.783  35.027  13.420  1.00  0.00     0.000 C 
BRANCH   8   9
ATOM      9  C   UNL     1      66.442  34.447  14.801  1.00  0.00     0.000 C 
BRANCH   9  10
ATOM     10  C   UNL     1      66.758  32.948  14.862  1.00  0.00     0.006 C 
BRANCH  10  11
ATOM     11  C   UNL     1      65.475  32.112  14.805  1.00  0.00     0.053 C 
BRANCH  11  12
ATOM     12  C   UNL     1      65.785  30.653  14.930  1.00  0.00     0.041 C 
ATOM     13  O   UNL     1      66.812  30.274  15.555  1.00  0.00    -0.550 OA
ATOM     14  O   UNL     1      64.930  29.710  14.372  1.00  0.00    -0.550 OA
ENDBRANCH  11  12
ENDBRANCH  10  11
ENDBRANCH   9  10
ENDBRANCH   8   9
ENDBRANCH   7   8
ENDBRANCH   6   7
ENDBRANCH   5   6
ENDBRANCH   4   5
ENDBRANCH   3   4
ENDBRANCH   2   3
ENDBRANCH   1   2
BRANCH   1  15
ATOM     15  C   UNL     1      62.072  28.567   9.602  1.00  0.00     0.000 C 
BRANCH  15  16
ATOM     16  C   UNL     1      61.221  29.735   9.074  1.00  0.00     0.000 C 
BRANCH  16  17
ATOM     17  C   UNL     1      59.917  29.915   9.870  1.00  0.00     0.000 C 
BRANCH  17  18
ATOM     18  C   UNL     1      59.505  28.636  10.620  1.00  0.00    -0.000 C 
BRANCH  18  19
ATOM     19  C   UNL     1      59.425  28.835  12.146  1.00  0.00    -0.000 C 
BRANCH  19  20
ATOM     20  C   UNL     1      60.381  27.954  12.973  1.00  0.00    -0.000 C 
BRANCH  20  21
ATOM     21  C   UNL     1      61.705  28.659  13.306  1.00  0.00    -0.000 C 
BRANCH  21  22
ATOM     22  C   UNL     1      61.528  30.163  13.587  1.00  0.00    -0.000 C 
BRANCH  22  23
ATOM     23  C   UNL     1      62.273  31.105  12.620  1.00  0.00    -0.000 C 
BRANCH  23  24
ATOM     24  C   UNL     1      62.088  32.610  12.898  1.00  0.00    -0.000 C 
BRANCH  24  25
ATOM     25  C   UNL     1      61.982  32.957  14.398  1.00  0.00    -0.003 C 
ATOM     26  C   UNL     1      60.583  33.427  14.796  1.00  0.00     0.004 C 
ENDBRANCH  24  25
ENDBRANCH  23  24
ENDBRANCH  22  23
ENDBRANCH  21  22
ENDBRANCH  20  21
ENDBRANCH  19  20
ENDBRANCH  18  19
ENDBRANCH  17  18
ENDBRANCH  16  17
ENDBRANCH  15  16
ENDBRANCH   1  15
TORSDOF 22
ENDMDL
