MODEL 1
REMARK VINA RESULT:    -3.336      0.000      0.000
REMARK INTER + INTRA:         -11.380
REMARK INTER:                  -7.236
REMARK INTRA:                  -4.144
REMARK UNBOUND:                -4.144
REMARK SMILES CCCCCCCCCCCCCCCCCCCCCC(=O)[O-]
REMARK SMILES IDX 12 1 11 2 10 3 9 4 8 5 7 6 6 7 5 8 4 9 3 10 2 11 1 12 13 13
REMARK SMILES IDX 14 14 15 15 16 16 17 17 18 18 19 19 20 20 21 21 22 22 23 23
REMARK SMILES IDX 24 24
REMARK H PARENT
REMARK Flexibility Score: inf
ROOT
ATOM      1  C   UNL     1      16.639  -5.803  29.420  1.00  0.00     0.000 C 
ENDROOT
BRANCH   1   2
ATOM      2  C   UNL     1      17.476  -5.284  28.235  1.00  0.00     0.000 C 
BRANCH   2   3
ATOM      3  C   UNL     1      18.925  -4.959  28.625  1.00  0.00     0.000 C 
BRANCH   3   4
ATOM      4  C   UNL     1      19.913  -5.790  27.794  1.00  0.00    -0.000 C 
BRANCH   4   5
ATOM      5  C   UNL     1      21.058  -6.372  28.639  1.00  0.00    -0.000 C 
BRANCH   5   6
ATOM      6  C   UNL     1      20.659  -6.587  30.107  1.00  0.00    -0.000 C 
BRANCH   6   7
ATOM      7  C   UNL     1      21.063  -7.989  30.586  1.00  0.00    -0.000 C 
BRANCH   7   8
ATOM      8  C   UNL     1      20.261  -9.113  29.903  1.00  0.00    -0.000 C 
BRANCH   8   9
ATOM      9  C   UNL     1      18.736  -8.905  29.893  1.00  0.00    -0.000 C 
BRANCH   9  10
ATOM     10  C   UNL     1      18.123  -9.036  28.488  1.00  0.00    -0.000 C 
BRANCH  10  11
ATOM     11  C   UNL     1      19.149  -9.494  27.440  1.00  0.00    -0.003 C 
ATOM     12  C   UNL     1      18.888 -10.917  26.944  1.00  0.00     0.004 C 
ENDBRANCH  10  11
ENDBRANCH   9  10
ENDBRANCH   8   9
ENDBRANCH   7   8
ENDBRANCH   6   7
ENDBRANCH   5   6
ENDBRANCH   4   5
ENDBRANCH   3   4
ENDBRANCH   2   3
ENDBRANCH   1   2
BRANCH   1  13
ATOM     13  C   UNL     1      17.101  -5.316  30.808  1.00  0.00     0.000 C 
BRANCH  13  14
ATOM     14  C   UNL     1      17.017  -6.366  31.930  1.00  0.00     0.000 C 
BRANCH  14  15
ATOM     15  C   UNL     1      18.302  -6.450  32.770  1.00  0.00     0.000 C 
BRANCH  15  16
ATOM     16  C   UNL     1      18.374  -7.785  33.526  1.00  0.00     0.000 C 
BRANCH  16  17
ATOM     17  C   UNL     1      17.083  -8.607  33.400  1.00  0.00     0.000 C 
BRANCH  17  18
ATOM     18  C   UNL     1      17.338 -10.123  33.456  1.00  0.00     0.000 C 
BRANCH  18  19
ATOM     19  C   UNL     1      18.802 -10.487  33.160  1.00  0.00     0.000 C 
BRANCH  19  20
ATOM     20  C   UNL     1      18.996 -11.991  32.899  1.00  0.00     0.006 C 
BRANCH  20  21
ATOM     21  C   UNL     1      19.546 -12.268  31.493  1.00  0.00     0.053 C 
BRANCH  21  22
ATOM     22  C   UNL     1      21.038 -12.407  31.498  1.00  0.00     0.041 C 
ATOM     23  O   UNL     1      21.653 -12.621  32.576  1.00  0.00    -0.550 OA
ATOM     24  O   UNL     1      21.748 -12.332  30.305  1.00  0.00    -0.550 OA
ENDBRANCH  21  22
ENDBRANCH  20  21
ENDBRANCH  19  20
ENDBRANCH  18  19
ENDBRANCH  17  18
ENDBRANCH  16  17
ENDBRANCH  15  16
ENDBRANCH  14  15
ENDBRANCH  13  14
ENDBRANCH   1  13
TORSDOF 20
ENDMDL
MODEL 2
REMARK VINA RESULT:    -3.289      1.730      3.815
REMARK INTER + INTRA:         -11.280
REMARK INTER:                  -6.818
REMARK INTRA:                  -4.461
REMARK UNBOUND:                -4.144
REMARK SMILES CCCCCCCCCCCCCCCCCCCCCC(=O)[O-]
REMARK SMILES IDX 12 1 11 2 10 3 9 4 8 5 7 6 6 7 5 8 4 9 3 10 2 11 1 12 13 13
REMARK SMILES IDX 14 14 15 15 16 16 17 17 18 18 19 19 20 20 21 21 22 22 23 23
REMARK SMILES IDX 24 24
REMARK H PARENT
REMARK Flexibility Score: inf
ROOT
ATOM      1  C   UNL     1      16.346  -6.291  29.453  1.00  0.00     0.000 C 
ENDROOT
BRANCH   1   2
ATOM      2  C   UNL     1      16.583  -4.985  30.235  1.00  0.00     0.000 C 
BRANCH   2   3
ATOM      3  C   UNL     1      17.328  -5.210  31.558  1.00  0.00     0.000 C 
BRANCH   3   4
ATOM      4  C   UNL     1      18.842  -5.031  31.369  1.00  0.00    -0.000 C 
BRANCH   4   5
ATOM      5  C   UNL     1      19.626  -6.335  31.587  1.00  0.00    -0.000 C 
BRANCH   5   6
ATOM      6  C   UNL     1      20.194  -6.909  30.281  1.00  0.00    -0.000 C 
BRANCH   6   7
ATOM      7  C   UNL     1      20.695  -5.787  29.361  1.00  0.00    -0.000 C 
BRANCH   7   8
ATOM      8  C   UNL     1      20.259  -5.970  27.895  1.00  0.00    -0.000 C 
BRANCH   8   9
ATOM      9  C   UNL     1      19.087  -5.076  27.452  1.00  0.00    -0.000 C 
BRANCH   9  10
ATOM     10  C   UNL     1      18.378  -5.599  26.191  1.00  0.00    -0.000 C 
BRANCH  10  11
ATOM     11  C   UNL     1      19.162  -6.726  25.501  1.00  0.00    -0.003 C 
ATOM     12  C   UNL     1      18.280  -7.592  24.601  1.00  0.00     0.004 C 
ENDBRANCH  10  11
ENDBRANCH   9  10
ENDBRANCH   8   9
ENDBRANCH   7   8
ENDBRANCH   6   7
ENDBRANCH   5   6
ENDBRANCH   4   5
ENDBRANCH   3   4
ENDBRANCH   2   3
ENDBRANCH   1   2
BRANCH   1  13
ATOM     13  C   UNL     1      16.267  -7.565  30.318  1.00  0.00     0.000 C 
BRANCH  13  14
ATOM     14  C   UNL     1      16.979  -8.797  29.734  1.00  0.00     0.000 C 
BRANCH  14  15
ATOM     15  C   UNL     1      17.566  -8.545  28.337  1.00  0.00     0.000 C 
BRANCH  15  16
ATOM     16  C   UNL     1      17.470  -9.806  27.466  1.00  0.00     0.000 C 
BRANCH  16  17
ATOM     17  C   UNL     1      18.819 -10.529  27.323  1.00  0.00     0.000 C 
BRANCH  17  18
ATOM     18  C   UNL     1      20.016  -9.621  27.656  1.00  0.00     0.000 C 
BRANCH  18  19
ATOM     19  C   UNL     1      20.892 -10.190  28.783  1.00  0.00     0.000 C 
BRANCH  19  20
ATOM     20  C   UNL     1      20.079 -10.990  29.816  1.00  0.00     0.006 C 
BRANCH  20  21
ATOM     21  C   UNL     1      20.250 -10.441  31.239  1.00  0.00     0.053 C 
BRANCH  21  22
ATOM     22  C   UNL     1      20.109 -11.518  32.272  1.00  0.00     0.041 C 
ATOM     23  O   UNL     1      20.443 -11.300  33.466  1.00  0.00    -0.550 OA
ATOM     24  O   UNL     1      19.578 -12.754  31.920  1.00  0.00    -0.550 OA
ENDBRANCH  21  22
ENDBRANCH  20  21
ENDBRANCH  19  20
ENDBRANCH  18  19
ENDBRANCH  17  18
ENDBRANCH  16  17
ENDBRANCH  15  16
ENDBRANCH  14  15
ENDBRANCH  13  14
ENDBRANCH   1  13
TORSDOF 20
ENDMDL
MODEL 3
REMARK VINA RESULT:    -3.266      2.641      5.227
REMARK INTER + INTRA:         -11.228
REMARK INTER:                  -7.531
REMARK INTRA:                  -3.697
REMARK UNBOUND:                -4.144
REMARK SMILES CCCCCCCCCCCCCCCCCCCCCC(=O)[O-]
REMARK SMILES IDX 12 1 11 2 10 3 9 4 8 5 7 6 6 7 5 8 4 9 3 10 2 11 1 12 13 13
REMARK SMILES IDX 14 14 15 15 16 16 17 17 18 18 19 19 20 20 21 21 22 22 23 23
REMARK SMILES IDX 24 24
REMARK H PARENT
REMARK Flexibility Score: inf
ROOT
ATOM      1  C   UNL     1      16.711  -6.217  31.518  1.00  0.00     0.000 C 
ENDROOT
BRANCH   1   2
ATOM      2  C   UNL     1      17.358  -7.451  32.175  1.00  0.00     0.000 C 
BRANCH   2   3
ATOM      3  C   UNL     1      17.105  -8.746  31.390  1.00  0.00     0.000 C 
BRANCH   3   4
ATOM      4  C   UNL     1      18.301  -9.702  31.514  1.00  0.00    -0.000 C 
BRANCH   4   5
ATOM      5  C   UNL     1      19.644  -8.962  31.619  1.00  0.00    -0.000 C 
BRANCH   5   6
ATOM      6  C   UNL     1      20.728  -9.573  30.717  1.00  0.00    -0.000 C 
BRANCH   6   7
ATOM      7  C   UNL     1      20.340 -10.993  30.279  1.00  0.00    -0.000 C 
BRANCH   7   8
ATOM      8  C   UNL     1      21.504 -11.995  30.385  1.00  0.00    -0.000 C 
BRANCH   8   9
ATOM      9  C   UNL     1      21.380 -13.014  31.532  1.00  0.00    -0.000 C 
BRANCH   9  10
ATOM     10  C   UNL     1      20.805 -12.399  32.819  1.00  0.00    -0.000 C 
BRANCH  10  11
ATOM     11  C   UNL     1      19.707 -13.270  33.448  1.00  0.00    -0.003 C 
ATOM     12  C   UNL     1      18.326 -13.000  32.849  1.00  0.00     0.004 C 
ENDBRANCH  10  11
ENDBRANCH   9  10
ENDBRANCH   8   9
ENDBRANCH   7   8
ENDBRANCH   6   7
ENDBRANCH   5   6
ENDBRANCH   4   5
ENDBRANCH   3   4
ENDBRANCH   2   3
ENDBRANCH   1   2
BRANCH   1  13
ATOM     13  C   UNL     1      17.635  -4.990  31.383  1.00  0.00     0.000 C 
BRANCH  13  14
ATOM     14  C   UNL     1      19.126  -5.261  31.651  1.00  0.00     0.000 C 
BRANCH  14  15
ATOM     15  C   UNL     1      20.040  -4.752  30.525  1.00  0.00     0.000 C 
BRANCH  15  16
ATOM     16  C   UNL     1      20.691  -5.925  29.777  1.00  0.00     0.000 C 
BRANCH  16  17
ATOM     17  C   UNL     1      20.064  -6.167  28.395  1.00  0.00     0.000 C 
BRANCH  17  18
ATOM     18  C   UNL     1      18.898  -7.170  28.441  1.00  0.00     0.000 C 
BRANCH  18  19
ATOM     19  C   UNL     1      19.147  -8.404  27.559  1.00  0.00     0.000 C 
BRANCH  19  20
ATOM     20  C   UNL     1      18.115  -9.520  27.800  1.00  0.00     0.006 C 
BRANCH  20  21
ATOM     21  C   UNL     1      18.492 -10.822  27.080  1.00  0.00     0.053 C 
BRANCH  21  22
ATOM     22  C   UNL     1      17.680 -11.024  25.836  1.00  0.00     0.041 C 
ATOM     23  O   UNL     1      16.462 -11.333  25.917  1.00  0.00    -0.550 OA
ATOM     24  O   UNL     1      18.262 -10.840  24.587  1.00  0.00    -0.550 OA
ENDBRANCH  21  22
ENDBRANCH  20  21
ENDBRANCH  19  20
ENDBRANCH  18  19
ENDBRANCH  17  18
ENDBRANCH  16  17
ENDBRANCH  15  16
ENDBRANCH  14  15
ENDBRANCH  13  14
ENDBRANCH   1  13
TORSDOF 20
ENDMDL
MODEL 4
REMARK VINA RESULT:    -3.241      2.268      5.616
REMARK INTER + INTRA:         -11.174
REMARK INTER:                  -7.308
REMARK INTRA:                  -3.866
REMARK UNBOUND:                -4.144
REMARK SMILES CCCCCCCCCCCCCCCCCCCCCC(=O)[O-]
REMARK SMILES IDX 12 1 11 2 10 3 9 4 8 5 7 6 6 7 5 8 4 9 3 10 2 11 1 12 13 13
REMARK SMILES IDX 14 14 15 15 16 16 17 17 18 18 19 19 20 20 21 21 22 22 23 23
REMARK SMILES IDX 24 24
REMARK H PARENT
REMARK Flexibility Score: inf
ROOT
ATOM      1  C   UNL     1      20.608  -7.962  32.729  1.00  0.00     0.000 C 
ENDROOT
BRANCH   1   2
ATOM      2  C   UNL     1      20.588  -8.766  31.416  1.00  0.00     0.000 C 
BRANCH   2   3
ATOM      3  C   UNL     1      19.233  -9.435  31.146  1.00  0.00     0.000 C 
BRANCH   3   4
ATOM      4  C   UNL     1      19.425 -10.835  30.545  1.00  0.00    -0.000 C 
BRANCH   4   5
ATOM      5  C   UNL     1      20.898 -11.272  30.514  1.00  0.00    -0.000 C 
BRANCH   5   6
ATOM      6  C   UNL     1      21.170 -12.500  31.397  1.00  0.00    -0.000 C 
BRANCH   6   7
ATOM      7  C   UNL     1      20.824 -12.208  32.864  1.00  0.00    -0.000 C 
BRANCH   7   8
ATOM      8  C   UNL     1      20.020 -13.339  33.531  1.00  0.00    -0.000 C 
BRANCH   8   9
ATOM      9  C   UNL     1      18.524 -13.038  33.732  1.00  0.00    -0.000 C 
BRANCH   9  10
ATOM     10  C   UNL     1      18.265 -11.619  34.267  1.00  0.00    -0.000 C 
BRANCH  10  11
ATOM     11  C   UNL     1      16.791 -11.205  34.145  1.00  0.00    -0.003 C 
ATOM     12  C   UNL     1      16.336 -11.064  32.692  1.00  0.00     0.004 C 
ENDBRANCH  10  11
ENDBRANCH   9  10
ENDBRANCH   8   9
ENDBRANCH   7   8
ENDBRANCH   6   7
ENDBRANCH   5   6
ENDBRANCH   4   5
ENDBRANCH   3   4
ENDBRANCH   2   3
ENDBRANCH   1   2
BRANCH   1  13
ATOM     13  C   UNL     1      19.559  -8.392  33.774  1.00  0.00     0.000 C 
BRANCH  13  14
ATOM     14  C   UNL     1      18.614  -7.275  34.250  1.00  0.00     0.000 C 
BRANCH  14  15
ATOM     15  C   UNL     1      17.148  -7.523  33.862  1.00  0.00     0.000 C 
BRANCH  15  16
ATOM     16  C   UNL     1      16.616  -6.387  32.976  1.00  0.00     0.000 C 
BRANCH  16  17
ATOM     17  C   UNL     1      16.889  -6.625  31.483  1.00  0.00     0.000 C 
BRANCH  17  18
ATOM     18  C   UNL     1      17.466  -5.383  30.781  1.00  0.00     0.000 C 
BRANCH  18  19
ATOM     19  C   UNL     1      19.000  -5.414  30.693  1.00  0.00     0.000 C 
BRANCH  19  20
ATOM     20  C   UNL     1      19.514  -5.194  29.259  1.00  0.00     0.006 C 
BRANCH  20  21
ATOM     21  C   UNL     1      20.712  -6.095  28.930  1.00  0.00     0.053 C 
BRANCH  21  22
ATOM     22  C   UNL     1      20.371  -7.113  27.883  1.00  0.00     0.041 C 
ATOM     23  O   UNL     1      19.695  -6.782  26.874  1.00  0.00    -0.550 OA
ATOM     24  O   UNL     1      20.827  -8.420  28.009  1.00  0.00    -0.550 OA
ENDBRANCH  21  22
ENDBRANCH  20  21
ENDBRANCH  19  20
ENDBRANCH  18  19
ENDBRANCH  17  18
ENDBRANCH  16  17
ENDBRANCH  15  16
ENDBRANCH  14  15
ENDBRANCH  13  14
ENDBRANCH   1  13
TORSDOF 20
ENDMDL
MODEL 5
REMARK VINA RESULT:    -3.221      1.504      4.009
REMARK INTER + INTRA:         -11.131
REMARK INTER:                  -6.836
REMARK INTRA:                  -4.295
REMARK UNBOUND:                -4.144
REMARK SMILES CCCCCCCCCCCCCCCCCCCCCC(=O)[O-]
REMARK SMILES IDX 12 1 11 2 10 3 9 4 8 5 7 6 6 7 5 8 4 9 3 10 2 11 1 12 13 13
REMARK SMILES IDX 14 14 15 15 16 16 17 17 18 18 19 19 20 20 21 21 22 22 23 23
REMARK SMILES IDX 24 24
REMARK H PARENT
REMARK Flexibility Score: inf
ROOT
ATOM      1  C   UNL     1      20.727  -7.977  33.788  1.00  0.00     0.000 C 
ENDROOT
BRANCH   1   2
ATOM      2  C   UNL     1      20.325  -6.508  34.015  1.00  0.00     0.000 C 
BRANCH   2   3
ATOM      3  C   UNL     1      19.727  -5.852  32.763  1.00  0.00     0.000 C 
BRANCH   3   4
ATOM      4  C   UNL     1      20.077  -6.659  31.504  1.00  0.00    -0.000 C 
BRANCH   4   5
ATOM      5  C   UNL     1      20.162  -5.785  30.243  1.00  0.00    -0.000 C 
BRANCH   5   6
ATOM      6  C   UNL     1      20.737  -6.543  29.036  1.00  0.00    -0.000 C 
BRANCH   6   7
ATOM      7  C   UNL     1      19.655  -6.784  27.973  1.00  0.00    -0.000 C 
BRANCH   7   8
ATOM      8  C   UNL     1      18.390  -5.935  28.198  1.00  0.00    -0.000 C 
BRANCH   8   9
ATOM      9  C   UNL     1      17.063  -6.708  28.088  1.00  0.00    -0.000 C 
BRANCH   9  10
ATOM     10  C   UNL     1      16.117  -6.445  29.272  1.00  0.00    -0.000 C 
BRANCH  10  11
ATOM     11  C   UNL     1      16.251  -5.018  29.826  1.00  0.00    -0.003 C 
ATOM     12  C   UNL     1      16.582  -4.995  31.319  1.00  0.00     0.004 C 
ENDBRANCH  10  11
ENDBRANCH   9  10
ENDBRANCH   8   9
ENDBRANCH   7   8
ENDBRANCH   6   7
ENDBRANCH   5   6
ENDBRANCH   4   5
ENDBRANCH   3   4
ENDBRANCH   2   3
ENDBRANCH   1   2
BRANCH   1  13
ATOM     13  C   UNL     1      20.066  -8.991  34.743  1.00  0.00     0.000 C 
BRANCH  13  14
ATOM     14  C   UNL     1      18.896  -9.789  34.142  1.00  0.00     0.000 C 
BRANCH  14  15
ATOM     15  C   UNL     1      17.626  -8.944  33.955  1.00  0.00     0.000 C 
BRANCH  15  16
ATOM     16  C   UNL     1      17.318  -8.742  32.464  1.00  0.00     0.000 C 
BRANCH  16  17
ATOM     17  C   UNL     1      17.800  -9.916  31.596  1.00  0.00     0.000 C 
BRANCH  17  18
ATOM     18  C   UNL     1      18.176  -9.482  30.169  1.00  0.00     0.000 C 
BRANCH  18  19
ATOM     19  C   UNL     1      19.540 -10.033  29.725  1.00  0.00     0.000 C 
BRANCH  19  20
ATOM     20  C   UNL     1      20.484 -10.299  30.911  1.00  0.00     0.006 C 
BRANCH  20  21
ATOM     21  C   UNL     1      21.057 -11.723  30.886  1.00  0.00     0.053 C 
BRANCH  21  22
ATOM     22  C   UNL     1      20.435 -12.590  31.938  1.00  0.00     0.041 C 
ATOM     23  O   UNL     1      21.022 -12.777  33.036  1.00  0.00    -0.550 OA
ATOM     24  O   UNL     1      19.190 -13.169  31.717  1.00  0.00    -0.550 OA
ENDBRANCH  21  22
ENDBRANCH  20  21
ENDBRANCH  19  20
ENDBRANCH  18  19
ENDBRANCH  17  18
ENDBRANCH  16  17
ENDBRANCH  15  16
ENDBRANCH  14  15
ENDBRANCH  13  14
ENDBRANCH   1  13
TORSDOF 20
ENDMDL
MODEL 6
REMARK VINA RESULT:    -3.206      1.463      2.616
REMARK INTER + INTRA:         -11.097
REMARK INTER:                  -7.013
REMARK INTRA:                  -4.085
REMARK UNBOUND:                -4.144
REMARK SMILES CCCCCCCCCCCCCCCCCCCCCC(=O)[O-]
REMARK SMILES IDX 12 1 11 2 10 3 9 4 8 5 7 6 6 7 5 8 4 9 3 10 2 11 1 12 13 13
REMARK SMILES IDX 14 14 15 15 16 16 17 17 18 18 19 19 20 20 21 21 22 22 23 23
REMARK SMILES IDX 24 24
REMARK H PARENT
REMARK Flexibility Score: inf
ROOT
ATOM      1  C   UNL     1      16.736  -4.930  29.498  1.00  0.00     0.000 C 
ENDROOT
BRANCH   1   2
ATOM      2  C   UNL     1      16.659  -5.125  31.024  1.00  0.00     0.000 C 
BRANCH   2   3
ATOM      3  C   UNL     1      17.995  -5.564  31.638  1.00  0.00     0.000 C 
BRANCH   3   4
ATOM      4  C   UNL     1      19.171  -5.151  30.740  1.00  0.00    -0.000 C 
BRANCH   4   5
ATOM      5  C   UNL     1      19.928  -6.355  30.160  1.00  0.00    -0.000 C 
BRANCH   5   6
ATOM      6  C   UNL     1      20.237  -6.195  28.664  1.00  0.00    -0.000 C 
BRANCH   6   7
ATOM      7  C   UNL     1      20.436  -7.563  27.995  1.00  0.00    -0.000 C 
BRANCH   7   8
ATOM      8  C   UNL     1      20.790  -8.677  28.997  1.00  0.00    -0.000 C 
BRANCH   8   9
ATOM      9  C   UNL     1      20.911 -10.084  28.384  1.00  0.00    -0.000 C 
BRANCH   9  10
ATOM     10  C   UNL     1      19.549 -10.697  28.018  1.00  0.00    -0.000 C 
BRANCH  10  11
ATOM     11  C   UNL     1      19.292 -10.697  26.503  1.00  0.00    -0.003 C 
ATOM     12  C   UNL     1      17.871 -10.261  26.147  1.00  0.00     0.004 C 
ENDBRANCH  10  11
ENDBRANCH   9  10
ENDBRANCH   8   9
ENDBRANCH   7   8
ENDBRANCH   6   7
ENDBRANCH   5   6
ENDBRANCH   4   5
ENDBRANCH   3   4
ENDBRANCH   2   3
ENDBRANCH   1   2
BRANCH   1  13
ATOM     13  C   UNL     1      15.475  -5.362  28.721  1.00  0.00     0.000 C 
BRANCH  13  14
ATOM     14  C   UNL     1      15.419  -6.853  28.343  1.00  0.00     0.000 C 
BRANCH  14  15
ATOM     15  C   UNL     1      16.728  -7.599  28.646  1.00  0.00     0.000 C 
BRANCH  15  16
ATOM     16  C   UNL     1      16.459  -8.855  29.488  1.00  0.00     0.000 C 
BRANCH  16  17
ATOM     17  C   UNL     1      17.566  -9.122  30.520  1.00  0.00     0.000 C 
BRANCH  17  18
ATOM     18  C   UNL     1      17.031  -9.173  31.962  1.00  0.00     0.000 C 
BRANCH  18  19
ATOM     19  C   UNL     1      18.154  -9.125  33.010  1.00  0.00     0.000 C 
BRANCH  19  20
ATOM     20  C   UNL     1      19.545  -9.369  32.397  1.00  0.00     0.006 C 
BRANCH  20  21
ATOM     21  C   UNL     1      20.237 -10.597  33.004  1.00  0.00     0.053 C 
BRANCH  21  22
ATOM     22  C   UNL     1      20.392 -11.700  32.002  1.00  0.00     0.041 C 
ATOM     23  O   UNL     1      19.428 -12.022  31.258  1.00  0.00    -0.550 OA
ATOM     24  O   UNL     1      21.613 -12.353  31.868  1.00  0.00    -0.550 OA
ENDBRANCH  21  22
ENDBRANCH  20  21
ENDBRANCH  19  20
ENDBRANCH  18  19
ENDBRANCH  17  18
ENDBRANCH  16  17
ENDBRANCH  15  16
ENDBRANCH  14  15
ENDBRANCH  13  14
ENDBRANCH   1  13
TORSDOF 20
ENDMDL
MODEL 7
REMARK VINA RESULT:    -3.194      2.231      4.550
REMARK INTER + INTRA:         -11.073
REMARK INTER:                  -7.120
REMARK INTRA:                  -3.953
REMARK UNBOUND:                -4.144
REMARK SMILES CCCCCCCCCCCCCCCCCCCCCC(=O)[O-]
REMARK SMILES IDX 12 1 11 2 10 3 9 4 8 5 7 6 6 7 5 8 4 9 3 10 2 11 1 12 13 13
REMARK SMILES IDX 14 14 15 15 16 16 17 17 18 18 19 19 20 20 21 21 22 22 23 23
REMARK SMILES IDX 24 24
REMARK H PARENT
REMARK Flexibility Score: inf
ROOT
ATOM      1  C   UNL     1      20.179  -8.405  32.257  1.00  0.00     0.000 C 
ENDROOT
BRANCH   1   2
ATOM      2  C   UNL     1      18.710  -7.958  32.135  1.00  0.00     0.000 C 
BRANCH   2   3
ATOM      3  C   UNL     1      18.513  -6.467  32.439  1.00  0.00     0.000 C 
BRANCH   3   4
ATOM      4  C   UNL     1      19.776  -5.666  32.090  1.00  0.00    -0.000 C 
BRANCH   4   5
ATOM      5  C   UNL     1      19.732  -5.075  30.672  1.00  0.00    -0.000 C 
BRANCH   5   6
ATOM      6  C   UNL     1      20.823  -5.651  29.757  1.00  0.00    -0.000 C 
BRANCH   6   7
ATOM      7  C   UNL     1      20.361  -5.663  28.292  1.00  0.00    -0.000 C 
BRANCH   7   8
ATOM      8  C   UNL     1      19.484  -6.880  27.947  1.00  0.00    -0.000 C 
BRANCH   8   9
ATOM      9  C   UNL     1      17.989  -6.568  27.754  1.00  0.00    -0.000 C 
BRANCH   9  10
ATOM     10  C   UNL     1      17.107  -7.154  28.869  1.00  0.00    -0.000 C 
BRANCH  10  11
ATOM     11  C   UNL     1      16.302  -6.075  29.610  1.00  0.00    -0.003 C 
ATOM     12  C   UNL     1      16.399  -4.704  28.941  1.00  0.00     0.004 C 
ENDBRANCH  10  11
ENDBRANCH   9  10
ENDBRANCH   8   9
ENDBRANCH   7   8
ENDBRANCH   6   7
ENDBRANCH   5   6
ENDBRANCH   4   5
ENDBRANCH   3   4
ENDBRANCH   2   3
ENDBRANCH   1   2
BRANCH   1  13
ATOM     13  C   UNL     1      20.750  -9.118  31.014  1.00  0.00     0.000 C 
BRANCH  13  14
ATOM     14  C   UNL     1      19.707  -9.810  30.120  1.00  0.00     0.000 C 
BRANCH  14  15
ATOM     15  C   UNL     1      19.868 -11.338  30.084  1.00  0.00     0.000 C 
BRANCH  15  16
ATOM     16  C   UNL     1      21.338 -11.738  30.277  1.00  0.00     0.000 C 
BRANCH  16  17
ATOM     17  C   UNL     1      21.521 -12.810  31.364  1.00  0.00     0.000 C 
BRANCH  17  18
ATOM     18  C   UNL     1      20.210 -13.132  32.103  1.00  0.00     0.000 C 
BRANCH  18  19
ATOM     19  C   UNL     1      20.235 -12.679  33.572  1.00  0.00     0.000 C 
BRANCH  19  20
ATOM     20  C   UNL     1      19.208 -11.570  33.865  1.00  0.00     0.006 C 
BRANCH  20  21
ATOM     21  C   UNL     1      17.891 -11.786  33.107  1.00  0.00     0.053 C 
BRANCH  21  22
ATOM     22  C   UNL     1      16.893 -12.541  33.932  1.00  0.00     0.041 C 
ATOM     23  O   UNL     1      15.906 -11.943  34.437  1.00  0.00    -0.550 OA
ATOM     24  O   UNL     1      17.036 -13.911  34.116  1.00  0.00    -0.550 OA
ENDBRANCH  21  22
ENDBRANCH  20  21
ENDBRANCH  19  20
ENDBRANCH  18  19
ENDBRANCH  17  18
ENDBRANCH  16  17
ENDBRANCH  15  16
ENDBRANCH  14  15
ENDBRANCH  13  14
ENDBRANCH   1  13
TORSDOF 20
ENDMDL
MODEL 8
REMARK VINA RESULT:    -3.177      2.402      4.586
REMARK INTER + INTRA:         -11.036
REMARK INTER:                  -6.400
REMARK INTRA:                  -4.637
REMARK UNBOUND:                -4.144
REMARK SMILES CCCCCCCCCCCCCCCCCCCCCC(=O)[O-]
REMARK SMILES IDX 12 1 11 2 10 3 9 4 8 5 7 6 6 7 5 8 4 9 3 10 2 11 1 12 13 13
REMARK SMILES IDX 14 14 15 15 16 16 17 17 18 18 19 19 20 20 21 21 22 22 23 23
REMARK SMILES IDX 24 24
REMARK H PARENT
REMARK Flexibility Score: inf
ROOT
ATOM      1  C   UNL     1      19.976  -5.624  29.149  1.00  0.00     0.000 C 
ENDROOT
BRANCH   1   2
ATOM      2  C   UNL     1      19.255  -5.509  27.793  1.00  0.00     0.000 C 
BRANCH   2   3
ATOM      3  C   UNL     1      17.800  -5.036  27.929  1.00  0.00     0.000 C 
BRANCH   3   4
ATOM      4  C   UNL     1      17.368  -5.016  29.403  1.00  0.00    -0.000 C 
BRANCH   4   5
ATOM      5  C   UNL     1      15.878  -5.341  29.589  1.00  0.00    -0.000 C 
BRANCH   5   6
ATOM      6  C   UNL     1      15.169  -5.652  28.262  1.00  0.00    -0.000 C 
BRANCH   6   7
ATOM      7  C   UNL     1      14.518  -7.042  28.301  1.00  0.00    -0.000 C 
BRANCH   7   8
ATOM      8  C   UNL     1      15.112  -7.956  29.388  1.00  0.00    -0.000 C 
BRANCH   8   9
ATOM      9  C   UNL     1      15.893  -9.172  28.857  1.00  0.00    -0.000 C 
BRANCH   9  10
ATOM     10  C   UNL     1      17.236  -8.786  28.214  1.00  0.00    -0.000 C 
BRANCH  10  11
ATOM     11  C   UNL     1      17.329  -9.216  26.742  1.00  0.00    -0.003 C 
ATOM     12  C   UNL     1      17.370  -8.027  25.782  1.00  0.00     0.004 C 
ENDBRANCH  10  11
ENDBRANCH   9  10
ENDBRANCH   8   9
ENDBRANCH   7   8
ENDBRANCH   6   7
ENDBRANCH   5   6
ENDBRANCH   4   5
ENDBRANCH   3   4
ENDBRANCH   2   3
ENDBRANCH   1   2
BRANCH   1  13
ATOM     13  C   UNL     1      21.009  -6.765  29.244  1.00  0.00     0.000 C 
BRANCH  13  14
ATOM     14  C   UNL     1      20.735  -7.973  28.332  1.00  0.00     0.000 C 
BRANCH  14  15
ATOM     15  C   UNL     1      20.740  -9.310  29.090  1.00  0.00     0.000 C 
BRANCH  15  16
ATOM     16  C   UNL     1      20.535  -9.087  30.596  1.00  0.00     0.000 C 
BRANCH  16  17
ATOM     17  C   UNL     1      19.502 -10.051  31.200  1.00  0.00     0.000 C 
BRANCH  17  18
ATOM     18  C   UNL     1      18.359  -9.316  31.923  1.00  0.00     0.000 C 
BRANCH  18  19
ATOM     19  C   UNL     1      18.247  -7.842  31.503  1.00  0.00     0.000 C 
BRANCH  19  20
ATOM     20  C   UNL     1      18.303  -6.880  32.704  1.00  0.00     0.006 C 
BRANCH  20  21
ATOM     21  C   UNL     1      19.694  -6.256  32.881  1.00  0.00     0.053 C 
BRANCH  21  22
ATOM     22  C   UNL     1      20.401  -6.806  34.082  1.00  0.00     0.041 C 
ATOM     23  O   UNL     1      21.166  -7.800  33.969  1.00  0.00    -0.550 OA
ATOM     24  O   UNL     1      20.240  -6.200  35.323  1.00  0.00    -0.550 OA
ENDBRANCH  21  22
ENDBRANCH  20  21
ENDBRANCH  19  20
ENDBRANCH  18  19
ENDBRANCH  17  18
ENDBRANCH  16  17
ENDBRANCH  15  16
ENDBRANCH  14  15
ENDBRANCH  13  14
ENDBRANCH   1  13
TORSDOF 20
ENDMDL
MODEL 9
REMARK VINA RESULT:    -3.134      1.755      3.150
REMARK INTER + INTRA:         -10.942
REMARK INTER:                  -6.907
REMARK INTRA:                  -4.035
REMARK UNBOUND:                -4.144
REMARK SMILES CCCCCCCCCCCCCCCCCCCCCC(=O)[O-]
REMARK SMILES IDX 12 1 11 2 10 3 9 4 8 5 7 6 6 7 5 8 4 9 3 10 2 11 1 12 13 13
REMARK SMILES IDX 14 14 15 15 16 16 17 17 18 18 19 19 20 20 21 21 22 22 23 23
REMARK SMILES IDX 24 24
REMARK H PARENT
REMARK Flexibility Score: inf
ROOT
ATOM      1  C   UNL     1      16.603  -5.851  32.572  1.00  0.00     0.000 C 
ENDROOT
BRANCH   1   2
ATOM      2  C   UNL     1      17.126  -5.011  31.392  1.00  0.00     0.000 C 
BRANCH   2   3
ATOM      3  C   UNL     1      18.658  -4.998  31.300  1.00  0.00     0.000 C 
BRANCH   3   4
ATOM      4  C   UNL     1      19.122  -5.298  29.867  1.00  0.00    -0.000 C 
BRANCH   4   5
ATOM      5  C   UNL     1      20.633  -5.559  29.774  1.00  0.00    -0.000 C 
BRANCH   5   6
ATOM      6  C   UNL     1      21.013  -6.404  28.549  1.00  0.00    -0.000 C 
BRANCH   6   7
ATOM      7  C   UNL     1      19.767  -6.781  27.734  1.00  0.00    -0.000 C 
BRANCH   7   8
ATOM      8  C   UNL     1      19.588  -8.302  27.575  1.00  0.00    -0.000 C 
BRANCH   8   9
ATOM      9  C   UNL     1      18.153  -8.813  27.796  1.00  0.00    -0.000 C 
BRANCH   9  10
ATOM     10  C   UNL     1      17.087  -7.738  27.524  1.00  0.00    -0.000 C 
BRANCH  10  11
ATOM     11  C   UNL     1      16.176  -7.493  28.736  1.00  0.00    -0.003 C 
ATOM     12  C   UNL     1      15.258  -6.284  28.548  1.00  0.00     0.004 C 
ENDBRANCH  10  11
ENDBRANCH   9  10
ENDBRANCH   8   9
ENDBRANCH   7   8
ENDBRANCH   6   7
ENDBRANCH   5   6
ENDBRANCH   4   5
ENDBRANCH   3   4
ENDBRANCH   2   3
ENDBRANCH   1   2
BRANCH   1  13
ATOM     13  C   UNL     1      17.564  -6.952  33.065  1.00  0.00     0.000 C 
BRANCH  13  14
ATOM     14  C   UNL     1      17.283  -8.360  32.512  1.00  0.00     0.000 C 
BRANCH  14  15
ATOM     15  C   UNL     1      18.264  -8.776  31.405  1.00  0.00     0.000 C 
BRANCH  15  16
ATOM     16  C   UNL     1      19.715  -8.502  31.826  1.00  0.00     0.000 C 
BRANCH  16  17
ATOM     17  C   UNL     1      20.733  -9.286  30.984  1.00  0.00     0.000 C 
BRANCH  17  18
ATOM     18  C   UNL     1      20.159 -10.604  30.436  1.00  0.00     0.000 C 
BRANCH  18  19
ATOM     19  C   UNL     1      21.084 -11.804  30.695  1.00  0.00     0.000 C 
BRANCH  19  20
ATOM     20  C   UNL     1      21.135 -12.202  32.180  1.00  0.00     0.006 C 
BRANCH  20  21
ATOM     21  C   UNL     1      19.953 -13.095  32.581  1.00  0.00     0.053 C 
BRANCH  21  22
ATOM     22  C   UNL     1      18.937 -12.345  33.388  1.00  0.00     0.041 C 
ATOM     23  O   UNL     1      19.183 -12.028  34.581  1.00  0.00    -0.550 OA
ATOM     24  O   UNL     1      17.729 -11.969  32.811  1.00  0.00    -0.550 OA
ENDBRANCH  21  22
ENDBRANCH  20  21
ENDBRANCH  19  20
ENDBRANCH  18  19
ENDBRANCH  17  18
ENDBRANCH  16  17
ENDBRANCH  15  16
ENDBRANCH  14  15
ENDBRANCH  13  14
ENDBRANCH   1  13
TORSDOF 20
ENDMDL
