MODEL 1
REMARK VINA RESULT:    -5.307      0.000      0.000
REMARK INTER + INTRA:          -6.370
REMARK INTER:                  -6.238
REMARK INTRA:                  -0.132
REMARK UNBOUND:                -0.132
REMARK SMILES O=C([O-])C=Cc1ccc(O)c(O)c1
REMARK SMILES IDX 6 1 13 2 7 3 11 4 8 5 9 6 5 7 4 8 2 9 1 10 3 11 12 12 10 14
REMARK H PARENT 12 13 10 15
REMARK Flexibility Score: inf
ROOT
ATOM      1  C   UNL     1      15.893 -32.858 -21.079  1.00  0.00    -0.022 A 
ATOM      2  C   UNL     1      17.004 -33.710 -21.239  1.00  0.00     0.058 A 
ATOM      3  C   UNL     1      16.092 -31.469 -21.118  1.00  0.00     0.012 A 
ATOM      4  C   UNL     1      18.283 -33.182 -21.458  1.00  0.00     0.157 A 
ATOM      5  C   UNL     1      17.367 -30.939 -21.339  1.00  0.00     0.051 A 
ATOM      6  C   UNL     1      18.465 -31.790 -21.512  1.00  0.00     0.157 A 
ENDROOT
BRANCH   1   7
ATOM      7  C   UNL     1      14.522 -33.371 -20.833  1.00  0.00     0.010 C 
ATOM      8  C   UNL     1      13.860 -33.202 -19.681  1.00  0.00     0.025 C 
BRANCH   8   9
ATOM      9  C   UNL     1      12.504 -33.737 -19.477  1.00  0.00     0.064 C 
ATOM     10  O   UNL     1      11.510 -33.085 -19.889  1.00  0.00    -0.545 OA
ATOM     11  O   UNL     1      12.303 -34.956 -18.837  1.00  0.00    -0.545 OA
ENDBRANCH   8   9
ENDBRANCH   1   7
BRANCH   4  12
ATOM     12  O   UNL     1      19.358 -34.055 -21.615  1.00  0.00    -0.504 OA
ATOM     13  H   UNL     1      20.292 -33.726 -21.829  1.00  0.00     0.293 HD
ENDBRANCH   4  12
BRANCH   6  14
ATOM     14  O   UNL     1      19.735 -31.259 -21.734  1.00  0.00    -0.504 OA
ATOM     15  H   UNL     1      19.887 -30.504 -22.392  1.00  0.00     0.293 HD
ENDBRANCH   6  14
TORSDOF 4
ENDMDL
MODEL 2
REMARK VINA RESULT:    -5.245     11.027     12.876
REMARK INTER + INTRA:          -6.296
REMARK INTER:                  -6.150
REMARK INTRA:                  -0.147
REMARK UNBOUND:                -0.132
REMARK SMILES O=C([O-])C=Cc1ccc(O)c(O)c1
REMARK SMILES IDX 6 1 13 2 7 3 11 4 8 5 9 6 5 7 4 8 2 9 1 10 3 11 12 12 10 14
REMARK H PARENT 12 13 10 15
REMARK Flexibility Score: inf
ROOT
ATOM      1  C   UNL     1      10.628 -27.201 -10.993  1.00  0.00    -0.022 A 
ATOM      2  C   UNL     1      11.353 -26.398 -10.089  1.00  0.00     0.058 A 
ATOM      3  C   UNL     1       9.797 -26.578 -11.938  1.00  0.00     0.012 A 
ATOM      4  C   UNL     1      11.266 -25.002 -10.148  1.00  0.00     0.157 A 
ATOM      5  C   UNL     1       9.712 -25.184 -12.000  1.00  0.00     0.051 A 
ATOM      6  C   UNL     1      10.445 -24.391 -11.110  1.00  0.00     0.157 A 
ENDROOT
BRANCH   1   7
ATOM      7  C   UNL     1      10.678 -28.684 -10.962  1.00  0.00     0.010 C 
ATOM      8  C   UNL     1      10.663 -29.453 -12.059  1.00  0.00     0.025 C 
BRANCH   8   9
ATOM      9  C   UNL     1      10.703 -30.922 -11.981  1.00  0.00     0.064 C 
ATOM     10  O   UNL     1      10.940 -31.479 -10.877  1.00  0.00    -0.545 OA
ATOM     11  O   UNL     1      10.482 -31.707 -13.107  1.00  0.00    -0.545 OA
ENDBRANCH   8   9
ENDBRANCH   1   7
BRANCH   4  12
ATOM     12  O   UNL     1      12.000 -24.239  -9.240  1.00  0.00    -0.504 OA
ATOM     13  H   UNL     1      11.819 -23.253  -9.095  1.00  0.00     0.293 HD
ENDBRANCH   4  12
BRANCH   6  14
ATOM     14  O   UNL     1      10.359 -23.001 -11.176  1.00  0.00    -0.504 OA
ATOM     15  H   UNL     1      11.155 -22.431 -11.436  1.00  0.00     0.293 HD
ENDBRANCH   6  14
TORSDOF 4
ENDMDL
MODEL 3
REMARK VINA RESULT:    -5.074      5.106      7.437
REMARK INTER + INTRA:          -6.096
REMARK INTER:                  -5.954
REMARK INTRA:                  -0.142
REMARK UNBOUND:                -0.132
REMARK SMILES O=C([O-])C=Cc1ccc(O)c(O)c1
REMARK SMILES IDX 6 1 13 2 7 3 11 4 8 5 9 6 5 7 4 8 2 9 1 10 3 11 12 12 10 14
REMARK H PARENT 12 13 10 15
REMARK Flexibility Score: inf
ROOT
ATOM      1  C   UNL     1       9.761 -32.037 -19.417  1.00  0.00    -0.022 A 
ATOM      2  C   UNL     1      11.089 -32.288 -19.817  1.00  0.00     0.058 A 
ATOM      3  C   UNL     1       8.991 -33.099 -18.915  1.00  0.00     0.012 A 
ATOM      4  C   UNL     1      11.640 -33.570 -19.693  1.00  0.00     0.157 A 
ATOM      5  C   UNL     1       9.541 -34.377 -18.789  1.00  0.00     0.051 A 
ATOM      6  C   UNL     1      10.864 -34.618 -19.173  1.00  0.00     0.157 A 
ENDROOT
BRANCH   1   7
ATOM      7  C   UNL     1       9.129 -30.699 -19.540  1.00  0.00     0.010 C 
ATOM      8  C   UNL     1       7.892 -30.502 -20.014  1.00  0.00     0.025 C 
BRANCH   8   9
ATOM      9  C   UNL     1       7.308 -29.156 -20.129  1.00  0.00     0.064 C 
ATOM     10  O   UNL     1       6.605 -28.867 -21.133  1.00  0.00    -0.545 OA
ATOM     11  O   UNL     1       7.520 -28.195 -19.146  1.00  0.00    -0.545 OA
ENDBRANCH   8   9
ENDBRANCH   1   7
BRANCH   4  12
ATOM     12  O   UNL     1      12.958 -33.781 -20.096  1.00  0.00    -0.504 OA
ATOM     13  H   UNL     1      13.307 -33.455 -20.990  1.00  0.00     0.293 HD
ENDBRANCH   4  12
BRANCH   6  14
ATOM     14  O   UNL     1      11.411 -35.895 -19.044  1.00  0.00    -0.504 OA
ATOM     15  H   UNL     1      10.941 -36.713 -19.414  1.00  0.00     0.293 HD
ENDBRANCH   6  14
TORSDOF 4
ENDMDL
MODEL 4
REMARK VINA RESULT:    -4.957      1.015      2.164
REMARK INTER + INTRA:          -5.958
REMARK INTER:                  -5.823
REMARK INTRA:                  -0.135
REMARK UNBOUND:                -0.132
REMARK SMILES O=C([O-])C=Cc1ccc(O)c(O)c1
REMARK SMILES IDX 6 1 13 2 7 3 11 4 8 5 9 6 5 7 4 8 2 9 1 10 3 11 12 12 10 14
REMARK H PARENT 12 13 10 15
REMARK Flexibility Score: inf
ROOT
ATOM      1  C   UNL     1      16.184 -32.495 -20.204  1.00  0.00    -0.022 A 
ATOM      2  C   UNL     1      16.670 -31.184 -20.026  1.00  0.00     0.058 A 
ATOM      3  C   UNL     1      16.900 -33.379 -21.027  1.00  0.00     0.012 A 
ATOM      4  C   UNL     1      17.862 -30.777 -20.638  1.00  0.00     0.157 A 
ATOM      5  C   UNL     1      18.091 -32.974 -21.637  1.00  0.00     0.051 A 
ATOM      6  C   UNL     1      18.578 -31.677 -21.445  1.00  0.00     0.157 A 
ENDROOT
BRANCH   1   7
ATOM      7  C   UNL     1      14.920 -32.969 -19.585  1.00  0.00     0.010 C 
ATOM      8  C   UNL     1      13.790 -33.183 -20.272  1.00  0.00     0.025 C 
BRANCH   8   9
ATOM      9  C   UNL     1      12.556 -33.643 -19.615  1.00  0.00     0.064 C 
ATOM     10  O   UNL     1      12.611 -34.581 -18.777  1.00  0.00    -0.545 OA
ATOM     11  O   UNL     1      11.328 -33.057 -19.903  1.00  0.00    -0.545 OA
ENDBRANCH   8   9
ENDBRANCH   1   7
BRANCH   4  12
ATOM     12  O   UNL     1      18.315 -29.473 -20.437  1.00  0.00    -0.504 OA
ATOM     13  H   UNL     1      19.094 -29.262 -19.824  1.00  0.00     0.293 HD
ENDBRANCH   4  12
BRANCH   6  14
ATOM     14  O   UNL     1      19.767 -31.276 -22.054  1.00  0.00    -0.504 OA
ATOM     15  H   UNL     1      19.770 -30.780 -22.937  1.00  0.00     0.293 HD
ENDBRANCH   6  14
TORSDOF 4
ENDMDL
MODEL 5
REMARK VINA RESULT:    -4.942     11.024     12.951
REMARK INTER + INTRA:          -5.941
REMARK INTER:                  -5.816
REMARK INTRA:                  -0.125
REMARK UNBOUND:                -0.132
REMARK SMILES O=C([O-])C=Cc1ccc(O)c(O)c1
REMARK SMILES IDX 6 1 13 2 7 3 11 4 8 5 9 6 5 7 4 8 2 9 1 10 3 11 12 12 10 14
REMARK H PARENT 12 13 10 15
REMARK Flexibility Score: inf
ROOT
ATOM      1  C   UNL     1       9.742 -26.421 -12.135  1.00  0.00    -0.022 A 
ATOM      2  C   UNL     1       9.746 -25.011 -12.139  1.00  0.00     0.058 A 
ATOM      3  C   UNL     1      10.499 -27.098 -11.165  1.00  0.00     0.012 A 
ATOM      4  C   UNL     1      10.472 -24.297 -11.177  1.00  0.00     0.157 A 
ATOM      5  C   UNL     1      11.222 -26.388 -10.203  1.00  0.00     0.051 A 
ATOM      6  C   UNL     1      11.210 -24.988 -10.202  1.00  0.00     0.157 A 
ENDROOT
BRANCH   1   7
ATOM      7  C   UNL     1       8.999 -27.221 -13.141  1.00  0.00     0.010 C 
ATOM      8  C   UNL     1       8.802 -26.827 -14.406  1.00  0.00     0.025 C 
BRANCH   8   9
ATOM      9  C   UNL     1       8.048 -27.648 -15.367  1.00  0.00     0.064 C 
ATOM     10  O   UNL     1       6.863 -27.338 -15.654  1.00  0.00    -0.545 OA
ATOM     11  O   UNL     1       8.625 -28.762 -15.967  1.00  0.00    -0.545 OA
ENDBRANCH   8   9
ENDBRANCH   1   7
BRANCH   4  12
ATOM     12  O   UNL     1      10.450 -22.903 -11.210  1.00  0.00    -0.504 OA
ATOM     13  H   UNL     1       9.650 -22.370 -10.891  1.00  0.00     0.293 HD
ENDBRANCH   4  12
BRANCH   6  14
ATOM     14  O   UNL     1      11.931 -24.282  -9.240  1.00  0.00    -0.504 OA
ATOM     15  H   UNL     1      12.944 -24.280  -9.231  1.00  0.00     0.293 HD
ENDBRANCH   6  14
TORSDOF 4
ENDMDL
MODEL 6
REMARK VINA RESULT:    -4.876      3.089      5.959
REMARK INTER + INTRA:          -5.864
REMARK INTER:                  -5.714
REMARK INTRA:                  -0.150
REMARK UNBOUND:                -0.132
REMARK SMILES O=C([O-])C=Cc1ccc(O)c(O)c1
REMARK SMILES IDX 6 1 13 2 7 3 11 4 8 5 9 6 5 7 4 8 2 9 1 10 3 11 12 12 10 14
REMARK H PARENT 12 13 10 15
REMARK Flexibility Score: inf
ROOT
ATOM      1  C   UNL     1      18.183 -30.693 -21.782  1.00  0.00    -0.022 A 
ATOM      2  C   UNL     1      17.253 -31.584 -21.210  1.00  0.00     0.058 A 
ATOM      3  C   UNL     1      19.416 -31.195 -22.230  1.00  0.00     0.012 A 
ATOM      4  C   UNL     1      17.542 -32.951 -21.112  1.00  0.00     0.157 A 
ATOM      5  C   UNL     1      19.705 -32.559 -22.136  1.00  0.00     0.051 A 
ATOM      6  C   UNL     1      18.772 -33.442 -21.580  1.00  0.00     0.157 A 
ENDROOT
BRANCH   1   7
ATOM      7  C   UNL     1      17.927 -29.235 -21.897  1.00  0.00     0.010 C 
ATOM      8  C   UNL     1      18.462 -28.458 -22.847  1.00  0.00     0.025 C 
BRANCH   8   9
ATOM      9  C   UNL     1      18.189 -27.014 -22.917  1.00  0.00     0.064 C 
ATOM     10  O   UNL     1      17.546 -26.458 -21.988  1.00  0.00    -0.545 OA
ATOM     11  O   UNL     1      18.631 -26.251 -23.992  1.00  0.00    -0.545 OA
ENDBRANCH   8   9
ENDBRANCH   1   7
BRANCH   4  12
ATOM     12  O   UNL     1      16.597 -33.804 -20.543  1.00  0.00    -0.504 OA
ATOM     13  H   UNL     1      16.695 -34.812 -20.570  1.00  0.00     0.293 HD
ENDBRANCH   4  12
BRANCH   6  14
ATOM     14  O   UNL     1      19.063 -34.803 -21.489  1.00  0.00    -0.504 OA
ATOM     15  H   UNL     1      19.987 -35.163 -21.696  1.00  0.00     0.293 HD
ENDBRANCH   6  14
TORSDOF 4
ENDMDL
MODEL 7
REMARK VINA RESULT:    -4.863      5.867      8.613
REMARK INTER + INTRA:          -5.848
REMARK INTER:                  -5.720
REMARK INTRA:                  -0.128
REMARK UNBOUND:                -0.132
REMARK SMILES O=C([O-])C=Cc1ccc(O)c(O)c1
REMARK SMILES IDX 6 1 13 2 7 3 11 4 8 5 9 6 5 7 4 8 2 9 1 10 3 11 12 12 10 14
REMARK H PARENT 12 13 10 15
REMARK Flexibility Score: inf
ROOT
ATOM      1  C   UNL     1       8.835 -32.343 -19.215  1.00  0.00    -0.022 A 
ATOM      2  C   UNL     1       8.505 -31.410 -18.211  1.00  0.00     0.058 A 
ATOM      3  C   UNL     1       8.394 -32.111 -20.528  1.00  0.00     0.012 A 
ATOM      4  C   UNL     1       7.772 -30.258 -18.521  1.00  0.00     0.157 A 
ATOM      5  C   UNL     1       7.664 -30.961 -20.840  1.00  0.00     0.051 A 
ATOM      6  C   UNL     1       7.352 -30.030 -19.842  1.00  0.00     0.157 A 
ENDROOT
BRANCH   1   7
ATOM      7  C   UNL     1       9.600 -33.584 -18.933  1.00  0.00     0.010 C 
ATOM      8  C   UNL     1      10.915 -33.605 -18.679  1.00  0.00     0.025 C 
BRANCH   8   9
ATOM      9  C   UNL     1      11.636 -34.861 -18.415  1.00  0.00     0.064 C 
ATOM     10  O   UNL     1      11.034 -35.960 -18.537  1.00  0.00    -0.545 OA
ATOM     11  O   UNL     1      12.974 -34.854 -18.036  1.00  0.00    -0.545 OA
ENDBRANCH   8   9
ENDBRANCH   1   7
BRANCH   4  12
ATOM     12  O   UNL     1       7.467 -29.356 -17.503  1.00  0.00    -0.504 OA
ATOM     13  H   UNL     1       6.785 -28.617 -17.625  1.00  0.00     0.293 HD
ENDBRANCH   4  12
BRANCH   6  14
ATOM     14  O   UNL     1       6.624 -28.882 -20.156  1.00  0.00    -0.504 OA
ATOM     15  H   UNL     1       6.125 -28.794 -21.033  1.00  0.00     0.293 HD
ENDBRANCH   6  14
TORSDOF 4
ENDMDL
MODEL 8
REMARK VINA RESULT:    -4.820      2.350      6.646
REMARK INTER + INTRA:          -5.798
REMARK INTER:                  -5.657
REMARK INTRA:                  -0.141
REMARK UNBOUND:                -0.132
REMARK SMILES O=C([O-])C=Cc1ccc(O)c(O)c1
REMARK SMILES IDX 6 1 13 2 7 3 11 4 8 5 9 6 5 7 4 8 2 9 1 10 3 11 12 12 10 14
REMARK H PARENT 12 13 10 15
REMARK Flexibility Score: inf
ROOT
ATOM      1  C   UNL     1      13.139 -33.937 -18.990  1.00  0.00    -0.022 A 
ATOM      2  C   UNL     1      12.160 -34.923 -19.227  1.00  0.00     0.058 A 
ATOM      3  C   UNL     1      13.330 -33.474 -17.677  1.00  0.00     0.012 A 
ATOM      4  C   UNL     1      11.409 -35.452 -18.170  1.00  0.00     0.157 A 
ATOM      5  C   UNL     1      12.583 -34.002 -16.621  1.00  0.00     0.051 A 
ATOM      6  C   UNL     1      11.623 -34.992 -16.860  1.00  0.00     0.157 A 
ENDROOT
BRANCH   1   7
ATOM      7  C   UNL     1      13.951 -33.339 -20.078  1.00  0.00     0.010 C 
ATOM      8  C   UNL     1      15.266 -33.101 -19.981  1.00  0.00     0.025 C 
BRANCH   8   9
ATOM      9  C   UNL     1      16.030 -32.495 -21.083  1.00  0.00     0.064 C 
ATOM     10  O   UNL     1      17.090 -33.046 -21.480  1.00  0.00    -0.545 OA
ATOM     11  O   UNL     1      15.600 -31.323 -21.696  1.00  0.00    -0.545 OA
ENDBRANCH   8   9
ENDBRANCH   1   7
BRANCH   4  12
ATOM     12  O   UNL     1      10.452 -36.429 -18.442  1.00  0.00    -0.504 OA
ATOM     13  H   UNL     1      10.607 -37.159 -19.128  1.00  0.00     0.293 HD
ENDBRANCH   4  12
BRANCH   6  14
ATOM     14  O   UNL     1      10.880 -35.518 -15.804  1.00  0.00    -0.504 OA
ATOM     15  H   UNL     1       9.882 -35.674 -15.883  1.00  0.00     0.293 HD
ENDBRANCH   6  14
TORSDOF 4
ENDMDL
MODEL 9
REMARK VINA RESULT:    -4.778     12.082     14.257
REMARK INTER + INTRA:          -5.748
REMARK INTER:                  -5.625
REMARK INTRA:                  -0.123
REMARK UNBOUND:                -0.132
REMARK SMILES O=C([O-])C=Cc1ccc(O)c(O)c1
REMARK SMILES IDX 6 1 13 2 7 3 11 4 8 5 9 6 5 7 4 8 2 9 1 10 3 11 12 12 10 14
REMARK H PARENT 12 13 10 15
REMARK Flexibility Score: inf
ROOT
ATOM      1  C   UNL     1      14.060 -37.076  -8.273  1.00  0.00    -0.022 A 
ATOM      2  C   UNL     1      14.857 -36.817  -7.139  1.00  0.00     0.058 A 
ATOM      3  C   UNL     1      13.292 -38.251  -8.308  1.00  0.00     0.012 A 
ATOM      4  C   UNL     1      14.862 -37.703  -6.054  1.00  0.00     0.157 A 
ATOM      5  C   UNL     1      13.294 -39.134  -7.225  1.00  0.00     0.051 A 
ATOM      6  C   UNL     1      14.075 -38.865  -6.095  1.00  0.00     0.157 A 
ENDROOT
BRANCH   1   7
ATOM      7  C   UNL     1      14.031 -36.174  -9.451  1.00  0.00     0.010 C 
ATOM      8  C   UNL     1      14.419 -34.892  -9.417  1.00  0.00     0.025 C 
BRANCH   8   9
ATOM      9  C   UNL     1      14.362 -34.030 -10.608  1.00  0.00     0.064 C 
ATOM     10  O   UNL     1      15.334 -33.276 -10.877  1.00  0.00    -0.545 OA
ATOM     11  O   UNL     1      13.251 -34.034 -11.445  1.00  0.00    -0.545 OA
ENDBRANCH   8   9
ENDBRANCH   1   7
BRANCH   4  12
ATOM     12  O   UNL     1      15.660 -37.413  -4.948  1.00  0.00    -0.504 OA
ATOM     13  H   UNL     1      16.441 -36.769  -5.001  1.00  0.00     0.293 HD
ENDBRANCH   4  12
BRANCH   6  14
ATOM     14  O   UNL     1      14.074 -39.748  -5.016  1.00  0.00    -0.504 OA
ATOM     15  H   UNL     1      13.617 -40.650  -5.069  1.00  0.00     0.293 HD
ENDBRANCH   6  14
TORSDOF 4
ENDMDL
