MODEL 1
REMARK VINA RESULT:    -0.909      0.000      0.000
REMARK INTER + INTRA:          -8.850
REMARK INTER:                  -2.397
REMARK INTRA:                  -6.453
REMARK UNBOUND:                -6.453
REMARK SMILES CCCCCCCCCCCCCCCCCCCCCCCCCCCCCC(=O)[O-]
REMARK SMILES IDX 16 1 17 2 18 3 19 4 20 5 21 6 22 7 23 8 24 9 25 10 26 11
REMARK SMILES IDX 27 12 28 13 29 14 30 15 31 16 32 17 15 18 14 19 13 20 12 21
REMARK SMILES IDX 11 22 10 23 9 24 8 25 7 26 6 27 5 28 4 29 3 30 2 31 1 32
REMARK H PARENT
REMARK Flexibility Score: inf
ROOT
ATOM      1  C   UNL     1      28.480  -6.967  16.186  1.00  0.00     0.000 C 
ENDROOT
BRANCH   1   2
ATOM      2  C   UNL     1      27.628  -8.126  16.742  1.00  0.00     0.000 C 
BRANCH   2   3
ATOM      3  C   UNL     1      26.734  -8.842  15.709  1.00  0.00     0.000 C 
BRANCH   3   4
ATOM      4  C   UNL     1      26.215 -10.223  16.147  1.00  0.00     0.000 C 
BRANCH   4   5
ATOM      5  C   UNL     1      26.518 -10.535  17.623  1.00  0.00     0.000 C 
BRANCH   5   6
ATOM      6  C   UNL     1      25.248 -10.825  18.446  1.00  0.00     0.000 C 
BRANCH   6   7
ATOM      7  C   UNL     1      24.944  -9.798  19.554  1.00  0.00     0.000 C 
BRANCH   7   8
ATOM      8  C   UNL     1      24.757  -8.348  19.070  1.00  0.00     0.000 C 
BRANCH   8   9
ATOM      9  C   UNL     1      25.157  -7.283  20.114  1.00  0.00     0.000 C 
BRANCH   9  10
ATOM     10  C   UNL     1      26.177  -6.271  19.571  1.00  0.00     0.000 C 
BRANCH  10  11
ATOM     11  C   UNL     1      25.473  -5.011  19.055  1.00  0.00     0.000 C 
BRANCH  11  12
ATOM     12  C   UNL     1      25.679  -4.837  17.546  1.00  0.00     0.000 C 
BRANCH  12  13
ATOM     13  C   UNL     1      24.346  -4.976  16.795  1.00  0.00     0.006 C 
BRANCH  13  14
ATOM     14  C   UNL     1      24.267  -6.273  15.982  1.00  0.00     0.053 C 
BRANCH  14  15
ATOM     15  C   UNL     1      24.388  -6.019  14.511  1.00  0.00     0.041 C 
ATOM     16  O   UNL     1      23.355  -5.857  13.810  1.00  0.00    -0.550 OA
ATOM     17  O   UNL     1      25.643  -5.955  13.915  1.00  0.00    -0.550 OA
ENDBRANCH  14  15
ENDBRANCH  13  14
ENDBRANCH  12  13
ENDBRANCH  11  12
ENDBRANCH  10  11
ENDBRANCH   9  10
ENDBRANCH   8   9
ENDBRANCH   7   8
ENDBRANCH   6   7
ENDBRANCH   5   6
ENDBRANCH   4   5
ENDBRANCH   3   4
ENDBRANCH   2   3
ENDBRANCH   1   2
BRANCH   1  18
ATOM     18  C   UNL     1      28.903  -7.119  14.715  1.00  0.00     0.000 C 
BRANCH  18  19
ATOM     19  C   UNL     1      30.308  -7.714  14.553  1.00  0.00     0.000 C 
BRANCH  19  20
ATOM     20  C   UNL     1      30.246  -9.083  13.868  1.00  0.00     0.000 C 
BRANCH  20  21
ATOM     21  C   UNL     1      30.884 -10.171  14.746  1.00  0.00     0.000 C 
BRANCH  21  22
ATOM     22  C   UNL     1      29.847 -10.946  15.582  1.00  0.00     0.000 C 
BRANCH  22  23
ATOM     23  C   UNL     1      30.166 -11.020  17.086  1.00  0.00     0.000 C 
BRANCH  23  24
ATOM     24  C   UNL     1      30.865  -9.750  17.604  1.00  0.00    -0.000 C 
BRANCH  24  25
ATOM     25  C   UNL     1      30.778  -9.613  19.132  1.00  0.00    -0.000 C 
BRANCH  25  26
ATOM     26  C   UNL     1      29.437 -10.113  19.700  1.00  0.00    -0.000 C 
BRANCH  26  27
ATOM     27  C   UNL     1      28.615  -8.978  20.346  1.00  0.00    -0.000 C 
BRANCH  27  28
ATOM     28  C   UNL     1      29.313  -7.603  20.308  1.00  0.00    -0.000 C 
BRANCH  28  29
ATOM     29  C   UNL     1      29.707  -7.032  21.681  1.00  0.00    -0.000 C 
BRANCH  29  30
ATOM     30  C   UNL     1      31.122  -7.453  22.119  1.00  0.00    -0.000 C 
BRANCH  30  31
ATOM     31  C   UNL     1      31.125  -8.187  23.468  1.00  0.00    -0.003 C 
ATOM     32  C   UNL     1      30.720  -9.656  23.345  1.00  0.00     0.004 C 
ENDBRANCH  30  31
ENDBRANCH  29  30
ENDBRANCH  28  29
ENDBRANCH  27  28
ENDBRANCH  26  27
ENDBRANCH  25  26
ENDBRANCH  24  25
ENDBRANCH  23  24
ENDBRANCH  22  23
ENDBRANCH  21  22
ENDBRANCH  20  21
ENDBRANCH  19  20
ENDBRANCH  18  19
ENDBRANCH   1  18
TORSDOF 28
ENDMDL
MODEL 2
REMARK VINA RESULT:    -0.862      2.931      6.557
REMARK INTER + INTRA:          -8.727
REMARK INTER:                  -2.169
REMARK INTRA:                  -6.557
REMARK UNBOUND:                -6.453
REMARK SMILES CCCCCCCCCCCCCCCCCCCCCCCCCCCCCC(=O)[O-]
REMARK SMILES IDX 16 1 17 2 18 3 19 4 20 5 21 6 22 7 23 8 24 9 25 10 26 11
REMARK SMILES IDX 27 12 28 13 29 14 30 15 31 16 32 17 15 18 14 19 13 20 12 21
REMARK SMILES IDX 11 22 10 23 9 24 8 25 7 26 6 27 5 28 4 29 3 30 2 31 1 32
REMARK H PARENT
REMARK Flexibility Score: inf
ROOT
ATOM      1  C   UNL     1      26.205  -6.712  16.131  1.00  0.00     0.000 C 
ENDROOT
BRANCH   1   2
ATOM      2  C   UNL     1      25.748  -7.861  15.208  1.00  0.00     0.000 C 
BRANCH   2   3
ATOM      3  C   UNL     1      26.295  -9.257  15.573  1.00  0.00     0.000 C 
BRANCH   3   4
ATOM      4  C   UNL     1      26.988 -10.002  14.419  1.00  0.00     0.000 C 
BRANCH   4   5
ATOM      5  C   UNL     1      27.396  -9.071  13.264  1.00  0.00     0.000 C 
BRANCH   5   6
ATOM      6  C   UNL     1      28.896  -9.164  12.922  1.00  0.00     0.000 C 
BRANCH   6   7
ATOM      7  C   UNL     1      29.777  -8.075  13.562  1.00  0.00     0.000 C 
BRANCH   7   8
ATOM      8  C   UNL     1      30.623  -8.538  14.763  1.00  0.00     0.000 C 
BRANCH   8   9
ATOM      9  C   UNL     1      31.030 -10.025  14.705  1.00  0.00     0.000 C 
BRANCH   9  10
ATOM     10  C   UNL     1      30.507 -10.832  15.904  1.00  0.00     0.000 C 
BRANCH  10  11
ATOM     11  C   UNL     1      29.793  -9.919  16.907  1.00  0.00     0.000 C 
BRANCH  11  12
ATOM     12  C   UNL     1      28.753 -10.695  17.724  1.00  0.00     0.000 C 
BRANCH  12  13
ATOM     13  C   UNL     1      29.090 -10.645  19.221  1.00  0.00     0.006 C 
BRANCH  13  14
ATOM     14  C   UNL     1      30.194  -9.629  19.537  1.00  0.00     0.053 C 
BRANCH  14  15
ATOM     15  C   UNL     1      30.283  -9.338  21.004  1.00  0.00     0.041 C 
ATOM     16  O   UNL     1      30.062  -8.176  21.433  1.00  0.00    -0.550 OA
ATOM     17  O   UNL     1      30.606 -10.354  21.897  1.00  0.00    -0.550 OA
ENDBRANCH  14  15
ENDBRANCH  13  14
ENDBRANCH  12  13
ENDBRANCH  11  12
ENDBRANCH  10  11
ENDBRANCH   9  10
ENDBRANCH   8   9
ENDBRANCH   7   8
ENDBRANCH   6   7
ENDBRANCH   5   6
ENDBRANCH   4   5
ENDBRANCH   3   4
ENDBRANCH   2   3
ENDBRANCH   1   2
BRANCH   1  18
ATOM     18  C   UNL     1      27.633  -6.202  15.875  1.00  0.00     0.000 C 
BRANCH  18  19
ATOM     19  C   UNL     1      28.547  -6.340  17.101  1.00  0.00     0.000 C 
BRANCH  19  20
ATOM     20  C   UNL     1      27.852  -7.131  18.214  1.00  0.00     0.000 C 
BRANCH  20  21
ATOM     21  C   UNL     1      27.822  -6.330  19.526  1.00  0.00     0.000 C 
BRANCH  21  22
ATOM     22  C   UNL     1      26.652  -6.734  20.444  1.00  0.00     0.000 C 
BRANCH  22  23
ATOM     23  C   UNL     1      25.495  -5.720  20.487  1.00  0.00     0.000 C 
BRANCH  23  24
ATOM     24  C   UNL     1      24.515  -5.892  19.312  1.00  0.00    -0.000 C 
BRANCH  24  25
ATOM     25  C   UNL     1      23.145  -6.423  19.763  1.00  0.00    -0.000 C 
BRANCH  25  26
ATOM     26  C   UNL     1      23.004  -7.944  19.578  1.00  0.00    -0.000 C 
BRANCH  26  27
ATOM     27  C   UNL     1      23.922  -8.485  18.460  1.00  0.00    -0.000 C 
BRANCH  27  28
ATOM     28  C   UNL     1      24.874  -9.607  18.922  1.00  0.00    -0.000 C 
BRANCH  28  29
ATOM     29  C   UNL     1      24.818  -9.934  20.424  1.00  0.00    -0.000 C 
BRANCH  29  30
ATOM     30  C   UNL     1      26.056 -10.710  20.911  1.00  0.00    -0.000 C 
BRANCH  30  31
ATOM     31  C   UNL     1      26.770 -10.003  22.073  1.00  0.00    -0.003 C 
ATOM     32  C   UNL     1      27.292 -10.978  23.129  1.00  0.00     0.004 C 
ENDBRANCH  30  31
ENDBRANCH  29  30
ENDBRANCH  28  29
ENDBRANCH  27  28
ENDBRANCH  26  27
ENDBRANCH  25  26
ENDBRANCH  24  25
ENDBRANCH  23  24
ENDBRANCH  22  23
ENDBRANCH  21  22
ENDBRANCH  20  21
ENDBRANCH  19  20
ENDBRANCH  18  19
ENDBRANCH   1  18
TORSDOF 28
ENDMDL
MODEL 3
REMARK VINA RESULT:    -0.781     15.893     20.121
REMARK INTER + INTRA:          -8.513
REMARK INTER:                  -1.000
REMARK INTRA:                  -7.513
REMARK UNBOUND:                -6.453
REMARK SMILES CCCCCCCCCCCCCCCCCCCCCCCCCCCCCC(=O)[O-]
REMARK SMILES IDX 16 1 17 2 18 3 19 4 20 5 21 6 22 7 23 8 24 9 25 10 26 11
REMARK SMILES IDX 27 12 28 13 29 14 30 15 31 16 32 17 15 18 14 19 13 20 12 21
REMARK SMILES IDX 11 22 10 23 9 24 8 25 7 26 6 27 5 28 4 29 3 30 2 31 1 32
REMARK H PARENT
REMARK Flexibility Score: inf
ROOT
ATOM      1  C   UNL     1      15.833   4.335  14.519  1.00  0.00     0.000 C 
ENDROOT
BRANCH   1   2
ATOM      2  C   UNL     1      15.488   4.996  13.168  1.00  0.00     0.000 C 
BRANCH   2   3
ATOM      3  C   UNL     1      14.166   5.791  13.142  1.00  0.00     0.000 C 
BRANCH   3   4
ATOM      4  C   UNL     1      13.943   6.635  11.875  1.00  0.00     0.000 C 
BRANCH   4   5
ATOM      5  C   UNL     1      13.307   8.004  12.172  1.00  0.00     0.000 C 
BRANCH   5   6
ATOM      6  C   UNL     1      11.965   7.890  12.922  1.00  0.00     0.000 C 
BRANCH   6   7
ATOM      7  C   UNL     1      11.820   8.825  14.138  1.00  0.00     0.000 C 
BRANCH   7   8
ATOM      8  C   UNL     1      13.127   9.125  14.894  1.00  0.00     0.000 C 
BRANCH   8   9
ATOM      9  C   UNL     1      13.479   8.082  15.976  1.00  0.00     0.000 C 
BRANCH   9  10
ATOM     10  C   UNL     1      14.991   7.843  16.104  1.00  0.00     0.000 C 
BRANCH  10  11
ATOM     11  C   UNL     1      15.775   8.831  15.233  1.00  0.00     0.000 C 
BRANCH  11  12
ATOM     12  C   UNL     1      16.914   8.130  14.484  1.00  0.00     0.000 C 
BRANCH  12  13
ATOM     13  C   UNL     1      16.925   8.539  13.003  1.00  0.00     0.006 C 
BRANCH  13  14
ATOM     14  C   UNL     1      17.842   7.647  12.159  1.00  0.00     0.053 C 
BRANCH  14  15
ATOM     15  C   UNL     1      17.330   7.485  10.760  1.00  0.00     0.041 C 
ATOM     16  O   UNL     1      16.955   8.491  10.103  1.00  0.00    -0.550 OA
ATOM     17  O   UNL     1      17.273   6.222  10.181  1.00  0.00    -0.550 OA
ENDBRANCH  14  15
ENDBRANCH  13  14
ENDBRANCH  12  13
ENDBRANCH  11  12
ENDBRANCH  10  11
ENDBRANCH   9  10
ENDBRANCH   8   9
ENDBRANCH   7   8
ENDBRANCH   6   7
ENDBRANCH   5   6
ENDBRANCH   4   5
ENDBRANCH   3   4
ENDBRANCH   2   3
ENDBRANCH   1   2
BRANCH   1  18
ATOM     18  C   UNL     1      14.645   4.162  15.480  1.00  0.00     0.000 C 
BRANCH  18  19
ATOM     19  C   UNL     1      14.505   2.727  16.007  1.00  0.00     0.000 C 
BRANCH  19  20
ATOM     20  C   UNL     1      15.739   1.891  15.648  1.00  0.00     0.000 C 
BRANCH  20  21
ATOM     21  C   UNL     1      15.361   0.709  14.741  1.00  0.00     0.000 C 
BRANCH  21  22
ATOM     22  C   UNL     1      16.194   0.662  13.445  1.00  0.00     0.000 C 
BRANCH  22  23
ATOM     23  C   UNL     1      15.548   1.379  12.246  1.00  0.00     0.000 C 
BRANCH  23  24
ATOM     24  C   UNL     1      14.010   1.305  12.271  1.00  0.00    -0.000 C 
BRANCH  24  25
ATOM     25  C   UNL     1      13.353   2.479  11.530  1.00  0.00    -0.000 C 
BRANCH  25  26
ATOM     26  C   UNL     1      12.089   3.000  12.239  1.00  0.00    -0.000 C 
BRANCH  26  27
ATOM     27  C   UNL     1      11.783   2.220  13.536  1.00  0.00    -0.000 C 
BRANCH  27  28
ATOM     28  C   UNL     1      11.024   3.044  14.596  1.00  0.00    -0.000 C 
BRANCH  28  29
ATOM     29  C   UNL     1      10.928   4.551  14.306  1.00  0.00    -0.000 C 
BRANCH  29  30
ATOM     30  C   UNL     1      11.070   5.412  15.575  1.00  0.00    -0.000 C 
BRANCH  30  31
ATOM     31  C   UNL     1      11.271   4.565  16.840  1.00  0.00    -0.003 C 
ATOM     32  C   UNL     1      11.926   5.345  17.979  1.00  0.00     0.004 C 
ENDBRANCH  30  31
ENDBRANCH  29  30
ENDBRANCH  28  29
ENDBRANCH  27  28
ENDBRANCH  26  27
ENDBRANCH  25  26
ENDBRANCH  24  25
ENDBRANCH  23  24
ENDBRANCH  22  23
ENDBRANCH  21  22
ENDBRANCH  20  21
ENDBRANCH  19  20
ENDBRANCH  18  19
ENDBRANCH   1  18
TORSDOF 28
ENDMDL
MODEL 4
REMARK VINA RESULT:    -0.767      2.303      5.826
REMARK INTER + INTRA:          -8.474
REMARK INTER:                  -1.755
REMARK INTRA:                  -6.719
REMARK UNBOUND:                -6.453
REMARK SMILES CCCCCCCCCCCCCCCCCCCCCCCCCCCCCC(=O)[O-]
REMARK SMILES IDX 16 1 17 2 18 3 19 4 20 5 21 6 22 7 23 8 24 9 25 10 26 11
REMARK SMILES IDX 27 12 28 13 29 14 30 15 31 16 32 17 15 18 14 19 13 20 12 21
REMARK SMILES IDX 11 22 10 23 9 24 8 25 7 26 6 27 5 28 4 29 3 30 2 31 1 32
REMARK H PARENT
REMARK Flexibility Score: inf
ROOT
ATOM      1  C   UNL     1      28.229  -7.872  19.158  1.00  0.00     0.000 C 
ENDROOT
BRANCH   1   2
ATOM      2  C   UNL     1      29.277  -8.381  20.168  1.00  0.00     0.000 C 
BRANCH   2   3
ATOM      3  C   UNL     1      29.782  -9.819  19.927  1.00  0.00     0.000 C 
BRANCH   3   4
ATOM      4  C   UNL     1      28.877 -10.681  19.029  1.00  0.00     0.000 C 
BRANCH   4   5
ATOM      5  C   UNL     1      29.565 -11.106  17.720  1.00  0.00     0.000 C 
BRANCH   5   6
ATOM      6  C   UNL     1      30.877 -10.343  17.458  1.00  0.00     0.000 C 
BRANCH   6   7
ATOM      7  C   UNL     1      31.042  -9.809  16.022  1.00  0.00     0.000 C 
BRANCH   7   8
ATOM      8  C   UNL     1      29.847 -10.069  15.085  1.00  0.00     0.000 C 
BRANCH   8   9
ATOM      9  C   UNL     1      29.299  -8.798  14.402  1.00  0.00     0.000 C 
BRANCH   9  10
ATOM     10  C   UNL     1      27.782  -8.634  14.581  1.00  0.00     0.000 C 
BRANCH  10  11
ATOM     11  C   UNL     1      27.136  -9.958  15.004  1.00  0.00     0.000 C 
BRANCH  11  12
ATOM     12  C   UNL     1      26.390  -9.813  16.336  1.00  0.00     0.000 C 
BRANCH  12  13
ATOM     13  C   UNL     1      25.656  -8.465  16.404  1.00  0.00     0.006 C 
BRANCH  13  14
ATOM     14  C   UNL     1      24.149  -8.633  16.630  1.00  0.00     0.053 C 
BRANCH  14  15
ATOM     15  C   UNL     1      23.798  -8.638  18.086  1.00  0.00     0.041 C 
ATOM     16  O   UNL     1      24.554  -8.074  18.920  1.00  0.00    -0.550 OA
ATOM     17  O   UNL     1      22.633  -9.260  18.521  1.00  0.00    -0.550 OA
ENDBRANCH  14  15
ENDBRANCH  13  14
ENDBRANCH  12  13
ENDBRANCH  11  12
ENDBRANCH  10  11
ENDBRANCH   9  10
ENDBRANCH   8   9
ENDBRANCH   7   8
ENDBRANCH   6   7
ENDBRANCH   5   6
ENDBRANCH   4   5
ENDBRANCH   3   4
ENDBRANCH   2   3
ENDBRANCH   1   2
BRANCH   1  18
ATOM     18  C   UNL     1      28.806  -7.336  17.837  1.00  0.00     0.000 C 
BRANCH  18  19
ATOM     19  C   UNL     1      30.183  -6.680  18.007  1.00  0.00     0.000 C 
BRANCH  19  20
ATOM     20  C   UNL     1      30.252  -5.349  17.249  1.00  0.00     0.000 C 
BRANCH  20  21
ATOM     21  C   UNL     1      30.415  -5.581  15.738  1.00  0.00     0.000 C 
BRANCH  21  22
ATOM     22  C   UNL     1      29.187  -5.121  14.930  1.00  0.00     0.000 C 
BRANCH  22  23
ATOM     23  C   UNL     1      28.189  -4.257  15.721  1.00  0.00     0.000 C 
BRANCH  23  24
ATOM     24  C   UNL     1      26.791  -4.897  15.807  1.00  0.00    -0.000 C 
BRANCH  24  25
ATOM     25  C   UNL     1      26.240  -4.914  17.241  1.00  0.00    -0.000 C 
BRANCH  25  26
ATOM     26  C   UNL     1      26.760  -3.744  18.094  1.00  0.00    -0.000 C 
BRANCH  26  27
ATOM     27  C   UNL     1      27.484  -4.226  19.369  1.00  0.00    -0.000 C 
BRANCH  27  28
ATOM     28  C   UNL     1      26.631  -4.120  20.650  1.00  0.00    -0.000 C 
BRANCH  28  29
ATOM     29  C   UNL     1      25.696  -5.312  20.913  1.00  0.00    -0.000 C 
BRANCH  29  30
ATOM     30  C   UNL     1      24.221  -4.893  21.056  1.00  0.00    -0.000 C 
BRANCH  30  31
ATOM     31  C   UNL     1      23.502  -4.806  19.702  1.00  0.00    -0.003 C 
ATOM     32  C   UNL     1      23.193  -3.368  19.285  1.00  0.00     0.004 C 
ENDBRANCH  30  31
ENDBRANCH  29  30
ENDBRANCH  28  29
ENDBRANCH  27  28
ENDBRANCH  26  27
ENDBRANCH  25  26
ENDBRANCH  24  25
ENDBRANCH  23  24
ENDBRANCH  22  23
ENDBRANCH  21  22
ENDBRANCH  20  21
ENDBRANCH  19  20
ENDBRANCH  18  19
ENDBRANCH   1  18
TORSDOF 28
ENDMDL
MODEL 5
REMARK VINA RESULT:    -0.765      2.927      5.589
REMARK INTER + INTRA:          -8.470
REMARK INTER:                  -1.564
REMARK INTRA:                  -6.907
REMARK UNBOUND:                -6.453
REMARK SMILES CCCCCCCCCCCCCCCCCCCCCCCCCCCCCC(=O)[O-]
REMARK SMILES IDX 16 1 17 2 18 3 19 4 20 5 21 6 22 7 23 8 24 9 25 10 26 11
REMARK SMILES IDX 27 12 28 13 29 14 30 15 31 16 32 17 15 18 14 19 13 20 12 21
REMARK SMILES IDX 11 22 10 23 9 24 8 25 7 26 6 27 5 28 4 29 3 30 2 31 1 32
REMARK H PARENT
REMARK Flexibility Score: inf
ROOT
ATOM      1  C   UNL     1      26.177  -7.338  13.830  1.00  0.00     0.000 C 
ENDROOT
BRANCH   1   2
ATOM      2  C   UNL     1      25.596  -7.477  12.409  1.00  0.00     0.000 C 
BRANCH   2   3
ATOM      3  C   UNL     1      26.638  -7.662  11.286  1.00  0.00     0.000 C 
BRANCH   3   4
ATOM      4  C   UNL     1      27.329  -6.368  10.822  1.00  0.00     0.000 C 
BRANCH   4   5
ATOM      5  C   UNL     1      28.855  -6.517  10.699  1.00  0.00     0.000 C 
BRANCH   5   6
ATOM      6  C   UNL     1      29.405  -7.720  11.490  1.00  0.00     0.000 C 
BRANCH   6   7
ATOM      7  C   UNL     1      30.104  -7.360  12.815  1.00  0.00     0.000 C 
BRANCH   7   8
ATOM      8  C   UNL     1      30.547  -5.891  12.945  1.00  0.00     0.000 C 
BRANCH   8   9
ATOM      9  C   UNL     1      29.956  -5.165  14.172  1.00  0.00     0.000 C 
BRANCH   9  10
ATOM     10  C   UNL     1      28.599  -4.507  13.878  1.00  0.00     0.000 C 
BRANCH  10  11
ATOM     11  C   UNL     1      27.833  -4.233  15.177  1.00  0.00     0.000 C 
BRANCH  11  12
ATOM     12  C   UNL     1      26.374  -3.857  14.893  1.00  0.00     0.000 C 
BRANCH  12  13
ATOM     13  C   UNL     1      26.145  -3.663  13.387  1.00  0.00     0.006 C 
BRANCH  13  14
ATOM     14  C   UNL     1      24.677  -3.864  12.990  1.00  0.00     0.053 C 
BRANCH  14  15
ATOM     15  C   UNL     1      24.018  -2.574  12.611  1.00  0.00     0.041 C 
ATOM     16  O   UNL     1      23.544  -1.821  13.501  1.00  0.00    -0.550 OA
ATOM     17  O   UNL     1      23.934  -2.200  11.274  1.00  0.00    -0.550 OA
ENDBRANCH  14  15
ENDBRANCH  13  14
ENDBRANCH  12  13
ENDBRANCH  11  12
ENDBRANCH  10  11
ENDBRANCH   9  10
ENDBRANCH   8   9
ENDBRANCH   7   8
ENDBRANCH   6   7
ENDBRANCH   5   6
ENDBRANCH   4   5
ENDBRANCH   3   4
ENDBRANCH   2   3
ENDBRANCH   1   2
BRANCH   1  18
ATOM     18  C   UNL     1      25.149  -7.460  14.968  1.00  0.00     0.000 C 
BRANCH  18  19
ATOM     19  C   UNL     1      24.577  -8.877  15.108  1.00  0.00     0.000 C 
BRANCH  19  20
ATOM     20  C   UNL     1      25.700  -9.920  15.129  1.00  0.00     0.000 C 
BRANCH  20  21
ATOM     21  C   UNL     1      25.515 -10.953  14.007  1.00  0.00     0.000 C 
BRANCH  21  22
ATOM     22  C   UNL     1      26.759 -11.084  13.107  1.00  0.00     0.000 C 
BRANCH  22  23
ATOM     23  C   UNL     1      28.009 -10.358  13.637  1.00  0.00     0.000 C 
BRANCH  23  24
ATOM     24  C   UNL     1      29.310 -11.121  13.330  1.00  0.00    -0.000 C 
BRANCH  24  25
ATOM     25  C   UNL     1      30.312 -11.067  14.494  1.00  0.00    -0.000 C 
BRANCH  25  26
ATOM     26  C   UNL     1      29.668 -10.607  15.814  1.00  0.00    -0.000 C 
BRANCH  26  27
ATOM     27  C   UNL     1      30.583  -9.652  16.610  1.00  0.00    -0.000 C 
BRANCH  27  28
ATOM     28  C   UNL     1      30.249  -8.159  16.412  1.00  0.00    -0.000 C 
BRANCH  28  29
ATOM     29  C   UNL     1      28.750  -7.835  16.294  1.00  0.00    -0.000 C 
BRANCH  29  30
ATOM     30  C   UNL     1      28.133  -7.373  17.627  1.00  0.00    -0.000 C 
BRANCH  30  31
ATOM     31  C   UNL     1      27.412  -8.511  18.365  1.00  0.00    -0.003 C 
ATOM     32  C   UNL     1      25.923  -8.236  18.570  1.00  0.00     0.004 C 
ENDBRANCH  30  31
ENDBRANCH  29  30
ENDBRANCH  28  29
ENDBRANCH  27  28
ENDBRANCH  26  27
ENDBRANCH  25  26
ENDBRANCH  24  25
ENDBRANCH  23  24
ENDBRANCH  22  23
ENDBRANCH  21  22
ENDBRANCH  20  21
ENDBRANCH  19  20
ENDBRANCH  18  19
ENDBRANCH   1  18
TORSDOF 28
ENDMDL
MODEL 6
REMARK VINA RESULT:    -0.748      2.193      5.417
REMARK INTER + INTRA:          -8.427
REMARK INTER:                  -2.093
REMARK INTRA:                  -6.333
REMARK UNBOUND:                -6.453
REMARK SMILES CCCCCCCCCCCCCCCCCCCCCCCCCCCCCC(=O)[O-]
REMARK SMILES IDX 16 1 17 2 18 3 19 4 20 5 21 6 22 7 23 8 24 9 25 10 26 11
REMARK SMILES IDX 27 12 28 13 29 14 30 15 31 16 32 17 15 18 14 19 13 20 12 21
REMARK SMILES IDX 11 22 10 23 9 24 8 25 7 26 6 27 5 28 4 29 3 30 2 31 1 32
REMARK H PARENT
REMARK Flexibility Score: inf
ROOT
ATOM      1  C   UNL     1      26.705  -8.969  18.045  1.00  0.00     0.000 C 
ENDROOT
BRANCH   1   2
ATOM      2  C   UNL     1      26.616  -8.739  16.522  1.00  0.00     0.000 C 
BRANCH   2   3
ATOM      3  C   UNL     1      27.968  -8.690  15.782  1.00  0.00     0.000 C 
BRANCH   3   4
ATOM      4  C   UNL     1      28.568 -10.063  15.435  1.00  0.00     0.000 C 
BRANCH   4   5
ATOM      5  C   UNL     1      30.078 -10.146  15.722  1.00  0.00     0.000 C 
BRANCH   5   6
ATOM      6  C   UNL     1      30.393 -10.806  17.079  1.00  0.00     0.000 C 
BRANCH   6   7
ATOM      7  C   UNL     1      31.104  -9.892  18.095  1.00  0.00     0.000 C 
BRANCH   7   8
ATOM      8  C   UNL     1      30.800  -8.389  17.950  1.00  0.00     0.000 C 
BRANCH   8   9
ATOM      9  C   UNL     1      30.761  -7.627  19.292  1.00  0.00     0.000 C 
BRANCH   9  10
ATOM     10  C   UNL     1      29.507  -6.751  19.442  1.00  0.00     0.000 C 
BRANCH  10  11
ATOM     11  C   UNL     1      29.159  -6.063  18.117  1.00  0.00     0.000 C 
BRANCH  11  12
ATOM     12  C   UNL     1      27.775  -5.407  18.178  1.00  0.00     0.000 C 
BRANCH  12  13
ATOM     13  C   UNL     1      27.258  -5.096  16.765  1.00  0.00     0.006 C 
BRANCH  13  14
ATOM     14  C   UNL     1      28.029  -3.948  16.102  1.00  0.00     0.053 C 
BRANCH  14  15
ATOM     15  C   UNL     1      27.988  -2.698  16.926  1.00  0.00     0.041 C 
ATOM     16  O   UNL     1      29.054  -2.196  17.367  1.00  0.00    -0.550 OA
ATOM     17  O   UNL     1      26.771  -2.085  17.203  1.00  0.00    -0.550 OA
ENDBRANCH  14  15
ENDBRANCH  13  14
ENDBRANCH  12  13
ENDBRANCH  11  12
ENDBRANCH  10  11
ENDBRANCH   9  10
ENDBRANCH   8   9
ENDBRANCH   7   8
ENDBRANCH   6   7
ENDBRANCH   5   6
ENDBRANCH   4   5
ENDBRANCH   3   4
ENDBRANCH   2   3
ENDBRANCH   1   2
BRANCH   1  18
ATOM     18  C   UNL     1      26.370 -10.397  18.507  1.00  0.00     0.000 C 
BRANCH  18  19
ATOM     19  C   UNL     1      27.526 -11.071  19.259  1.00  0.00     0.000 C 
BRANCH  19  20
ATOM     20  C   UNL     1      28.180 -10.094  20.243  1.00  0.00     0.000 C 
BRANCH  20  21
ATOM     21  C   UNL     1      28.793 -10.841  21.439  1.00  0.00     0.000 C 
BRANCH  21  22
ATOM     22  C   UNL     1      30.169 -10.282  21.847  1.00  0.00     0.000 C 
BRANCH  22  23
ATOM     23  C   UNL     1      30.194  -9.592  23.223  1.00  0.00     0.000 C 
BRANCH  23  24
ATOM     24  C   UNL     1      30.474  -8.082  23.121  1.00  0.00    -0.000 C 
BRANCH  24  25
ATOM     25  C   UNL     1      29.328  -7.232  23.693  1.00  0.00    -0.000 C 
BRANCH  25  26
ATOM     26  C   UNL     1      28.275  -6.859  22.633  1.00  0.00    -0.000 C 
BRANCH  26  27
ATOM     27  C   UNL     1      26.918  -7.547  22.891  1.00  0.00    -0.000 C 
BRANCH  27  28
ATOM     28  C   UNL     1      26.041  -7.690  21.629  1.00  0.00    -0.000 C 
BRANCH  28  29
ATOM     29  C   UNL     1      25.476  -6.372  21.074  1.00  0.00    -0.000 C 
BRANCH  29  30
ATOM     30  C   UNL     1      24.626  -6.575  19.807  1.00  0.00    -0.000 C 
BRANCH  30  31
ATOM     31  C   UNL     1      23.662  -5.406  19.553  1.00  0.00    -0.003 C 
ATOM     32  C   UNL     1      24.374  -4.146  19.060  1.00  0.00     0.004 C 
ENDBRANCH  30  31
ENDBRANCH  29  30
ENDBRANCH  28  29
ENDBRANCH  27  28
ENDBRANCH  26  27
ENDBRANCH  25  26
ENDBRANCH  24  25
ENDBRANCH  23  24
ENDBRANCH  22  23
ENDBRANCH  21  22
ENDBRANCH  20  21
ENDBRANCH  19  20
ENDBRANCH  18  19
ENDBRANCH   1  18
TORSDOF 28
ENDMDL
MODEL 7
REMARK VINA RESULT:    -0.745      2.670      6.630
REMARK INTER + INTRA:          -8.417
REMARK INTER:                  -2.630
REMARK INTRA:                  -5.786
REMARK UNBOUND:                -6.453
REMARK SMILES CCCCCCCCCCCCCCCCCCCCCCCCCCCCCC(=O)[O-]
REMARK SMILES IDX 16 1 17 2 18 3 19 4 20 5 21 6 22 7 23 8 24 9 25 10 26 11
REMARK SMILES IDX 27 12 28 13 29 14 30 15 31 16 32 17 15 18 14 19 13 20 12 21
REMARK SMILES IDX 11 22 10 23 9 24 8 25 7 26 6 27 5 28 4 29 3 30 2 31 1 32
REMARK H PARENT
REMARK Flexibility Score: inf
ROOT
ATOM      1  C   UNL     1      25.837  -6.893  18.776  1.00  0.00     0.000 C 
ENDROOT
BRANCH   1   2
ATOM      2  C   UNL     1      25.582  -7.518  20.163  1.00  0.00     0.000 C 
BRANCH   2   3
ATOM      3  C   UNL     1      26.843  -7.989  20.917  1.00  0.00     0.000 C 
BRANCH   3   4
ATOM      4  C   UNL     1      26.577  -8.619  22.295  1.00  0.00     0.000 C 
BRANCH   4   5
ATOM      5  C   UNL     1      26.107 -10.082  22.203  1.00  0.00     0.000 C 
BRANCH   5   6
ATOM      6  C   UNL     1      27.242 -11.092  22.462  1.00  0.00     0.000 C 
BRANCH   6   7
ATOM      7  C   UNL     1      27.956 -10.932  23.818  1.00  0.00     0.000 C 
BRANCH   7   8
ATOM      8  C   UNL     1      29.485 -11.114  23.780  1.00  0.00     0.000 C 
BRANCH   8   9
ATOM      9  C   UNL     1      30.117 -10.806  22.407  1.00  0.00     0.000 C 
BRANCH   9  10
ATOM     10  C   UNL     1      31.125  -9.647  22.461  1.00  0.00     0.000 C 
BRANCH  10  11
ATOM     11  C   UNL     1      30.447  -8.318  22.109  1.00  0.00     0.000 C 
BRANCH  11  12
ATOM     12  C   UNL     1      30.055  -7.541  23.372  1.00  0.00     0.000 C 
BRANCH  12  13
ATOM     13  C   UNL     1      29.389  -6.207  23.005  1.00  0.00     0.006 C 
BRANCH  13  14
ATOM     14  C   UNL     1      29.695  -5.778  21.565  1.00  0.00     0.053 C 
BRANCH  14  15
ATOM     15  C   UNL     1      29.013  -4.494  21.207  1.00  0.00     0.041 C 
ATOM     16  O   UNL     1      29.509  -3.394  21.562  1.00  0.00    -0.550 OA
ATOM     17  O   UNL     1      27.830  -4.514  20.476  1.00  0.00    -0.550 OA
ENDBRANCH  14  15
ENDBRANCH  13  14
ENDBRANCH  12  13
ENDBRANCH  11  12
ENDBRANCH  10  11
ENDBRANCH   9  10
ENDBRANCH   8   9
ENDBRANCH   7   8
ENDBRANCH   6   7
ENDBRANCH   5   6
ENDBRANCH   4   5
ENDBRANCH   3   4
ENDBRANCH   2   3
ENDBRANCH   1   2
BRANCH   1  18
ATOM     18  C   UNL     1      26.405  -7.860  17.723  1.00  0.00     0.000 C 
BRANCH  18  19
ATOM     19  C   UNL     1      25.624  -9.179  17.637  1.00  0.00     0.000 C 
BRANCH  19  20
ATOM     20  C   UNL     1      26.574 -10.363  17.424  1.00  0.00     0.000 C 
BRANCH  20  21
ATOM     21  C   UNL     1      27.088 -10.908  18.766  1.00  0.00     0.000 C 
BRANCH  21  22
ATOM     22  C   UNL     1      28.623 -11.019  18.815  1.00  0.00     0.000 C 
BRANCH  22  23
ATOM     23  C   UNL     1      29.356  -9.674  18.976  1.00  0.00     0.000 C 
BRANCH  23  24
ATOM     24  C   UNL     1      30.495  -9.497  17.955  1.00  0.00    -0.000 C 
BRANCH  24  25
ATOM     25  C   UNL     1      30.724 -10.757  17.106  1.00  0.00    -0.000 C 
BRANCH  25  26
ATOM     26  C   UNL     1      30.665 -10.475  15.594  1.00  0.00    -0.000 C 
BRANCH  26  27
ATOM     27  C   UNL     1      29.222 -10.245  15.098  1.00  0.00    -0.000 C 
BRANCH  27  28
ATOM     28  C   UNL     1      28.898  -8.770  14.784  1.00  0.00    -0.000 C 
BRANCH  28  29
ATOM     29  C   UNL     1      27.896  -8.550  13.638  1.00  0.00    -0.000 C 
BRANCH  29  30
ATOM     30  C   UNL     1      26.636  -9.425  13.773  1.00  0.00    -0.000 C 
BRANCH  30  31
ATOM     31  C   UNL     1      25.379  -8.599  14.087  1.00  0.00    -0.003 C 
ATOM     32  C   UNL     1      24.818  -7.882  12.859  1.00  0.00     0.004 C 
ENDBRANCH  30  31
ENDBRANCH  29  30
ENDBRANCH  28  29
ENDBRANCH  27  28
ENDBRANCH  26  27
ENDBRANCH  25  26
ENDBRANCH  24  25
ENDBRANCH  23  24
ENDBRANCH  22  23
ENDBRANCH  21  22
ENDBRANCH  20  21
ENDBRANCH  19  20
ENDBRANCH  18  19
ENDBRANCH   1  18
TORSDOF 28
ENDMDL
MODEL 8
REMARK VINA RESULT:    -0.716      2.047      5.517
REMARK INTER + INTRA:          -8.341
REMARK INTER:                  -2.054
REMARK INTRA:                  -6.287
REMARK UNBOUND:                -6.453
REMARK SMILES CCCCCCCCCCCCCCCCCCCCCCCCCCCCCC(=O)[O-]
REMARK SMILES IDX 16 1 17 2 18 3 19 4 20 5 21 6 22 7 23 8 24 9 25 10 26 11
REMARK SMILES IDX 27 12 28 13 29 14 30 15 31 16 32 17 15 18 14 19 13 20 12 21
REMARK SMILES IDX 11 22 10 23 9 24 8 25 7 26 6 27 5 28 4 29 3 30 2 31 1 32
REMARK H PARENT
REMARK Flexibility Score: inf
ROOT
ATOM      1  C   UNL     1      27.306  -5.083  20.286  1.00  0.00     0.000 C 
ENDROOT
BRANCH   1   2
ATOM      2  C   UNL     1      27.582  -6.374  19.489  1.00  0.00     0.000 C 
BRANCH   2   3
ATOM      3  C   UNL     1      28.802  -6.318  18.546  1.00  0.00     0.000 C 
BRANCH   3   4
ATOM      4  C   UNL     1      30.162  -6.189  19.254  1.00  0.00     0.000 C 
BRANCH   4   5
ATOM      5  C   UNL     1      31.125  -7.340  18.913  1.00  0.00     0.000 C 
BRANCH   5   6
ATOM      6  C   UNL     1      30.641  -8.703  19.446  1.00  0.00     0.000 C 
BRANCH   6   7
ATOM      7  C   UNL     1      30.566  -9.823  18.390  1.00  0.00     0.000 C 
BRANCH   7   8
ATOM      8  C   UNL     1      29.806  -9.458  17.100  1.00  0.00     0.000 C 
BRANCH   8   9
ATOM      9  C   UNL     1      28.500 -10.254  16.897  1.00  0.00     0.000 C 
BRANCH   9  10
ATOM     10  C   UNL     1      27.777 -10.559  18.218  1.00  0.00     0.000 C 
BRANCH  10  11
ATOM     11  C   UNL     1      26.548  -9.658  18.388  1.00  0.00     0.000 C 
BRANCH  11  12
ATOM     12  C   UNL     1      25.475  -9.977  17.341  1.00  0.00     0.000 C 
BRANCH  12  13
ATOM     13  C   UNL     1      24.822  -8.688  16.820  1.00  0.00     0.006 C 
BRANCH  13  14
ATOM     14  C   UNL     1      25.712  -7.949  15.814  1.00  0.00     0.053 C 
BRANCH  14  15
ATOM     15  C   UNL     1      25.893  -6.508  16.180  1.00  0.00     0.041 C 
ATOM     16  O   UNL     1      26.866  -5.856  15.720  1.00  0.00    -0.550 OA
ATOM     17  O   UNL     1      24.982  -5.884  17.026  1.00  0.00    -0.550 OA
ENDBRANCH  14  15
ENDBRANCH  13  14
ENDBRANCH  12  13
ENDBRANCH  11  12
ENDBRANCH  10  11
ENDBRANCH   9  10
ENDBRANCH   8   9
ENDBRANCH   7   8
ENDBRANCH   6   7
ENDBRANCH   5   6
ENDBRANCH   4   5
ENDBRANCH   3   4
ENDBRANCH   2   3
ENDBRANCH   1   2
BRANCH   1  18
ATOM     18  C   UNL     1      25.928  -5.023  20.969  1.00  0.00     0.000 C 
BRANCH  18  19
ATOM     19  C   UNL     1      25.998  -5.277  22.481  1.00  0.00     0.000 C 
BRANCH  19  20
ATOM     20  C   UNL     1      25.074  -6.432  22.883  1.00  0.00     0.000 C 
BRANCH  20  21
ATOM     21  C   UNL     1      24.793  -7.357  21.689  1.00  0.00     0.000 C 
BRANCH  21  22
ATOM     22  C   UNL     1      25.534  -8.704  21.791  1.00  0.00     0.000 C 
BRANCH  22  23
ATOM     23  C   UNL     1      25.867  -9.141  23.229  1.00  0.00     0.000 C 
BRANCH  23  24
ATOM     24  C   UNL     1      27.105 -10.052  23.298  1.00  0.00    -0.000 C 
BRANCH  24  25
ATOM     25  C   UNL     1      27.443 -10.688  21.940  1.00  0.00    -0.000 C 
BRANCH  25  26
ATOM     26  C   UNL     1      28.938 -11.025  21.795  1.00  0.00    -0.000 C 
BRANCH  26  27
ATOM     27  C   UNL     1      29.713 -10.828  23.115  1.00  0.00    -0.000 C 
BRANCH  27  28
ATOM     28  C   UNL     1      31.038 -10.055  22.952  1.00  0.00    -0.000 C 
BRANCH  28  29
ATOM     29  C   UNL     1      31.125  -8.734  23.735  1.00  0.00    -0.000 C 
BRANCH  29  30
ATOM     30  C   UNL     1      30.875  -7.499  22.850  1.00  0.00    -0.000 C 
BRANCH  30  31
ATOM     31  C   UNL     1      29.388  -7.125  22.771  1.00  0.00    -0.003 C 
ATOM     32  C   UNL     1      28.757  -6.909  24.147  1.00  0.00     0.004 C 
ENDBRANCH  30  31
ENDBRANCH  29  30
ENDBRANCH  28  29
ENDBRANCH  27  28
ENDBRANCH  26  27
ENDBRANCH  25  26
ENDBRANCH  24  25
ENDBRANCH  23  24
ENDBRANCH  22  23
ENDBRANCH  21  22
ENDBRANCH  20  21
ENDBRANCH  19  20
ENDBRANCH  18  19
ENDBRANCH   1  18
TORSDOF 28
ENDMDL
MODEL 9
REMARK VINA RESULT:    -0.693      2.940      5.516
REMARK INTER + INTRA:          -8.281
REMARK INTER:                  -1.932
REMARK INTRA:                  -6.349
REMARK UNBOUND:                -6.453
REMARK SMILES CCCCCCCCCCCCCCCCCCCCCCCCCCCCCC(=O)[O-]
REMARK SMILES IDX 16 1 17 2 18 3 19 4 20 5 21 6 22 7 23 8 24 9 25 10 26 11
REMARK SMILES IDX 27 12 28 13 29 14 30 15 31 16 32 17 15 18 14 19 13 20 12 21
REMARK SMILES IDX 11 22 10 23 9 24 8 25 7 26 6 27 5 28 4 29 3 30 2 31 1 32
REMARK H PARENT
REMARK Flexibility Score: inf
ROOT
ATOM      1  C   UNL     1      24.920  -5.012  18.746  1.00  0.00     0.000 C 
ENDROOT
BRANCH   1   2
ATOM      2  C   UNL     1      24.558  -6.499  18.558  1.00  0.00     0.000 C 
BRANCH   2   3
ATOM      3  C   UNL     1      25.714  -7.494  18.790  1.00  0.00     0.000 C 
BRANCH   3   4
ATOM      4  C   UNL     1      25.573  -8.836  18.050  1.00  0.00     0.000 C 
BRANCH   4   5
ATOM      5  C   UNL     1      26.675  -9.843  18.423  1.00  0.00     0.000 C 
BRANCH   5   6
ATOM      6  C   UNL     1      26.783 -10.075  19.943  1.00  0.00     0.000 C 
BRANCH   6   7
ATOM      7  C   UNL     1      28.053 -10.819  20.397  1.00  0.00     0.000 C 
BRANCH   7   8
ATOM      8  C   UNL     1      28.583 -10.424  21.788  1.00  0.00     0.000 C 
BRANCH   8   9
ATOM      9  C   UNL     1      30.093 -10.105  21.815  1.00  0.00     0.000 C 
BRANCH   9  10
ATOM     10  C   UNL     1      30.384  -8.598  21.739  1.00  0.00     0.000 C 
BRANCH  10  11
ATOM     11  C   UNL     1      29.141  -7.782  22.112  1.00  0.00     0.000 C 
BRANCH  11  12
ATOM     12  C   UNL     1      28.737  -6.834  20.977  1.00  0.00     0.000 C 
BRANCH  12  13
ATOM     13  C   UNL     1      27.816  -5.721  21.499  1.00  0.00     0.006 C 
BRANCH  13  14
ATOM     14  C   UNL     1      28.060  -4.383  20.792  1.00  0.00     0.053 C 
BRANCH  14  15
ATOM     15  C   UNL     1      28.924  -3.469  21.606  1.00  0.00     0.041 C 
ATOM     16  O   UNL     1      30.054  -3.855  22.003  1.00  0.00    -0.550 OA
ATOM     17  O   UNL     1      28.481  -2.189  21.922  1.00  0.00    -0.550 OA
ENDBRANCH  14  15
ENDBRANCH  13  14
ENDBRANCH  12  13
ENDBRANCH  11  12
ENDBRANCH  10  11
ENDBRANCH   9  10
ENDBRANCH   8   9
ENDBRANCH   7   8
ENDBRANCH   6   7
ENDBRANCH   5   6
ENDBRANCH   4   5
ENDBRANCH   3   4
ENDBRANCH   2   3
ENDBRANCH   1   2
BRANCH   1  18
ATOM     18  C   UNL     1      25.481  -4.316  17.494  1.00  0.00     0.000 C 
BRANCH  18  19
ATOM     19  C   UNL     1      27.012  -4.382  17.409  1.00  0.00     0.000 C 
BRANCH  19  20
ATOM     20  C   UNL     1      27.462  -4.859  16.023  1.00  0.00     0.000 C 
BRANCH  20  21
ATOM     21  C   UNL     1      26.313  -5.555  15.278  1.00  0.00     0.000 C 
BRANCH  21  22
ATOM     22  C   UNL     1      26.594  -7.046  15.010  1.00  0.00     0.000 C 
BRANCH  22  23
ATOM     23  C   UNL     1      27.924  -7.559  15.591  1.00  0.00     0.000 C 
BRANCH  23  24
ATOM     24  C   UNL     1      28.626  -8.564  14.660  1.00  0.00    -0.000 C 
BRANCH  24  25
ATOM     25  C   UNL     1      28.483 -10.014  15.147  1.00  0.00    -0.000 C 
BRANCH  25  26
ATOM     26  C   UNL     1      29.828 -10.641  15.558  1.00  0.00    -0.000 C 
BRANCH  26  27
ATOM     27  C   UNL     1      29.862 -11.025  17.053  1.00  0.00    -0.000 C 
BRANCH  27  28
ATOM     28  C   UNL     1      30.734 -10.092  17.918  1.00  0.00    -0.000 C 
BRANCH  28  29
ATOM     29  C   UNL     1      30.193  -8.662  18.087  1.00  0.00    -0.000 C 
BRANCH  29  30
ATOM     30  C   UNL     1      31.124  -7.596  17.482  1.00  0.00    -0.000 C 
BRANCH  30  31
ATOM     31  C   UNL     1      30.652  -6.166  17.784  1.00  0.00    -0.003 C 
ATOM     32  C   UNL     1      31.033  -5.171  16.688  1.00  0.00     0.004 C 
ENDBRANCH  30  31
ENDBRANCH  29  30
ENDBRANCH  28  29
ENDBRANCH  27  28
ENDBRANCH  26  27
ENDBRANCH  25  26
ENDBRANCH  24  25
ENDBRANCH  23  24
ENDBRANCH  22  23
ENDBRANCH  21  22
ENDBRANCH  20  21
ENDBRANCH  19  20
ENDBRANCH  18  19
ENDBRANCH   1  18
TORSDOF 28
ENDMDL
