MODEL 1
REMARK VINA RESULT:    -6.047      0.000      0.000
REMARK INTER + INTRA:          -7.408
REMARK INTER:                  -7.108
REMARK INTRA:                  -0.300
REMARK UNBOUND:                -0.300
REMARK SMILES O=c1c(O)c(-c2ccc(O)cc2)oc2cc(O)cc(O)c12
REMARK SMILES IDX 5 1 3 2 2 3 1 4 21 5 19 6 18 7 16 8 15 9 14 10 13 11 6 12
REMARK SMILES IDX 7 13 8 14 9 15 12 16 11 17 10 18 4 20 20 22 17 24
REMARK H PARENT 10 19 4 21 20 23 17 25
REMARK Flexibility Score: inf
ROOT
ATOM      1  C   UNL     1      25.870   3.493 102.842  1.00  0.00     0.180 A 
ATOM      2  C   UNL     1      26.761   3.972 103.819  1.00  0.00     0.208 A 
ATOM      3  C   UNL     1      28.018   3.360 103.953  1.00  0.00     0.238 A 
ATOM      4  O   UNL     1      28.789   3.758 104.865  1.00  0.00    -0.285 OA
ATOM      5  C   UNL     1      28.374   2.288 103.099  1.00  0.00     0.111 A 
ATOM      6  C   UNL     1      29.636   1.622 103.120  1.00  0.00     0.134 A 
ATOM      7  C   UNL     1      29.832   0.489 102.319  1.00  0.00     0.093 A 
ATOM      8  C   UNL     1      28.834   0.040 101.451  1.00  0.00     0.123 A 
ATOM      9  C   UNL     1      27.621   0.721 101.380  1.00  0.00     0.094 A 
ATOM     10  C   UNL     1      27.382   1.831 102.193  1.00  0.00     0.146 A 
ATOM     11  O   UNL     1      26.208   2.444 102.101  1.00  0.00    -0.452 OA
ENDROOT
BRANCH   1  12
ATOM     12  C   UNL     1      24.538   4.102 102.624  1.00  0.00     0.021 A 
ATOM     13  C   UNL     1      24.359   5.171 101.727  1.00  0.00     0.016 A 
ATOM     14  C   UNL     1      23.087   5.713 101.519  1.00  0.00     0.047 A 
ATOM     15  C   UNL     1      21.979   5.188 102.192  1.00  0.00     0.115 A 
ATOM     16  C   UNL     1      23.417   3.566 103.279  1.00  0.00     0.016 A 
ATOM     17  C   UNL     1      22.146   4.111 103.070  1.00  0.00     0.047 A 
BRANCH  15  18
ATOM     18  O   UNL     1      20.718   5.741 101.975  1.00  0.00    -0.508 OA
ATOM     19  H   UNL     1      20.419   6.028 101.050  1.00  0.00     0.293 HD
ENDBRANCH  15  18
ENDBRANCH   1  12
BRANCH   2  20
ATOM     20  O   UNL     1      26.380   5.016 104.665  1.00  0.00    -0.502 OA
ATOM     21  H   UNL     1      26.412   4.937 105.675  1.00  0.00     0.293 HD
ENDBRANCH   2  20
BRANCH   6  22
ATOM     22  O   UNL     1      30.729   2.043 103.883  1.00  0.00    -0.507 OA
ATOM     23  H   UNL     1      31.361   1.426 104.371  1.00  0.00     0.293 HD
ENDBRANCH   6  22
BRANCH   8  24
ATOM     24  O   UNL     1      29.043  -1.078 100.647  1.00  0.00    -0.508 OA
ATOM     25  H   UNL     1      28.712  -1.112  99.690  1.00  0.00     0.293 HD
ENDBRANCH   8  24
TORSDOF 5
ENDMDL
MODEL 2
REMARK VINA RESULT:    -6.026      4.079      5.476
REMARK INTER + INTRA:          -7.383
REMARK INTER:                  -7.083
REMARK INTRA:                  -0.300
REMARK UNBOUND:                -0.300
REMARK SMILES O=c1c(O)c(-c2ccc(O)cc2)oc2cc(O)cc(O)c12
REMARK SMILES IDX 5 1 3 2 2 3 1 4 21 5 19 6 18 7 16 8 15 9 14 10 13 11 6 12
REMARK SMILES IDX 7 13 8 14 9 15 12 16 11 17 10 18 4 20 20 22 17 24
REMARK H PARENT 10 19 4 21 20 23 17 25
REMARK Flexibility Score: inf
ROOT
ATOM      1  C   UNL     1      23.006   0.449 103.086  1.00  0.00     0.180 A 
ATOM      2  C   UNL     1      22.502  -0.330 102.029  1.00  0.00     0.208 A 
ATOM      3  C   UNL     1      23.088  -1.579 101.763  1.00  0.00     0.238 A 
ATOM      4  O   UNL     1      22.669  -2.246 100.782  1.00  0.00    -0.285 OA
ATOM      5  C   UNL     1      24.159  -2.039 102.567  1.00  0.00     0.111 A 
ATOM      6  C   UNL     1      24.800  -3.305 102.414  1.00  0.00     0.134 A 
ATOM      7  C   UNL     1      25.934  -3.602 103.181  1.00  0.00     0.093 A 
ATOM      8  C   UNL     1      26.410  -2.706 104.141  1.00  0.00     0.123 A 
ATOM      9  C   UNL     1      25.753  -1.493 104.339  1.00  0.00     0.094 A 
ATOM     10  C   UNL     1      24.643  -1.153 103.564  1.00  0.00     0.146 A 
ATOM     11  O   UNL     1      24.053   0.018 103.779  1.00  0.00    -0.452 OA
ENDROOT
BRANCH   1  12
ATOM     12  C   UNL     1      22.425   1.763 103.442  1.00  0.00     0.021 A 
ATOM     13  C   UNL     1      21.363   1.871 104.358  1.00  0.00     0.016 A 
ATOM     14  C   UNL     1      20.848   3.125 104.699  1.00  0.00     0.047 A 
ATOM     15  C   UNL     1      21.393   4.285 104.140  1.00  0.00     0.115 A 
ATOM     16  C   UNL     1      22.982   2.934 102.903  1.00  0.00     0.016 A 
ATOM     17  C   UNL     1      22.463   4.188 103.244  1.00  0.00     0.047 A 
BRANCH  15  18
ATOM     18  O   UNL     1      20.867   5.528 104.488  1.00  0.00    -0.508 OA
ATOM     19  H   UNL     1      19.871   5.664 104.614  1.00  0.00     0.293 HD
ENDBRANCH  15  18
ENDBRANCH   1  12
BRANCH   2  20
ATOM     20  O   UNL     1      21.460   0.154 101.235  1.00  0.00    -0.502 OA
ATOM     21  H   UNL     1      21.561   0.969 100.642  1.00  0.00     0.293 HD
ENDBRANCH   2  20
BRANCH   6  22
ATOM     22  O   UNL     1      24.352  -4.308 101.549  1.00  0.00    -0.507 OA
ATOM     23  H   UNL     1      24.784  -5.214 101.447  1.00  0.00     0.293 HD
ENDBRANCH   6  22
BRANCH   8  24
ATOM     24  O   UNL     1      27.528  -3.016 104.910  1.00  0.00    -0.508 OA
ATOM     25  H   UNL     1      27.830  -3.974 105.046  1.00  0.00     0.293 HD
ENDBRANCH   8  24
TORSDOF 5
ENDMDL
MODEL 3
REMARK VINA RESULT:    -5.838      2.116      3.496
REMARK INTER + INTRA:          -7.162
REMARK INTER:                  -6.883
REMARK INTRA:                  -0.279
REMARK UNBOUND:                -0.300
REMARK SMILES O=c1c(O)c(-c2ccc(O)cc2)oc2cc(O)cc(O)c12
REMARK SMILES IDX 5 1 3 2 2 3 1 4 21 5 19 6 18 7 16 8 15 9 14 10 13 11 6 12
REMARK SMILES IDX 7 13 8 14 9 15 12 16 11 17 10 18 4 20 20 22 17 24
REMARK H PARENT 10 19 4 21 20 23 17 25
REMARK Flexibility Score: inf
ROOT
ATOM      1  C   UNL     1      23.799   2.551 102.977  1.00  0.00     0.180 A 
ATOM      2  C   UNL     1      23.493   1.181 102.906  1.00  0.00     0.208 A 
ATOM      3  C   UNL     1      24.543   0.248 102.869  1.00  0.00     0.238 A 
ATOM      4  O   UNL     1      24.263  -0.973 102.750  1.00  0.00    -0.285 OA
ATOM      5  C   UNL     1      25.885   0.698 102.921  1.00  0.00     0.111 A 
ATOM      6  C   UNL     1      27.026  -0.160 102.932  1.00  0.00     0.134 A 
ATOM      7  C   UNL     1      28.309   0.397 102.854  1.00  0.00     0.093 A 
ATOM      8  C   UNL     1      28.493   1.781 102.831  1.00  0.00     0.123 A 
ATOM      9  C   UNL     1      27.387   2.627 102.881  1.00  0.00     0.094 A 
ATOM     10  C   UNL     1      26.094   2.101 102.922  1.00  0.00     0.146 A 
ATOM     11  O   UNL     1      25.068   2.943 102.959  1.00  0.00    -0.452 OA
ENDROOT
BRANCH   1  12
ATOM     12  C   UNL     1      22.747   3.591 103.044  1.00  0.00     0.021 A 
ATOM     13  C   UNL     1      22.094   3.895 104.252  1.00  0.00     0.016 A 
ATOM     14  C   UNL     1      21.121   4.899 104.296  1.00  0.00     0.047 A 
ATOM     15  C   UNL     1      20.799   5.618 103.140  1.00  0.00     0.115 A 
ATOM     16  C   UNL     1      22.434   4.331 101.893  1.00  0.00     0.016 A 
ATOM     17  C   UNL     1      21.459   5.334 101.939  1.00  0.00     0.047 A 
BRANCH  15  18
ATOM     18  O   UNL     1      19.826   6.614 103.199  1.00  0.00    -0.508 OA
ATOM     19  H   UNL     1      18.887   6.457 102.852  1.00  0.00     0.293 HD
ENDBRANCH  15  18
ENDBRANCH   1  12
BRANCH   2  20
ATOM     20  O   UNL     1      22.162   0.761 102.832  1.00  0.00    -0.502 OA
ATOM     21  H   UNL     1      21.878  -0.055 102.303  1.00  0.00     0.293 HD
ENDBRANCH   2  20
BRANCH   6  22
ATOM     22  O   UNL     1      26.956  -1.552 103.044  1.00  0.00    -0.507 OA
ATOM     23  H   UNL     1      26.206  -2.120 102.680  1.00  0.00     0.293 HD
ENDBRANCH   6  22
BRANCH   8  24
ATOM     24  O   UNL     1      29.773   2.326 102.769  1.00  0.00    -0.508 OA
ATOM     25  H   UNL     1      29.929   3.280 102.465  1.00  0.00     0.293 HD
ENDBRANCH   8  24
TORSDOF 5
ENDMDL
MODEL 4
REMARK VINA RESULT:    -5.823      2.537      3.081
REMARK INTER + INTRA:          -7.144
REMARK INTER:                  -6.883
REMARK INTRA:                  -0.261
REMARK UNBOUND:                -0.300
REMARK SMILES O=c1c(O)c(-c2ccc(O)cc2)oc2cc(O)cc(O)c12
REMARK SMILES IDX 5 1 3 2 2 3 1 4 21 5 19 6 18 7 16 8 15 9 14 10 13 11 6 12
REMARK SMILES IDX 7 13 8 14 9 15 12 16 11 17 10 18 4 20 20 22 17 24
REMARK H PARENT 10 19 4 21 20 23 17 25
REMARK Flexibility Score: inf
ROOT
ATOM      1  C   UNL     1      23.917   2.692 102.979  1.00  0.00     0.180 A 
ATOM      2  C   UNL     1      25.285   3.019 102.959  1.00  0.00     0.208 A 
ATOM      3  C   UNL     1      26.232   1.984 102.895  1.00  0.00     0.238 A 
ATOM      4  O   UNL     1      27.454   2.280 102.933  1.00  0.00    -0.285 OA
ATOM      5  C   UNL     1      25.799   0.637 102.833  1.00  0.00     0.111 A 
ATOM      6  C   UNL     1      26.670  -0.489 102.724  1.00  0.00     0.134 A 
ATOM      7  C   UNL     1      26.139  -1.783 102.802  1.00  0.00     0.093 A 
ATOM      8  C   UNL     1      24.763  -1.991 102.920  1.00  0.00     0.123 A 
ATOM      9  C   UNL     1      23.900  -0.898 102.967  1.00  0.00     0.094 A 
ATOM     10  C   UNL     1      24.402   0.405 102.928  1.00  0.00     0.146 A 
ATOM     11  O   UNL     1      23.546   1.417 102.986  1.00  0.00    -0.452 OA
ENDROOT
BRANCH   1  12
ATOM     12  C   UNL     1      22.860   3.728 103.021  1.00  0.00     0.021 A 
ATOM     13  C   UNL     1      22.497   4.452 101.871  1.00  0.00     0.016 A 
ATOM     14  C   UNL     1      21.478   5.408 101.930  1.00  0.00     0.047 A 
ATOM     15  C   UNL     1      20.803   5.644 103.132  1.00  0.00     0.115 A 
ATOM     16  C   UNL     1      22.162   3.955 104.219  1.00  0.00     0.016 A 
ATOM     17  C   UNL     1      21.144   4.913 104.275  1.00  0.00     0.047 A 
BRANCH  15  18
ATOM     18  O   UNL     1      19.791   6.601 103.175  1.00  0.00    -0.508 OA
ATOM     19  H   UNL     1      19.170   6.677 103.973  1.00  0.00     0.293 HD
ENDBRANCH  15  18
ENDBRANCH   1  12
BRANCH   2  20
ATOM     20  O   UNL     1      25.690   4.353 103.044  1.00  0.00    -0.502 OA
ATOM     21  H   UNL     1      25.042   5.107 103.242  1.00  0.00     0.293 HD
ENDBRANCH   2  20
BRANCH   6  22
ATOM     22  O   UNL     1      28.049  -0.392 102.512  1.00  0.00    -0.507 OA
ATOM     23  H   UNL     1      28.743  -0.391 103.244  1.00  0.00     0.293 HD
ENDBRANCH   6  22
BRANCH   8  24
ATOM     24  O   UNL     1      24.242  -3.281 102.982  1.00  0.00    -0.508 OA
ATOM     25  H   UNL     1      23.250  -3.458 102.876  1.00  0.00     0.293 HD
ENDBRANCH   8  24
TORSDOF 5
ENDMDL
MODEL 5
REMARK VINA RESULT:    -5.625      6.766      8.061
REMARK INTER + INTRA:          -6.912
REMARK INTER:                  -6.965
REMARK INTRA:                   0.053
REMARK UNBOUND:                -0.300
REMARK SMILES O=c1c(O)c(-c2ccc(O)cc2)oc2cc(O)cc(O)c12
REMARK SMILES IDX 5 1 3 2 2 3 1 4 21 5 19 6 18 7 16 8 15 9 14 10 13 11 6 12
REMARK SMILES IDX 7 13 8 14 9 15 12 16 11 17 10 18 4 20 20 22 17 24
REMARK H PARENT 10 19 4 21 20 23 17 25
REMARK Flexibility Score: inf
ROOT
ATOM      1  C   UNL     1      32.609   3.856 102.219  1.00  0.00     0.180 A 
ATOM      2  C   UNL     1      33.323   2.756 102.727  1.00  0.00     0.208 A 
ATOM      3  C   UNL     1      33.415   2.587 104.118  1.00  0.00     0.238 A 
ATOM      4  O   UNL     1      34.100   1.632 104.567  1.00  0.00    -0.285 OA
ATOM      5  C   UNL     1      32.779   3.511 104.983  1.00  0.00     0.111 A 
ATOM      6  C   UNL     1      32.773   3.415 106.407  1.00  0.00     0.134 A 
ATOM      7  C   UNL     1      32.224   4.456 107.167  1.00  0.00     0.093 A 
ATOM      8  C   UNL     1      31.623   5.557 106.553  1.00  0.00     0.123 A 
ATOM      9  C   UNL     1      31.571   5.630 105.162  1.00  0.00     0.094 A 
ATOM     10  C   UNL     1      32.143   4.626 104.378  1.00  0.00     0.146 A 
ATOM     11  O   UNL     1      32.080   4.740 103.056  1.00  0.00    -0.452 OA
ENDROOT
BRANCH   1  12
ATOM     12  C   UNL     1      32.448   4.086 100.765  1.00  0.00     0.021 A 
ATOM     13  C   UNL     1      32.076   3.045  99.895  1.00  0.00     0.016 A 
ATOM     14  C   UNL     1      31.904   3.293  98.530  1.00  0.00     0.047 A 
ATOM     15  C   UNL     1      32.089   4.581  98.019  1.00  0.00     0.115 A 
ATOM     16  C   UNL     1      32.610   5.382 100.249  1.00  0.00     0.016 A 
ATOM     17  C   UNL     1      32.440   5.626  98.882  1.00  0.00     0.047 A 
BRANCH  15  18
ATOM     18  O   UNL     1      31.917   4.811  96.656  1.00  0.00    -0.508 OA
ATOM     19  H   UNL     1      31.243   4.284  96.112  1.00  0.00     0.293 HD
ENDBRANCH  15  18
ENDBRANCH   1  12
BRANCH   2  20
ATOM     20  O   UNL     1      33.961   1.869 101.856  1.00  0.00    -0.502 OA
ATOM     21  H   UNL     1      34.690   1.236 102.163  1.00  0.00     0.293 HD
ENDBRANCH   2  20
BRANCH   6  22
ATOM     22  O   UNL     1      33.265   2.316 107.118  1.00  0.00    -0.507 OA
ATOM     23  H   UNL     1      33.210   2.209 108.119  1.00  0.00     0.293 HD
ENDBRANCH   6  22
BRANCH   8  24
ATOM     24  O   UNL     1      31.066   6.580 107.316  1.00  0.00    -0.508 OA
ATOM     25  H   UNL     1      30.387   6.390 108.043  1.00  0.00     0.293 HD
ENDBRANCH   8  24
TORSDOF 5
ENDMDL
MODEL 6
REMARK VINA RESULT:    -5.624      4.513      6.692
REMARK INTER + INTRA:          -6.911
REMARK INTER:                  -6.614
REMARK INTRA:                  -0.297
REMARK UNBOUND:                -0.300
REMARK SMILES O=c1c(O)c(-c2ccc(O)cc2)oc2cc(O)cc(O)c12
REMARK SMILES IDX 5 1 3 2 2 3 1 4 21 5 19 6 18 7 16 8 15 9 14 10 13 11 6 12
REMARK SMILES IDX 7 13 8 14 9 15 12 16 11 17 10 18 4 20 20 22 17 24
REMARK H PARENT 10 19 4 21 20 23 17 25
REMARK Flexibility Score: inf
ROOT
ATOM      1  C   UNL     1      30.592   2.321 102.482  1.00  0.00     0.180 A 
ATOM      2  C   UNL     1      31.470   3.041 101.653  1.00  0.00     0.208 A 
ATOM      3  C   UNL     1      32.276   4.042 102.219  1.00  0.00     0.238 A 
ATOM      4  O   UNL     1      33.020   4.720 101.463  1.00  0.00    -0.285 OA
ATOM      5  C   UNL     1      32.205   4.299 103.610  1.00  0.00     0.111 A 
ATOM      6  C   UNL     1      33.005   5.262 104.297  1.00  0.00     0.134 A 
ATOM      7  C   UNL     1      32.759   5.524 105.651  1.00  0.00     0.093 A 
ATOM      8  C   UNL     1      31.787   4.812 106.357  1.00  0.00     0.123 A 
ATOM      9  C   UNL     1      31.043   3.828 105.709  1.00  0.00     0.094 A 
ATOM     10  C   UNL     1      31.240   3.570 104.351  1.00  0.00     0.146 A 
ATOM     11  O   UNL     1      30.502   2.631 103.770  1.00  0.00    -0.452 OA
ENDROOT
BRANCH   1  12
ATOM     12  C   UNL     1      29.730   1.236 101.963  1.00  0.00     0.021 A 
ATOM     13  C   UNL     1      30.199  -0.087 101.859  1.00  0.00     0.016 A 
ATOM     14  C   UNL     1      29.358  -1.100 101.389  1.00  0.00     0.047 A 
ATOM     15  C   UNL     1      28.038  -0.809 101.030  1.00  0.00     0.115 A 
ATOM     16  C   UNL     1      28.397   1.516 101.620  1.00  0.00     0.016 A 
ATOM     17  C   UNL     1      27.558   0.500 101.149  1.00  0.00     0.047 A 
BRANCH  15  18
ATOM     18  O   UNL     1      27.213  -1.829 100.561  1.00  0.00    -0.508 OA
ATOM     19  H   UNL     1      27.394  -2.293  99.678  1.00  0.00     0.293 HD
ENDBRANCH  15  18
ENDBRANCH   1  12
BRANCH   2  20
ATOM     20  O   UNL     1      31.507   2.786 100.280  1.00  0.00    -0.502 OA
ATOM     21  H   UNL     1      32.190   3.214  99.665  1.00  0.00     0.293 HD
ENDBRANCH   2  20
BRANCH   6  22
ATOM     22  O   UNL     1      34.062   5.963 103.708  1.00  0.00    -0.507 OA
ATOM     23  H   UNL     1      33.959   6.648 102.976  1.00  0.00     0.293 HD
ENDBRANCH   6  22
BRANCH   8  24
ATOM     24  O   UNL     1      31.560   5.068 107.707  1.00  0.00    -0.508 OA
ATOM     25  H   UNL     1      32.272   5.485 108.296  1.00  0.00     0.293 HD
ENDBRANCH   8  24
TORSDOF 5
ENDMDL
MODEL 7
REMARK VINA RESULT:    -5.551      4.252      6.318
REMARK INTER + INTRA:          -6.825
REMARK INTER:                  -6.644
REMARK INTRA:                  -0.181
REMARK UNBOUND:                -0.300
REMARK SMILES O=c1c(O)c(-c2ccc(O)cc2)oc2cc(O)cc(O)c12
REMARK SMILES IDX 5 1 3 2 2 3 1 4 21 5 19 6 18 7 16 8 15 9 14 10 13 11 6 12
REMARK SMILES IDX 7 13 8 14 9 15 12 16 11 17 10 18 4 20 20 22 17 24
REMARK H PARENT 10 19 4 21 20 23 17 25
REMARK Flexibility Score: inf
ROOT
ATOM      1  C   UNL     1      29.744   2.338 103.880  1.00  0.00     0.180 A 
ATOM      2  C   UNL     1      29.127   1.915 105.070  1.00  0.00     0.208 A 
ATOM      3  C   UNL     1      28.059   1.005 104.997  1.00  0.00     0.238 A 
ATOM      4  O   UNL     1      27.475   0.672 106.061  1.00  0.00    -0.285 OA
ATOM      5  C   UNL     1      27.633   0.520 103.737  1.00  0.00     0.111 A 
ATOM      6  C   UNL     1      26.588  -0.434 103.548  1.00  0.00     0.134 A 
ATOM      7  C   UNL     1      26.163  -0.745 102.249  1.00  0.00     0.093 A 
ATOM      8  C   UNL     1      26.789  -0.185 101.133  1.00  0.00     0.123 A 
ATOM      9  C   UNL     1      27.850   0.702 101.308  1.00  0.00     0.094 A 
ATOM     10  C   UNL     1      28.272   1.059 102.590  1.00  0.00     0.146 A 
ATOM     11  O   UNL     1      29.279   1.915 102.711  1.00  0.00    -0.452 OA
ENDROOT
BRANCH   1  12
ATOM     12  C   UNL     1      30.891   3.275 103.879  1.00  0.00     0.021 A 
ATOM     13  C   UNL     1      32.181   2.854 103.506  1.00  0.00     0.016 A 
ATOM     14  C   UNL     1      33.243   3.763 103.487  1.00  0.00     0.047 A 
ATOM     15  C   UNL     1      33.030   5.102 103.828  1.00  0.00     0.115 A 
ATOM     16  C   UNL     1      30.680   4.626 104.198  1.00  0.00     0.016 A 
ATOM     17  C   UNL     1      31.745   5.533 104.180  1.00  0.00     0.047 A 
BRANCH  15  18
ATOM     18  O   UNL     1      34.099   5.996 103.807  1.00  0.00    -0.508 OA
ATOM     19  H   UNL     1      34.456   6.372 102.936  1.00  0.00     0.293 HD
ENDBRANCH  15  18
ENDBRANCH   1  12
BRANCH   2  20
ATOM     20  O   UNL     1      29.548   2.424 106.301  1.00  0.00    -0.502 OA
ATOM     21  H   UNL     1      29.064   3.178 106.772  1.00  0.00     0.293 HD
ENDBRANCH   2  20
BRANCH   6  22
ATOM     22  O   UNL     1      25.958  -1.120 104.591  1.00  0.00    -0.507 OA
ATOM     23  H   UNL     1      25.572  -2.049 104.517  1.00  0.00     0.293 HD
ENDBRANCH   6  22
BRANCH   8  24
ATOM     24  O   UNL     1      26.370  -0.511  99.846  1.00  0.00    -0.508 OA
ATOM     25  H   UNL     1      25.907  -1.389  99.645  1.00  0.00     0.293 HD
ENDBRANCH   8  24
TORSDOF 5
ENDMDL
MODEL 8
REMARK VINA RESULT:    -5.431      9.202     10.345
REMARK INTER + INTRA:          -6.684
REMARK INTER:                  -6.590
REMARK INTRA:                  -0.094
REMARK UNBOUND:                -0.300
REMARK SMILES O=c1c(O)c(-c2ccc(O)cc2)oc2cc(O)cc(O)c12
REMARK SMILES IDX 5 1 3 2 2 3 1 4 21 5 19 6 18 7 16 8 15 9 14 10 13 11 6 12
REMARK SMILES IDX 7 13 8 14 9 15 12 16 11 17 10 18 4 20 20 22 17 24
REMARK H PARENT 10 19 4 21 20 23 17 25
REMARK Flexibility Score: inf
ROOT
ATOM      1  C   UNL     1      22.804  -5.632 102.390  1.00  0.00     0.180 A 
ATOM      2  C   UNL     1      24.204  -5.746 102.460  1.00  0.00     0.208 A 
ATOM      3  C   UNL     1      24.809  -5.948 103.712  1.00  0.00     0.238 A 
ATOM      4  O   UNL     1      26.065  -5.995 103.776  1.00  0.00    -0.285 OA
ATOM      5  C   UNL     1      24.005  -6.051 104.873  1.00  0.00     0.111 A 
ATOM      6  C   UNL     1      24.508  -6.296 106.186  1.00  0.00     0.134 A 
ATOM      7  C   UNL     1      23.635  -6.248 107.280  1.00  0.00     0.093 A 
ATOM      8  C   UNL     1      22.268  -6.028 107.102  1.00  0.00     0.123 A 
ATOM      9  C   UNL     1      21.759  -5.847 105.817  1.00  0.00     0.094 A 
ATOM     10  C   UNL     1      22.610  -5.853 104.710  1.00  0.00     0.146 A 
ATOM     11  O   UNL     1      22.084  -5.666 103.505  1.00  0.00    -0.452 OA
ENDROOT
BRANCH   1  12
ATOM     12  C   UNL     1      22.093  -5.442 101.105  1.00  0.00     0.021 A 
ATOM     13  C   UNL     1      22.212  -6.374 100.057  1.00  0.00     0.016 A 
ATOM     14  C   UNL     1      21.510  -6.186  98.862  1.00  0.00     0.047 A 
ATOM     15  C   UNL     1      20.675  -5.076  98.703  1.00  0.00     0.115 A 
ATOM     16  C   UNL     1      21.236  -4.342 100.945  1.00  0.00     0.016 A 
ATOM     17  C   UNL     1      20.537  -4.156  99.748  1.00  0.00     0.047 A 
BRANCH  15  18
ATOM     18  O   UNL     1      19.985  -4.902  97.505  1.00  0.00    -0.508 OA
ATOM     19  H   UNL     1      19.050  -4.511  97.486  1.00  0.00     0.293 HD
ENDBRANCH  15  18
ENDBRANCH   1  12
BRANCH   2  20
ATOM     20  O   UNL     1      24.979  -5.619 101.305  1.00  0.00    -0.502 OA
ATOM     21  H   UNL     1      25.889  -6.053 101.210  1.00  0.00     0.293 HD
ENDBRANCH   2  20
BRANCH   6  22
ATOM     22  O   UNL     1      25.841  -6.616 106.465  1.00  0.00    -0.507 OA
ATOM     23  H   UNL     1      26.218  -6.748 107.391  1.00  0.00     0.293 HD
ENDBRANCH   6  22
BRANCH   8  24
ATOM     24  O   UNL     1      21.404  -5.997 108.194  1.00  0.00    -0.508 OA
ATOM     25  H   UNL     1      21.676  -5.574 109.073  1.00  0.00     0.293 HD
ENDBRANCH   8  24
TORSDOF 5
ENDMDL
MODEL 9
REMARK VINA RESULT:    -5.360      3.851      5.148
REMARK INTER + INTRA:          -6.601
REMARK INTER:                  -6.327
REMARK INTRA:                  -0.274
REMARK UNBOUND:                -0.300
REMARK SMILES O=c1c(O)c(-c2ccc(O)cc2)oc2cc(O)cc(O)c12
REMARK SMILES IDX 5 1 3 2 2 3 1 4 21 5 19 6 18 7 16 8 15 9 14 10 13 11 6 12
REMARK SMILES IDX 7 13 8 14 9 15 12 16 11 17 10 18 4 20 20 22 17 24
REMARK H PARENT 10 19 4 21 20 23 17 25
REMARK Flexibility Score: inf
ROOT
ATOM      1  C   UNL     1      29.564   1.891 103.141  1.00  0.00     0.180 A 
ATOM      2  C   UNL     1      29.898   3.082 103.811  1.00  0.00     0.208 A 
ATOM      3  C   UNL     1      31.036   3.796 103.403  1.00  0.00     0.238 A 
ATOM      4  O   UNL     1      31.361   4.832 104.040  1.00  0.00    -0.285 OA
ATOM      5  C   UNL     1      31.816   3.320 102.321  1.00  0.00     0.111 A 
ATOM      6  C   UNL     1      32.965   3.985 101.797  1.00  0.00     0.134 A 
ATOM      7  C   UNL     1      33.736   3.357 100.810  1.00  0.00     0.093 A 
ATOM      8  C   UNL     1      33.362   2.119 100.283  1.00  0.00     0.123 A 
ATOM      9  C   UNL     1      32.207   1.491 100.746  1.00  0.00     0.094 A 
ATOM     10  C   UNL     1      31.439   2.075 101.755  1.00  0.00     0.146 A 
ATOM     11  O   UNL     1      30.352   1.437 102.174  1.00  0.00    -0.452 OA
ENDROOT
BRANCH   1  12
ATOM     12  C   UNL     1      28.367   1.097 103.498  1.00  0.00     0.021 A 
ATOM     13  C   UNL     1      27.167   1.214 102.773  1.00  0.00     0.016 A 
ATOM     14  C   UNL     1      26.057   0.435 103.113  1.00  0.00     0.047 A 
ATOM     15  C   UNL     1      26.134  -0.478 104.169  1.00  0.00     0.115 A 
ATOM     16  C   UNL     1      28.443   0.162 104.543  1.00  0.00     0.016 A 
ATOM     17  C   UNL     1      27.331  -0.616 104.882  1.00  0.00     0.047 A 
BRANCH  15  18
ATOM     18  O   UNL     1      25.019  -1.247 104.497  1.00  0.00    -0.508 OA
ATOM     19  H   UNL     1      24.099  -1.027 104.131  1.00  0.00     0.293 HD
ENDBRANCH  15  18
ENDBRANCH   1  12
BRANCH   2  20
ATOM     20  O   UNL     1      29.128   3.521 104.890  1.00  0.00    -0.502 OA
ATOM     21  H   UNL     1      29.372   3.318 105.852  1.00  0.00     0.293 HD
ENDBRANCH   2  20
BRANCH   6  22
ATOM     22  O   UNL     1      33.375   5.263 102.189  1.00  0.00    -0.507 OA
ATOM     23  H   UNL     1      32.840   5.882 102.779  1.00  0.00     0.293 HD
ENDBRANCH   6  22
BRANCH   8  24
ATOM     24  O   UNL     1      34.125   1.509  99.290  1.00  0.00    -0.508 OA
ATOM     25  H   UNL     1      34.172   0.501  99.201  1.00  0.00     0.293 HD
ENDBRANCH   8  24
TORSDOF 5
ENDMDL
