MODEL 1
REMARK VINA RESULT:    -3.556      0.000      0.000
REMARK INTER + INTRA:         -11.168
REMARK INTER:                  -8.961
REMARK INTRA:                  -2.207
REMARK UNBOUND:                -2.207
REMARK SMILES CCCCCCCCCCCCCCCCCCCCCCCCCCCC(=O)[O-]
REMARK SMILES IDX 15 1 16 2 17 3 18 4 19 5 20 6 21 7 22 8 23 9 24 10 25 11
REMARK SMILES IDX 26 12 27 13 28 14 29 15 30 16 14 17 13 18 12 19 11 20 10 21
REMARK SMILES IDX 9 22 8 23 7 24 6 25 5 26 4 27 3 28 2 29 1 30
REMARK H PARENT
REMARK Flexibility Score: inf
ROOT
ATOM      1  C   UNL     1      -5.772  16.600  -9.043  1.00  0.00     0.000 C 
ENDROOT
BRANCH   1   2
ATOM      2  C   UNL     1      -4.491  16.330  -9.849  1.00  0.00     0.000 C 
BRANCH   2   3
ATOM      3  C   UNL     1      -4.274  17.341 -10.990  1.00  0.00     0.000 C 
BRANCH   3   4
ATOM      4  C   UNL     1      -5.561  18.043 -11.476  1.00  0.00     0.000 C 
BRANCH   4   5
ATOM      5  C   UNL     1      -5.466  19.580 -11.594  1.00  0.00     0.000 C 
BRANCH   5   6
ATOM      6  C   UNL     1      -6.793  20.349 -11.437  1.00  0.00     0.000 C 
BRANCH   6   7
ATOM      7  C   UNL     1      -7.300  21.058 -12.709  1.00  0.00     0.000 C 
BRANCH   7   8
ATOM      8  C   UNL     1      -7.389  20.163 -13.960  1.00  0.00     0.000 C 
BRANCH   8   9
ATOM      9  C   UNL     1      -8.820  19.781 -14.385  1.00  0.00     0.000 C 
BRANCH   9  10
ATOM     10  C   UNL     1      -9.390  18.559 -13.630  1.00  0.00     0.000 C 
BRANCH  10  11
ATOM     11  C   UNL     1     -10.929  18.555 -13.600  1.00  0.00     0.000 C 
BRANCH  11  12
ATOM     12  C   UNL     1     -11.504  18.358 -12.184  1.00  0.00     0.006 C 
BRANCH  12  13
ATOM     13  C   UNL     1     -10.571  18.844 -11.062  1.00  0.00     0.053 C 
BRANCH  13  14
ATOM     14  C   UNL     1     -10.803  20.279 -10.704  1.00  0.00     0.041 C 
ATOM     15  O   UNL     1     -11.835  20.877 -11.111  1.00  0.00    -0.550 OA
ATOM     16  O   UNL     1      -9.873  20.964  -9.932  1.00  0.00    -0.550 OA
ENDBRANCH  13  14
ENDBRANCH  12  13
ENDBRANCH  11  12
ENDBRANCH  10  11
ENDBRANCH   9  10
ENDBRANCH   8   9
ENDBRANCH   7   8
ENDBRANCH   6   7
ENDBRANCH   5   6
ENDBRANCH   4   5
ENDBRANCH   3   4
ENDBRANCH   2   3
ENDBRANCH   1   2
BRANCH   1  17
ATOM     17  C   UNL     1      -5.642  16.231  -7.552  1.00  0.00     0.000 C 
BRANCH  17  18
ATOM     18  C   UNL     1      -5.333  17.406  -6.599  1.00  0.00     0.000 C 
BRANCH  18  19
ATOM     19  C   UNL     1      -4.724  18.657  -7.258  1.00  0.00     0.000 C 
BRANCH  19  20
ATOM     20  C   UNL     1      -5.685  19.858  -7.276  1.00  0.00     0.000 C 
BRANCH  20  21
ATOM     21  C   UNL     1      -5.428  20.843  -6.119  1.00  0.00     0.000 C 
BRANCH  21  22
ATOM     22  C   UNL     1      -4.302  20.431  -5.148  1.00  0.00    -0.000 C 
BRANCH  22  23
ATOM     23  C   UNL     1      -4.524  20.844  -3.681  1.00  0.00    -0.000 C 
BRANCH  23  24
ATOM     24  C   UNL     1      -4.323  19.714  -2.653  1.00  0.00    -0.000 C 
BRANCH  24  25
ATOM     25  C   UNL     1      -5.179  19.874  -1.375  1.00  0.00    -0.000 C 
BRANCH  25  26
ATOM     26  C   UNL     1      -4.408  19.664  -0.055  1.00  0.00    -0.000 C 
BRANCH  26  27
ATOM     27  C   UNL     1      -4.770  20.648   1.075  1.00  0.00    -0.000 C 
BRANCH  27  28
ATOM     28  C   UNL     1      -5.858  20.106   2.019  1.00  0.00    -0.000 C 
BRANCH  28  29
ATOM     29  C   UNL     1      -5.328  19.010   2.957  1.00  0.00    -0.003 C 
ATOM     30  C   UNL     1      -6.383  18.529   3.955  1.00  0.00     0.004 C 
ENDBRANCH  28  29
ENDBRANCH  27  28
ENDBRANCH  26  27
ENDBRANCH  25  26
ENDBRANCH  24  25
ENDBRANCH  23  24
ENDBRANCH  22  23
ENDBRANCH  21  22
ENDBRANCH  20  21
ENDBRANCH  19  20
ENDBRANCH  18  19
ENDBRANCH  17  18
ENDBRANCH   1  17
TORSDOF 26
ENDMDL
MODEL 2
REMARK VINA RESULT:    -3.464      1.801      2.857
REMARK INTER + INTRA:         -10.937
REMARK INTER:                  -9.021
REMARK INTRA:                  -1.916
REMARK UNBOUND:                -2.207
REMARK SMILES CCCCCCCCCCCCCCCCCCCCCCCCCCCC(=O)[O-]
REMARK SMILES IDX 15 1 16 2 17 3 18 4 19 5 20 6 21 7 22 8 23 9 24 10 25 11
REMARK SMILES IDX 26 12 27 13 28 14 29 15 30 16 14 17 13 18 12 19 11 20 10 21
REMARK SMILES IDX 9 22 8 23 7 24 6 25 5 26 4 27 3 28 2 29 1 30
REMARK H PARENT
REMARK Flexibility Score: inf
ROOT
ATOM      1  C   UNL     1      -6.152  16.950  -7.113  1.00  0.00     0.000 C 
ENDROOT
BRANCH   1   2
ATOM      2  C   UNL     1      -6.150  17.610  -8.503  1.00  0.00     0.000 C 
BRANCH   2   3
ATOM      3  C   UNL     1      -4.877  17.301  -9.312  1.00  0.00     0.000 C 
BRANCH   3   4
ATOM      4  C   UNL     1      -5.125  17.019 -10.811  1.00  0.00     0.000 C 
BRANCH   4   5
ATOM      5  C   UNL     1      -4.999  18.247 -11.738  1.00  0.00     0.000 C 
BRANCH   5   6
ATOM      6  C   UNL     1      -3.998  18.107 -12.904  1.00  0.00     0.000 C 
BRANCH   6   7
ATOM      7  C   UNL     1      -4.200  19.096 -14.070  1.00  0.00     0.000 C 
BRANCH   7   8
ATOM      8  C   UNL     1      -5.399  18.784 -14.986  1.00  0.00     0.000 C 
BRANCH   8   9
ATOM      9  C   UNL     1      -6.558  19.795 -14.905  1.00  0.00     0.000 C 
BRANCH   9  10
ATOM     10  C   UNL     1      -7.744  19.319 -14.036  1.00  0.00     0.000 C 
BRANCH  10  11
ATOM     11  C   UNL     1      -7.810  20.049 -12.683  1.00  0.00     0.000 C 
BRANCH  11  12
ATOM     12  C   UNL     1      -9.075  19.703 -11.872  1.00  0.00     0.006 C 
BRANCH  12  13
ATOM     13  C   UNL     1      -8.943  18.423 -11.031  1.00  0.00     0.053 C 
BRANCH  13  14
ATOM     14  C   UNL     1      -9.896  17.352 -11.463  1.00  0.00     0.041 C 
ATOM     15  O   UNL     1     -10.194  16.413 -10.678  1.00  0.00    -0.550 OA
ATOM     16  O   UNL     1     -10.445  17.381 -12.739  1.00  0.00    -0.550 OA
ENDBRANCH  13  14
ENDBRANCH  12  13
ENDBRANCH  11  12
ENDBRANCH  10  11
ENDBRANCH   9  10
ENDBRANCH   8   9
ENDBRANCH   7   8
ENDBRANCH   6   7
ENDBRANCH   5   6
ENDBRANCH   4   5
ENDBRANCH   3   4
ENDBRANCH   2   3
ENDBRANCH   1   2
BRANCH   1  17
ATOM     17  C   UNL     1      -4.740  16.759  -6.528  1.00  0.00     0.000 C 
BRANCH  17  18
ATOM     18  C   UNL     1      -4.334  17.763  -5.426  1.00  0.00     0.000 C 
BRANCH  18  19
ATOM     19  C   UNL     1      -4.331  19.245  -5.843  1.00  0.00     0.000 C 
BRANCH  19  20
ATOM     20  C   UNL     1      -3.958  20.194  -4.690  1.00  0.00     0.000 C 
BRANCH  20  21
ATOM     21  C   UNL     1      -4.045  19.517  -3.310  1.00  0.00     0.000 C 
BRANCH  21  22
ATOM     22  C   UNL     1      -4.965  20.223  -2.291  1.00  0.00    -0.000 C 
BRANCH  22  23
ATOM     23  C   UNL     1      -4.806  19.751  -0.834  1.00  0.00    -0.000 C 
BRANCH  23  24
ATOM     24  C   UNL     1      -5.148  20.811   0.231  1.00  0.00    -0.000 C 
BRANCH  24  25
ATOM     25  C   UNL     1      -5.665  20.215   1.561  1.00  0.00    -0.000 C 
BRANCH  25  26
ATOM     26  C   UNL     1      -4.721  19.182   2.212  1.00  0.00    -0.000 C 
BRANCH  26  27
ATOM     27  C   UNL     1      -4.874  19.031   3.738  1.00  0.00    -0.000 C 
BRANCH  27  28
ATOM     28  C   UNL     1      -6.195  18.354   4.146  1.00  0.00    -0.000 C 
BRANCH  28  29
ATOM     29  C   UNL     1      -5.983  16.932   4.688  1.00  0.00    -0.003 C 
ATOM     30  C   UNL     1      -4.504  16.579   4.854  1.00  0.00     0.004 C 
ENDBRANCH  28  29
ENDBRANCH  27  28
ENDBRANCH  26  27
ENDBRANCH  25  26
ENDBRANCH  24  25
ENDBRANCH  23  24
ENDBRANCH  22  23
ENDBRANCH  21  22
ENDBRANCH  20  21
ENDBRANCH  19  20
ENDBRANCH  18  19
ENDBRANCH  17  18
ENDBRANCH   1  17
TORSDOF 26
ENDMDL
MODEL 3
REMARK VINA RESULT:    -3.265      1.766      2.313
REMARK INTER + INTRA:         -10.435
REMARK INTER:                  -8.273
REMARK INTRA:                  -2.161
REMARK UNBOUND:                -2.207
REMARK SMILES CCCCCCCCCCCCCCCCCCCCCCCCCCCC(=O)[O-]
REMARK SMILES IDX 15 1 16 2 17 3 18 4 19 5 20 6 21 7 22 8 23 9 24 10 25 11
REMARK SMILES IDX 26 12 27 13 28 14 29 15 30 16 14 17 13 18 12 19 11 20 10 21
REMARK SMILES IDX 9 22 8 23 7 24 6 25 5 26 4 27 3 28 2 29 1 30
REMARK H PARENT
REMARK Flexibility Score: inf
ROOT
ATOM      1  C   UNL     1      -5.526  16.939 -10.138  1.00  0.00     0.000 C 
ENDROOT
BRANCH   1   2
ATOM      2  C   UNL     1      -4.183  16.983 -10.885  1.00  0.00     0.000 C 
BRANCH   2   3
ATOM      3  C   UNL     1      -4.191  17.958 -12.077  1.00  0.00     0.000 C 
BRANCH   3   4
ATOM      4  C   UNL     1      -5.176  19.139 -11.932  1.00  0.00     0.000 C 
BRANCH   4   5
ATOM      5  C   UNL     1      -4.573  20.423 -11.321  1.00  0.00     0.000 C 
BRANCH   5   6
ATOM      6  C   UNL     1      -5.025  20.759  -9.885  1.00  0.00     0.000 C 
BRANCH   6   7
ATOM      7  C   UNL     1      -6.335  20.085  -9.430  1.00  0.00     0.000 C 
BRANCH   7   8
ATOM      8  C   UNL     1      -7.623  20.768  -9.927  1.00  0.00     0.000 C 
BRANCH   8   9
ATOM      9  C   UNL     1      -8.502  19.903 -10.850  1.00  0.00     0.000 C 
BRANCH   9  10
ATOM     10  C   UNL     1      -9.613  20.693 -11.577  1.00  0.00     0.000 C 
BRANCH  10  11
ATOM     11  C   UNL     1     -10.999  20.472 -10.946  1.00  0.00     0.000 C 
BRANCH  11  12
ATOM     12  C   UNL     1     -12.127  20.366 -11.991  1.00  0.00     0.006 C 
BRANCH  12  13
ATOM     13  C   UNL     1     -11.730  19.589 -13.257  1.00  0.00     0.053 C 
BRANCH  13  14
ATOM     14  C   UNL     1     -11.427  18.150 -12.976  1.00  0.00     0.041 C 
ATOM     15  O   UNL     1     -10.274  17.690 -13.193  1.00  0.00    -0.550 OA
ATOM     16  O   UNL     1     -12.421  17.311 -12.489  1.00  0.00    -0.550 OA
ENDBRANCH  13  14
ENDBRANCH  12  13
ENDBRANCH  11  12
ENDBRANCH  10  11
ENDBRANCH   9  10
ENDBRANCH   8   9
ENDBRANCH   7   8
ENDBRANCH   6   7
ENDBRANCH   5   6
ENDBRANCH   4   5
ENDBRANCH   3   4
ENDBRANCH   2   3
ENDBRANCH   1   2
BRANCH   1  17
ATOM     17  C   UNL     1      -5.477  16.100  -8.846  1.00  0.00     0.000 C 
BRANCH  17  18
ATOM     18  C   UNL     1      -5.872  16.844  -7.552  1.00  0.00     0.000 C 
BRANCH  18  19
ATOM     19  C   UNL     1      -4.704  17.262  -6.640  1.00  0.00     0.000 C 
BRANCH  19  20
ATOM     20  C   UNL     1      -4.002  18.548  -7.110  1.00  0.00     0.000 C 
BRANCH  20  21
ATOM     21  C   UNL     1      -3.877  19.599  -5.991  1.00  0.00     0.000 C 
BRANCH  21  22
ATOM     22  C   UNL     1      -4.620  19.254  -4.683  1.00  0.00    -0.000 C 
BRANCH  22  23
ATOM     23  C   UNL     1      -4.774  20.425  -3.694  1.00  0.00    -0.000 C 
BRANCH  23  24
ATOM     24  C   UNL     1      -4.029  20.247  -2.358  1.00  0.00    -0.000 C 
BRANCH  24  25
ATOM     25  C   UNL     1      -4.919  19.705  -1.215  1.00  0.00    -0.000 C 
BRANCH  25  26
ATOM     26  C   UNL     1      -4.334  19.899   0.201  1.00  0.00    -0.000 C 
BRANCH  26  27
ATOM     27  C   UNL     1      -5.379  20.108   1.314  1.00  0.00    -0.000 C 
BRANCH  27  28
ATOM     28  C   UNL     1      -4.806  19.885   2.725  1.00  0.00    -0.000 C 
BRANCH  28  29
ATOM     29  C   UNL     1      -5.893  19.918   3.811  1.00  0.00    -0.003 C 
ATOM     30  C   UNL     1      -6.608  18.575   3.970  1.00  0.00     0.004 C 
ENDBRANCH  28  29
ENDBRANCH  27  28
ENDBRANCH  26  27
ENDBRANCH  25  26
ENDBRANCH  24  25
ENDBRANCH  23  24
ENDBRANCH  22  23
ENDBRANCH  21  22
ENDBRANCH  20  21
ENDBRANCH  19  20
ENDBRANCH  18  19
ENDBRANCH  17  18
ENDBRANCH   1  17
TORSDOF 26
ENDMDL
MODEL 4
REMARK VINA RESULT:    -3.046      4.039      8.507
REMARK INTER + INTRA:          -9.883
REMARK INTER:                  -7.064
REMARK INTRA:                  -2.819
REMARK UNBOUND:                -2.207
REMARK SMILES CCCCCCCCCCCCCCCCCCCCCCCCCCCC(=O)[O-]
REMARK SMILES IDX 15 1 16 2 17 3 18 4 19 5 20 6 21 7 22 8 23 9 24 10 25 11
REMARK SMILES IDX 26 12 27 13 28 14 29 15 30 16 14 17 13 18 12 19 11 20 10 21
REMARK SMILES IDX 9 22 8 23 7 24 6 25 5 26 4 27 3 28 2 29 1 30
REMARK H PARENT
REMARK Flexibility Score: inf
ROOT
ATOM      1  C   UNL     1      -4.891  16.931  -7.193  1.00  0.00     0.000 C 
ENDROOT
BRANCH   1   2
ATOM      2  C   UNL     1      -3.887  17.078  -8.348  1.00  0.00     0.000 C 
BRANCH   2   3
ATOM      3  C   UNL     1      -4.367  16.411  -9.650  1.00  0.00     0.000 C 
BRANCH   3   4
ATOM      4  C   UNL     1      -4.967  17.386 -10.686  1.00  0.00     0.000 C 
BRANCH   4   5
ATOM      5  C   UNL     1      -3.973  17.912 -11.745  1.00  0.00     0.000 C 
BRANCH   5   6
ATOM      6  C   UNL     1      -4.597  18.389 -13.072  1.00  0.00     0.000 C 
BRANCH   6   7
ATOM      7  C   UNL     1      -4.185  19.804 -13.525  1.00  0.00     0.000 C 
BRANCH   7   8
ATOM      8  C   UNL     1      -5.357  20.749 -13.850  1.00  0.00     0.000 C 
BRANCH   8   9
ATOM      9  C   UNL     1      -6.540  20.678 -12.866  1.00  0.00     0.000 C 
BRANCH   9  10
ATOM     10  C   UNL     1      -7.867  20.228 -13.517  1.00  0.00     0.000 C 
BRANCH  10  11
ATOM     11  C   UNL     1      -8.000  18.696 -13.580  1.00  0.00     0.000 C 
BRANCH  11  12
ATOM     12  C   UNL     1      -9.429  18.201 -13.282  1.00  0.00     0.006 C 
BRANCH  12  13
ATOM     13  C   UNL     1      -9.610  17.647 -11.860  1.00  0.00     0.053 C 
BRANCH  13  14
ATOM     14  C   UNL     1     -10.861  16.837 -11.714  1.00  0.00     0.041 C 
ATOM     15  O   UNL     1     -11.650  16.707 -12.689  1.00  0.00    -0.550 OA
ATOM     16  O   UNL     1     -11.165  16.237 -10.499  1.00  0.00    -0.550 OA
ENDBRANCH  13  14
ENDBRANCH  12  13
ENDBRANCH  11  12
ENDBRANCH  10  11
ENDBRANCH   9  10
ENDBRANCH   8   9
ENDBRANCH   7   8
ENDBRANCH   6   7
ENDBRANCH   5   6
ENDBRANCH   4   5
ENDBRANCH   3   4
ENDBRANCH   2   3
ENDBRANCH   1   2
BRANCH   1  17
ATOM     17  C   UNL     1      -4.824  18.087  -6.177  1.00  0.00     0.000 C 
BRANCH  17  18
ATOM     18  C   UNL     1      -4.776  19.506  -6.783  1.00  0.00     0.000 C 
BRANCH  18  19
ATOM     19  C   UNL     1      -6.142  20.152  -7.076  1.00  0.00     0.000 C 
BRANCH  19  20
ATOM     20  C   UNL     1      -6.429  20.301  -8.581  1.00  0.00     0.000 C 
BRANCH  20  21
ATOM     21  C   UNL     1      -7.717  21.097  -8.865  1.00  0.00     0.000 C 
BRANCH  21  22
ATOM     22  C   UNL     1      -8.678  20.444  -9.881  1.00  0.00    -0.000 C 
BRANCH  22  23
ATOM     23  C   UNL     1     -10.163  20.807  -9.698  1.00  0.00    -0.000 C 
BRANCH  23  24
ATOM     24  C   UNL     1     -11.119  20.160 -10.719  1.00  0.00    -0.000 C 
BRANCH  24  25
ATOM     25  C   UNL     1     -11.590  21.125 -11.832  1.00  0.00    -0.000 C 
BRANCH  25  26
ATOM     26  C   UNL     1     -11.549  20.532 -13.256  1.00  0.00    -0.000 C 
BRANCH  26  27
ATOM     27  C   UNL     1     -12.613  21.085 -14.223  1.00  0.00    -0.000 C 
BRANCH  27  28
ATOM     28  C   UNL     1     -13.679  20.043 -14.605  1.00  0.00    -0.000 C 
BRANCH  28  29
ATOM     29  C   UNL     1     -15.109  20.576 -14.434  1.00  0.00    -0.003 C 
ATOM     30  C   UNL     1     -15.382  21.088 -13.018  1.00  0.00     0.004 C 
ENDBRANCH  28  29
ENDBRANCH  27  28
ENDBRANCH  26  27
ENDBRANCH  25  26
ENDBRANCH  24  25
ENDBRANCH  23  24
ENDBRANCH  22  23
ENDBRANCH  21  22
ENDBRANCH  20  21
ENDBRANCH  19  20
ENDBRANCH  18  19
ENDBRANCH  17  18
ENDBRANCH   1  17
TORSDOF 26
ENDMDL
MODEL 5
REMARK VINA RESULT:    -2.969      3.705      6.438
REMARK INTER + INTRA:          -9.688
REMARK INTER:                  -6.184
REMARK INTRA:                  -3.503
REMARK UNBOUND:                -2.207
REMARK SMILES CCCCCCCCCCCCCCCCCCCCCCCCCCCC(=O)[O-]
REMARK SMILES IDX 15 1 16 2 17 3 18 4 19 5 20 6 21 7 22 8 23 9 24 10 25 11
REMARK SMILES IDX 26 12 27 13 28 14 29 15 30 16 14 17 13 18 12 19 11 20 10 21
REMARK SMILES IDX 9 22 8 23 7 24 6 25 5 26 4 27 3 28 2 29 1 30
REMARK H PARENT
REMARK Flexibility Score: inf
ROOT
ATOM      1  C   UNL     1      -6.264  16.464  -9.660  1.00  0.00     0.000 C 
ENDROOT
BRANCH   1   2
ATOM      2  C   UNL     1      -4.831  16.234 -10.169  1.00  0.00     0.000 C 
BRANCH   2   3
ATOM      3  C   UNL     1      -4.461  17.144 -11.355  1.00  0.00     0.000 C 
BRANCH   3   4
ATOM      4  C   UNL     1      -3.893  18.522 -10.951  1.00  0.00     0.000 C 
BRANCH   4   5
ATOM      5  C   UNL     1      -4.950  19.628 -10.732  1.00  0.00     0.000 C 
BRANCH   5   6
ATOM      6  C   UNL     1      -5.180  20.581 -11.922  1.00  0.00     0.000 C 
BRANCH   6   7
ATOM      7  C   UNL     1      -4.201  20.413 -13.102  1.00  0.00     0.000 C 
BRANCH   7   8
ATOM      8  C   UNL     1      -4.839  19.903 -14.408  1.00  0.00     0.000 C 
BRANCH   8   9
ATOM      9  C   UNL     1      -5.959  18.861 -14.220  1.00  0.00     0.000 C 
BRANCH   9  10
ATOM     10  C   UNL     1      -7.219  19.138 -15.070  1.00  0.00     0.000 C 
BRANCH  10  11
ATOM     11  C   UNL     1      -7.725  20.583 -14.916  1.00  0.00     0.000 C 
BRANCH  11  12
ATOM     12  C   UNL     1      -8.714  20.755 -13.748  1.00  0.00     0.006 C 
BRANCH  12  13
ATOM     13  C   UNL     1     -10.140  21.124 -14.190  1.00  0.00     0.053 C 
BRANCH  13  14
ATOM     14  C   UNL     1     -11.156  20.876 -13.119  1.00  0.00     0.041 C 
ATOM     15  O   UNL     1     -10.792  20.712 -11.924  1.00  0.00    -0.550 OA
ATOM     16  O   UNL     1     -12.506  20.809 -13.441  1.00  0.00    -0.550 OA
ENDBRANCH  13  14
ENDBRANCH  12  13
ENDBRANCH  11  12
ENDBRANCH  10  11
ENDBRANCH   9  10
ENDBRANCH   8   9
ENDBRANCH   7   8
ENDBRANCH   6   7
ENDBRANCH   5   6
ENDBRANCH   4   5
ENDBRANCH   3   4
ENDBRANCH   2   3
ENDBRANCH   1   2
BRANCH   1  17
ATOM     17  C   UNL     1      -6.326  16.855  -8.171  1.00  0.00     0.000 C 
BRANCH  17  18
ATOM     18  C   UNL     1      -5.336  16.114  -7.245  1.00  0.00     0.000 C 
BRANCH  18  19
ATOM     19  C   UNL     1      -4.266  16.992  -6.574  1.00  0.00     0.000 C 
BRANCH  19  20
ATOM     20  C   UNL     1      -4.403  18.485  -6.925  1.00  0.00     0.000 C 
BRANCH  20  21
ATOM     21  C   UNL     1      -5.268  19.257  -5.911  1.00  0.00     0.000 C 
BRANCH  21  22
ATOM     22  C   UNL     1      -5.440  20.762  -6.209  1.00  0.00    -0.000 C 
BRANCH  22  23
ATOM     23  C   UNL     1      -6.681  21.121  -7.047  1.00  0.00    -0.000 C 
BRANCH  23  24
ATOM     24  C   UNL     1      -7.205  19.987  -7.949  1.00  0.00    -0.000 C 
BRANCH  24  25
ATOM     25  C   UNL     1      -7.876  20.484  -9.250  1.00  0.00    -0.000 C 
BRANCH  25  26
ATOM     26  C   UNL     1      -8.834  19.468  -9.908  1.00  0.00    -0.000 C 
BRANCH  26  27
ATOM     27  C   UNL     1      -8.184  18.543 -10.956  1.00  0.00    -0.000 C 
BRANCH  27  28
ATOM     28  C   UNL     1      -9.061  17.329 -11.312  1.00  0.00    -0.000 C 
BRANCH  28  29
ATOM     29  C   UNL     1     -10.557  17.603 -11.099  1.00  0.00    -0.003 C 
ATOM     30  C   UNL     1     -11.425  17.042 -12.226  1.00  0.00     0.004 C 
ENDBRANCH  28  29
ENDBRANCH  27  28
ENDBRANCH  26  27
ENDBRANCH  25  26
ENDBRANCH  24  25
ENDBRANCH  23  24
ENDBRANCH  22  23
ENDBRANCH  21  22
ENDBRANCH  20  21
ENDBRANCH  19  20
ENDBRANCH  18  19
ENDBRANCH  17  18
ENDBRANCH   1  17
TORSDOF 26
ENDMDL
MODEL 6
REMARK VINA RESULT:    -2.968      4.165     10.933
REMARK INTER + INTRA:          -9.686
REMARK INTER:                  -8.143
REMARK INTRA:                  -1.543
REMARK UNBOUND:                -2.207
REMARK SMILES CCCCCCCCCCCCCCCCCCCCCCCCCCCC(=O)[O-]
REMARK SMILES IDX 15 1 16 2 17 3 18 4 19 5 20 6 21 7 22 8 23 9 24 10 25 11
REMARK SMILES IDX 26 12 27 13 28 14 29 15 30 16 14 17 13 18 12 19 11 20 10 21
REMARK SMILES IDX 9 22 8 23 7 24 6 25 5 26 4 27 3 28 2 29 1 30
REMARK H PARENT
REMARK Flexibility Score: inf
ROOT
ATOM      1  C   UNL     1      -6.923  16.731  -8.428  1.00  0.00     0.000 C 
ENDROOT
BRANCH   1   2
ATOM      2  C   UNL     1      -6.324  16.766  -7.012  1.00  0.00     0.000 C 
BRANCH   2   3
ATOM      3  C   UNL     1      -4.823  17.107  -7.002  1.00  0.00     0.000 C 
BRANCH   3   4
ATOM      4  C   UNL     1      -4.467  18.406  -6.247  1.00  0.00     0.000 C 
BRANCH   4   5
ATOM      5  C   UNL     1      -5.309  19.642  -6.634  1.00  0.00     0.000 C 
BRANCH   5   6
ATOM      6  C   UNL     1      -4.723  21.008  -6.226  1.00  0.00     0.000 C 
BRANCH   6   7
ATOM      7  C   UNL     1      -3.951  21.024  -4.891  1.00  0.00     0.000 C 
BRANCH   7   8
ATOM      8  C   UNL     1      -4.622  20.245  -3.744  1.00  0.00     0.000 C 
BRANCH   8   9
ATOM      9  C   UNL     1      -5.077  21.108  -2.552  1.00  0.00     0.000 C 
BRANCH   9  10
ATOM     10  C   UNL     1      -4.085  21.113  -1.368  1.00  0.00     0.000 C 
BRANCH  10  11
ATOM     11  C   UNL     1      -4.798  21.123  -0.005  1.00  0.00     0.000 C 
BRANCH  11  12
ATOM     12  C   UNL     1      -5.079  19.709   0.540  1.00  0.00     0.006 C 
BRANCH  12  13
ATOM     13  C   UNL     1      -5.923  19.694   1.825  1.00  0.00     0.053 C 
BRANCH  13  14
ATOM     14  C   UNL     1      -5.121  19.332   3.036  1.00  0.00     0.041 C 
ATOM     15  O   UNL     1      -4.201  20.093   3.439  1.00  0.00    -0.550 OA
ATOM     16  O   UNL     1      -5.376  18.145   3.711  1.00  0.00    -0.550 OA
ENDBRANCH  13  14
ENDBRANCH  12  13
ENDBRANCH  11  12
ENDBRANCH  10  11
ENDBRANCH   9  10
ENDBRANCH   8   9
ENDBRANCH   7   8
ENDBRANCH   6   7
ENDBRANCH   5   6
ENDBRANCH   4   5
ENDBRANCH   3   4
ENDBRANCH   2   3
ENDBRANCH   1   2
BRANCH   1  17
ATOM     17  C   UNL     1      -5.872  16.484  -9.527  1.00  0.00     0.000 C 
BRANCH  17  18
ATOM     18  C   UNL     1      -5.624  17.664 -10.491  1.00  0.00     0.000 C 
BRANCH  18  19
ATOM     19  C   UNL     1      -4.328  18.458 -10.254  1.00  0.00     0.000 C 
BRANCH  19  20
ATOM     20  C   UNL     1      -4.540  19.983 -10.282  1.00  0.00     0.000 C 
BRANCH  20  21
ATOM     21  C   UNL     1      -4.252  20.598 -11.664  1.00  0.00     0.000 C 
BRANCH  21  22
ATOM     22  C   UNL     1      -5.501  20.905 -12.517  1.00  0.00    -0.000 C 
BRANCH  22  23
ATOM     23  C   UNL     1      -6.759  20.101 -12.141  1.00  0.00    -0.000 C 
BRANCH  23  24
ATOM     24  C   UNL     1      -8.065  20.603 -12.786  1.00  0.00    -0.000 C 
BRANCH  24  25
ATOM     25  C   UNL     1      -9.104  21.124 -11.765  1.00  0.00    -0.000 C 
BRANCH  25  26
ATOM     26  C   UNL     1     -10.568  21.068 -12.253  1.00  0.00    -0.000 C 
BRANCH  26  27
ATOM     27  C   UNL     1     -11.477  20.099 -11.472  1.00  0.00    -0.000 C 
BRANCH  27  28
ATOM     28  C   UNL     1     -11.700  18.763 -12.202  1.00  0.00    -0.000 C 
BRANCH  28  29
ATOM     29  C   UNL     1     -10.554  17.767 -11.966  1.00  0.00    -0.003 C 
ATOM     30  C   UNL     1     -10.959  16.322 -12.262  1.00  0.00     0.004 C 
ENDBRANCH  28  29
ENDBRANCH  27  28
ENDBRANCH  26  27
ENDBRANCH  25  26
ENDBRANCH  24  25
ENDBRANCH  23  24
ENDBRANCH  22  23
ENDBRANCH  21  22
ENDBRANCH  20  21
ENDBRANCH  19  20
ENDBRANCH  18  19
ENDBRANCH  17  18
ENDBRANCH   1  17
TORSDOF 26
ENDMDL
MODEL 7
REMARK VINA RESULT:    -2.804      3.889     11.558
REMARK INTER + INTRA:          -9.272
REMARK INTER:                  -7.254
REMARK INTRA:                  -2.018
REMARK UNBOUND:                -2.207
REMARK SMILES CCCCCCCCCCCCCCCCCCCCCCCCCCCC(=O)[O-]
REMARK SMILES IDX 15 1 16 2 17 3 18 4 19 5 20 6 21 7 22 8 23 9 24 10 25 11
REMARK SMILES IDX 26 12 27 13 28 14 29 15 30 16 14 17 13 18 12 19 11 20 10 21
REMARK SMILES IDX 9 22 8 23 7 24 6 25 5 26 4 27 3 28 2 29 1 30
REMARK H PARENT
REMARK Flexibility Score: inf
ROOT
ATOM      1  C   UNL     1      -5.512  16.209  -6.944  1.00  0.00     0.000 C 
ENDROOT
BRANCH   1   2
ATOM      2  C   UNL     1      -5.326  16.955  -5.612  1.00  0.00     0.000 C 
BRANCH   2   3
ATOM      3  C   UNL     1      -4.247  18.052  -5.683  1.00  0.00     0.000 C 
BRANCH   3   4
ATOM      4  C   UNL     1      -4.002  18.795  -4.352  1.00  0.00     0.000 C 
BRANCH   4   5
ATOM      5  C   UNL     1      -4.153  20.330  -4.421  1.00  0.00     0.000 C 
BRANCH   5   6
ATOM      6  C   UNL     1      -3.876  21.091  -3.108  1.00  0.00     0.000 C 
BRANCH   6   7
ATOM      7  C   UNL     1      -4.099  20.281  -1.815  1.00  0.00     0.000 C 
BRANCH   7   8
ATOM      8  C   UNL     1      -4.412  21.125  -0.566  1.00  0.00     0.000 C 
BRANCH   8   9
ATOM      9  C   UNL     1      -3.875  20.548   0.759  1.00  0.00     0.000 C 
BRANCH   9  10
ATOM     10  C   UNL     1      -4.486  19.181   1.138  1.00  0.00     0.000 C 
BRANCH  10  11
ATOM     11  C   UNL     1      -4.115  18.750   2.569  1.00  0.00     0.000 C 
BRANCH  11  12
ATOM     12  C   UNL     1      -5.337  18.643   3.502  1.00  0.00     0.006 C 
BRANCH  12  13
ATOM     13  C   UNL     1      -5.652  19.941   4.264  1.00  0.00     0.053 C 
BRANCH  13  14
ATOM     14  C   UNL     1      -6.916  20.590   3.794  1.00  0.00     0.041 C 
ATOM     15  O   UNL     1      -7.036  20.952   2.593  1.00  0.00    -0.550 OA
ATOM     16  O   UNL     1      -7.959  20.812   4.686  1.00  0.00    -0.550 OA
ENDBRANCH  13  14
ENDBRANCH  12  13
ENDBRANCH  11  12
ENDBRANCH  10  11
ENDBRANCH   9  10
ENDBRANCH   8   9
ENDBRANCH   7   8
ENDBRANCH   6   7
ENDBRANCH   5   6
ENDBRANCH   4   5
ENDBRANCH   3   4
ENDBRANCH   2   3
ENDBRANCH   1   2
BRANCH   1  17
ATOM     17  C   UNL     1      -4.525  16.660  -8.038  1.00  0.00     0.000 C 
BRANCH  17  18
ATOM     18  C   UNL     1      -5.144  17.455  -9.208  1.00  0.00     0.000 C 
BRANCH  18  19
ATOM     19  C   UNL     1      -4.158  18.299 -10.036  1.00  0.00     0.000 C 
BRANCH  19  20
ATOM     20  C   UNL     1      -4.052  19.755  -9.549  1.00  0.00     0.000 C 
BRANCH  20  21
ATOM     21  C   UNL     1      -4.381  20.777 -10.653  1.00  0.00     0.000 C 
BRANCH  21  22
ATOM     22  C   UNL     1      -5.887  20.993 -10.916  1.00  0.00    -0.000 C 
BRANCH  22  23
ATOM     23  C   UNL     1      -6.780  20.944  -9.663  1.00  0.00    -0.000 C 
BRANCH  23  24
ATOM     24  C   UNL     1      -8.253  20.582  -9.932  1.00  0.00    -0.000 C 
BRANCH  24  25
ATOM     25  C   UNL     1      -8.494  19.937 -11.317  1.00  0.00    -0.000 C 
BRANCH  25  26
ATOM     26  C   UNL     1      -8.161  18.432 -11.391  1.00  0.00    -0.000 C 
BRANCH  26  27
ATOM     27  C   UNL     1      -9.382  17.492 -11.368  1.00  0.00    -0.000 C 
BRANCH  27  28
ATOM     28  C   UNL     1     -10.372  17.764 -12.514  1.00  0.00    -0.000 C 
BRANCH  28  29
ATOM     29  C   UNL     1     -11.662  18.441 -12.027  1.00  0.00    -0.003 C 
ATOM     30  C   UNL     1     -11.979  19.727 -12.794  1.00  0.00     0.004 C 
ENDBRANCH  28  29
ENDBRANCH  27  28
ENDBRANCH  26  27
ENDBRANCH  25  26
ENDBRANCH  24  25
ENDBRANCH  23  24
ENDBRANCH  22  23
ENDBRANCH  21  22
ENDBRANCH  20  21
ENDBRANCH  19  20
ENDBRANCH  18  19
ENDBRANCH  17  18
ENDBRANCH   1  17
TORSDOF 26
ENDMDL
MODEL 8
REMARK VINA RESULT:    -2.772      1.629      2.391
REMARK INTER + INTRA:          -9.191
REMARK INTER:                  -7.561
REMARK INTRA:                  -1.631
REMARK UNBOUND:                -2.207
REMARK SMILES CCCCCCCCCCCCCCCCCCCCCCCCCCCC(=O)[O-]
REMARK SMILES IDX 15 1 16 2 17 3 18 4 19 5 20 6 21 7 22 8 23 9 24 10 25 11
REMARK SMILES IDX 26 12 27 13 28 14 29 15 30 16 14 17 13 18 12 19 11 20 10 21
REMARK SMILES IDX 9 22 8 23 7 24 6 25 5 26 4 27 3 28 2 29 1 30
REMARK H PARENT
REMARK Flexibility Score: inf
ROOT
ATOM      1  C   UNL     1      -6.844  17.722  -8.651  1.00  0.00     0.000 C 
ENDROOT
BRANCH   1   2
ATOM      2  C   UNL     1      -6.791  19.007  -9.494  1.00  0.00     0.000 C 
BRANCH   2   3
ATOM      3  C   UNL     1      -7.155  18.772 -10.972  1.00  0.00     0.000 C 
BRANCH   3   4
ATOM      4  C   UNL     1      -5.981  18.286 -11.850  1.00  0.00     0.000 C 
BRANCH   4   5
ATOM      5  C   UNL     1      -4.761  19.231 -11.895  1.00  0.00     0.000 C 
BRANCH   5   6
ATOM      6  C   UNL     1      -3.875  19.124 -13.153  1.00  0.00     0.000 C 
BRANCH   6   7
ATOM      7  C   UNL     1      -4.601  19.352 -14.494  1.00  0.00     0.000 C 
BRANCH   7   8
ATOM      8  C   UNL     1      -5.068  20.798 -14.743  1.00  0.00     0.000 C 
BRANCH   8   9
ATOM      9  C   UNL     1      -6.554  20.946 -15.121  1.00  0.00     0.000 C 
BRANCH   9  10
ATOM     10  C   UNL     1      -7.525  20.692 -13.947  1.00  0.00     0.000 C 
BRANCH  10  11
ATOM     11  C   UNL     1      -8.628  19.680 -14.307  1.00  0.00     0.000 C 
BRANCH  11  12
ATOM     12  C   UNL     1      -9.775  19.646 -13.278  1.00  0.00     0.006 C 
BRANCH  12  13
ATOM     13  C   UNL     1     -10.584  18.339 -13.292  1.00  0.00     0.053 C 
BRANCH  13  14
ATOM     14  C   UNL     1     -11.099  17.967 -11.936  1.00  0.00     0.041 C 
ATOM     15  O   UNL     1     -11.499  16.794 -11.708  1.00  0.00    -0.550 OA
ATOM     16  O   UNL     1     -11.152  18.920 -10.926  1.00  0.00    -0.550 OA
ENDBRANCH  13  14
ENDBRANCH  12  13
ENDBRANCH  11  12
ENDBRANCH  10  11
ENDBRANCH   9  10
ENDBRANCH   8   9
ENDBRANCH   7   8
ENDBRANCH   6   7
ENDBRANCH   5   6
ENDBRANCH   4   5
ENDBRANCH   3   4
ENDBRANCH   2   3
ENDBRANCH   1   2
BRANCH   1  17
ATOM     17  C   UNL     1      -5.856  16.640  -9.128  1.00  0.00     0.000 C 
BRANCH  17  18
ATOM     18  C   UNL     1      -4.547  16.529  -8.316  1.00  0.00     0.000 C 
BRANCH  18  19
ATOM     19  C   UNL     1      -4.087  17.818  -7.612  1.00  0.00     0.000 C 
BRANCH  19  20
ATOM     20  C   UNL     1      -4.713  18.001  -6.218  1.00  0.00     0.000 C 
BRANCH  20  21
ATOM     21  C   UNL     1      -3.875  17.352  -5.101  1.00  0.00     0.000 C 
BRANCH  21  22
ATOM     22  C   UNL     1      -4.182  17.857  -3.675  1.00  0.00    -0.000 C 
BRANCH  22  23
ATOM     23  C   UNL     1      -4.237  19.389  -3.525  1.00  0.00    -0.000 C 
BRANCH  23  24
ATOM     24  C   UNL     1      -4.871  19.889  -2.213  1.00  0.00    -0.000 C 
BRANCH  24  25
ATOM     25  C   UNL     1      -3.875  20.611  -1.275  1.00  0.00    -0.000 C 
BRANCH  25  26
ATOM     26  C   UNL     1      -4.454  20.992   0.104  1.00  0.00    -0.000 C 
BRANCH  26  27
ATOM     27  C   UNL     1      -5.149  19.842   0.860  1.00  0.00    -0.000 C 
BRANCH  27  28
ATOM     28  C   UNL     1      -5.431  20.177   2.335  1.00  0.00    -0.000 C 
BRANCH  28  29
ATOM     29  C   UNL     1      -6.218  19.066   3.049  1.00  0.00    -0.003 C 
ATOM     30  C   UNL     1      -5.394  18.361   4.128  1.00  0.00     0.004 C 
ENDBRANCH  28  29
ENDBRANCH  27  28
ENDBRANCH  26  27
ENDBRANCH  25  26
ENDBRANCH  24  25
ENDBRANCH  23  24
ENDBRANCH  22  23
ENDBRANCH  21  22
ENDBRANCH  20  21
ENDBRANCH  19  20
ENDBRANCH  18  19
ENDBRANCH  17  18
ENDBRANCH   1  17
TORSDOF 26
ENDMDL
