MODEL 1
REMARK VINA RESULT:    -1.724      0.000      0.000
REMARK INTER + INTRA:          -4.881
REMARK INTER:                  -3.336
REMARK INTRA:                  -1.545
REMARK UNBOUND:                -1.545
REMARK SMILES CCCCCCCCCCCCCCCCCC(=O)[O-]
REMARK SMILES IDX 10 1 11 2 12 3 13 4 14 5 15 6 16 7 17 8 18 9 19 10 20 11
REMARK SMILES IDX 9 12 8 13 7 14 6 15 5 16 4 17 3 18 2 19 1 20
REMARK H PARENT
REMARK Flexibility Score: inf
ROOT
ATOM      1  C   UNL     1      49.336  22.641  18.072  1.00  0.00     0.000 C 
ENDROOT
BRANCH   1   2
ATOM      2  C   UNL     1      48.008  23.108  18.679  1.00  0.00     0.000 C 
BRANCH   2   3
ATOM      3  C   UNL     1      46.874  23.030  17.646  1.00  0.00     0.000 C 
BRANCH   3   4
ATOM      4  C   UNL     1      47.368  22.603  16.255  1.00  0.00     0.000 C 
BRANCH   4   5
ATOM      5  C   UNL     1      47.231  21.089  16.018  1.00  0.00     0.000 C 
BRANCH   5   6
ATOM      6  C   UNL     1      48.465  20.484  15.330  1.00  0.00     0.000 C 
BRANCH   6   7
ATOM      7  C   UNL     1      49.620  21.489  15.198  1.00  0.00     0.006 C 
BRANCH   7   8
ATOM      8  C   UNL     1      50.773  20.893  14.385  1.00  0.00     0.053 C 
BRANCH   8   9
ATOM      9  C   UNL     1      52.079  21.139  15.073  1.00  0.00     0.041 C 
ATOM     10  O   UNL     1      52.706  22.212  14.877  1.00  0.00    -0.550 OA
ATOM     11  O   UNL     1      52.582  20.201  15.966  1.00  0.00    -0.550 OA
ENDBRANCH   8   9
ENDBRANCH   7   8
ENDBRANCH   6   7
ENDBRANCH   5   6
ENDBRANCH   4   5
ENDBRANCH   3   4
ENDBRANCH   2   3
ENDBRANCH   1   2
BRANCH   1  12
ATOM     12  C   UNL     1      50.528  23.125  18.913  1.00  0.00     0.000 C 
BRANCH  12  13
ATOM     13  C   UNL     1      51.866  23.015  18.166  1.00  0.00    -0.000 C 
BRANCH  13  14
ATOM     14  C   UNL     1      52.882  22.119  18.897  1.00  0.00    -0.000 C 
BRANCH  14  15
ATOM     15  C   UNL     1      52.956  22.435  20.401  1.00  0.00    -0.000 C 
BRANCH  15  16
ATOM     16  C   UNL     1      52.415  21.299  21.296  1.00  0.00    -0.000 C 
BRANCH  16  17
ATOM     17  C   UNL     1      51.287  21.736  22.252  1.00  0.00    -0.000 C 
BRANCH  17  18
ATOM     18  C   UNL     1      50.021  20.856  22.178  1.00  0.00    -0.000 C 
BRANCH  18  19
ATOM     19  C   UNL     1      48.712  21.661  22.092  1.00  0.00    -0.003 C 
ATOM     20  C   UNL     1      48.900  23.125  22.494  1.00  0.00     0.004 C 
ENDBRANCH  18  19
ENDBRANCH  17  18
ENDBRANCH  16  17
ENDBRANCH  15  16
ENDBRANCH  14  15
ENDBRANCH  13  14
ENDBRANCH  12  13
ENDBRANCH   1  12
TORSDOF 16
ENDMDL
MODEL 2
REMARK VINA RESULT:    -1.429      1.191      2.856
REMARK INTER + INTRA:          -4.311
REMARK INTER:                  -3.755
REMARK INTRA:                  -0.556
REMARK UNBOUND:                -1.545
REMARK SMILES CCCCCCCCCCCCCCCCCC(=O)[O-]
REMARK SMILES IDX 10 1 11 2 12 3 13 4 14 5 15 6 16 7 17 8 18 9 19 10 20 11
REMARK SMILES IDX 9 12 8 13 7 14 6 15 5 16 4 17 3 18 2 19 1 20
REMARK H PARENT
REMARK Flexibility Score: inf
ROOT
ATOM      1  C   UNL     1      48.425  22.537  17.980  1.00  0.00     0.000 C 
ENDROOT
BRANCH   1   2
ATOM      2  C   UNL     1      47.357  22.240  16.921  1.00  0.00     0.000 C 
BRANCH   2   3
ATOM      3  C   UNL     1      47.339  20.747  16.563  1.00  0.00     0.000 C 
BRANCH   3   4
ATOM      4  C   UNL     1      48.193  20.423  15.328  1.00  0.00     0.000 C 
BRANCH   4   5
ATOM      5  C   UNL     1      49.412  21.352  15.191  1.00  0.00     0.000 C 
BRANCH   5   6
ATOM      6  C   UNL     1      50.672  20.609  14.717  1.00  0.00     0.000 C 
BRANCH   6   7
ATOM      7  C   UNL     1      51.763  21.563  14.206  1.00  0.00     0.006 C 
BRANCH   7   8
ATOM      8  C   UNL     1      53.116  21.238  14.846  1.00  0.00     0.053 C 
BRANCH   8   9
ATOM      9  C   UNL     1      53.041  21.389  16.333  1.00  0.00     0.041 C 
ATOM     10  O   UNL     1      52.863  22.523  16.847  1.00  0.00    -0.550 OA
ATOM     11  O   UNL     1      53.123  20.267  17.149  1.00  0.00    -0.550 OA
ENDBRANCH   8   9
ENDBRANCH   7   8
ENDBRANCH   6   7
ENDBRANCH   5   6
ENDBRANCH   4   5
ENDBRANCH   3   4
ENDBRANCH   2   3
ENDBRANCH   1   2
BRANCH   1  12
ATOM     12  C   UNL     1      47.780  22.956  19.311  1.00  0.00     0.000 C 
BRANCH  12  13
ATOM     13  C   UNL     1      48.807  23.125  20.441  1.00  0.00    -0.000 C 
BRANCH  13  14
ATOM     14  C   UNL     1      49.158  21.793  21.128  1.00  0.00    -0.000 C 
BRANCH  14  15
ATOM     15  C   UNL     1      49.455  21.974  22.627  1.00  0.00    -0.000 C 
BRANCH  15  16
ATOM     16  C   UNL     1      50.813  22.653  22.908  1.00  0.00    -0.000 C 
BRANCH  16  17
ATOM     17  C   UNL     1      52.020  21.696  22.833  1.00  0.00    -0.000 C 
BRANCH  17  18
ATOM     18  C   UNL     1      51.989  20.735  21.626  1.00  0.00    -0.000 C 
BRANCH  18  19
ATOM     19  C   UNL     1      53.032  21.069  20.544  1.00  0.00    -0.003 C 
ATOM     20  C   UNL     1      52.909  22.506  20.038  1.00  0.00     0.004 C 
ENDBRANCH  18  19
ENDBRANCH  17  18
ENDBRANCH  16  17
ENDBRANCH  15  16
ENDBRANCH  14  15
ENDBRANCH  13  14
ENDBRANCH  12  13
ENDBRANCH   1  12
TORSDOF 16
ENDMDL
MODEL 3
REMARK VINA RESULT:    -0.807     14.394     16.581
REMARK INTER + INTRA:          -3.107
REMARK INTER:                  -2.320
REMARK INTRA:                  -0.787
REMARK UNBOUND:                -1.545
REMARK SMILES CCCCCCCCCCCCCCCCCC(=O)[O-]
REMARK SMILES IDX 10 1 11 2 12 3 13 4 14 5 15 6 16 7 17 8 18 9 19 10 20 11
REMARK SMILES IDX 9 12 8 13 7 14 6 15 5 16 4 17 3 18 2 19 1 20
REMARK H PARENT
REMARK Flexibility Score: inf
ROOT
ATOM      1  C   UNL     1      35.238  21.125  10.594  1.00  0.00     0.000 C 
ENDROOT
BRANCH   1   2
ATOM      2  C   UNL     1      33.850  21.776  10.577  1.00  0.00     0.000 C 
BRANCH   2   3
ATOM      3  C   UNL     1      33.836  23.061  11.417  1.00  0.00     0.000 C 
BRANCH   3   4
ATOM      4  C   UNL     1      34.263  22.822  12.874  1.00  0.00     0.000 C 
BRANCH   4   5
ATOM      5  C   UNL     1      33.068  22.769  13.841  1.00  0.00     0.000 C 
BRANCH   5   6
ATOM      6  C   UNL     1      32.875  21.379  14.468  1.00  0.00     0.000 C 
BRANCH   6   7
ATOM      7  C   UNL     1      33.654  20.283  13.725  1.00  0.00     0.006 C 
BRANCH   7   8
ATOM      8  C   UNL     1      33.133  18.892  14.099  1.00  0.00     0.053 C 
BRANCH   8   9
ATOM      9  C   UNL     1      33.156  18.707  15.584  1.00  0.00     0.041 C 
ATOM     10  O   UNL     1      33.364  17.568  16.078  1.00  0.00    -0.550 OA
ATOM     11  O   UNL     1      32.992  19.802  16.423  1.00  0.00    -0.550 OA
ENDBRANCH   8   9
ENDBRANCH   7   8
ENDBRANCH   6   7
ENDBRANCH   5   6
ENDBRANCH   4   5
ENDBRANCH   3   4
ENDBRANCH   2   3
ENDBRANCH   1   2
BRANCH   1  12
ATOM     12  C   UNL     1      35.926  21.256   9.226  1.00  0.00     0.000 C 
BRANCH  12  13
ATOM     13  C   UNL     1      37.258  22.018   9.302  1.00  0.00    -0.000 C 
BRANCH  13  14
ATOM     14  C   UNL     1      37.254  23.114  10.383  1.00  0.00    -0.000 C 
BRANCH  14  15
ATOM     15  C   UNL     1      38.245  22.810  11.521  1.00  0.00    -0.000 C 
BRANCH  15  16
ATOM     16  C   UNL     1      37.684  23.122  12.925  1.00  0.00    -0.000 C 
BRANCH  16  17
ATOM     17  C   UNL     1      37.225  21.876  13.709  1.00  0.00    -0.000 C 
BRANCH  17  18
ATOM     18  C   UNL     1      36.951  22.138  15.205  1.00  0.00    -0.000 C 
BRANCH  18  19
ATOM     19  C   UNL     1      35.975  21.130  15.840  1.00  0.00    -0.003 C 
ATOM     20  C   UNL     1      36.520  19.702  15.825  1.00  0.00     0.004 C 
ENDBRANCH  18  19
ENDBRANCH  17  18
ENDBRANCH  16  17
ENDBRANCH  15  16
ENDBRANCH  14  15
ENDBRANCH  13  14
ENDBRANCH  12  13
ENDBRANCH   1  12
TORSDOF 16
ENDMDL
MODEL 4
REMARK VINA RESULT:    -0.535      1.794      5.844
REMARK INTER + INTRA:          -2.580
REMARK INTER:                  -2.317
REMARK INTRA:                  -0.263
REMARK UNBOUND:                -1.545
REMARK SMILES CCCCCCCCCCCCCCCCCC(=O)[O-]
REMARK SMILES IDX 10 1 11 2 12 3 13 4 14 5 15 6 16 7 17 8 18 9 19 10 20 11
REMARK SMILES IDX 9 12 8 13 7 14 6 15 5 16 4 17 3 18 2 19 1 20
REMARK H PARENT
REMARK Flexibility Score: inf
ROOT
ATOM      1  C   UNL     1      47.490  21.886  18.336  1.00  0.00     0.000 C 
ENDROOT
BRANCH   1   2
ATOM      2  C   UNL     1      48.147  23.125  18.957  1.00  0.00     0.000 C 
BRANCH   2   3
ATOM      3  C   UNL     1      48.072  23.077  20.490  1.00  0.00     0.000 C 
BRANCH   3   4
ATOM      4  C   UNL     1      48.931  21.953  21.090  1.00  0.00     0.000 C 
BRANCH   4   5
ATOM      5  C   UNL     1      49.468  22.301  22.490  1.00  0.00     0.000 C 
BRANCH   5   6
ATOM      6  C   UNL     1      50.999  22.430  22.521  1.00  0.00     0.000 C 
BRANCH   6   7
ATOM      7  C   UNL     1      51.559  23.125  21.271  1.00  0.00     0.006 C 
BRANCH   7   8
ATOM      8  C   UNL     1      52.940  22.568  20.907  1.00  0.00     0.053 C 
BRANCH   8   9
ATOM      9  C   UNL     1      52.871  21.086  20.713  1.00  0.00     0.041 C 
ATOM     10  O   UNL     1      52.565  20.334  21.674  1.00  0.00    -0.550 OA
ATOM     11  O   UNL     1      53.101  20.539  19.456  1.00  0.00    -0.550 OA
ENDBRANCH   8   9
ENDBRANCH   7   8
ENDBRANCH   6   7
ENDBRANCH   5   6
ENDBRANCH   4   5
ENDBRANCH   3   4
ENDBRANCH   2   3
ENDBRANCH   1   2
BRANCH   1  12
ATOM     12  C   UNL     1      47.436  22.000  16.805  1.00  0.00     0.000 C 
BRANCH  12  13
ATOM     13  C   UNL     1      47.499  20.633  16.106  1.00  0.00    -0.000 C 
BRANCH  13  14
ATOM     14  C   UNL     1      48.519  20.603  14.954  1.00  0.00    -0.000 C 
BRANCH  14  15
ATOM     15  C   UNL     1      49.957  20.849  15.445  1.00  0.00    -0.000 C 
BRANCH  15  16
ATOM     16  C   UNL     1      50.931  21.259  14.320  1.00  0.00    -0.000 C 
BRANCH  16  17
ATOM     17  C   UNL     1      52.415  21.000  14.648  1.00  0.00    -0.000 C 
BRANCH  17  18
ATOM     18  C   UNL     1      52.790  21.265  16.122  1.00  0.00    -0.000 C 
BRANCH  18  19
ATOM     19  C   UNL     1      52.331  22.640  16.639  1.00  0.00    -0.003 C 
ATOM     20  C   UNL     1      51.240  22.528  17.704  1.00  0.00     0.004 C 
ENDBRANCH  18  19
ENDBRANCH  17  18
ENDBRANCH  16  17
ENDBRANCH  15  16
ENDBRANCH  14  15
ENDBRANCH  13  14
ENDBRANCH  12  13
ENDBRANCH   1  12
TORSDOF 16
ENDMDL
MODEL 5
REMARK VINA RESULT:    -0.001      1.652      4.269
REMARK INTER + INTRA:          -1.547
REMARK INTER:                  -1.356
REMARK INTRA:                  -0.192
REMARK UNBOUND:                -1.545
REMARK SMILES CCCCCCCCCCCCCCCCCC(=O)[O-]
REMARK SMILES IDX 10 1 11 2 12 3 13 4 14 5 15 6 16 7 17 8 18 9 19 10 20 11
REMARK SMILES IDX 9 12 8 13 7 14 6 15 5 16 4 17 3 18 2 19 1 20
REMARK H PARENT
REMARK Flexibility Score: inf
ROOT
ATOM      1  C   UNL     1      49.477  21.089  21.024  1.00  0.00     0.000 C 
ENDROOT
BRANCH   1   2
ATOM      2  C   UNL     1      49.871  21.756  19.701  1.00  0.00     0.000 C 
BRANCH   2   3
ATOM      3  C   UNL     1      49.084  23.056  19.484  1.00  0.00     0.000 C 
BRANCH   3   4
ATOM      4  C   UNL     1      47.807  23.124  20.336  1.00  0.00     0.000 C 
BRANCH   4   5
ATOM      5  C   UNL     1      46.525  23.074  19.486  1.00  0.00     0.000 C 
BRANCH   5   6
ATOM      6  C   UNL     1      46.816  22.969  17.981  1.00  0.00     0.000 C 
BRANCH   6   7
ATOM      7  C   UNL     1      47.027  21.519  17.520  1.00  0.00     0.006 C 
BRANCH   7   8
ATOM      8  C   UNL     1      47.206  21.449  16.000  1.00  0.00     0.053 C 
BRANCH   8   9
ATOM      9  C   UNL     1      48.659  21.490  15.642  1.00  0.00     0.041 C 
ATOM     10  O   UNL     1      49.411  22.363  16.148  1.00  0.00    -0.550 OA
ATOM     11  O   UNL     1      49.190  20.535  14.784  1.00  0.00    -0.550 OA
ENDBRANCH   8   9
ENDBRANCH   7   8
ENDBRANCH   6   7
ENDBRANCH   5   6
ENDBRANCH   4   5
ENDBRANCH   3   4
ENDBRANCH   2   3
ENDBRANCH   1   2
BRANCH   1  12
ATOM     12  C   UNL     1      50.486  21.426  22.133  1.00  0.00     0.000 C 
BRANCH  12  13
ATOM     13  C   UNL     1      51.822  20.685  21.965  1.00  0.00    -0.000 C 
BRANCH  13  14
ATOM     14  C   UNL     1      52.932  21.584  21.393  1.00  0.00    -0.000 C 
BRANCH  14  15
ATOM     15  C   UNL     1      52.363  22.754  20.570  1.00  0.00    -0.000 C 
BRANCH  15  16
ATOM     16  C   UNL     1      53.125  23.007  19.252  1.00  0.00    -0.000 C 
BRANCH  16  17
ATOM     17  C   UNL     1      52.412  22.458  18.000  1.00  0.00    -0.000 C 
BRANCH  17  18
ATOM     18  C   UNL     1      53.057  21.184  17.414  1.00  0.00    -0.000 C 
BRANCH  18  19
ATOM     19  C   UNL     1      52.735  20.956  15.926  1.00  0.00    -0.003 C 
ATOM     20  C   UNL     1      52.712  22.260  15.127  1.00  0.00     0.004 C 
ENDBRANCH  18  19
ENDBRANCH  17  18
ENDBRANCH  16  17
ENDBRANCH  15  16
ENDBRANCH  14  15
ENDBRANCH  13  14
ENDBRANCH  12  13
ENDBRANCH   1  12
TORSDOF 16
ENDMDL
MODEL 6
REMARK VINA RESULT:     0.500     11.219     13.775
REMARK INTER + INTRA:          -0.577
REMARK INTER:                   0.555
REMARK INTRA:                  -1.132
REMARK UNBOUND:                -1.545
REMARK SMILES CCCCCCCCCCCCCCCCCC(=O)[O-]
REMARK SMILES IDX 10 1 11 2 12 3 13 4 14 5 15 6 16 7 17 8 18 9 19 10 20 11
REMARK SMILES IDX 9 12 8 13 7 14 6 15 5 16 4 17 3 18 2 19 1 20
REMARK H PARENT
REMARK Flexibility Score: inf
ROOT
ATOM      1  C   UNL     1      37.094  20.481  15.151  1.00  0.00     0.000 C 
ENDROOT
BRANCH   1   2
ATOM      2  C   UNL     1      36.037  20.260  16.239  1.00  0.00     0.000 C 
BRANCH   2   3
ATOM      3  C   UNL     1      34.621  20.456  15.677  1.00  0.00     0.000 C 
BRANCH   3   4
ATOM      4  C   UNL     1      34.108  19.223  14.917  1.00  0.00     0.000 C 
BRANCH   4   5
ATOM      5  C   UNL     1      33.214  19.594  13.722  1.00  0.00     0.000 C 
BRANCH   5   6
ATOM      6  C   UNL     1      33.668  20.884  13.020  1.00  0.00     0.000 C 
BRANCH   6   7
ATOM      7  C   UNL     1      34.104  20.643  11.566  1.00  0.00     0.006 C 
BRANCH   7   8
ATOM      8  C   UNL     1      35.394  21.406  11.249  1.00  0.00     0.053 C 
BRANCH   8   9
ATOM      9  C   UNL     1      35.612  21.472   9.770  1.00  0.00     0.041 C 
ATOM     10  O   UNL     1      34.639  21.653   8.993  1.00  0.00    -0.550 OA
ATOM     11  O   UNL     1      36.899  21.379   9.253  1.00  0.00    -0.550 OA
ENDBRANCH   8   9
ENDBRANCH   7   8
ENDBRANCH   6   7
ENDBRANCH   5   6
ENDBRANCH   4   5
ENDBRANCH   3   4
ENDBRANCH   2   3
ENDBRANCH   1   2
BRANCH   1  12
ATOM     12  C   UNL     1      36.828  21.783  14.379  1.00  0.00     0.000 C 
BRANCH  12  13
ATOM     13  C   UNL     1      38.112  22.579  14.097  1.00  0.00    -0.000 C 
BRANCH  13  14
ATOM     14  C   UNL     1      39.245  22.246  15.084  1.00  0.00    -0.000 C 
BRANCH  14  15
ATOM     15  C   UNL     1      40.494  23.113  14.847  1.00  0.00    -0.000 C 
BRANCH  15  16
ATOM     16  C   UNL     1      41.502  23.074  16.015  1.00  0.00    -0.000 C 
BRANCH  16  17
ATOM     17  C   UNL     1      42.979  23.102  15.572  1.00  0.00    -0.000 C 
BRANCH  17  18
ATOM     18  C   UNL     1      43.989  23.064  16.739  1.00  0.00    -0.000 C 
BRANCH  18  19
ATOM     19  C   UNL     1      45.419  22.692  16.307  1.00  0.00    -0.003 C 
ATOM     20  C   UNL     1      45.559  21.206  15.972  1.00  0.00     0.004 C 
ENDBRANCH  18  19
ENDBRANCH  17  18
ENDBRANCH  16  17
ENDBRANCH  15  16
ENDBRANCH  14  15
ENDBRANCH  13  14
ENDBRANCH  12  13
ENDBRANCH   1  12
TORSDOF 16
ENDMDL
