MODEL 1
REMARK VINA RESULT:    -5.461      0.000      0.000
REMARK INTER + INTRA:         -11.139
REMARK INTER:                  -9.292
REMARK INTRA:                  -1.847
REMARK UNBOUND:                -1.847
REMARK SMILES CCCCCCCCCCCCCC(=O)[O-]
REMARK SMILES IDX 8 1 9 2 10 3 11 4 12 5 13 6 14 7 15 8 16 9 7 10 6 11 5 12
REMARK SMILES IDX 4 13 3 14 2 15 1 16
REMARK H PARENT
REMARK Flexibility Score: inf
ROOT
ATOM      1  C   UNL     1      15.426   1.139  19.603  1.00  0.00     0.000 C 
ENDROOT
BRANCH   1   2
ATOM      2  C   UNL     1      16.492   0.064  19.841  1.00  0.00     0.000 C 
BRANCH   2   3
ATOM      3  C   UNL     1      17.754   0.347  19.018  1.00  0.00     0.000 C 
BRANCH   3   4
ATOM      4  C   UNL     1      17.406   1.072  17.708  1.00  0.00     0.000 C 
BRANCH   4   5
ATOM      5  C   UNL     1      17.542   0.166  16.471  1.00  0.00     0.006 C 
BRANCH   5   6
ATOM      6  C   UNL     1      16.270  -0.625  16.124  1.00  0.00     0.053 C 
BRANCH   6   7
ATOM      7  C   UNL     1      16.205  -1.930  16.855  1.00  0.00     0.041 C 
ATOM      8  O   UNL     1      15.123  -2.313  17.375  1.00  0.00    -0.550 OA
ATOM      9  O   UNL     1      17.346  -2.710  16.988  1.00  0.00    -0.550 OA
ENDBRANCH   6   7
ENDBRANCH   5   6
ENDBRANCH   4   5
ENDBRANCH   3   4
ENDBRANCH   2   3
ENDBRANCH   1   2
BRANCH   1  10
ATOM     10  C   UNL     1      14.096   0.511  19.170  1.00  0.00     0.000 C 
BRANCH  10  11
ATOM     11  C   UNL     1      13.581   1.151  17.875  1.00  0.00    -0.000 C 
BRANCH  11  12
ATOM     12  C   UNL     1      13.986   2.626  17.790  1.00  0.00    -0.000 C 
BRANCH  12  13
ATOM     13  C   UNL     1      13.452   3.271  16.506  1.00  0.00    -0.000 C 
BRANCH  13  14
ATOM     14  C   UNL     1      13.774   2.408  15.280  1.00  0.00    -0.000 C 
BRANCH  14  15
ATOM     15  C   UNL     1      15.227   2.608  14.835  1.00  0.00    -0.003 C 
ATOM     16  C   UNL     1      15.311   2.881  13.336  1.00  0.00     0.004 C 
ENDBRANCH  14  15
ENDBRANCH  13  14
ENDBRANCH  12  13
ENDBRANCH  11  12
ENDBRANCH  10  11
ENDBRANCH   1  10
TORSDOF 12
ENDMDL
MODEL 2
REMARK VINA RESULT:    -5.440      2.081      3.636
REMARK INTER + INTRA:         -11.103
REMARK INTER:                  -9.572
REMARK INTRA:                  -1.531
REMARK UNBOUND:                -1.847
REMARK SMILES CCCCCCCCCCCCCC(=O)[O-]
REMARK SMILES IDX 8 1 9 2 10 3 11 4 12 5 13 6 14 7 15 8 16 9 7 10 6 11 5 12
REMARK SMILES IDX 4 13 3 14 2 15 1 16
REMARK H PARENT
REMARK Flexibility Score: inf
ROOT
ATOM      1  C   UNL     1      17.678  -0.187  18.121  1.00  0.00     0.000 C 
ENDROOT
BRANCH   1   2
ATOM      2  C   UNL     1      17.638   1.113  17.311  1.00  0.00     0.000 C 
BRANCH   2   3
ATOM      3  C   UNL     1      16.655   1.004  16.139  1.00  0.00     0.000 C 
BRANCH   3   4
ATOM      4  C   UNL     1      16.862  -0.309  15.369  1.00  0.00     0.000 C 
BRANCH   4   5
ATOM      5  C   UNL     1      17.485  -0.092  13.978  1.00  0.00     0.006 C 
BRANCH   5   6
ATOM      6  C   UNL     1      18.772  -0.896  13.729  1.00  0.00     0.053 C 
BRANCH   6   7
ATOM      7  C   UNL     1      19.599  -1.029  14.970  1.00  0.00     0.041 C 
ATOM      8  O   UNL     1      20.286  -0.057  15.382  1.00  0.00    -0.550 OA
ATOM      9  O   UNL     1      19.635  -2.236  15.656  1.00  0.00    -0.550 OA
ENDBRANCH   6   7
ENDBRANCH   5   6
ENDBRANCH   4   5
ENDBRANCH   3   4
ENDBRANCH   2   3
ENDBRANCH   1   2
BRANCH   1  10
ATOM     10  C   UNL     1      17.358   0.074  19.598  1.00  0.00     0.000 C 
BRANCH  10  11
ATOM     11  C   UNL     1      15.911  -0.314  19.926  1.00  0.00    -0.000 C 
BRANCH  11  12
ATOM     12  C   UNL     1      15.193   0.818  20.669  1.00  0.00    -0.000 C 
BRANCH  12  13
ATOM     13  C   UNL     1      14.702   1.893  19.692  1.00  0.00    -0.000 C 
BRANCH  13  14
ATOM     14  C   UNL     1      13.831   1.279  18.589  1.00  0.00    -0.000 C 
BRANCH  14  15
ATOM     15  C   UNL     1      13.499   2.316  17.510  1.00  0.00    -0.003 C 
ATOM     16  C   UNL     1      13.409   3.719  18.105  1.00  0.00     0.004 C 
ENDBRANCH  14  15
ENDBRANCH  13  14
ENDBRANCH  12  13
ENDBRANCH  11  12
ENDBRANCH  10  11
ENDBRANCH   1  10
TORSDOF 12
ENDMDL
MODEL 3
REMARK VINA RESULT:    -5.436     15.365     17.619
REMARK INTER + INTRA:         -11.096
REMARK INTER:                  -9.393
REMARK INTRA:                  -1.702
REMARK UNBOUND:                -1.847
REMARK SMILES CCCCCCCCCCCCCC(=O)[O-]
REMARK SMILES IDX 8 1 9 2 10 3 11 4 12 5 13 6 14 7 15 8 16 9 7 10 6 11 5 12
REMARK SMILES IDX 4 13 3 14 2 15 1 16
REMARK H PARENT
REMARK Flexibility Score: inf
ROOT
ATOM      1  C   UNL     1      32.827  -2.093   8.922  1.00  0.00     0.000 C 
ENDROOT
BRANCH   1   2
ATOM      2  C   UNL     1      31.836  -1.206   9.684  1.00  0.00     0.000 C 
BRANCH   2   3
ATOM      3  C   UNL     1      31.861   0.232   9.152  1.00  0.00     0.000 C 
BRANCH   3   4
ATOM      4  C   UNL     1      30.739   0.459   8.128  1.00  0.00     0.000 C 
BRANCH   4   5
ATOM      5  C   UNL     1      29.426  -0.247   8.515  1.00  0.00     0.006 C 
BRANCH   5   6
ATOM      6  C   UNL     1      28.393   0.666   9.195  1.00  0.00     0.053 C 
BRANCH   6   7
ATOM      7  C   UNL     1      28.688   0.859  10.651  1.00  0.00     0.041 C 
ATOM      8  O   UNL     1      28.644   2.010  11.159  1.00  0.00    -0.550 OA
ATOM      9  O   UNL     1      29.042  -0.228  11.439  1.00  0.00    -0.550 OA
ENDBRANCH   6   7
ENDBRANCH   5   6
ENDBRANCH   4   5
ENDBRANCH   3   4
ENDBRANCH   2   3
ENDBRANCH   1   2
BRANCH   1  10
ATOM     10  C   UNL     1      32.098  -3.015   7.938  1.00  0.00     0.000 C 
BRANCH  10  11
ATOM     11  C   UNL     1      32.376  -2.603   6.487  1.00  0.00    -0.000 C 
BRANCH  11  12
ATOM     12  C   UNL     1      31.086  -2.174   5.780  1.00  0.00    -0.000 C 
BRANCH  12  13
ATOM     13  C   UNL     1      29.913  -3.078   6.178  1.00  0.00    -0.000 C 
BRANCH  13  14
ATOM     14  C   UNL     1      28.605  -2.597   5.536  1.00  0.00    -0.000 C 
BRANCH  14  15
ATOM     15  C   UNL     1      27.457  -2.614   6.551  1.00  0.00    -0.003 C 
ATOM     16  C   UNL     1      26.506  -1.442   6.325  1.00  0.00     0.004 C 
ENDBRANCH  14  15
ENDBRANCH  13  14
ENDBRANCH  12  13
ENDBRANCH  11  12
ENDBRANCH  10  11
ENDBRANCH   1  10
TORSDOF 12
ENDMDL
MODEL 4
REMARK VINA RESULT:    -5.421      2.354      4.907
REMARK INTER + INTRA:         -11.071
REMARK INTER:                  -9.999
REMARK INTRA:                  -1.072
REMARK UNBOUND:                -1.847
REMARK SMILES CCCCCCCCCCCCCC(=O)[O-]
REMARK SMILES IDX 8 1 9 2 10 3 11 4 12 5 13 6 14 7 15 8 16 9 7 10 6 11 5 12
REMARK SMILES IDX 4 13 3 14 2 15 1 16
REMARK H PARENT
REMARK Flexibility Score: inf
ROOT
ATOM      1  C   UNL     1      13.723   2.161  14.940  1.00  0.00     0.000 C 
ENDROOT
BRANCH   1   2
ATOM      2  C   UNL     1      13.177   3.010  16.093  1.00  0.00     0.000 C 
BRANCH   2   3
ATOM      3  C   UNL     1      14.308   3.478  17.016  1.00  0.00     0.000 C 
BRANCH   3   4
ATOM      4  C   UNL     1      14.076   2.999  18.457  1.00  0.00     0.000 C 
BRANCH   4   5
ATOM      5  C   UNL     1      14.000   1.465  18.570  1.00  0.00     0.006 C 
BRANCH   5   6
ATOM      6  C   UNL     1      15.335   0.745  18.317  1.00  0.00     0.053 C 
BRANCH   6   7
ATOM      7  C   UNL     1      16.124   0.569  19.578  1.00  0.00     0.041 C 
ATOM      8  O   UNL     1      17.337   0.234  19.525  1.00  0.00    -0.550 OA
ATOM      9  O   UNL     1      15.512   0.745  20.812  1.00  0.00    -0.550 OA
ENDBRANCH   6   7
ENDBRANCH   5   6
ENDBRANCH   4   5
ENDBRANCH   3   4
ENDBRANCH   2   3
ENDBRANCH   1   2
BRANCH   1  10
ATOM     10  C   UNL     1      15.179   2.528  14.627  1.00  0.00     0.000 C 
BRANCH  10  11
ATOM     11  C   UNL     1      15.335   2.964  13.165  1.00  0.00    -0.000 C 
BRANCH  11  12
ATOM     12  C   UNL     1      15.547   1.754  12.249  1.00  0.00    -0.000 C 
BRANCH  12  13
ATOM     13  C   UNL     1      16.732   1.981  11.302  1.00  0.00    -0.000 C 
BRANCH  13  14
ATOM     14  C   UNL     1      17.768   0.858  11.438  1.00  0.00    -0.000 C 
BRANCH  14  15
ATOM     15  C   UNL     1      17.402  -0.089  12.587  1.00  0.00    -0.003 C 
ATOM     16  C   UNL     1      18.590  -0.308  13.519  1.00  0.00     0.004 C 
ENDBRANCH  14  15
ENDBRANCH  13  14
ENDBRANCH  12  13
ENDBRANCH  11  12
ENDBRANCH  10  11
ENDBRANCH   1  10
TORSDOF 12
ENDMDL
MODEL 5
REMARK VINA RESULT:    -5.360      2.296      5.718
REMARK INTER + INTRA:         -10.967
REMARK INTER:                  -9.307
REMARK INTRA:                  -1.660
REMARK UNBOUND:                -1.847
REMARK SMILES CCCCCCCCCCCCCC(=O)[O-]
REMARK SMILES IDX 8 1 9 2 10 3 11 4 12 5 13 6 14 7 15 8 16 9 7 10 6 11 5 12
REMARK SMILES IDX 4 13 3 14 2 15 1 16
REMARK H PARENT
REMARK Flexibility Score: inf
ROOT
ATOM      1  C   UNL     1      15.555   2.867  12.329  1.00  0.00     0.000 C 
ENDROOT
BRANCH   1   2
ATOM      2  C   UNL     1      15.386   2.971  13.849  1.00  0.00     0.000 C 
BRANCH   2   3
ATOM      3  C   UNL     1      14.306   2.007  14.351  1.00  0.00     0.000 C 
BRANCH   3   4
ATOM      4  C   UNL     1      13.394   2.691  15.382  1.00  0.00     0.000 C 
BRANCH   4   5
ATOM      5  C   UNL     1      13.556   2.109  16.799  1.00  0.00     0.006 C 
BRANCH   5   6
ATOM      6  C   UNL     1      14.915   2.405  17.453  1.00  0.00     0.053 C 
BRANCH   6   7
ATOM      7  C   UNL     1      15.267   1.391  18.496  1.00  0.00     0.041 C 
ATOM      8  O   UNL     1      16.474   1.110  18.726  1.00  0.00    -0.550 OA
ATOM      9  O   UNL     1      14.263   0.732  19.194  1.00  0.00    -0.550 OA
ENDBRANCH   6   7
ENDBRANCH   5   6
ENDBRANCH   4   5
ENDBRANCH   3   4
ENDBRANCH   2   3
ENDBRANCH   1   2
BRANCH   1  10
ATOM     10  C   UNL     1      15.580   1.402  11.877  1.00  0.00     0.000 C 
BRANCH  10  11
ATOM     11  C   UNL     1      16.845   1.097  11.065  1.00  0.00    -0.000 C 
BRANCH  11  12
ATOM     12  C   UNL     1      18.012   0.722  11.984  1.00  0.00    -0.000 C 
BRANCH  12  13
ATOM     13  C   UNL     1      17.644  -0.461  12.887  1.00  0.00    -0.000 C 
BRANCH  13  14
ATOM     14  C   UNL     1      18.401  -0.394  14.219  1.00  0.00    -0.000 C 
BRANCH  14  15
ATOM     15  C   UNL     1      17.505   0.160  15.332  1.00  0.00    -0.003 C 
ATOM     16  C   UNL     1      16.306  -0.751  15.578  1.00  0.00     0.004 C 
ENDBRANCH  14  15
ENDBRANCH  13  14
ENDBRANCH  12  13
ENDBRANCH  11  12
ENDBRANCH  10  11
ENDBRANCH   1  10
TORSDOF 12
ENDMDL
MODEL 6
REMARK VINA RESULT:    -5.341      2.822      4.143
REMARK INTER + INTRA:         -10.935
REMARK INTER:                  -9.251
REMARK INTRA:                  -1.684
REMARK UNBOUND:                -1.847
REMARK SMILES CCCCCCCCCCCCCC(=O)[O-]
REMARK SMILES IDX 8 1 9 2 10 3 11 4 12 5 13 6 14 7 15 8 16 9 7 10 6 11 5 12
REMARK SMILES IDX 4 13 3 14 2 15 1 16
REMARK H PARENT
REMARK Flexibility Score: inf
ROOT
ATOM      1  C   UNL     1      17.305  -1.443  18.621  1.00  0.00     0.000 C 
ENDROOT
BRANCH   1   2
ATOM      2  C   UNL     1      17.787  -1.468  17.167  1.00  0.00     0.000 C 
BRANCH   2   3
ATOM      3  C   UNL     1      17.384  -0.185  16.430  1.00  0.00     0.000 C 
BRANCH   3   4
ATOM      4  C   UNL     1      16.177  -0.433  15.513  1.00  0.00     0.000 C 
BRANCH   4   5
ATOM      5  C   UNL     1      16.302   0.284  14.156  1.00  0.00     0.006 C 
BRANCH   5   6
ATOM      6  C   UNL     1      15.062   1.099  13.754  1.00  0.00     0.053 C 
BRANCH   6   7
ATOM      7  C   UNL     1      15.358   2.057  12.641  1.00  0.00     0.041 C 
ATOM      8  O   UNL     1      15.287   3.299  12.838  1.00  0.00    -0.550 OA
ATOM      9  O   UNL     1      15.682   1.578  11.378  1.00  0.00    -0.550 OA
ENDBRANCH   6   7
ENDBRANCH   5   6
ENDBRANCH   4   5
ENDBRANCH   3   4
ENDBRANCH   2   3
ENDBRANCH   1   2
BRANCH   1  10
ATOM     10  C   UNL     1      17.396  -0.029  19.207  1.00  0.00     0.000 C 
BRANCH  10  11
ATOM     11  C   UNL     1      16.094   0.357  19.921  1.00  0.00    -0.000 C 
BRANCH  11  12
ATOM     12  C   UNL     1      14.886  -0.330  19.272  1.00  0.00    -0.000 C 
BRANCH  12  13
ATOM     13  C   UNL     1      14.065   0.667  18.445  1.00  0.00    -0.000 C 
BRANCH  13  14
ATOM     14  C   UNL     1      14.327   2.108  18.901  1.00  0.00    -0.000 C 
BRANCH  14  15
ATOM     15  C   UNL     1      14.248   3.080  17.718  1.00  0.00    -0.003 C 
ATOM     16  C   UNL     1      15.515   3.019  16.870  1.00  0.00     0.004 C 
ENDBRANCH  14  15
ENDBRANCH  13  14
ENDBRANCH  12  13
ENDBRANCH  11  12
ENDBRANCH  10  11
ENDBRANCH   1  10
TORSDOF 12
ENDMDL
MODEL 7
REMARK VINA RESULT:    -5.317      1.894      3.724
REMARK INTER + INTRA:         -10.893
REMARK INTER:                  -9.472
REMARK INTRA:                  -1.422
REMARK UNBOUND:                -1.847
REMARK SMILES CCCCCCCCCCCCCC(=O)[O-]
REMARK SMILES IDX 8 1 9 2 10 3 11 4 12 5 13 6 14 7 15 8 16 9 7 10 6 11 5 12
REMARK SMILES IDX 4 13 3 14 2 15 1 16
REMARK H PARENT
REMARK Flexibility Score: inf
ROOT
ATOM      1  C   UNL     1      18.073  -0.825  16.291  1.00  0.00     0.000 C 
ENDROOT
BRANCH   1   2
ATOM      2  C   UNL     1      17.732  -2.138  17.003  1.00  0.00     0.000 C 
BRANCH   2   3
ATOM      3  C   UNL     1      17.083  -1.874  18.367  1.00  0.00     0.000 C 
BRANCH   3   4
ATOM      4  C   UNL     1      17.365  -0.440  18.842  1.00  0.00     0.000 C 
BRANCH   4   5
ATOM      5  C   UNL     1      16.210   0.151  19.671  1.00  0.00     0.006 C 
BRANCH   5   6
ATOM      6  C   UNL     1      15.531   1.371  19.030  1.00  0.00     0.053 C 
BRANCH   6   7
ATOM      7  C   UNL     1      14.188   1.030  18.462  1.00  0.00     0.041 C 
ATOM      8  O   UNL     1      13.442   1.939  18.008  1.00  0.00    -0.550 OA
ATOM      9  O   UNL     1      13.746  -0.286  18.462  1.00  0.00    -0.550 OA
ENDBRANCH   6   7
ENDBRANCH   5   6
ENDBRANCH   4   5
ENDBRANCH   3   4
ENDBRANCH   2   3
ENDBRANCH   1   2
BRANCH   1  10
ATOM     10  C   UNL     1      17.232  -0.652  15.021  1.00  0.00     0.000 C 
BRANCH  10  11
ATOM     11  C   UNL     1      15.879  -0.004  15.341  1.00  0.00    -0.000 C 
BRANCH  11  12
ATOM     12  C   UNL     1      15.900   1.497  15.033  1.00  0.00    -0.000 C 
BRANCH  12  13
ATOM     13  C   UNL     1      14.850   1.858  13.975  1.00  0.00    -0.000 C 
BRANCH  13  14
ATOM     14  C   UNL     1      15.471   2.685  12.842  1.00  0.00    -0.000 C 
BRANCH  14  15
ATOM     15  C   UNL     1      15.747   1.813  11.613  1.00  0.00    -0.003 C 
ATOM     16  C   UNL     1      17.234   1.500  11.483  1.00  0.00     0.004 C 
ENDBRANCH  14  15
ENDBRANCH  13  14
ENDBRANCH  12  13
ENDBRANCH  11  12
ENDBRANCH  10  11
ENDBRANCH   1  10
TORSDOF 12
ENDMDL
MODEL 8
REMARK VINA RESULT:    -5.310      1.277      2.506
REMARK INTER + INTRA:         -10.881
REMARK INTER:                  -9.901
REMARK INTRA:                  -0.980
REMARK UNBOUND:                -1.847
REMARK SMILES CCCCCCCCCCCCCC(=O)[O-]
REMARK SMILES IDX 8 1 9 2 10 3 11 4 12 5 13 6 14 7 15 8 16 9 7 10 6 11 5 12
REMARK SMILES IDX 4 13 3 14 2 15 1 16
REMARK H PARENT
REMARK Flexibility Score: inf
ROOT
ATOM      1  C   UNL     1      13.915   2.631  18.799  1.00  0.00     0.000 C 
ENDROOT
BRANCH   1   2
ATOM      2  C   UNL     1      14.042   1.106  18.704  1.00  0.00     0.000 C 
BRANCH   2   3
ATOM      3  C   UNL     1      14.270   0.485  20.087  1.00  0.00     0.000 C 
BRANCH   3   4
ATOM      4  C   UNL     1      15.771   0.352  20.390  1.00  0.00     0.000 C 
BRANCH   4   5
ATOM      5  C   UNL     1      16.599  -0.021  19.146  1.00  0.00     0.006 C 
BRANCH   5   6
ATOM      6  C   UNL     1      16.693  -1.532  18.878  1.00  0.00     0.053 C 
BRANCH   6   7
ATOM      7  C   UNL     1      15.891  -1.939  17.681  1.00  0.00     0.041 C 
ATOM      8  O   UNL     1      14.687  -2.285  17.812  1.00  0.00    -0.550 OA
ATOM      9  O   UNL     1      16.481  -1.966  16.424  1.00  0.00    -0.550 OA
ENDBRANCH   6   7
ENDBRANCH   5   6
ENDBRANCH   4   5
ENDBRANCH   3   4
ENDBRANCH   2   3
ENDBRANCH   1   2
BRANCH   1  10
ATOM     10  C   UNL     1      14.305   3.299  17.475  1.00  0.00     0.000 C 
BRANCH  10  11
ATOM     11  C   UNL     1      13.084   3.470  16.563  1.00  0.00    -0.000 C 
BRANCH  11  12
ATOM     12  C   UNL     1      13.235   2.642  15.282  1.00  0.00    -0.000 C 
BRANCH  12  13
ATOM     13  C   UNL     1      14.697   2.238  15.056  1.00  0.00    -0.000 C 
BRANCH  13  14
ATOM     14  C   UNL     1      14.885   1.605  13.671  1.00  0.00    -0.000 C 
BRANCH  14  15
ATOM     15  C   UNL     1      15.500   2.608  12.689  1.00  0.00    -0.003 C 
ATOM     16  C   UNL     1      15.862   1.934  11.368  1.00  0.00     0.004 C 
ENDBRANCH  14  15
ENDBRANCH  13  14
ENDBRANCH  12  13
ENDBRANCH  11  12
ENDBRANCH  10  11
ENDBRANCH   1  10
TORSDOF 12
ENDMDL
MODEL 9
REMARK VINA RESULT:    -5.193      2.689      4.928
REMARK INTER + INTRA:         -10.683
REMARK INTER:                  -9.113
REMARK INTRA:                  -1.569
REMARK UNBOUND:                -1.847
REMARK SMILES CCCCCCCCCCCCCC(=O)[O-]
REMARK SMILES IDX 8 1 9 2 10 3 11 4 12 5 13 6 14 7 15 8 16 9 7 10 6 11 5 12
REMARK SMILES IDX 4 13 3 14 2 15 1 16
REMARK H PARENT
REMARK Flexibility Score: inf
ROOT
ATOM      1  C   UNL     1      13.832   1.911  16.927  1.00  0.00     0.000 C 
ENDROOT
BRANCH   1   2
ATOM      2  C   UNL     1      15.297   2.270  16.657  1.00  0.00     0.000 C 
BRANCH   2   3
ATOM      3  C   UNL     1      15.776   1.672  15.329  1.00  0.00     0.000 C 
BRANCH   3   4
ATOM      4  C   UNL     1      14.799   2.006  14.190  1.00  0.00     0.000 C 
BRANCH   4   5
ATOM      5  C   UNL     1      15.500   2.627  12.968  1.00  0.00     0.006 C 
BRANCH   5   6
ATOM      6  C   UNL     1      15.595   1.692  11.751  1.00  0.00     0.053 C 
BRANCH   6   7
ATOM      7  C   UNL     1      16.967   1.111  11.597  1.00  0.00     0.041 C 
ATOM      8  O   UNL     1      17.456   0.391  12.507  1.00  0.00    -0.550 OA
ATOM      9  O   UNL     1      17.717   1.390  10.462  1.00  0.00    -0.550 OA
ENDBRANCH   6   7
ENDBRANCH   5   6
ENDBRANCH   4   5
ENDBRANCH   3   4
ENDBRANCH   2   3
ENDBRANCH   1   2
BRANCH   1  10
ATOM     10  C   UNL     1      13.628   1.489  18.387  1.00  0.00     0.000 C 
BRANCH  10  11
ATOM     11  C   UNL     1      14.839   1.874  19.246  1.00  0.00    -0.000 C 
BRANCH  11  12
ATOM     12  C   UNL     1      15.017   0.899  20.415  1.00  0.00    -0.000 C 
BRANCH  12  13
ATOM     13  C   UNL     1      15.865  -0.310  19.999  1.00  0.00    -0.000 C 
BRANCH  13  14
ATOM     14  C   UNL     1      17.127   0.135  19.248  1.00  0.00    -0.000 C 
BRANCH  14  15
ATOM     15  C   UNL     1      17.280  -0.633  17.931  1.00  0.00    -0.003 C 
ATOM     16  C   UNL     1      16.026  -1.445  17.617  1.00  0.00     0.004 C 
ENDBRANCH  14  15
ENDBRANCH  13  14
ENDBRANCH  12  13
ENDBRANCH  11  12
ENDBRANCH  10  11
ENDBRANCH   1  10
TORSDOF 12
ENDMDL
