MODEL 1
REMARK VINA RESULT:    21.261      0.000      0.000
REMARK INTER + INTRA:          25.313
REMARK INTER:                  25.611
REMARK INTRA:                  -0.299
REMARK UNBOUND:                -0.299
REMARK SMILES Oc1cc(O)c2cc(O)c(-c3ccc(O)c(O)c3)[o+]c2c1
REMARK SMILES IDX 10 1 19 2 20 3 21 4 2 5 3 6 4 7 6 8 7 9 8 10 11 11 12 12
REMARK SMILES IDX 13 13 14 14 18 15 16 16 15 17 17 19 9 21 1 23 5 25
REMARK H PARENT 15 18 17 20 9 22 1 24 5 26
REMARK Flexibility Score: inf
ROOT
ATOM      1  C   UNL     1      -6.291   7.523  16.029  1.00  0.00     0.402 A 
ATOM      2  O   UNL     1      -5.874   6.529  16.808  1.00  0.00    -0.202 OA
ATOM      3  C   UNL     1      -6.079   5.245  16.526  1.00  0.00     0.368 A 
ATOM      4  C   UNL     1      -5.606   4.272  17.409  1.00  0.00     0.162 A 
ATOM      5  C   UNL     1      -5.809   2.917  17.141  1.00  0.00     0.128 A 
ATOM      6  C   UNL     1      -6.492   2.532  15.982  1.00  0.00     0.093 A 
ATOM      7  C   UNL     1      -6.977   3.489  15.081  1.00  0.00     0.136 A 
ATOM      8  C   UNL     1      -6.770   4.867  15.349  1.00  0.00     0.125 A 
ATOM      9  C   UNL     1      -7.207   5.894  14.498  1.00  0.00     0.078 A 
ATOM     10  C   UNL     1      -6.962   7.230  14.827  1.00  0.00     0.223 A 
ENDROOT
BRANCH   1  11
ATOM     11  C   UNL     1      -6.010   8.912  16.458  1.00  0.00     0.087 A 
ATOM     12  C   UNL     1      -4.693   9.393  16.421  1.00  0.00     0.022 A 
ATOM     13  C   UNL     1      -4.401  10.694  16.839  1.00  0.00     0.051 A 
ATOM     14  C   UNL     1      -5.418  11.529  17.312  1.00  0.00     0.157 A 
ATOM     15  C   UNL     1      -7.029   9.746  16.953  1.00  0.00     0.068 A 
ATOM     16  C   UNL     1      -6.738  11.052  17.375  1.00  0.00     0.158 A 
BRANCH  14  17
ATOM     17  O   UNL     1      -5.097  12.823  17.721  1.00  0.00    -0.504 OA
ATOM     18  H   UNL     1      -5.791  13.452  18.106  1.00  0.00     0.293 HD
ENDBRANCH  14  17
BRANCH  16  19
ATOM     19  O   UNL     1      -7.754  11.874  17.859  1.00  0.00    -0.504 OA
ATOM     20  H   UNL     1      -7.584  12.556  18.590  1.00  0.00     0.293 HD
ENDBRANCH  16  19
ENDBRANCH   1  11
BRANCH  10  21
ATOM     21  O   UNL     1      -7.353   8.248  13.958  1.00  0.00    -0.500 OA
ATOM     22  H   UNL     1      -7.970   8.071  13.172  1.00  0.00     0.294 HD
ENDBRANCH  10  21
BRANCH   5  23
ATOM     23  O   UNL     1      -5.329   1.961  18.032  1.00  0.00    -0.507 OA
ATOM     24  H   UNL     1      -5.593   0.986  17.957  1.00  0.00     0.293 HD
ENDBRANCH   5  23
BRANCH   7  25
ATOM     25  O   UNL     1      -7.650   3.024  13.947  1.00  0.00    -0.507 OA
ATOM     26  H   UNL     1      -8.103   2.123  13.882  1.00  0.00     0.293 HD
ENDBRANCH   7  25
TORSDOF 6
ENDMDL
MODEL 2
REMARK VINA RESULT:    23.282      1.806      6.881
REMARK INTER + INTRA:          27.747
REMARK INTER:                  28.095
REMARK INTRA:                  -0.348
REMARK UNBOUND:                -0.299
REMARK SMILES Oc1cc(O)c2cc(O)c(-c3ccc(O)c(O)c3)[o+]c2c1
REMARK SMILES IDX 10 1 19 2 20 3 21 4 2 5 3 6 4 7 6 8 7 9 8 10 11 11 12 12
REMARK SMILES IDX 13 13 14 14 18 15 16 16 15 17 17 19 9 21 1 23 5 25
REMARK H PARENT 15 18 17 20 9 22 1 24 5 26
REMARK Flexibility Score: inf
ROOT
ATOM      1  C   UNL     1      -6.052   4.922  15.555  1.00  0.00     0.402 A 
ATOM      2  O   UNL     1      -5.830   6.069  16.189  1.00  0.00    -0.202 OA
ATOM      3  C   UNL     1      -6.457   7.203  15.889  1.00  0.00     0.368 A 
ATOM      4  C   UNL     1      -6.154   8.359  16.610  1.00  0.00     0.162 A 
ATOM      5  C   UNL     1      -6.794   9.564  16.315  1.00  0.00     0.128 A 
ATOM      6  C   UNL     1      -7.745   9.613  15.291  1.00  0.00     0.093 A 
ATOM      7  C   UNL     1      -8.067   8.468  14.552  1.00  0.00     0.136 A 
ATOM      8  C   UNL     1      -7.419   7.240  14.851  1.00  0.00     0.125 A 
ATOM      9  C   UNL     1      -7.688   6.040  14.174  1.00  0.00     0.078 A 
ATOM     10  C   UNL     1      -7.013   4.869  14.528  1.00  0.00     0.223 A 
ENDROOT
BRANCH   1  11
ATOM     11  C   UNL     1      -5.281   3.729  15.976  1.00  0.00     0.087 A 
ATOM     12  C   UNL     1      -5.685   3.012  17.112  1.00  0.00     0.022 A 
ATOM     13  C   UNL     1      -4.962   1.896  17.539  1.00  0.00     0.051 A 
ATOM     14  C   UNL     1      -3.818   1.486  16.847  1.00  0.00     0.157 A 
ATOM     15  C   UNL     1      -4.119   3.329  15.292  1.00  0.00     0.068 A 
ATOM     16  C   UNL     1      -3.391   2.209  15.720  1.00  0.00     0.158 A 
BRANCH  14  17
ATOM     17  O   UNL     1      -3.118   0.367  17.295  1.00  0.00    -0.504 OA
ATOM     18  H   UNL     1      -3.150  -0.519  16.805  1.00  0.00     0.293 HD
ENDBRANCH  14  17
BRANCH  16  19
ATOM     19  O   UNL     1      -2.244   1.815  15.033  1.00  0.00    -0.504 OA
ATOM     20  H   UNL     1      -2.274   1.548  14.056  1.00  0.00     0.293 HD
ENDBRANCH  16  19
ENDBRANCH   1  11
BRANCH  10  21
ATOM     21  O   UNL     1      -7.315   3.667  13.889  1.00  0.00    -0.500 OA
ATOM     22  H   UNL     1      -7.852   2.939  14.347  1.00  0.00     0.294 HD
ENDBRANCH  10  21
BRANCH   5  23
ATOM     23  O   UNL     1      -6.478  10.706  17.046  1.00  0.00    -0.507 OA
ATOM     24  H   UNL     1      -6.986  10.955  17.887  1.00  0.00     0.293 HD
ENDBRANCH   5  23
BRANCH   7  25
ATOM     25  O   UNL     1      -9.025   8.600  13.542  1.00  0.00    -0.507 OA
ATOM     26  H   UNL     1      -9.998   8.349  13.642  1.00  0.00     0.293 HD
ENDBRANCH   7  25
TORSDOF 6
ENDMDL
MODEL 3
REMARK VINA RESULT:    23.564      1.092      2.627
REMARK INTER + INTRA:          28.087
REMARK INTER:                  28.330
REMARK INTRA:                  -0.244
REMARK UNBOUND:                -0.299
REMARK SMILES Oc1cc(O)c2cc(O)c(-c3ccc(O)c(O)c3)[o+]c2c1
REMARK SMILES IDX 10 1 19 2 20 3 21 4 2 5 3 6 4 7 6 8 7 9 8 10 11 11 12 12
REMARK SMILES IDX 13 13 14 14 18 15 16 16 15 17 17 19 9 21 1 23 5 25
REMARK H PARENT 15 18 17 20 9 22 1 24 5 26
REMARK Flexibility Score: inf
ROOT
ATOM      1  C   UNL     1      -5.918   7.700  16.710  1.00  0.00     0.402 A 
ATOM      2  O   UNL     1      -6.621   7.222  15.687  1.00  0.00    -0.202 OA
ATOM      3  C   UNL     1      -6.826   5.924  15.486  1.00  0.00     0.368 A 
ATOM      4  C   UNL     1      -7.576   5.517  14.380  1.00  0.00     0.162 A 
ATOM      5  C   UNL     1      -7.804   4.161  14.142  1.00  0.00     0.128 A 
ATOM      6  C   UNL     1      -7.279   3.203  15.015  1.00  0.00     0.093 A 
ATOM      7  C   UNL     1      -6.524   3.584  16.131  1.00  0.00     0.136 A 
ATOM      8  C   UNL     1      -6.291   4.963  16.378  1.00  0.00     0.125 A 
ATOM      9  C   UNL     1      -5.558   5.438  17.477  1.00  0.00     0.078 A 
ATOM     10  C   UNL     1      -5.375   6.812  17.657  1.00  0.00     0.223 A 
ENDROOT
BRANCH   1  11
ATOM     11  C   UNL     1      -5.751   9.168  16.819  1.00  0.00     0.087 A 
ATOM     12  C   UNL     1      -4.480   9.733  16.638  1.00  0.00     0.022 A 
ATOM     13  C   UNL     1      -4.295  11.112  16.755  1.00  0.00     0.051 A 
ATOM     14  C   UNL     1      -5.372  11.947  17.069  1.00  0.00     0.157 A 
ATOM     15  C   UNL     1      -6.830  10.005  17.155  1.00  0.00     0.068 A 
ATOM     16  C   UNL     1      -6.646  11.391  17.275  1.00  0.00     0.158 A 
BRANCH  14  17
ATOM     17  O   UNL     1      -5.157  13.320  17.178  1.00  0.00    -0.504 OA
ATOM     18  H   UNL     1      -5.002  13.906  16.366  1.00  0.00     0.293 HD
ENDBRANCH  14  17
BRANCH  16  19
ATOM     19  O   UNL     1      -7.721  12.214  17.602  1.00  0.00    -0.504 OA
ATOM     20  H   UNL     1      -7.612  13.014  18.216  1.00  0.00     0.293 HD
ENDBRANCH  16  19
ENDBRANCH   1  11
BRANCH  10  21
ATOM     21  O   UNL     1      -4.689   7.286  18.775  1.00  0.00    -0.500 OA
ATOM     22  H   UNL     1      -3.686   7.435  18.761  1.00  0.00     0.294 HD
ENDBRANCH  10  21
BRANCH   5  23
ATOM     23  O   UNL     1      -8.555   3.775  13.034  1.00  0.00    -0.507 OA
ATOM     24  H   UNL     1      -8.197   3.870  12.091  1.00  0.00     0.293 HD
ENDBRANCH   5  23
BRANCH   7  25
ATOM     25  O   UNL     1      -6.031   2.567  16.954  1.00  0.00    -0.507 OA
ATOM     26  H   UNL     1      -6.299   2.433  17.919  1.00  0.00     0.293 HD
ENDBRANCH   7  25
TORSDOF 6
ENDMDL
MODEL 4
REMARK VINA RESULT:    23.653      1.824      3.154
REMARK INTER + INTRA:          28.194
REMARK INTER:                  27.800
REMARK INTRA:                   0.394
REMARK UNBOUND:                -0.299
REMARK SMILES Oc1cc(O)c2cc(O)c(-c3ccc(O)c(O)c3)[o+]c2c1
REMARK SMILES IDX 10 1 19 2 20 3 21 4 2 5 3 6 4 7 6 8 7 9 8 10 11 11 12 12
REMARK SMILES IDX 13 13 14 14 18 15 16 16 15 17 17 19 9 21 1 23 5 25
REMARK H PARENT 15 18 17 20 9 22 1 24 5 26
REMARK Flexibility Score: inf
ROOT
ATOM      1  C   UNL     1      -6.898   8.097  16.490  1.00  0.00     0.402 A 
ATOM      2  O   UNL     1      -7.318   7.275  15.533  1.00  0.00    -0.202 OA
ATOM      3  C   UNL     1      -6.898   6.019  15.412  1.00  0.00     0.368 A 
ATOM      4  C   UNL     1      -7.395   5.233  14.372  1.00  0.00     0.162 A 
ATOM      5  C   UNL     1      -6.970   3.912  14.219  1.00  0.00     0.128 A 
ATOM      6  C   UNL     1      -6.039   3.373  15.113  1.00  0.00     0.093 A 
ATOM      7  C   UNL     1      -5.525   4.141  16.166  1.00  0.00     0.136 A 
ATOM      8  C   UNL     1      -5.957   5.484  16.325  1.00  0.00     0.125 A 
ATOM      9  C   UNL     1      -5.507   6.323  17.357  1.00  0.00     0.078 A 
ATOM     10  C   UNL     1      -5.982   7.634  17.453  1.00  0.00     0.223 A 
ENDROOT
BRANCH   1  11
ATOM     11  C   UNL     1      -7.433   9.478  16.511  1.00  0.00     0.087 A 
ATOM     12  C   UNL     1      -7.381  10.220  17.701  1.00  0.00     0.022 A 
ATOM     13  C   UNL     1      -7.896  11.517  17.750  1.00  0.00     0.051 A 
ATOM     14  C   UNL     1      -8.485  12.088  16.617  1.00  0.00     0.157 A 
ATOM     15  C   UNL     1      -8.044  10.045  15.378  1.00  0.00     0.068 A 
ATOM     16  C   UNL     1      -8.564  11.347  15.426  1.00  0.00     0.158 A 
BRANCH  14  17
ATOM     17  O   UNL     1      -8.990  13.385  16.696  1.00  0.00    -0.504 OA
ATOM     18  H   UNL     1      -9.969  13.591  16.540  1.00  0.00     0.293 HD
ENDBRANCH  14  17
BRANCH  16  19
ATOM     19  O   UNL     1      -9.162  11.904  14.297  1.00  0.00    -0.504 OA
ATOM     20  H   UNL     1      -9.382  11.344  13.480  1.00  0.00     0.293 HD
ENDBRANCH  16  19
ENDBRANCH   1  11
BRANCH  10  21
ATOM     21  O   UNL     1      -5.572   8.451  18.506  1.00  0.00    -0.500 OA
ATOM     22  H   UNL     1      -4.925   8.124  19.214  1.00  0.00     0.294 HD
ENDBRANCH  10  21
BRANCH   5  23
ATOM     23  O   UNL     1      -7.478   3.143  13.174  1.00  0.00    -0.507 OA
ATOM     24  H   UNL     1      -6.874   2.581  12.587  1.00  0.00     0.293 HD
ENDBRANCH   5  23
BRANCH   7  25
ATOM     25  O   UNL     1      -4.596   3.531  17.015  1.00  0.00    -0.507 OA
ATOM     26  H   UNL     1      -4.805   3.204  17.947  1.00  0.00     0.293 HD
ENDBRANCH   7  25
TORSDOF 6
ENDMDL
MODEL 5
REMARK VINA RESULT:    24.060     10.518     11.245
REMARK INTER + INTRA:          28.684
REMARK INTER:                  28.512
REMARK INTRA:                   0.172
REMARK UNBOUND:                -0.299
REMARK SMILES Oc1cc(O)c2cc(O)c(-c3ccc(O)c(O)c3)[o+]c2c1
REMARK SMILES IDX 10 1 19 2 20 3 21 4 2 5 3 6 4 7 6 8 7 9 8 10 11 11 12 12
REMARK SMILES IDX 13 13 14 14 18 15 16 16 15 17 17 19 9 21 1 23 5 25
REMARK H PARENT 15 18 17 20 9 22 1 24 5 26
REMARK Flexibility Score: inf
ROOT
ATOM      1  C   UNL     1      -5.456  -2.560  13.050  1.00  0.00     0.402 A 
ATOM      2  O   UNL     1      -6.102  -3.077  14.091  1.00  0.00    -0.202 OA
ATOM      3  C   UNL     1      -7.423  -3.025  14.231  1.00  0.00     0.368 A 
ATOM      4  C   UNL     1      -8.010  -3.594  15.362  1.00  0.00     0.162 A 
ATOM      5  C   UNL     1      -9.394  -3.551  15.537  1.00  0.00     0.128 A 
ATOM      6  C   UNL     1     -10.198  -2.934  14.573  1.00  0.00     0.093 A 
ATOM      7  C   UNL     1      -9.634  -2.355  13.429  1.00  0.00     0.136 A 
ATOM      8  C   UNL     1      -8.227  -2.399  13.247  1.00  0.00     0.125 A 
ATOM      9  C   UNL     1      -7.575  -1.859  12.127  1.00  0.00     0.078 A 
ATOM     10  C   UNL     1      -6.185  -1.945  12.015  1.00  0.00     0.223 A 
ENDROOT
BRANCH   1  11
ATOM     11  C   UNL     1      -3.980  -2.674  13.015  1.00  0.00     0.087 A 
ATOM     12  C   UNL     1      -3.356  -3.760  13.647  1.00  0.00     0.022 A 
ATOM     13  C   UNL     1      -1.964  -3.877  13.644  1.00  0.00     0.051 A 
ATOM     14  C   UNL     1      -1.173  -2.905  13.023  1.00  0.00     0.157 A 
ATOM     15  C   UNL     1      -3.183  -1.686  12.409  1.00  0.00     0.068 A 
ATOM     16  C   UNL     1      -1.785  -1.801  12.406  1.00  0.00     0.158 A 
BRANCH  14  17
ATOM     17  O   UNL     1       0.213  -3.050  13.035  1.00  0.00    -0.504 OA
ATOM     18  H   UNL     1       0.833  -2.316  12.715  1.00  0.00     0.293 HD
ENDBRANCH  14  17
BRANCH  16  19
ATOM     19  O   UNL     1      -1.003  -0.821  11.798  1.00  0.00    -0.504 OA
ATOM     20  H   UNL     1      -1.292  -0.367  10.938  1.00  0.00     0.293 HD
ENDBRANCH  16  19
ENDBRANCH   1  11
BRANCH  10  21
ATOM     21  O   UNL     1      -5.542  -1.451  10.880  1.00  0.00    -0.500 OA
ATOM     22  H   UNL     1      -4.635  -1.002  10.934  1.00  0.00     0.294 HD
ENDBRANCH  10  21
BRANCH   5  23
ATOM     23  O   UNL     1      -9.962  -4.125  16.672  1.00  0.00    -0.507 OA
ATOM     24  H   UNL     1     -10.315  -5.074  16.666  1.00  0.00     0.293 HD
ENDBRANCH   5  23
BRANCH   7  25
ATOM     25  O   UNL     1     -10.504  -1.755  12.514  1.00  0.00    -0.507 OA
ATOM     26  H   UNL     1     -11.292  -2.220  12.085  1.00  0.00     0.293 HD
ENDBRANCH   7  25
TORSDOF 6
ENDMDL
