MODEL 1
REMARK VINA RESULT:    -8.465      0.000      0.000
REMARK INTER + INTRA:         -16.667
REMARK INTER:                 -13.909
REMARK INTRA:                  -2.758
REMARK UNBOUND:                -2.758
REMARK SMILES C[C@@H]1O[C@H](OC[C@H]2O[C@@H](Oc3c(-c4ccc(O)c(O)c4)oc4cc(O)cc(O)c4c3=O)[C@@H](O)[C@H](O)[C@@H]2O)[C@H](O)[C@@H](O)[C@@H]1O
REMARK SMILES IDX 7 1 36 2 34 3 32 4 9 5 8 6 6 7 5 8 4 9 1 10 2 11 42 12 3 13
REMARK SMILES IDX 40 14 38 15 43 16 41 18 39 20 37 22 35 24 10 26 11 27 12 28
REMARK SMILES IDX 30 29 21 30 29 31 31 32 22 33 27 34 23 35 26 36 24 37 13 38
REMARK SMILES IDX 20 39 14 40 18 41 15 42 16 43 19 44 17 46 28 48 25 50 33 52
REMARK H PARENT 43 17 41 19 39 21 37 23 35 25 19 45 17 47 28 49 25 51 33 53
REMARK Flexibility Score: inf
ROOT
ATOM      1  C   UNL     1      24.376 -23.732  31.281  1.00  0.00     0.180 C 
ATOM      2  C   UNL     1      23.919 -23.248  32.706  1.00  0.00     0.177 C 
ATOM      3  C   UNL     1      22.472 -22.702  32.763  1.00  0.00     0.180 C 
ATOM      4  C   UNL     1      21.809 -22.658  31.383  1.00  0.00     0.214 C 
ATOM      5  C   UNL     1      22.830 -22.129  30.336  1.00  0.00     0.339 C 
ATOM      6  O   UNL     1      24.072 -22.822  30.233  1.00  0.00    -0.332 OA
ENDROOT
BRANCH   1   7
ATOM      7  C   UNL     1      24.002 -25.173  30.834  1.00  0.00     0.198 C 
BRANCH   7   8
ATOM      8  O   UNL     1      25.089 -25.969  30.425  1.00  0.00    -0.347 OA
BRANCH   8   9
ATOM      9  C   UNL     1      24.775 -27.134  29.657  1.00  0.00     0.281 C 
ATOM     10  C   UNL     1      26.382 -24.901  28.202  1.00  0.00     0.041 C 
ATOM     11  C   UNL     1      25.996 -26.329  27.758  1.00  0.00     0.150 C 
ATOM     12  C   UNL     1      27.139 -27.366  27.977  1.00  0.00     0.174 C 
ATOM     13  O   UNL     1      24.723 -26.746  28.285  1.00  0.00    -0.344 OA
ATOM     14  C   UNL     1      27.154 -27.899  29.419  1.00  0.00     0.179 C 
ATOM     15  C   UNL     1      25.734 -28.350  29.769  1.00  0.00     0.202 C 
BRANCH  12  16
ATOM     16  O   UNL     1      28.397 -26.807  27.670  1.00  0.00    -0.388 OA
ATOM     17  H   UNL     1      28.826 -27.395  26.996  1.00  0.00     0.211 HD
ENDBRANCH  12  16
BRANCH  14  18
ATOM     18  O   UNL     1      28.044 -28.978  29.502  1.00  0.00    -0.387 OA
ATOM     19  H   UNL     1      28.811 -28.668  30.055  1.00  0.00     0.211 HD
ENDBRANCH  14  18
BRANCH  15  20
ATOM     20  O   UNL     1      25.678 -28.990  31.017  1.00  0.00    -0.385 OA
ATOM     21  H   UNL     1      26.218 -28.442  31.649  1.00  0.00     0.211 HD
ENDBRANCH  15  20
ENDBRANCH   8   9
ENDBRANCH   7   8
ENDBRANCH   1   7
BRANCH   2  22
ATOM     22  O   UNL     1      24.819 -22.261  33.154  1.00  0.00    -0.387 OA
ATOM     23  H   UNL     1      25.373 -21.999  32.373  1.00  0.00     0.211 HD
ENDBRANCH   2  22
BRANCH   3  24
ATOM     24  O   UNL     1      22.444 -21.423  33.347  1.00  0.00    -0.387 OA
ATOM     25  H   UNL     1      21.986 -20.819  32.704  1.00  0.00     0.211 HD
ENDBRANCH   3  24
BRANCH   5  26
ATOM     26  O   UNL     1      22.223 -22.000  29.042  1.00  0.00    -0.454 OA
BRANCH  26  27
ATOM     27  C   UNL     1      22.839 -22.395  27.851  1.00  0.00     0.214 A 
ATOM     28  C   UNL     1      23.490 -21.450  27.040  1.00  0.00     0.180 A 
ATOM     29  C   UNL     1      22.799 -23.732  27.435  1.00  0.00     0.239 A 
ATOM     30  O   UNL     1      23.977 -21.818  25.857  1.00  0.00    -0.452 OA
ATOM     31  C   UNL     1      23.247 -24.081  26.139  1.00  0.00     0.111 A 
ATOM     32  O   UNL     1      22.395 -24.600  28.247  1.00  0.00    -0.285 OA
ATOM     33  C   UNL     1      23.880 -23.057  25.385  1.00  0.00     0.146 A 
ATOM     34  C   UNL     1      23.104 -25.375  25.553  1.00  0.00     0.134 A 
ATOM     35  C   UNL     1      24.416 -23.339  24.127  1.00  0.00     0.094 A 
ATOM     36  C   UNL     1      23.678 -25.629  24.302  1.00  0.00     0.093 A 
ATOM     37  C   UNL     1      24.314 -24.622  23.588  1.00  0.00     0.123 A 
BRANCH  28  38
ATOM     38  C   UNL     1      23.600 -20.028  27.431  1.00  0.00     0.025 A 
ATOM     39  C   UNL     1      22.709 -19.059  26.930  1.00  0.00     0.062 A 
ATOM     40  C   UNL     1      24.653 -19.626  28.263  1.00  0.00     0.016 A 
ATOM     41  C   UNL     1      22.921 -17.697  27.180  1.00  0.00     0.158 A 
ATOM     42  C   UNL     1      24.855 -18.271  28.535  1.00  0.00     0.051 A 
ATOM     43  C   UNL     1      24.010 -17.295  27.987  1.00  0.00     0.157 A 
BRANCH  41  44
ATOM     44  O   UNL     1      22.046 -16.787  26.597  1.00  0.00    -0.504 OA
ATOM     45  H   UNL     1      21.272 -16.343  27.089  1.00  0.00     0.293 HD
ENDBRANCH  41  44
BRANCH  43  46
ATOM     46  O   UNL     1      24.295 -15.953  28.268  1.00  0.00    -0.504 OA
ATOM     47  H   UNL     1      23.802 -15.408  28.962  1.00  0.00     0.293 HD
ENDBRANCH  43  46
ENDBRANCH  28  38
BRANCH  34  48
ATOM     48  O   UNL     1      22.374 -26.420  26.137  1.00  0.00    -0.507 OA
ATOM     49  H   UNL     1      22.458 -26.718  27.100  1.00  0.00     0.293 HD
ENDBRANCH  34  48
BRANCH  37  50
ATOM     50  O   UNL     1      24.823 -24.901  22.318  1.00  0.00    -0.508 OA
ATOM     51  H   UNL     1      24.224 -25.066  21.519  1.00  0.00     0.293 HD
ENDBRANCH  37  50
ENDBRANCH  26  27
ENDBRANCH   5  26
BRANCH   4  52
ATOM     52  O   UNL     1      21.349 -23.948  31.066  1.00  0.00    -0.384 OA
ATOM     53  H   UNL     1      22.129 -24.487  30.748  1.00  0.00     0.211 HD
ENDBRANCH   4  52
TORSDOF 16
ENDMDL
MODEL 2
REMARK VINA RESULT:    -8.446      1.703      7.182
REMARK INTER + INTRA:         -16.635
REMARK INTER:                 -13.912
REMARK INTRA:                  -2.723
REMARK UNBOUND:                -2.758
REMARK SMILES C[C@@H]1O[C@H](OC[C@H]2O[C@@H](Oc3c(-c4ccc(O)c(O)c4)oc4cc(O)cc(O)c4c3=O)[C@@H](O)[C@H](O)[C@@H]2O)[C@H](O)[C@@H](O)[C@@H]1O
REMARK SMILES IDX 7 1 36 2 34 3 32 4 9 5 8 6 6 7 5 8 4 9 1 10 2 11 42 12 3 13
REMARK SMILES IDX 40 14 38 15 43 16 41 18 39 20 37 22 35 24 10 26 11 27 12 28
REMARK SMILES IDX 30 29 21 30 29 31 31 32 22 33 27 34 23 35 26 36 24 37 13 38
REMARK SMILES IDX 20 39 14 40 18 41 15 42 16 43 19 44 17 46 28 48 25 50 33 52
REMARK H PARENT 43 17 41 19 39 21 37 23 35 25 19 45 17 47 28 49 25 51 33 53
REMARK Flexibility Score: inf
ROOT
ATOM      1  C   UNL     1      22.731 -22.327  30.300  1.00  0.00     0.180 C 
ATOM      2  C   UNL     1      22.952 -21.591  31.672  1.00  0.00     0.177 C 
ATOM      3  C   UNL     1      24.392 -21.068  31.893  1.00  0.00     0.180 C 
ATOM      4  C   UNL     1      25.339 -21.464  30.757  1.00  0.00     0.214 C 
ATOM      5  C   UNL     1      25.070 -22.942  30.352  1.00  0.00     0.339 C 
ATOM      6  O   UNL     1      23.735 -23.282  29.984  1.00  0.00    -0.332 OA
ENDROOT
BRANCH   1   7
ATOM      7  C   UNL     1      22.425 -21.469  29.041  1.00  0.00     0.198 C 
BRANCH   7   8
ATOM      8  O   UNL     1      22.283 -20.089  29.283  1.00  0.00    -0.347 OA
BRANCH   8   9
ATOM      9  C   UNL     1      21.487 -19.354  28.350  1.00  0.00     0.281 C 
ATOM     10  C   UNL     1      23.559 -17.720  29.999  1.00  0.00     0.041 C 
ATOM     11  C   UNL     1      22.648 -17.311  28.821  1.00  0.00     0.150 C 
ATOM     12  C   UNL     1      23.380 -17.339  27.445  1.00  0.00     0.174 C 
ATOM     13  O   UNL     1      21.391 -18.013  28.825  1.00  0.00    -0.344 OA
ATOM     14  C   UNL     1      23.401 -18.752  26.841  1.00  0.00     0.179 C 
ATOM     15  C   UNL     1      21.972 -19.300  26.876  1.00  0.00     0.202 C 
BRANCH  12  16
ATOM     16  O   UNL     1      24.701 -16.860  27.563  1.00  0.00    -0.388 OA
ATOM     17  H   UNL     1      25.143 -17.383  28.280  1.00  0.00     0.211 HD
ENDBRANCH  12  16
BRANCH  14  18
ATOM     18  O   UNL     1      23.865 -18.683  25.520  1.00  0.00    -0.387 OA
ATOM     19  H   UNL     1      23.755 -19.593  25.136  1.00  0.00     0.211 HD
ENDBRANCH  14  18
BRANCH  15  20
ATOM     20  O   UNL     1      21.864 -20.531  26.209  1.00  0.00    -0.385 OA
ATOM     21  H   UNL     1      21.777 -21.234  26.909  1.00  0.00     0.211 HD
ENDBRANCH  15  20
ENDBRANCH   8   9
ENDBRANCH   7   8
ENDBRANCH   1   7
BRANCH   2  22
ATOM     22  O   UNL     1      22.599 -22.469  32.715  1.00  0.00    -0.387 OA
ATOM     23  H   UNL     1      22.285 -21.908  33.471  1.00  0.00     0.211 HD
ENDBRANCH   2  22
BRANCH   3  24
ATOM     24  O   UNL     1      24.905 -21.523  33.122  1.00  0.00    -0.387 OA
ATOM     25  H   UNL     1      25.879 -21.324  33.122  1.00  0.00     0.211 HD
ENDBRANCH   3  24
BRANCH   5  26
ATOM     26  O   UNL     1      25.991 -23.376  29.341  1.00  0.00    -0.454 OA
BRANCH  26  27
ATOM     27  C   UNL     1      25.600 -23.871  28.093  1.00  0.00     0.214 A 
ATOM     28  C   UNL     1      25.465 -25.254  27.887  1.00  0.00     0.180 A 
ATOM     29  C   UNL     1      25.358 -23.000  27.023  1.00  0.00     0.239 A 
ATOM     30  O   UNL     1      25.199 -25.718  26.669  1.00  0.00    -0.452 OA
ATOM     31  C   UNL     1      25.161 -23.520  25.722  1.00  0.00     0.111 A 
ATOM     32  O   UNL     1      25.285 -21.768  27.257  1.00  0.00    -0.285 OA
ATOM     33  C   UNL     1      25.051 -24.930  25.607  1.00  0.00     0.146 A 
ATOM     34  C   UNL     1      25.067 -22.727  24.538  1.00  0.00     0.134 A 
ATOM     35  C   UNL     1      24.782 -25.518  24.369  1.00  0.00     0.094 A 
ATOM     36  C   UNL     1      24.770 -23.347  23.319  1.00  0.00     0.093 A 
ATOM     37  C   UNL     1      24.643 -24.727  23.229  1.00  0.00     0.123 A 
BRANCH  28  38
ATOM     38  C   UNL     1      25.673 -26.230  28.978  1.00  0.00     0.025 A 
ATOM     39  C   UNL     1      26.916 -26.867  29.166  1.00  0.00     0.062 A 
ATOM     40  C   UNL     1      24.593 -26.579  29.801  1.00  0.00     0.016 A 
ATOM     41  C   UNL     1      27.054 -27.904  30.098  1.00  0.00     0.158 A 
ATOM     42  C   UNL     1      24.732 -27.596  30.747  1.00  0.00     0.051 A 
ATOM     43  C   UNL     1      25.948 -28.279  30.896  1.00  0.00     0.157 A 
BRANCH  41  44
ATOM     44  O   UNL     1      28.288 -28.539  30.183  1.00  0.00    -0.504 OA
ATOM     45  H   UNL     1      28.416 -29.495  30.510  1.00  0.00     0.293 HD
ENDBRANCH  41  44
BRANCH  43  46
ATOM     46  O   UNL     1      26.004 -29.315  31.836  1.00  0.00    -0.504 OA
ATOM     47  H   UNL     1      25.664 -30.250  31.661  1.00  0.00     0.293 HD
ENDBRANCH  43  46
ENDBRANCH  28  38
BRANCH  34  48
ATOM     48  O   UNL     1      25.302 -21.345  24.503  1.00  0.00    -0.507 OA
ATOM     49  H   UNL     1      26.217 -20.911  24.532  1.00  0.00     0.293 HD
ENDBRANCH  34  48
BRANCH  37  50
ATOM     50  O   UNL     1      24.404 -25.311  21.984  1.00  0.00    -0.508 OA
ATOM     51  H   UNL     1      23.493 -25.294  21.542  1.00  0.00     0.293 HD
ENDBRANCH  37  50
ENDBRANCH  26  27
ENDBRANCH   5  26
BRANCH   4  52
ATOM     52  O   UNL     1      25.144 -20.579  29.682  1.00  0.00    -0.384 OA
ATOM     53  H   UNL     1      24.851 -21.114  28.889  1.00  0.00     0.211 HD
ENDBRANCH   4  52
TORSDOF 16
ENDMDL
MODEL 3
REMARK VINA RESULT:    -8.198      2.516      7.597
REMARK INTER + INTRA:         -16.228
REMARK INTER:                 -13.639
REMARK INTRA:                  -2.589
REMARK UNBOUND:                -2.758
REMARK SMILES C[C@@H]1O[C@H](OC[C@H]2O[C@@H](Oc3c(-c4ccc(O)c(O)c4)oc4cc(O)cc(O)c4c3=O)[C@@H](O)[C@H](O)[C@@H]2O)[C@H](O)[C@@H](O)[C@@H]1O
REMARK SMILES IDX 7 1 36 2 34 3 32 4 9 5 8 6 6 7 5 8 4 9 1 10 2 11 42 12 3 13
REMARK SMILES IDX 40 14 38 15 43 16 41 18 39 20 37 22 35 24 10 26 11 27 12 28
REMARK SMILES IDX 30 29 21 30 29 31 31 32 22 33 27 34 23 35 26 36 24 37 13 38
REMARK SMILES IDX 20 39 14 40 18 41 15 42 16 43 19 44 17 46 28 48 25 50 33 52
REMARK H PARENT 43 17 41 19 39 21 37 23 35 25 19 45 17 47 28 49 25 51 33 53
REMARK Flexibility Score: inf
ROOT
ATOM      1  C   UNL     1      25.035 -20.803  28.159  1.00  0.00     0.180 C 
ATOM      2  C   UNL     1      23.956 -19.728  27.762  1.00  0.00     0.177 C 
ATOM      3  C   UNL     1      22.492 -20.177  27.985  1.00  0.00     0.180 C 
ATOM      4  C   UNL     1      22.393 -21.629  28.463  1.00  0.00     0.214 C 
ATOM      5  C   UNL     1      23.393 -22.508  27.658  1.00  0.00     0.339 C 
ATOM      6  O   UNL     1      24.762 -22.107  27.669  1.00  0.00    -0.332 OA
ENDROOT
BRANCH   1   7
ATOM      7  C   UNL     1      25.474 -20.895  29.647  1.00  0.00     0.198 C 
BRANCH   7   8
ATOM      8  O   UNL     1      25.096 -19.799  30.446  1.00  0.00    -0.347 OA
BRANCH   8   9
ATOM      9  C   UNL     1      24.504 -20.106  31.712  1.00  0.00     0.281 C 
ATOM     10  C   UNL     1      27.229 -18.604  31.778  1.00  0.00     0.041 C 
ATOM     11  C   UNL     1      26.239 -18.965  32.908  1.00  0.00     0.150 C 
ATOM     12  C   UNL     1      25.290 -17.789  33.287  1.00  0.00     0.174 C 
ATOM     13  O   UNL     1      25.557 -20.210  32.667  1.00  0.00    -0.344 OA
ATOM     14  C   UNL     1      24.074 -17.716  32.348  1.00  0.00     0.179 C 
ATOM     15  C   UNL     1      23.451 -19.112  32.274  1.00  0.00     0.202 C 
BRANCH  12  16
ATOM     16  O   UNL     1      25.974 -16.556  33.265  1.00  0.00    -0.388 OA
ATOM     17  H   UNL     1      25.291 -15.838  33.299  1.00  0.00     0.211 HD
ENDBRANCH  12  16
BRANCH  14  18
ATOM     18  O   UNL     1      23.150 -16.795  32.861  1.00  0.00    -0.387 OA
ATOM     19  H   UNL     1      23.238 -15.972  32.309  1.00  0.00     0.211 HD
ENDBRANCH  14  18
BRANCH  15  20
ATOM     20  O   UNL     1      22.246 -19.113  31.555  1.00  0.00    -0.385 OA
ATOM     21  H   UNL     1      22.434 -18.697  30.670  1.00  0.00     0.211 HD
ENDBRANCH  15  20
ENDBRANCH   8   9
ENDBRANCH   7   8
ENDBRANCH   1   7
BRANCH   2  22
ATOM     22  O   UNL     1      24.147 -19.378  26.411  1.00  0.00    -0.387 OA
ATOM     23  H   UNL     1      23.989 -18.401  26.341  1.00  0.00     0.211 HD
ENDBRANCH   2  22
BRANCH   3  24
ATOM     24  O   UNL     1      21.734 -20.008  26.812  1.00  0.00    -0.387 OA
ATOM     25  H   UNL     1      21.987 -20.743  26.194  1.00  0.00     0.211 HD
ENDBRANCH   3  24
BRANCH   5  26
ATOM     26  O   UNL     1      23.275 -23.890  28.023  1.00  0.00    -0.454 OA
BRANCH  26  27
ATOM     27  C   UNL     1      24.331 -24.654  28.527  1.00  0.00     0.214 A 
ATOM     28  C   UNL     1      25.126 -25.427  27.663  1.00  0.00     0.180 A 
ATOM     29  C   UNL     1      24.602 -24.681  29.901  1.00  0.00     0.239 A 
ATOM     30  O   UNL     1      26.057 -26.233  28.165  1.00  0.00    -0.452 OA
ATOM     31  C   UNL     1      25.538 -25.608  30.418  1.00  0.00     0.111 A 
ATOM     32  O   UNL     1      24.027 -23.846  30.642  1.00  0.00    -0.285 OA
ATOM     33  C   UNL     1      26.285 -26.356  29.470  1.00  0.00     0.146 A 
ATOM     34  C   UNL     1      25.773 -25.833  31.808  1.00  0.00     0.134 A 
ATOM     35  C   UNL     1      27.281 -27.238  29.896  1.00  0.00     0.094 A 
ATOM     36  C   UNL     1      26.798 -26.704  32.198  1.00  0.00     0.093 A 
ATOM     37  C   UNL     1      27.534 -27.411  31.257  1.00  0.00     0.123 A 
BRANCH  28  38
ATOM     38  C   UNL     1      24.919 -25.423  26.199  1.00  0.00     0.025 A 
ATOM     39  C   UNL     1      24.112 -26.391  25.570  1.00  0.00     0.062 A 
ATOM     40  C   UNL     1      25.593 -24.478  25.414  1.00  0.00     0.016 A 
ATOM     41  C   UNL     1      24.053 -26.473  24.173  1.00  0.00     0.158 A 
ATOM     42  C   UNL     1      25.519 -24.541  24.021  1.00  0.00     0.051 A 
ATOM     43  C   UNL     1      24.769 -25.542  23.386  1.00  0.00     0.157 A 
BRANCH  41  44
ATOM     44  O   UNL     1      23.294 -27.496  23.615  1.00  0.00    -0.504 OA
ATOM     45  H   UNL     1      22.280 -27.471  23.524  1.00  0.00     0.293 HD
ENDBRANCH  41  44
BRANCH  43  46
ATOM     46  O   UNL     1      24.772 -25.570  21.986  1.00  0.00    -0.504 OA
ATOM     47  H   UNL     1      24.143 -26.137  21.436  1.00  0.00     0.293 HD
ENDBRANCH  43  46
ENDBRANCH  28  38
BRANCH  34  48
ATOM     48  O   UNL     1      25.003 -25.266  32.832  1.00  0.00    -0.507 OA
ATOM     49  H   UNL     1      24.390 -25.782  33.452  1.00  0.00     0.293 HD
ENDBRANCH  34  48
BRANCH  37  50
ATOM     50  O   UNL     1      28.508 -28.313  31.689  1.00  0.00    -0.508 OA
ATOM     51  H   UNL     1      28.293 -29.094  32.296  1.00  0.00     0.293 HD
ENDBRANCH  37  50
ENDBRANCH  26  27
ENDBRANCH   5  26
BRANCH   4  52
ATOM     52  O   UNL     1      22.653 -21.665  29.844  1.00  0.00    -0.384 OA
ATOM     53  H   UNL     1      21.807 -21.921  30.313  1.00  0.00     0.211 HD
ENDBRANCH   4  52
TORSDOF 16
ENDMDL
MODEL 4
REMARK VINA RESULT:    -8.173      2.168      8.092
REMARK INTER + INTRA:         -16.186
REMARK INTER:                 -14.764
REMARK INTRA:                  -1.422
REMARK UNBOUND:                -2.758
REMARK SMILES C[C@@H]1O[C@H](OC[C@H]2O[C@@H](Oc3c(-c4ccc(O)c(O)c4)oc4cc(O)cc(O)c4c3=O)[C@@H](O)[C@H](O)[C@@H]2O)[C@H](O)[C@@H](O)[C@@H]1O
REMARK SMILES IDX 7 1 36 2 34 3 32 4 9 5 8 6 6 7 5 8 4 9 1 10 2 11 42 12 3 13
REMARK SMILES IDX 40 14 38 15 43 16 41 18 39 20 37 22 35 24 10 26 11 27 12 28
REMARK SMILES IDX 30 29 21 30 29 31 31 32 22 33 27 34 23 35 26 36 24 37 13 38
REMARK SMILES IDX 20 39 14 40 18 41 15 42 16 43 19 44 17 46 28 48 25 50 33 52
REMARK H PARENT 43 17 41 19 39 21 37 23 35 25 19 45 17 47 28 49 25 51 33 53
REMARK Flexibility Score: inf
ROOT
ATOM      1  C   UNL     1      25.067 -21.333  27.391  1.00  0.00     0.180 C 
ATOM      2  C   UNL     1      24.262 -21.073  26.064  1.00  0.00     0.177 C 
ATOM      3  C   UNL     1      22.982 -21.930  25.914  1.00  0.00     0.180 C 
ATOM      4  C   UNL     1      22.813 -22.933  27.058  1.00  0.00     0.214 C 
ATOM      5  C   UNL     1      24.187 -23.587  27.380  1.00  0.00     0.339 C 
ATOM      6  O   UNL     1      25.267 -22.707  27.689  1.00  0.00    -0.332 OA
ENDROOT
BRANCH   1   7
ATOM      7  C   UNL     1      24.627 -20.587  28.681  1.00  0.00     0.198 C 
BRANCH   7   8
ATOM      8  O   UNL     1      23.512 -19.741  28.526  1.00  0.00    -0.347 OA
BRANCH   8   9
ATOM      9  C   UNL     1      22.902 -19.261  29.728  1.00  0.00     0.281 C 
ATOM     10  C   UNL     1      23.613 -17.124  27.580  1.00  0.00     0.041 C 
ATOM     11  C   UNL     1      22.831 -17.011  28.907  1.00  0.00     0.150 C 
ATOM     12  C   UNL     1      21.286 -17.066  28.711  1.00  0.00     0.174 C 
ATOM     13  O   UNL     1      23.322 -17.911  29.916  1.00  0.00    -0.344 OA
ATOM     14  C   UNL     1      20.776 -18.513  28.622  1.00  0.00     0.179 C 
ATOM     15  C   UNL     1      21.352 -19.290  29.809  1.00  0.00     0.202 C 
BRANCH  12  16
ATOM     16  O   UNL     1      20.895 -16.358  27.555  1.00  0.00    -0.388 OA
ATOM     17  H   UNL     1      21.004 -16.970  26.783  1.00  0.00     0.211 HD
ENDBRANCH  12  16
BRANCH  14  18
ATOM     18  O   UNL     1      19.375 -18.513  28.671  1.00  0.00    -0.387 OA
ATOM     19  H   UNL     1      19.074 -19.267  28.096  1.00  0.00     0.211 HD
ENDBRANCH  14  18
BRANCH  15  20
ATOM     20  O   UNL     1      20.823 -20.587  29.896  1.00  0.00    -0.385 OA
ATOM     21  H   UNL     1      20.274 -20.622  30.725  1.00  0.00     0.211 HD
ENDBRANCH  15  20
ENDBRANCH   8   9
ENDBRANCH   7   8
ENDBRANCH   1   7
BRANCH   2  22
ATOM     22  O   UNL     1      25.118 -21.299  24.969  1.00  0.00    -0.387 OA
ATOM     23  H   UNL     1      24.726 -20.820  24.192  1.00  0.00     0.211 HD
ENDBRANCH   2  22
BRANCH   3  24
ATOM     24  O   UNL     1      22.976 -22.606  24.680  1.00  0.00    -0.387 OA
ATOM     25  H   UNL     1      23.051 -21.915  23.970  1.00  0.00     0.211 HD
ENDBRANCH   3  24
BRANCH   5  26
ATOM     26  O   UNL     1      24.056 -24.591  28.396  1.00  0.00    -0.454 OA
BRANCH  26  27
ATOM     27  C   UNL     1      25.021 -25.569  28.652  1.00  0.00     0.214 A 
ATOM     28  C   UNL     1      25.588 -26.303  27.597  1.00  0.00     0.180 A 
ATOM     29  C   UNL     1      25.424 -25.848  29.964  1.00  0.00     0.239 A 
ATOM     30  O   UNL     1      26.424 -27.304  27.862  1.00  0.00    -0.452 OA
ATOM     31  C   UNL     1      26.246 -26.970  30.226  1.00  0.00     0.111 A 
ATOM     32  O   UNL     1      25.070 -25.065  30.880  1.00  0.00    -0.285 OA
ATOM     33  C   UNL     1      26.762 -27.661  29.098  1.00  0.00     0.146 A 
ATOM     34  C   UNL     1      26.583 -27.441  31.531  1.00  0.00     0.134 A 
ATOM     35  C   UNL     1      27.641 -28.733  29.270  1.00  0.00     0.094 A 
ATOM     36  C   UNL     1      27.488 -28.501  31.666  1.00  0.00     0.093 A 
ATOM     37  C   UNL     1      28.001 -29.151  30.551  1.00  0.00     0.123 A 
BRANCH  28  38
ATOM     38  C   UNL     1      25.235 -26.041  26.185  1.00  0.00     0.025 A 
ATOM     39  C   UNL     1      24.196 -26.746  25.546  1.00  0.00     0.062 A 
ATOM     40  C   UNL     1      25.994 -25.121  25.449  1.00  0.00     0.016 A 
ATOM     41  C   UNL     1      23.978 -26.603  24.169  1.00  0.00     0.158 A 
ATOM     42  C   UNL     1      25.765 -24.958  24.081  1.00  0.00     0.051 A 
ATOM     43  C   UNL     1      24.775 -25.703  23.424  1.00  0.00     0.157 A 
BRANCH  41  44
ATOM     44  O   UNL     1      22.984 -27.381  23.586  1.00  0.00    -0.504 OA
ATOM     45  H   UNL     1      22.128 -27.004  23.183  1.00  0.00     0.293 HD
ENDBRANCH  41  44
BRANCH  43  46
ATOM     46  O   UNL     1      24.628 -25.519  22.044  1.00  0.00    -0.504 OA
ATOM     47  H   UNL     1      25.385 -25.251  21.430  1.00  0.00     0.293 HD
ENDBRANCH  43  46
ENDBRANCH  28  38
BRANCH  34  48
ATOM     48  O   UNL     1      26.024 -26.935  32.713  1.00  0.00    -0.507 OA
ATOM     49  H   UNL     1      26.160 -25.995  33.063  1.00  0.00     0.293 HD
ENDBRANCH  34  48
BRANCH  37  50
ATOM     50  O   UNL     1      28.856 -30.240  30.727  1.00  0.00    -0.508 OA
ATOM     51  H   UNL     1      29.239 -30.761  29.949  1.00  0.00     0.293 HD
ENDBRANCH  37  50
ENDBRANCH  26  27
ENDBRANCH   5  26
BRANCH   4  52
ATOM     52  O   UNL     1      22.275 -22.260  28.169  1.00  0.00    -0.384 OA
ATOM     53  H   UNL     1      22.104 -22.935  28.887  1.00  0.00     0.211 HD
ENDBRANCH   4  52
TORSDOF 16
ENDMDL
MODEL 5
REMARK VINA RESULT:    -8.126      1.842      6.493
REMARK INTER + INTRA:         -16.110
REMARK INTER:                 -13.061
REMARK INTRA:                  -3.050
REMARK UNBOUND:                -2.758
REMARK SMILES C[C@@H]1O[C@H](OC[C@H]2O[C@@H](Oc3c(-c4ccc(O)c(O)c4)oc4cc(O)cc(O)c4c3=O)[C@@H](O)[C@H](O)[C@@H]2O)[C@H](O)[C@@H](O)[C@@H]1O
REMARK SMILES IDX 7 1 36 2 34 3 32 4 9 5 8 6 6 7 5 8 4 9 1 10 2 11 42 12 3 13
REMARK SMILES IDX 40 14 38 15 43 16 41 18 39 20 37 22 35 24 10 26 11 27 12 28
REMARK SMILES IDX 30 29 21 30 29 31 31 32 22 33 27 34 23 35 26 36 24 37 13 38
REMARK SMILES IDX 20 39 14 40 18 41 15 42 16 43 19 44 17 46 28 48 25 50 33 52
REMARK H PARENT 43 17 41 19 39 21 37 23 35 25 19 45 17 47 28 49 25 51 33 53
REMARK Flexibility Score: inf
ROOT
ATOM      1  C   UNL     1      24.044 -21.147  27.122  1.00  0.00     0.180 C 
ATOM      2  C   UNL     1      24.897 -20.383  28.202  1.00  0.00     0.177 C 
ATOM      3  C   UNL     1      25.763 -21.300  29.099  1.00  0.00     0.180 C 
ATOM      4  C   UNL     1      25.535 -22.786  28.809  1.00  0.00     0.214 C 
ATOM      5  C   UNL     1      24.013 -23.048  28.618  1.00  0.00     0.339 C 
ATOM      6  O   UNL     1      23.341 -22.273  27.628  1.00  0.00    -0.332 OA
ENDROOT
BRANCH   1   7
ATOM      7  C   UNL     1      24.723 -21.528  25.777  1.00  0.00     0.198 C 
BRANCH   7   8
ATOM      8  O   UNL     1      24.578 -22.877  25.401  1.00  0.00    -0.347 OA
BRANCH   8   9
ATOM      9  C   UNL     1      23.551 -23.168  24.449  1.00  0.00     0.281 C 
ATOM     10  C   UNL     1      26.075 -24.987  24.371  1.00  0.00     0.041 C 
ATOM     11  C   UNL     1      24.730 -25.083  23.619  1.00  0.00     0.150 C 
ATOM     12  C   UNL     1      23.725 -26.068  24.289  1.00  0.00     0.174 C 
ATOM     13  O   UNL     1      24.169 -23.791  23.324  1.00  0.00    -0.344 OA
ATOM     14  C   UNL     1      22.951 -25.397  25.435  1.00  0.00     0.179 C 
ATOM     15  C   UNL     1      22.380 -24.078  24.909  1.00  0.00     0.202 C 
BRANCH  12  16
ATOM     16  O   UNL     1      24.386 -27.214  24.778  1.00  0.00    -0.388 OA
ATOM     17  H   UNL     1      25.263 -26.920  25.137  1.00  0.00     0.211 HD
ENDBRANCH  12  16
BRANCH  14  18
ATOM     18  O   UNL     1      21.915 -26.246  25.852  1.00  0.00    -0.387 OA
ATOM     19  H   UNL     1      21.495 -25.810  26.641  1.00  0.00     0.211 HD
ENDBRANCH  14  18
BRANCH  15  20
ATOM     20  O   UNL     1      21.531 -23.462  25.842  1.00  0.00    -0.385 OA
ATOM     21  H   UNL     1      20.627 -23.861  25.721  1.00  0.00     0.211 HD
ENDBRANCH  15  20
ENDBRANCH   8   9
ENDBRANCH   7   8
ENDBRANCH   1   7
BRANCH   2  22
ATOM     22  O   UNL     1      24.027 -19.618  29.002  1.00  0.00    -0.387 OA
ATOM     23  H   UNL     1      23.897 -18.750  28.537  1.00  0.00     0.211 HD
ENDBRANCH   2  22
BRANCH   3  24
ATOM     24  O   UNL     1      25.523 -21.037  30.460  1.00  0.00    -0.387 OA
ATOM     25  H   UNL     1      24.593 -21.330  30.653  1.00  0.00     0.211 HD
ENDBRANCH   3  24
BRANCH   5  26
ATOM     26  O   UNL     1      23.751 -24.445  28.421  1.00  0.00    -0.454 OA
BRANCH  26  27
ATOM     27  C   UNL     1      24.326 -25.460  29.190  1.00  0.00     0.214 A 
ATOM     28  C   UNL     1      23.916 -25.667  30.518  1.00  0.00     0.180 A 
ATOM     29  C   UNL     1      25.335 -26.274  28.659  1.00  0.00     0.239 A 
ATOM     30  O   UNL     1      24.546 -26.563  31.273  1.00  0.00    -0.452 OA
ATOM     31  C   UNL     1      26.045 -27.159  29.504  1.00  0.00     0.111 A 
ATOM     32  O   UNL     1      25.559 -26.222  27.424  1.00  0.00    -0.285 OA
ATOM     33  C   UNL     1      25.568 -27.292  30.835  1.00  0.00     0.146 A 
ATOM     34  C   UNL     1      27.192 -27.913  29.109  1.00  0.00     0.134 A 
ATOM     35  C   UNL     1      26.168 -28.200  31.710  1.00  0.00     0.094 A 
ATOM     36  C   UNL     1      27.750 -28.833  30.004  1.00  0.00     0.093 A 
ATOM     37  C   UNL     1      27.256 -28.967  31.294  1.00  0.00     0.123 A 
BRANCH  28  38
ATOM     38  C   UNL     1      22.835 -24.867  31.135  1.00  0.00     0.025 A 
ATOM     39  C   UNL     1      23.111 -23.894  32.115  1.00  0.00     0.062 A 
ATOM     40  C   UNL     1      21.503 -25.131  30.785  1.00  0.00     0.016 A 
ATOM     41  C   UNL     1      22.069 -23.260  32.804  1.00  0.00     0.158 A 
ATOM     42  C   UNL     1      20.462 -24.484  31.453  1.00  0.00     0.051 A 
ATOM     43  C   UNL     1      20.727 -23.561  32.475  1.00  0.00     0.157 A 
BRANCH  41  44
ATOM     44  O   UNL     1      22.409 -22.362  33.810  1.00  0.00    -0.504 OA
ATOM     45  H   UNL     1      22.417 -21.350  33.693  1.00  0.00     0.293 HD
ENDBRANCH  41  44
BRANCH  43  46
ATOM     46  O   UNL     1      19.634 -22.980  33.130  1.00  0.00    -0.504 OA
ATOM     47  H   UNL     1      19.721 -22.278  33.851  1.00  0.00     0.293 HD
ENDBRANCH  43  46
ENDBRANCH  28  38
BRANCH  34  48
ATOM     48  O   UNL     1      27.840 -27.759  27.875  1.00  0.00    -0.507 OA
ATOM     49  H   UNL     1      27.378 -27.547  26.999  1.00  0.00     0.293 HD
ENDBRANCH  34  48
BRANCH  37  50
ATOM     50  O   UNL     1      27.877 -29.854  32.175  1.00  0.00    -0.508 OA
ATOM     51  H   UNL     1      27.605 -29.934  33.147  1.00  0.00     0.293 HD
ENDBRANCH  37  50
ENDBRANCH  26  27
ENDBRANCH   5  26
BRANCH   4  52
ATOM     52  O   UNL     1      26.277 -23.140  27.669  1.00  0.00    -0.384 OA
ATOM     53  H   UNL     1      26.732 -24.012  27.852  1.00  0.00     0.211 HD
ENDBRANCH   4  52
TORSDOF 16
ENDMDL
MODEL 6
REMARK VINA RESULT:    -8.105      2.365      7.725
REMARK INTER + INTRA:         -16.074
REMARK INTER:                 -13.466
REMARK INTRA:                  -2.608
REMARK UNBOUND:                -2.758
REMARK SMILES C[C@@H]1O[C@H](OC[C@H]2O[C@@H](Oc3c(-c4ccc(O)c(O)c4)oc4cc(O)cc(O)c4c3=O)[C@@H](O)[C@H](O)[C@@H]2O)[C@H](O)[C@@H](O)[C@@H]1O
REMARK SMILES IDX 7 1 36 2 34 3 32 4 9 5 8 6 6 7 5 8 4 9 1 10 2 11 42 12 3 13
REMARK SMILES IDX 40 14 38 15 43 16 41 18 39 20 37 22 35 24 10 26 11 27 12 28
REMARK SMILES IDX 30 29 21 30 29 31 31 32 22 33 27 34 23 35 26 36 24 37 13 38
REMARK SMILES IDX 20 39 14 40 18 41 15 42 16 43 19 44 17 46 28 48 25 50 33 52
REMARK H PARENT 43 17 41 19 39 21 37 23 35 25 19 45 17 47 28 49 25 51 33 53
REMARK Flexibility Score: inf
ROOT
ATOM      1  C   UNL     1      25.026 -20.832  27.875  1.00  0.00     0.180 C 
ATOM      2  C   UNL     1      23.946 -19.792  27.399  1.00  0.00     0.177 C 
ATOM      3  C   UNL     1      22.482 -20.233  27.640  1.00  0.00     0.180 C 
ATOM      4  C   UNL     1      22.386 -21.650  28.213  1.00  0.00     0.214 C 
ATOM      5  C   UNL     1      23.397 -22.576  27.477  1.00  0.00     0.339 C 
ATOM      6  O   UNL     1      24.764 -22.168  27.471  1.00  0.00    -0.332 OA
ENDROOT
BRANCH   1   7
ATOM      7  C   UNL     1      25.454 -20.822  29.369  1.00  0.00     0.198 C 
BRANCH   7   8
ATOM      8  O   UNL     1      24.923 -19.763  30.131  1.00  0.00    -0.347 OA
BRANCH   8   9
ATOM      9  C   UNL     1      25.653 -18.533  30.111  1.00  0.00     0.281 C 
ATOM     10  C   UNL     1      22.653 -18.358  30.920  1.00  0.00     0.041 C 
ATOM     11  C   UNL     1      23.772 -17.293  30.927  1.00  0.00     0.150 C 
ATOM     12  C   UNL     1      24.426 -17.105  32.328  1.00  0.00     0.174 C 
ATOM     13  O   UNL     1      24.721 -17.483  29.862  1.00  0.00    -0.344 OA
ATOM     14  C   UNL     1      25.523 -18.150  32.588  1.00  0.00     0.179 C 
ATOM     15  C   UNL     1      26.463 -18.156  31.381  1.00  0.00     0.202 C 
BRANCH  12  16
ATOM     16  O   UNL     1      23.460 -17.174  33.354  1.00  0.00    -0.388 OA
ATOM     17  H   UNL     1      23.678 -16.468  34.015  1.00  0.00     0.211 HD
ENDBRANCH  12  16
BRANCH  14  18
ATOM     18  O   UNL     1      26.224 -17.804  33.752  1.00  0.00    -0.387 OA
ATOM     19  H   UNL     1      26.701 -16.955  33.550  1.00  0.00     0.211 HD
ENDBRANCH  14  18
BRANCH  15  20
ATOM     20  O   UNL     1      27.583 -18.976  31.590  1.00  0.00    -0.385 OA
ATOM     21  H   UNL     1      28.145 -18.916  30.770  1.00  0.00     0.211 HD
ENDBRANCH  15  20
ENDBRANCH   8   9
ENDBRANCH   7   8
ENDBRANCH   1   7
BRANCH   2  22
ATOM     22  O   UNL     1      24.146 -19.533  26.029  1.00  0.00    -0.387 OA
ATOM     23  H   UNL     1      23.596 -18.738  25.802  1.00  0.00     0.211 HD
ENDBRANCH   2  22
BRANCH   3  24
ATOM     24  O   UNL     1      21.733 -20.147  26.452  1.00  0.00    -0.387 OA
ATOM     25  H   UNL     1      21.447 -19.200  26.357  1.00  0.00     0.211 HD
ENDBRANCH   3  24
BRANCH   5  26
ATOM     26  O   UNL     1      23.283 -23.931  27.933  1.00  0.00    -0.454 OA
BRANCH  26  27
ATOM     27  C   UNL     1      24.348 -24.666  28.460  1.00  0.00     0.214 A 
ATOM     28  C   UNL     1      25.150 -25.458  27.621  1.00  0.00     0.180 A 
ATOM     29  C   UNL     1      24.620 -24.644  29.834  1.00  0.00     0.239 A 
ATOM     30  O   UNL     1      26.091 -26.237  28.149  1.00  0.00    -0.452 OA
ATOM     31  C   UNL     1      25.567 -25.543  30.380  1.00  0.00     0.111 A 
ATOM     32  O   UNL     1      24.036 -23.792  30.548  1.00  0.00    -0.285 OA
ATOM     33  C   UNL     1      26.322 -26.314  29.457  1.00  0.00     0.146 A 
ATOM     34  C   UNL     1      25.806 -25.720  31.777  1.00  0.00     0.134 A 
ATOM     35  C   UNL     1      27.327 -27.171  29.911  1.00  0.00     0.094 A 
ATOM     36  C   UNL     1      26.840 -26.566  32.195  1.00  0.00     0.093 A 
ATOM     37  C   UNL     1      27.583 -27.295  31.277  1.00  0.00     0.123 A 
BRANCH  28  38
ATOM     38  C   UNL     1      24.942 -25.505  26.158  1.00  0.00     0.025 A 
ATOM     39  C   UNL     1      24.062 -26.436  25.572  1.00  0.00     0.062 A 
ATOM     40  C   UNL     1      25.686 -24.651  25.332  1.00  0.00     0.016 A 
ATOM     41  C   UNL     1      23.995 -26.578  24.180  1.00  0.00     0.158 A 
ATOM     42  C   UNL     1      25.605 -24.772  23.944  1.00  0.00     0.051 A 
ATOM     43  C   UNL     1      24.780 -25.740  23.353  1.00  0.00     0.157 A 
BRANCH  41  44
ATOM     44  O   UNL     1      23.160 -27.564  23.668  1.00  0.00    -0.504 OA
ATOM     45  H   UNL     1      22.170 -27.647  23.893  1.00  0.00     0.293 HD
ENDBRANCH  41  44
BRANCH  43  46
ATOM     46  O   UNL     1      24.779 -25.832  21.956  1.00  0.00    -0.504 OA
ATOM     47  H   UNL     1      25.461 -26.359  21.429  1.00  0.00     0.293 HD
ENDBRANCH  43  46
ENDBRANCH  28  38
BRANCH  34  48
ATOM     48  O   UNL     1      25.030 -25.127  32.782  1.00  0.00    -0.507 OA
ATOM     49  H   UNL     1      25.397 -24.596  33.562  1.00  0.00     0.293 HD
ENDBRANCH  34  48
BRANCH  37  50
ATOM     50  O   UNL     1      28.568 -28.172  31.737  1.00  0.00    -0.508 OA
ATOM     51  H   UNL     1      28.457 -28.716  32.583  1.00  0.00     0.293 HD
ENDBRANCH  37  50
ENDBRANCH  26  27
ENDBRANCH   5  26
BRANCH   4  52
ATOM     52  O   UNL     1      22.634 -21.592  29.596  1.00  0.00    -0.384 OA
ATOM     53  H   UNL     1      23.621 -21.497  29.730  1.00  0.00     0.211 HD
ENDBRANCH   4  52
TORSDOF 16
ENDMDL
MODEL 7
REMARK VINA RESULT:    -8.099      3.047      6.366
REMARK INTER + INTRA:         -16.065
REMARK INTER:                 -13.757
REMARK INTRA:                  -2.308
REMARK UNBOUND:                -2.758
REMARK SMILES C[C@@H]1O[C@H](OC[C@H]2O[C@@H](Oc3c(-c4ccc(O)c(O)c4)oc4cc(O)cc(O)c4c3=O)[C@@H](O)[C@H](O)[C@@H]2O)[C@H](O)[C@@H](O)[C@@H]1O
REMARK SMILES IDX 7 1 36 2 34 3 32 4 9 5 8 6 6 7 5 8 4 9 1 10 2 11 42 12 3 13
REMARK SMILES IDX 40 14 38 15 43 16 41 18 39 20 37 22 35 24 10 26 11 27 12 28
REMARK SMILES IDX 30 29 21 30 29 31 31 32 22 33 27 34 23 35 26 36 24 37 13 38
REMARK SMILES IDX 20 39 14 40 18 41 15 42 16 43 19 44 17 46 28 48 25 50 33 52
REMARK H PARENT 43 17 41 19 39 21 37 23 35 25 19 45 17 47 28 49 25 51 33 53
REMARK Flexibility Score: inf
ROOT
ATOM      1  C   UNL     1      25.941 -24.281  32.026  1.00  0.00     0.180 C 
ATOM      2  C   UNL     1      25.070 -23.513  33.088  1.00  0.00     0.177 C 
ATOM      3  C   UNL     1      23.630 -24.058  33.249  1.00  0.00     0.180 C 
ATOM      4  C   UNL     1      23.318 -25.186  32.261  1.00  0.00     0.214 C 
ATOM      5  C   UNL     1      23.890 -24.821  30.861  1.00  0.00     0.339 C 
ATOM      6  O   UNL     1      25.281 -24.511  30.790  1.00  0.00    -0.332 OA
ENDROOT
BRANCH   1   7
ATOM      7  C   UNL     1      26.670 -25.581  32.468  1.00  0.00     0.198 C 
BRANCH   7   8
ATOM      8  O   UNL     1      26.866 -25.708  33.857  1.00  0.00    -0.347 OA
BRANCH   8   9
ATOM      9  C   UNL     1      28.222 -25.758  34.308  1.00  0.00     0.281 C 
ATOM     10  C   UNL     1      26.035 -26.512  36.389  1.00  0.00     0.041 C 
ATOM     11  C   UNL     1      27.576 -26.590  36.460  1.00  0.00     0.150 C 
ATOM     12  C   UNL     1      28.130 -28.012  36.145  1.00  0.00     0.174 C 
ATOM     13  O   UNL     1      28.217 -25.538  35.717  1.00  0.00    -0.344 OA
ATOM     14  C   UNL     1      28.262 -28.247  34.632  1.00  0.00     0.179 C 
ATOM     15  C   UNL     1      29.024 -27.060  34.036  1.00  0.00     0.202 C 
BRANCH  12  16
ATOM     16  O   UNL     1      27.308 -29.013  36.705  1.00  0.00    -0.388 OA
ATOM     17  H   UNL     1      27.433 -28.984  37.688  1.00  0.00     0.211 HD
ENDBRANCH  12  16
BRANCH  14  18
ATOM     18  O   UNL     1      28.966 -29.440  34.410  1.00  0.00    -0.387 OA
ATOM     19  H   UNL     1      28.521 -29.889  33.642  1.00  0.00     0.211 HD
ENDBRANCH  14  18
BRANCH  15  20
ATOM     20  O   UNL     1      29.324 -27.255  32.679  1.00  0.00    -0.385 OA
ATOM     21  H   UNL     1      28.458 -27.261  32.187  1.00  0.00     0.211 HD
ENDBRANCH  15  20
ENDBRANCH   8   9
ENDBRANCH   7   8
ENDBRANCH   1   7
BRANCH   2  22
ATOM     22  O   UNL     1      25.026 -22.151  32.732  1.00  0.00    -0.387 OA
ATOM     23  H   UNL     1      25.965 -21.860  32.589  1.00  0.00     0.211 HD
ENDBRANCH   2  22
BRANCH   3  24
ATOM     24  O   UNL     1      22.686 -23.025  33.107  1.00  0.00    -0.387 OA
ATOM     25  H   UNL     1      21.791 -23.453  33.057  1.00  0.00     0.211 HD
ENDBRANCH   3  24
BRANCH   5  26
ATOM     26  O   UNL     1      23.551 -25.819  29.888  1.00  0.00    -0.454 OA
BRANCH  26  27
ATOM     27  C   UNL     1      23.852 -25.712  28.527  1.00  0.00     0.214 A 
ATOM     28  C   UNL     1      24.929 -26.430  27.978  1.00  0.00     0.180 A 
ATOM     29  C   UNL     1      23.102 -24.873  27.693  1.00  0.00     0.239 A 
ATOM     30  O   UNL     1      25.273 -26.237  26.708  1.00  0.00    -0.452 OA
ATOM     31  C   UNL     1      23.539 -24.620  26.371  1.00  0.00     0.111 A 
ATOM     32  O   UNL     1      22.030 -24.391  28.135  1.00  0.00    -0.285 OA
ATOM     33  C   UNL     1      24.643 -25.382  25.906  1.00  0.00     0.146 A 
ATOM     34  C   UNL     1      22.947 -23.664  25.491  1.00  0.00     0.134 A 
ATOM     35  C   UNL     1      25.089 -25.245  24.590  1.00  0.00     0.094 A 
ATOM     36  C   UNL     1      23.401 -23.574  24.170  1.00  0.00     0.093 A 
ATOM     37  C   UNL     1      24.469 -24.343  23.726  1.00  0.00     0.123 A 
BRANCH  28  38
ATOM     38  C   UNL     1      25.744 -27.358  28.792  1.00  0.00     0.025 A 
ATOM     39  C   UNL     1      25.169 -28.134  29.816  1.00  0.00     0.062 A 
ATOM     40  C   UNL     1      27.129 -27.415  28.583  1.00  0.00     0.016 A 
ATOM     41  C   UNL     1      25.974 -28.886  30.681  1.00  0.00     0.158 A 
ATOM     42  C   UNL     1      27.934 -28.181  29.428  1.00  0.00     0.051 A 
ATOM     43  C   UNL     1      27.376 -28.906  30.491  1.00  0.00     0.157 A 
BRANCH  41  44
ATOM     44  O   UNL     1      25.350 -29.573  31.716  1.00  0.00    -0.504 OA
ATOM     45  H   UNL     1      25.790 -30.318  32.253  1.00  0.00     0.293 HD
ENDBRANCH  41  44
BRANCH  43  46
ATOM     46  O   UNL     1      28.247 -29.620  31.323  1.00  0.00    -0.504 OA
ATOM     47  H   UNL     1      28.168 -30.612  31.498  1.00  0.00     0.293 HD
ENDBRANCH  43  46
ENDBRANCH  28  38
BRANCH  34  48
ATOM     48  O   UNL     1      21.952 -22.757  25.880  1.00  0.00    -0.507 OA
ATOM     49  H   UNL     1      20.970 -22.981  25.983  1.00  0.00     0.293 HD
ENDBRANCH  34  48
BRANCH  37  50
ATOM     50  O   UNL     1      24.929 -24.182  22.418  1.00  0.00    -0.508 OA
ATOM     51  H   UNL     1      24.378 -23.727  21.700  1.00  0.00     0.293 HD
ENDBRANCH  37  50
ENDBRANCH  26  27
ENDBRANCH   5  26
BRANCH   4  52
ATOM     52  O   UNL     1      23.865 -26.382  32.758  1.00  0.00    -0.384 OA
ATOM     53  H   UNL     1      23.590 -27.126  32.149  1.00  0.00     0.211 HD
ENDBRANCH   4  52
TORSDOF 16
ENDMDL
MODEL 8
REMARK VINA RESULT:    -8.097      1.292      1.827
REMARK INTER + INTRA:         -16.062
REMARK INTER:                 -13.976
REMARK INTRA:                  -2.086
REMARK UNBOUND:                -2.758
REMARK SMILES C[C@@H]1O[C@H](OC[C@H]2O[C@@H](Oc3c(-c4ccc(O)c(O)c4)oc4cc(O)cc(O)c4c3=O)[C@@H](O)[C@H](O)[C@@H]2O)[C@H](O)[C@@H](O)[C@@H]1O
REMARK SMILES IDX 7 1 36 2 34 3 32 4 9 5 8 6 6 7 5 8 4 9 1 10 2 11 42 12 3 13
REMARK SMILES IDX 40 14 38 15 43 16 41 18 39 20 37 22 35 24 10 26 11 27 12 28
REMARK SMILES IDX 30 29 21 30 29 31 31 32 22 33 27 34 23 35 26 36 24 37 13 38
REMARK SMILES IDX 20 39 14 40 18 41 15 42 16 43 19 44 17 46 28 48 25 50 33 52
REMARK H PARENT 43 17 41 19 39 21 37 23 35 25 19 45 17 47 28 49 25 51 33 53
REMARK Flexibility Score: inf
ROOT
ATOM      1  C   UNL     1      24.820 -23.515  31.103  1.00  0.00     0.180 C 
ATOM      2  C   UNL     1      24.369 -23.193  32.575  1.00  0.00     0.177 C 
ATOM      3  C   UNL     1      22.860 -22.884  32.730  1.00  0.00     0.180 C 
ATOM      4  C   UNL     1      22.127 -22.863  31.385  1.00  0.00     0.214 C 
ATOM      5  C   UNL     1      23.000 -22.120  30.333  1.00  0.00     0.339 C 
ATOM      6  O   UNL     1      24.327 -22.603  30.132  1.00  0.00    -0.332 OA
ENDROOT
BRANCH   1   7
ATOM      7  C   UNL     1      24.649 -24.967  30.578  1.00  0.00     0.198 C 
BRANCH   7   8
ATOM      8  O   UNL     1      25.717 -25.836  30.873  1.00  0.00    -0.347 OA
BRANCH   8   9
ATOM      9  C   UNL     1      25.656 -26.521  32.127  1.00  0.00     0.281 C 
ATOM     10  C   UNL     1      25.974 -28.292  29.589  1.00  0.00     0.041 C 
ATOM     11  C   UNL     1      26.018 -28.651  31.091  1.00  0.00     0.150 C 
ATOM     12  C   UNL     1      27.468 -28.746  31.653  1.00  0.00     0.174 C 
ATOM     13  O   UNL     1      25.141 -27.828  31.881  1.00  0.00    -0.344 OA
ATOM     14  C   UNL     1      28.018 -27.364  32.043  1.00  0.00     0.179 C 
ATOM     15  C   UNL     1      26.977 -26.676  32.928  1.00  0.00     0.202 C 
BRANCH  12  16
ATOM     16  O   UNL     1      28.337 -29.350  30.719  1.00  0.00    -0.388 OA
ATOM     17  H   UNL     1      27.796 -29.587  29.923  1.00  0.00     0.211 HD
ENDBRANCH  12  16
BRANCH  14  18
ATOM     18  O   UNL     1      29.222 -27.528  32.742  1.00  0.00    -0.387 OA
ATOM     19  H   UNL     1      29.456 -28.493  32.677  1.00  0.00     0.211 HD
ENDBRANCH  14  18
BRANCH  15  20
ATOM     20  O   UNL     1      27.452 -25.466  33.457  1.00  0.00    -0.385 OA
ATOM     21  H   UNL     1      27.478 -25.570  34.447  1.00  0.00     0.211 HD
ENDBRANCH  15  20
ENDBRANCH   8   9
ENDBRANCH   7   8
ENDBRANCH   1   7
BRANCH   2  22
ATOM     22  O   UNL     1      25.128 -22.106  33.050  1.00  0.00    -0.387 OA
ATOM     23  H   UNL     1      24.539 -21.308  33.022  1.00  0.00     0.211 HD
ENDBRANCH   2  22
BRANCH   3  24
ATOM     24  O   UNL     1      22.666 -21.662  33.398  1.00  0.00    -0.387 OA
ATOM     25  H   UNL     1      22.242 -21.040  32.749  1.00  0.00     0.211 HD
ENDBRANCH   3  24
BRANCH   5  26
ATOM     26  O   UNL     1      22.314 -22.011  29.078  1.00  0.00    -0.454 OA
BRANCH  26  27
ATOM     27  C   UNL     1      22.868 -22.394  27.852  1.00  0.00     0.214 A 
ATOM     28  C   UNL     1      23.465 -21.438  27.012  1.00  0.00     0.180 A 
ATOM     29  C   UNL     1      22.818 -23.729  27.431  1.00  0.00     0.239 A 
ATOM     30  O   UNL     1      23.891 -21.795  25.803  1.00  0.00    -0.452 OA
ATOM     31  C   UNL     1      23.199 -24.066  26.111  1.00  0.00     0.111 A 
ATOM     32  O   UNL     1      22.467 -24.606  28.259  1.00  0.00    -0.285 OA
ATOM     33  C   UNL     1      23.780 -23.033  25.330  1.00  0.00     0.146 A 
ATOM     34  C   UNL     1      23.037 -25.359  25.526  1.00  0.00     0.134 A 
ATOM     35  C   UNL     1      24.250 -23.303  24.043  1.00  0.00     0.094 A 
ATOM     36  C   UNL     1      23.545 -25.601  24.245  1.00  0.00     0.093 A 
ATOM     37  C   UNL     1      24.132 -24.584  23.503  1.00  0.00     0.123 A 
BRANCH  28  38
ATOM     38  C   UNL     1      23.582 -20.017  27.405  1.00  0.00     0.025 A 
ATOM     39  C   UNL     1      22.682 -19.047  26.923  1.00  0.00     0.062 A 
ATOM     40  C   UNL     1      24.650 -19.617  28.220  1.00  0.00     0.016 A 
ATOM     41  C   UNL     1      22.899 -17.685  27.172  1.00  0.00     0.158 A 
ATOM     42  C   UNL     1      24.857 -18.264  28.491  1.00  0.00     0.051 A 
ATOM     43  C   UNL     1      24.002 -17.286  27.961  1.00  0.00     0.157 A 
BRANCH  41  44
ATOM     44  O   UNL     1      22.013 -16.774  26.608  1.00  0.00    -0.504 OA
ATOM     45  H   UNL     1      21.123 -17.030  26.184  1.00  0.00     0.293 HD
ENDBRANCH  41  44
BRANCH  43  46
ATOM     46  O   UNL     1      24.293 -15.945  28.240  1.00  0.00    -0.504 OA
ATOM     47  H   UNL     1      25.142 -15.482  27.947  1.00  0.00     0.293 HD
ENDBRANCH  43  46
ENDBRANCH  28  38
BRANCH  34  48
ATOM     48  O   UNL     1      22.350 -26.414  26.142  1.00  0.00    -0.507 OA
ATOM     49  H   UNL     1      22.310 -27.363  25.792  1.00  0.00     0.293 HD
ENDBRANCH  34  48
BRANCH  37  50
ATOM     50  O   UNL     1      24.573 -24.851  22.206  1.00  0.00    -0.508 OA
ATOM     51  H   UNL     1      25.272 -25.556  22.005  1.00  0.00     0.293 HD
ENDBRANCH  37  50
ENDBRANCH  26  27
ENDBRANCH   5  26
BRANCH   4  52
ATOM     52  O   UNL     1      21.855 -24.188  31.002  1.00  0.00    -0.384 OA
ATOM     53  H   UNL     1      22.727 -24.663  30.883  1.00  0.00     0.211 HD
ENDBRANCH   4  52
TORSDOF 16
ENDMDL
MODEL 9
REMARK VINA RESULT:    -7.202      6.928     10.906
REMARK INTER + INTRA:         -14.591
REMARK INTER:                 -11.724
REMARK INTRA:                  -2.867
REMARK UNBOUND:                -2.758
REMARK SMILES C[C@@H]1O[C@H](OC[C@H]2O[C@@H](Oc3c(-c4ccc(O)c(O)c4)oc4cc(O)cc(O)c4c3=O)[C@@H](O)[C@H](O)[C@@H]2O)[C@H](O)[C@@H](O)[C@@H]1O
REMARK SMILES IDX 7 1 36 2 34 3 32 4 9 5 8 6 6 7 5 8 4 9 1 10 2 11 42 12 3 13
REMARK SMILES IDX 40 14 38 15 43 16 41 18 39 20 37 22 35 24 10 26 11 27 12 28
REMARK SMILES IDX 30 29 21 30 29 31 31 32 22 33 27 34 23 35 26 36 24 37 13 38
REMARK SMILES IDX 20 39 14 40 18 41 15 42 16 43 19 44 17 46 28 48 25 50 33 52
REMARK H PARENT 43 17 41 19 39 21 37 23 35 25 19 45 17 47 28 49 25 51 33 53
REMARK Flexibility Score: inf
ROOT
ATOM      1  C   UNL     1      25.778 -26.513  38.052  1.00  0.00     0.180 C 
ATOM      2  C   UNL     1      26.807 -27.574  38.593  1.00  0.00     0.177 C 
ATOM      3  C   UNL     1      26.579 -29.012  38.068  1.00  0.00     0.180 C 
ATOM      4  C   UNL     1      25.326 -29.124  37.195  1.00  0.00     0.214 C 
ATOM      5  C   UNL     1      24.170 -28.309  37.842  1.00  0.00     0.339 C 
ATOM      6  O   UNL     1      24.423 -26.932  38.119  1.00  0.00    -0.332 OA
ENDROOT
BRANCH   1   7
ATOM      7  C   UNL     1      26.047 -25.863  36.666  1.00  0.00     0.198 C 
BRANCH   7   8
ATOM      8  O   UNL     1      27.142 -26.399  35.961  1.00  0.00    -0.347 OA
BRANCH   8   9
ATOM      9  C   UNL     1      27.850 -25.501  35.102  1.00  0.00     0.281 C 
ATOM     10  C   UNL     1      29.242 -28.213  35.732  1.00  0.00     0.041 C 
ATOM     11  C   UNL     1      29.619 -27.079  34.752  1.00  0.00     0.150 C 
ATOM     12  C   UNL     1      29.162 -27.360  33.289  1.00  0.00     0.174 C 
ATOM     13  O   UNL     1      29.242 -25.779  35.241  1.00  0.00    -0.344 OA
ATOM     14  C   UNL     1      27.694 -26.961  33.067  1.00  0.00     0.179 C 
ATOM     15  C   UNL     1      27.510 -25.534  33.588  1.00  0.00     0.202 C 
BRANCH  12  16
ATOM     16  O   UNL     1      29.335 -28.719  32.955  1.00  0.00    -0.388 OA
ATOM     17  H   UNL     1      29.924 -28.756  32.158  1.00  0.00     0.211 HD
ENDBRANCH  12  16
BRANCH  14  18
ATOM     18  O   UNL     1      27.402 -27.023  31.697  1.00  0.00    -0.387 OA
ATOM     19  H   UNL     1      27.803 -27.870  31.362  1.00  0.00     0.211 HD
ENDBRANCH  14  18
BRANCH  15  20
ATOM     20  O   UNL     1      26.234 -25.027  33.293  1.00  0.00    -0.385 OA
ATOM     21  H   UNL     1      26.367 -24.155  32.832  1.00  0.00     0.211 HD
ENDBRANCH  15  20
ENDBRANCH   8   9
ENDBRANCH   7   8
ENDBRANCH   1   7
BRANCH   2  22
ATOM     22  O   UNL     1      26.760 -27.567  40.001  1.00  0.00    -0.387 OA
ATOM     23  H   UNL     1      27.332 -28.316  40.312  1.00  0.00     0.211 HD
ENDBRANCH   2  22
BRANCH   3  24
ATOM     24  O   UNL     1      26.500 -29.926  39.135  1.00  0.00    -0.387 OA
ATOM     25  H   UNL     1      27.426 -30.064  39.468  1.00  0.00     0.211 HD
ENDBRANCH   3  24
BRANCH   5  26
ATOM     26  O   UNL     1      22.955 -28.452  37.093  1.00  0.00    -0.454 OA
BRANCH  26  27
ATOM     27  C   UNL     1      22.382 -29.685  36.769  1.00  0.00     0.214 A 
ATOM     28  C   UNL     1      22.273 -30.089  35.428  1.00  0.00     0.180 A 
ATOM     29  C   UNL     1      21.887 -30.527  37.773  1.00  0.00     0.239 A 
ATOM     30  O   UNL     1      21.628 -31.214  35.127  1.00  0.00    -0.452 OA
ATOM     31  C   UNL     1      21.132 -31.672  37.424  1.00  0.00     0.111 A 
ATOM     32  O   UNL     1      22.160 -30.260  38.969  1.00  0.00    -0.285 OA
ATOM     33  C   UNL     1      21.065 -31.996  36.043  1.00  0.00     0.146 A 
ATOM     34  C   UNL     1      20.446 -32.508  38.357  1.00  0.00     0.134 A 
ATOM     35  C   UNL     1      20.402 -33.151  35.622  1.00  0.00     0.094 A 
ATOM     36  C   UNL     1      19.816 -33.672  37.903  1.00  0.00     0.093 A 
ATOM     37  C   UNL     1      19.780 -33.985  36.551  1.00  0.00     0.123 A 
BRANCH  28  38
ATOM     38  C   UNL     1      22.802 -29.267  34.319  1.00  0.00     0.025 A 
ATOM     39  C   UNL     1      23.796 -29.758  33.450  1.00  0.00     0.062 A 
ATOM     40  C   UNL     1      22.355 -27.946  34.172  1.00  0.00     0.016 A 
ATOM     41  C   UNL     1      24.401 -28.917  32.508  1.00  0.00     0.158 A 
ATOM     42  C   UNL     1      22.938 -27.110  33.218  1.00  0.00     0.051 A 
ATOM     43  C   UNL     1      23.973 -27.573  32.392  1.00  0.00     0.157 A 
BRANCH  41  44
ATOM     44  O   UNL     1      25.424 -29.445  31.729  1.00  0.00    -0.504 OA
ATOM     45  H   UNL     1      26.088 -30.145  32.057  1.00  0.00     0.293 HD
ENDBRANCH  41  44
BRANCH  43  46
ATOM     46  O   UNL     1      24.540 -26.669  31.487  1.00  0.00    -0.504 OA
ATOM     47  H   UNL     1      24.793 -25.720  31.726  1.00  0.00     0.293 HD
ENDBRANCH  43  46
ENDBRANCH  28  38
BRANCH  34  48
ATOM     48  O   UNL     1      20.319 -32.212  39.722  1.00  0.00    -0.507 OA
ATOM     49  H   UNL     1      19.720 -31.493  40.106  1.00  0.00     0.293 HD
ENDBRANCH  34  48
BRANCH  37  50
ATOM     50  O   UNL     1      19.091 -35.125  36.132  1.00  0.00    -0.508 OA
ATOM     51  H   UNL     1      19.498 -36.051  36.176  1.00  0.00     0.293 HD
ENDBRANCH  37  50
ENDBRANCH  26  27
ENDBRANCH   5  26
BRANCH   4  52
ATOM     52  O   UNL     1      25.637 -28.664  35.903  1.00  0.00    -0.384 OA
ATOM     53  H   UNL     1      25.807 -27.680  35.957  1.00  0.00     0.211 HD
ENDBRANCH   4  52
TORSDOF 16
ENDMDL
