MODEL 1
REMARK VINA RESULT:     9.811      0.000      0.000
REMARK INTER + INTRA:          19.732
REMARK INTER:                  18.415
REMARK INTRA:                   1.316
REMARK UNBOUND:                 1.316
REMARK SMILES CCCCCCCCC=CCCCCCCCC(=O)[O-]
REMARK SMILES IDX 10 1 9 2 11 3 12 4 13 5 14 6 15 7 16 8 17 9 18 10 19 11
REMARK SMILES IDX 20 12 8 13 7 14 6 15 5 16 4 17 3 18 2 19 1 20
REMARK H PARENT
REMARK Flexibility Score: inf
ROOT
ATOM      1  C   UNL     1     -34.754  23.611   6.993  1.00  0.00    -0.031 C 
ATOM      2  C   UNL     1     -34.532  23.957   5.718  1.00  0.00    -0.031 C 
ENDROOT
BRANCH   1   3
ATOM      3  C   UNL     1     -36.070  23.007   7.405  1.00  0.00     0.027 C 
BRANCH   3   4
ATOM      4  C   UNL     1     -37.252  23.975   7.231  1.00  0.00     0.004 C 
BRANCH   4   5
ATOM      5  C   UNL     1     -38.641  23.310   7.284  1.00  0.00     0.000 C 
BRANCH   5   6
ATOM      6  C   UNL     1     -38.578  21.806   7.584  1.00  0.00     0.000 C 
BRANCH   6   7
ATOM      7  C   UNL     1     -39.107  20.987   6.397  1.00  0.00     0.000 C 
BRANCH   7   8
ATOM      8  C   UNL     1     -39.125  21.785   5.081  1.00  0.00     0.006 C 
BRANCH   8   9
ATOM      9  C   UNL     1     -37.785  22.447   4.721  1.00  0.00     0.053 C 
BRANCH   9  10
ATOM     10  C   UNL     1     -37.912  23.368   3.547  1.00  0.00     0.041 C 
ATOM     11  O   UNL     1     -38.984  23.997   3.348  1.00  0.00    -0.550 OA
ATOM     12  O   UNL     1     -36.859  23.501   2.650  1.00  0.00    -0.550 OA
ENDBRANCH   9  10
ENDBRANCH   8   9
ENDBRANCH   7   8
ENDBRANCH   6   7
ENDBRANCH   5   6
ENDBRANCH   4   5
ENDBRANCH   3   4
ENDBRANCH   1   3
BRANCH   2  13
ATOM     13  C   UNL     1     -33.234  24.583   5.286  1.00  0.00     0.027 C 
BRANCH  13  14
ATOM     14  C   UNL     1     -32.943  25.890   6.038  1.00  0.00     0.004 C 
BRANCH  14  15
ATOM     15  C   UNL     1     -32.966  25.697   7.565  1.00  0.00     0.000 C 
BRANCH  15  16
ATOM     16  C   UNL     1     -31.669  25.060   8.100  1.00  0.00     0.000 C 
BRANCH  16  17
ATOM     17  C   UNL     1     -30.852  24.302   7.035  1.00  0.00    -0.000 C 
BRANCH  17  18
ATOM     18  C   UNL     1     -29.480  23.799   7.532  1.00  0.00    -0.000 C 
BRANCH  18  19
ATOM     19  C   UNL     1     -28.503  24.935   7.886  1.00  0.00    -0.003 C 
ATOM     20  C   UNL     1     -27.942  25.629   6.645  1.00  0.00     0.004 C 
ENDBRANCH  18  19
ENDBRANCH  17  18
ENDBRANCH  16  17
ENDBRANCH  15  16
ENDBRANCH  14  15
ENDBRANCH  13  14
ENDBRANCH   2  13
TORSDOF 15
ENDMDL
MODEL 2
REMARK VINA RESULT:    10.156     13.848     17.032
REMARK INTER + INTRA:          20.377
REMARK INTER:                  20.981
REMARK INTRA:                  -0.604
REMARK UNBOUND:                 1.316
REMARK SMILES CCCCCCCCC=CCCCCCCCC(=O)[O-]
REMARK SMILES IDX 10 1 9 2 11 3 12 4 13 5 14 6 15 7 16 8 17 9 18 10 19 11
REMARK SMILES IDX 20 12 8 13 7 14 6 15 5 16 4 17 3 18 2 19 1 20
REMARK H PARENT
REMARK Flexibility Score: inf
ROOT
ATOM      1  C   UNL     1     -27.929  31.526  -3.306  1.00  0.00    -0.031 C 
ATOM      2  C   UNL     1     -28.747  32.587  -3.284  1.00  0.00    -0.031 C 
ENDROOT
BRANCH   1   3
ATOM      3  C   UNL     1     -26.541  31.641  -3.878  1.00  0.00     0.027 C 
BRANCH   3   4
ATOM      4  C   UNL     1     -26.370  30.858  -5.191  1.00  0.00     0.004 C 
BRANCH   4   5
ATOM      5  C   UNL     1     -27.165  31.424  -6.385  1.00  0.00     0.000 C 
BRANCH   5   6
ATOM      6  C   UNL     1     -27.074  30.544  -7.639  1.00  0.00     0.000 C 
BRANCH   6   7
ATOM      7  C   UNL     1     -25.624  30.446  -8.136  1.00  0.00     0.000 C 
BRANCH   7   8
ATOM      8  C   UNL     1     -25.371  31.268  -9.412  1.00  0.00     0.006 C 
BRANCH   8   9
ATOM      9  C   UNL     1     -24.739  32.647  -9.164  1.00  0.00     0.053 C 
BRANCH   9  10
ATOM     10  C   UNL     1     -23.248  32.568  -9.056  1.00  0.00     0.041 C 
ATOM     11  O   UNL     1     -22.662  31.461  -9.170  1.00  0.00    -0.550 OA
ATOM     12  O   UNL     1     -22.508  33.714  -8.789  1.00  0.00    -0.550 OA
ENDBRANCH   9  10
ENDBRANCH   8   9
ENDBRANCH   7   8
ENDBRANCH   6   7
ENDBRANCH   5   6
ENDBRANCH   4   5
ENDBRANCH   3   4
ENDBRANCH   1   3
BRANCH   2  13
ATOM     13  C   UNL     1     -30.146  32.492  -2.738  1.00  0.00     0.027 C 
BRANCH  13  14
ATOM     14  C   UNL     1     -30.172  31.932  -1.307  1.00  0.00     0.004 C 
BRANCH  14  15
ATOM     15  C   UNL     1     -31.203  30.801  -1.147  1.00  0.00     0.000 C 
BRANCH  15  16
ATOM     16  C   UNL     1     -32.122  30.659  -2.376  1.00  0.00     0.000 C 
BRANCH  16  17
ATOM     17  C   UNL     1     -33.163  29.528  -2.258  1.00  0.00    -0.000 C 
BRANCH  17  18
ATOM     18  C   UNL     1     -34.585  30.013  -1.904  1.00  0.00    -0.000 C 
BRANCH  18  19
ATOM     19  C   UNL     1     -35.448  30.337  -3.138  1.00  0.00    -0.003 C 
ATOM     20  C   UNL     1     -34.621  30.419  -4.421  1.00  0.00     0.004 C 
ENDBRANCH  18  19
ENDBRANCH  17  18
ENDBRANCH  16  17
ENDBRANCH  15  16
ENDBRANCH  14  15
ENDBRANCH  13  14
ENDBRANCH   2  13
TORSDOF 15
ENDMDL
MODEL 3
REMARK VINA RESULT:    10.346     12.515     14.567
REMARK INTER + INTRA:          20.735
REMARK INTER:                  20.868
REMARK INTRA:                  -0.133
REMARK UNBOUND:                 1.316
REMARK SMILES CCCCCCCCC=CCCCCCCCC(=O)[O-]
REMARK SMILES IDX 10 1 9 2 11 3 12 4 13 5 14 6 15 7 16 8 17 9 18 10 19 11
REMARK SMILES IDX 20 12 8 13 7 14 6 15 5 16 4 17 3 18 2 19 1 20
REMARK H PARENT
REMARK Flexibility Score: inf
ROOT
ATOM      1  C   UNL     1     -28.668  32.188  -3.476  1.00  0.00    -0.031 C 
ATOM      2  C   UNL     1     -27.607  31.579  -2.929  1.00  0.00    -0.031 C 
ENDROOT
BRANCH   1   3
ATOM      3  C   UNL     1     -29.743  32.782  -2.606  1.00  0.00     0.027 C 
BRANCH   3   4
ATOM      4  C   UNL     1     -29.993  31.966  -1.326  1.00  0.00     0.004 C 
BRANCH   4   5
ATOM      5  C   UNL     1     -31.245  31.067  -1.372  1.00  0.00     0.000 C 
BRANCH   5   6
ATOM      6  C   UNL     1     -31.793  30.868  -2.792  1.00  0.00     0.000 C 
BRANCH   6   7
ATOM      7  C   UNL     1     -32.816  29.723  -2.829  1.00  0.00     0.000 C 
BRANCH   7   8
ATOM      8  C   UNL     1     -33.779  29.741  -1.628  1.00  0.00     0.006 C 
BRANCH   8   9
ATOM      9  C   UNL     1     -35.096  30.492  -1.882  1.00  0.00     0.053 C 
BRANCH   9  10
ATOM     10  C   UNL     1     -35.625  30.245  -3.261  1.00  0.00     0.041 C 
ATOM     11  O   UNL     1     -36.782  29.777  -3.421  1.00  0.00    -0.550 OA
ATOM     12  O   UNL     1     -34.824  30.494  -4.369  1.00  0.00    -0.550 OA
ENDBRANCH   9  10
ENDBRANCH   8   9
ENDBRANCH   7   8
ENDBRANCH   6   7
ENDBRANCH   5   6
ENDBRANCH   4   5
ENDBRANCH   3   4
ENDBRANCH   1   3
BRANCH   2  13
ATOM     13  C   UNL     1     -26.530  30.959  -3.778  1.00  0.00     0.027 C 
BRANCH  13  14
ATOM     14  C   UNL     1     -26.626  31.398  -5.246  1.00  0.00     0.004 C 
BRANCH  14  15
ATOM     15  C   UNL     1     -27.082  30.251  -6.165  1.00  0.00     0.000 C 
BRANCH  15  16
ATOM     16  C   UNL     1     -27.063  30.642  -7.655  1.00  0.00     0.000 C 
BRANCH  16  17
ATOM     17  C   UNL     1     -25.658  30.646  -8.289  1.00  0.00    -0.000 C 
BRANCH  17  18
ATOM     18  C   UNL     1     -25.441  31.758  -9.337  1.00  0.00    -0.000 C 
BRANCH  18  19
ATOM     19  C   UNL     1     -24.172  32.594  -9.091  1.00  0.00    -0.003 C 
ATOM     20  C   UNL     1     -22.902  31.743  -9.115  1.00  0.00     0.004 C 
ENDBRANCH  18  19
ENDBRANCH  17  18
ENDBRANCH  16  17
ENDBRANCH  15  16
ENDBRANCH  14  15
ENDBRANCH  13  14
ENDBRANCH   2  13
TORSDOF 15
ENDMDL
MODEL 4
REMARK VINA RESULT:    10.793     13.393     15.602
REMARK INTER + INTRA:          21.573
REMARK INTER:                  22.229
REMARK INTRA:                  -0.656
REMARK UNBOUND:                 1.316
REMARK SMILES CCCCCCCCC=CCCCCCCCC(=O)[O-]
REMARK SMILES IDX 10 1 9 2 11 3 12 4 13 5 14 6 15 7 16 8 17 9 18 10 19 11
REMARK SMILES IDX 20 12 8 13 7 14 6 15 5 16 4 17 3 18 2 19 1 20
REMARK H PARENT
REMARK Flexibility Score: inf
ROOT
ATOM      1  C   UNL     1     -26.849  31.461  -3.876  1.00  0.00    -0.031 C 
ATOM      2  C   UNL     1     -27.227  31.011  -5.080  1.00  0.00    -0.031 C 
ENDROOT
BRANCH   1   3
ATOM      3  C   UNL     1     -27.808  31.449  -2.716  1.00  0.00     0.027 C 
BRANCH   3   4
ATOM      4  C   UNL     1     -29.109  32.216  -3.011  1.00  0.00     0.004 C 
BRANCH   4   5
ATOM      5  C   UNL     1     -30.032  32.408  -1.791  1.00  0.00     0.000 C 
BRANCH   5   6
ATOM      6  C   UNL     1     -30.878  31.167  -1.475  1.00  0.00     0.000 C 
BRANCH   6   7
ATOM      7  C   UNL     1     -31.870  30.875  -2.610  1.00  0.00     0.000 C 
BRANCH   7   8
ATOM      8  C   UNL     1     -32.814  29.701  -2.294  1.00  0.00     0.006 C 
BRANCH   8   9
ATOM      9  C   UNL     1     -34.256  30.116  -1.965  1.00  0.00     0.053 C 
BRANCH   9  10
ATOM     10  C   UNL     1     -35.126  30.136  -3.184  1.00  0.00     0.041 C 
ATOM     11  O   UNL     1     -34.629  30.391  -4.312  1.00  0.00    -0.550 OA
ATOM     12  O   UNL     1     -36.492  29.913  -3.068  1.00  0.00    -0.550 OA
ENDBRANCH   9  10
ENDBRANCH   8   9
ENDBRANCH   7   8
ENDBRANCH   6   7
ENDBRANCH   5   6
ENDBRANCH   4   5
ENDBRANCH   3   4
ENDBRANCH   1   3
BRANCH   2  13
ATOM     13  C   UNL     1     -26.293  31.033  -6.259  1.00  0.00     0.027 C 
BRANCH  13  14
ATOM     14  C   UNL     1     -26.998  30.633  -7.563  1.00  0.00     0.004 C 
BRANCH  14  15
ATOM     15  C   UNL     1     -26.005  30.133  -8.628  1.00  0.00     0.000 C 
BRANCH  15  16
ATOM     16  C   UNL     1     -25.716  31.190  -9.711  1.00  0.00     0.000 C 
BRANCH  16  17
ATOM     17  C   UNL     1     -24.718  32.282  -9.277  1.00  0.00    -0.000 C 
BRANCH  17  18
ATOM     18  C   UNL     1     -23.302  31.754  -8.965  1.00  0.00    -0.000 C 
BRANCH  18  19
ATOM     19  C   UNL     1     -22.193  32.795  -9.208  1.00  0.00    -0.003 C 
ATOM     20  C   UNL     1     -22.618  34.205  -8.796  1.00  0.00     0.004 C 
ENDBRANCH  18  19
ENDBRANCH  17  18
ENDBRANCH  16  17
ENDBRANCH  15  16
ENDBRANCH  14  15
ENDBRANCH  13  14
ENDBRANCH   2  13
TORSDOF 15
ENDMDL
MODEL 5
REMARK VINA RESULT:    10.907     17.286     19.255
REMARK INTER + INTRA:          21.788
REMARK INTER:                  22.153
REMARK INTRA:                  -0.364
REMARK UNBOUND:                 1.316
REMARK SMILES CCCCCCCCC=CCCCCCCCC(=O)[O-]
REMARK SMILES IDX 10 1 9 2 11 3 12 4 13 5 14 6 15 7 16 8 17 9 18 10 19 11
REMARK SMILES IDX 20 12 8 13 7 14 6 15 5 16 4 17 3 18 2 19 1 20
REMARK H PARENT
REMARK Flexibility Score: inf
ROOT
ATOM      1  C   UNL     1     -24.087  27.080  -7.459  1.00  0.00    -0.031 C 
ATOM      2  C   UNL     1     -22.933  27.675  -7.129  1.00  0.00    -0.031 C 
ENDROOT
BRANCH   1   3
ATOM      3  C   UNL     1     -25.177  27.853  -8.151  1.00  0.00     0.027 C 
BRANCH   3   4
ATOM      4  C   UNL     1     -26.542  27.712  -7.456  1.00  0.00     0.004 C 
BRANCH   4   5
ATOM      5  C   UNL     1     -27.303  29.038  -7.259  1.00  0.00     0.000 C 
BRANCH   5   6
ATOM      6  C   UNL     1     -26.384  30.267  -7.270  1.00  0.00     0.000 C 
BRANCH   6   7
ATOM      7  C   UNL     1     -26.787  31.243  -8.385  1.00  0.00     0.000 C 
BRANCH   7   8
ATOM      8  C   UNL     1     -25.707  31.387  -9.473  1.00  0.00     0.006 C 
BRANCH   8   9
ATOM      9  C   UNL     1     -24.747  32.568  -9.263  1.00  0.00     0.053 C 
BRANCH   9  10
ATOM     10  C   UNL     1     -23.342  32.110  -9.015  1.00  0.00     0.041 C 
ATOM     11  O   UNL     1     -23.113  30.916  -8.690  1.00  0.00    -0.550 OA
ATOM     12  O   UNL     1     -22.290  33.014  -9.105  1.00  0.00    -0.550 OA
ENDBRANCH   9  10
ENDBRANCH   8   9
ENDBRANCH   7   8
ENDBRANCH   6   7
ENDBRANCH   5   6
ENDBRANCH   4   5
ENDBRANCH   3   4
ENDBRANCH   1   3
BRANCH   2  13
ATOM     13  C   UNL     1     -21.837  26.929  -6.417  1.00  0.00     0.027 C 
BRANCH  13  14
ATOM     14  C   UNL     1     -20.500  27.009  -7.169  1.00  0.00     0.004 C 
BRANCH  14  15
ATOM     15  C   UNL     1     -19.364  26.305  -6.406  1.00  0.00     0.000 C 
BRANCH  15  16
ATOM     16  C   UNL     1     -19.791  25.846  -4.998  1.00  0.00     0.000 C 
BRANCH  16  17
ATOM     17  C   UNL     1     -19.330  24.422  -4.631  1.00  0.00    -0.000 C 
BRANCH  17  18
ATOM     18  C   UNL     1     -19.569  23.375  -5.740  1.00  0.00    -0.000 C 
BRANCH  18  19
ATOM     19  C   UNL     1     -18.875  23.722  -7.070  1.00  0.00    -0.003 C 
ATOM     20  C   UNL     1     -18.878  22.549  -8.051  1.00  0.00     0.004 C 
ENDBRANCH  18  19
ENDBRANCH  17  18
ENDBRANCH  16  17
ENDBRANCH  15  16
ENDBRANCH  14  15
ENDBRANCH  13  14
ENDBRANCH   2  13
TORSDOF 15
ENDMDL
MODEL 6
REMARK VINA RESULT:    11.046     16.519     18.509
REMARK INTER + INTRA:          22.048
REMARK INTER:                  23.235
REMARK INTRA:                  -1.187
REMARK UNBOUND:                 1.316
REMARK SMILES CCCCCCCCC=CCCCCCCCC(=O)[O-]
REMARK SMILES IDX 10 1 9 2 11 3 12 4 13 5 14 6 15 7 16 8 17 9 18 10 19 11
REMARK SMILES IDX 20 12 8 13 7 14 6 15 5 16 4 17 3 18 2 19 1 20
REMARK H PARENT
REMARK Flexibility Score: inf
ROOT
ATOM      1  C   UNL     1     -24.052  27.116  -7.333  1.00  0.00    -0.031 C 
ATOM      2  C   UNL     1     -22.975  27.909  -7.410  1.00  0.00    -0.031 C 
ENDROOT
BRANCH   1   3
ATOM      3  C   UNL     1     -25.352  27.525  -7.972  1.00  0.00     0.027 C 
BRANCH   3   4
ATOM      4  C   UNL     1     -26.575  26.872  -7.305  1.00  0.00     0.004 C 
BRANCH   4   5
ATOM      5  C   UNL     1     -27.631  27.868  -6.784  1.00  0.00     0.000 C 
BRANCH   5   6
ATOM      6  C   UNL     1     -27.704  29.158  -7.614  1.00  0.00     0.000 C 
BRANCH   6   7
ATOM      7  C   UNL     1     -27.344  30.381  -6.758  1.00  0.00     0.000 C 
BRANCH   7   8
ATOM      8  C   UNL     1     -26.486  31.410  -7.516  1.00  0.00     0.006 C 
BRANCH   8   9
ATOM      9  C   UNL     1     -25.124  30.877  -7.987  1.00  0.00     0.053 C 
BRANCH   9  10
ATOM     10  C   UNL     1     -24.573  31.676  -9.128  1.00  0.00     0.041 C 
ATOM     11  O   UNL     1     -25.299  31.946 -10.120  1.00  0.00    -0.550 OA
ATOM     12  O   UNL     1     -23.246  32.088  -9.113  1.00  0.00    -0.550 OA
ENDBRANCH   9  10
ENDBRANCH   8   9
ENDBRANCH   7   8
ENDBRANCH   6   7
ENDBRANCH   5   6
ENDBRANCH   4   5
ENDBRANCH   3   4
ENDBRANCH   1   3
BRANCH   2  13
ATOM     13  C   UNL     1     -21.671  27.532  -6.761  1.00  0.00     0.027 C 
BRANCH  13  14
ATOM     14  C   UNL     1     -21.878  26.824  -5.414  1.00  0.00     0.004 C 
BRANCH  14  15
ATOM     15  C   UNL     1     -20.669  25.955  -5.025  1.00  0.00     0.000 C 
BRANCH  15  16
ATOM     16  C   UNL     1     -19.476  26.137  -5.983  1.00  0.00     0.000 C 
BRANCH  16  17
ATOM     17  C   UNL     1     -18.922  24.819  -6.561  1.00  0.00    -0.000 C 
BRANCH  17  18
ATOM     18  C   UNL     1     -20.010  23.826  -7.022  1.00  0.00    -0.000 C 
BRANCH  18  19
ATOM     19  C   UNL     1     -20.010  22.505  -6.230  1.00  0.00    -0.003 C 
ATOM     20  C   UNL     1     -19.854  22.729  -4.726  1.00  0.00     0.004 C 
ENDBRANCH  18  19
ENDBRANCH  17  18
ENDBRANCH  16  17
ENDBRANCH  15  16
ENDBRANCH  14  15
ENDBRANCH  13  14
ENDBRANCH   2  13
TORSDOF 15
ENDMDL
MODEL 7
REMARK VINA RESULT:    11.434     16.952     18.974
REMARK INTER + INTRA:          22.776
REMARK INTER:                  23.886
REMARK INTRA:                  -1.109
REMARK UNBOUND:                 1.316
REMARK SMILES CCCCCCCCC=CCCCCCCCC(=O)[O-]
REMARK SMILES IDX 10 1 9 2 11 3 12 4 13 5 14 6 15 7 16 8 17 9 18 10 19 11
REMARK SMILES IDX 20 12 8 13 7 14 6 15 5 16 4 17 3 18 2 19 1 20
REMARK H PARENT
REMARK Flexibility Score: inf
ROOT
ATOM      1  C   UNL     1     -24.931  27.162  -7.214  1.00  0.00    -0.031 C 
ATOM      2  C   UNL     1     -23.805  27.649  -7.752  1.00  0.00    -0.031 C 
ENDROOT
BRANCH   1   3
ATOM      3  C   UNL     1     -26.201  27.100  -8.019  1.00  0.00     0.027 C 
BRANCH   3   4
ATOM      4  C   UNL     1     -27.443  27.502  -7.205  1.00  0.00     0.004 C 
BRANCH   4   5
ATOM      5  C   UNL     1     -27.540  29.006  -6.881  1.00  0.00     0.000 C 
BRANCH   5   6
ATOM      6  C   UNL     1     -27.062  29.903  -8.032  1.00  0.00     0.000 C 
BRANCH   6   7
ATOM      7  C   UNL     1     -26.657  31.290  -7.514  1.00  0.00     0.000 C 
BRANCH   7   8
ATOM      8  C   UNL     1     -25.840  32.097  -8.539  1.00  0.00     0.006 C 
BRANCH   8   9
ATOM      9  C   UNL     1     -24.666  31.325  -9.163  1.00  0.00     0.053 C 
BRANCH   9  10
ATOM     10  C   UNL     1     -23.388  32.105  -9.103  1.00  0.00     0.041 C 
ATOM     11  O   UNL     1     -22.282  31.518  -9.231  1.00  0.00    -0.550 OA
ATOM     12  O   UNL     1     -23.419  33.473  -8.866  1.00  0.00    -0.550 OA
ENDBRANCH   9  10
ENDBRANCH   8   9
ENDBRANCH   7   8
ENDBRANCH   6   7
ENDBRANCH   5   6
ENDBRANCH   4   5
ENDBRANCH   3   4
ENDBRANCH   1   3
BRANCH   2  13
ATOM     13  C   UNL     1     -22.528  27.741  -6.961  1.00  0.00     0.027 C 
BRANCH  13  14
ATOM     14  C   UNL     1     -22.151  26.401  -6.313  1.00  0.00     0.004 C 
BRANCH  14  15
ATOM     15  C   UNL     1     -20.849  26.498  -5.497  1.00  0.00     0.000 C 
BRANCH  15  16
ATOM     16  C   UNL     1     -19.614  26.045  -6.298  1.00  0.00     0.000 C 
BRANCH  16  17
ATOM     17  C   UNL     1     -18.894  24.817  -5.707  1.00  0.00    -0.000 C 
BRANCH  17  18
ATOM     18  C   UNL     1     -19.769  23.548  -5.631  1.00  0.00    -0.000 C 
BRANCH  18  19
ATOM     19  C   UNL     1     -19.311  22.430  -6.586  1.00  0.00    -0.003 C 
ATOM     20  C   UNL     1     -18.882  22.969  -7.950  1.00  0.00     0.004 C 
ENDBRANCH  18  19
ENDBRANCH  17  18
ENDBRANCH  16  17
ENDBRANCH  15  16
ENDBRANCH  14  15
ENDBRANCH  13  14
ENDBRANCH   2  13
TORSDOF 15
ENDMDL
MODEL 8
REMARK VINA RESULT:    11.440      5.454     10.802
REMARK INTER + INTRA:          22.788
REMARK INTER:                  23.403
REMARK INTRA:                  -0.614
REMARK UNBOUND:                 1.316
REMARK SMILES CCCCCCCCC=CCCCCCCCC(=O)[O-]
REMARK SMILES IDX 10 1 9 2 11 3 12 4 13 5 14 6 15 7 16 8 17 9 18 10 19 11
REMARK SMILES IDX 20 12 8 13 7 14 6 15 5 16 4 17 3 18 2 19 1 20
REMARK H PARENT
REMARK Flexibility Score: inf
ROOT
ATOM      1  C   UNL     1     -30.963  23.977   6.473  1.00  0.00    -0.031 C 
ATOM      2  C   UNL     1     -31.990  24.761   6.828  1.00  0.00    -0.031 C 
ENDROOT
BRANCH   1   3
ATOM      3  C   UNL     1     -29.740  23.876   7.344  1.00  0.00     0.027 C 
BRANCH   3   4
ATOM      4  C   UNL     1     -28.943  25.190   7.410  1.00  0.00     0.004 C 
BRANCH   4   5
ATOM      5  C   UNL     1     -27.491  25.088   6.903  1.00  0.00     0.000 C 
BRANCH   5   6
ATOM      6  C   UNL     1     -27.044  26.319   6.103  1.00  0.00     0.000 C 
BRANCH   6   7
ATOM      7  C   UNL     1     -25.567  26.203   5.699  1.00  0.00     0.000 C 
BRANCH   7   8
ATOM      8  C   UNL     1     -24.971  27.539   5.218  1.00  0.00     0.006 C 
BRANCH   8   9
ATOM      9  C   UNL     1     -23.435  27.577   5.196  1.00  0.00     0.053 C 
BRANCH   9  10
ATOM     10  C   UNL     1     -22.892  28.726   5.987  1.00  0.00     0.041 C 
ATOM     11  O   UNL     1     -21.953  28.544   6.806  1.00  0.00    -0.550 OA
ATOM     12  O   UNL     1     -23.449  29.992   5.850  1.00  0.00    -0.550 OA
ENDBRANCH   9  10
ENDBRANCH   8   9
ENDBRANCH   7   8
ENDBRANCH   6   7
ENDBRANCH   5   6
ENDBRANCH   4   5
ENDBRANCH   3   4
ENDBRANCH   1   3
BRANCH   2  13
ATOM     13  C   UNL     1     -33.214  24.896   5.964  1.00  0.00     0.027 C 
BRANCH  13  14
ATOM     14  C   UNL     1     -34.512  24.744   6.771  1.00  0.00     0.004 C 
BRANCH  14  15
ATOM     15  C   UNL     1     -35.338  23.527   6.316  1.00  0.00     0.000 C 
BRANCH  15  16
ATOM     16  C   UNL     1     -36.115  22.872   7.474  1.00  0.00     0.000 C 
BRANCH  16  17
ATOM     17  C   UNL     1     -37.620  22.684   7.197  1.00  0.00    -0.000 C 
BRANCH  17  18
ATOM     18  C   UNL     1     -38.240  23.781   6.306  1.00  0.00    -0.000 C 
BRANCH  18  19
ATOM     19  C   UNL     1     -39.027  23.224   5.105  1.00  0.00    -0.003 C 
ATOM     20  C   UNL     1     -39.124  24.229   3.957  1.00  0.00     0.004 C 
ENDBRANCH  18  19
ENDBRANCH  17  18
ENDBRANCH  16  17
ENDBRANCH  15  16
ENDBRANCH  14  15
ENDBRANCH  13  14
ENDBRANCH   2  13
TORSDOF 15
ENDMDL
MODEL 9
REMARK VINA RESULT:    11.835      5.967     11.473
REMARK INTER + INTRA:          23.530
REMARK INTER:                  24.059
REMARK INTRA:                  -0.530
REMARK UNBOUND:                 1.316
REMARK SMILES CCCCCCCCC=CCCCCCCCC(=O)[O-]
REMARK SMILES IDX 10 1 9 2 11 3 12 4 13 5 14 6 15 7 16 8 17 9 18 10 19 11
REMARK SMILES IDX 20 12 8 13 7 14 6 15 5 16 4 17 3 18 2 19 1 20
REMARK H PARENT
REMARK Flexibility Score: inf
ROOT
ATOM      1  C   UNL     1     -29.401  24.263   6.761  1.00  0.00    -0.031 C 
ATOM      2  C   UNL     1     -30.604  24.821   6.953  1.00  0.00    -0.031 C 
ENDROOT
BRANCH   1   3
ATOM      3  C   UNL     1     -28.174  24.846   7.409  1.00  0.00     0.027 C 
BRANCH   3   4
ATOM      4  C   UNL     1     -27.703  26.145   6.733  1.00  0.00     0.004 C 
BRANCH   4   5
ATOM      5  C   UNL     1     -26.547  25.965   5.730  1.00  0.00     0.000 C 
BRANCH   5   6
ATOM      6  C   UNL     1     -25.626  27.191   5.646  1.00  0.00     0.000 C 
BRANCH   6   7
ATOM      7  C   UNL     1     -24.349  26.864   4.858  1.00  0.00     0.000 C 
BRANCH   7   8
ATOM      8  C   UNL     1     -23.097  27.546   5.439  1.00  0.00     0.006 C 
BRANCH   8   9
ATOM      9  C   UNL     1     -23.307  29.011   5.855  1.00  0.00     0.053 C 
BRANCH   9  10
ATOM     10  C   UNL     1     -22.367  29.425   6.944  1.00  0.00     0.041 C 
ATOM     11  O   UNL     1     -21.642  28.568   7.515  1.00  0.00    -0.550 OA
ATOM     12  O   UNL     1     -22.319  30.751   7.356  1.00  0.00    -0.550 OA
ENDBRANCH   9  10
ENDBRANCH   8   9
ENDBRANCH   7   8
ENDBRANCH   6   7
ENDBRANCH   5   6
ENDBRANCH   4   5
ENDBRANCH   3   4
ENDBRANCH   1   3
BRANCH   2  13
ATOM     13  C   UNL     1     -31.842  24.270   6.299  1.00  0.00     0.027 C 
BRANCH  13  14
ATOM     14  C   UNL     1     -32.922  25.345   6.106  1.00  0.00     0.004 C 
BRANCH  14  15
ATOM     15  C   UNL     1     -34.256  24.950   6.764  1.00  0.00     0.000 C 
BRANCH  15  16
ATOM     16  C   UNL     1     -34.876  23.688   6.134  1.00  0.00     0.000 C 
BRANCH  16  17
ATOM     17  C   UNL     1     -36.043  23.087   6.943  1.00  0.00    -0.000 C 
BRANCH  17  18
ATOM     18  C   UNL     1     -37.424  23.687   6.600  1.00  0.00    -0.000 C 
BRANCH  18  19
ATOM     19  C   UNL     1     -38.535  22.630   6.462  1.00  0.00    -0.003 C 
ATOM     20  C   UNL     1     -38.669  21.760   7.712  1.00  0.00     0.004 C 
ENDBRANCH  18  19
ENDBRANCH  17  18
ENDBRANCH  16  17
ENDBRANCH  15  16
ENDBRANCH  14  15
ENDBRANCH  13  14
ENDBRANCH   2  13
TORSDOF 15
ENDMDL
