MODEL 1
REMARK VINA RESULT:    -6.855      0.000      0.000
REMARK INTER + INTRA:          -8.494
REMARK INTER:                  -8.258
REMARK INTRA:                  -0.236
REMARK UNBOUND:                -0.236
REMARK SMILES O=c1c(O)c(-c2ccc(O)c(O)c2)oc2cc(O)cc(O)c12
REMARK SMILES IDX 5 1 3 2 2 3 1 4 22 5 20 6 19 7 17 8 16 9 15 10 14 11 6 12
REMARK SMILES IDX 7 13 8 14 9 15 13 16 11 17 10 18 12 20 4 22 21 24 18 26
REMARK H PARENT 10 19 12 21 4 23 21 25 18 27
REMARK Flexibility Score: inf
ROOT
ATOM      1  C   UNL     1     -19.939 -47.264 104.272  1.00  0.00     0.180 A 
ATOM      2  C   UNL     1     -18.868 -46.678 104.966  1.00  0.00     0.208 A 
ATOM      3  C   UNL     1     -18.557 -47.139 106.256  1.00  0.00     0.238 A 
ATOM      4  O   UNL     1     -17.631 -46.573 106.894  1.00  0.00    -0.285 OA
ATOM      5  C   UNL     1     -19.311 -48.192 106.828  1.00  0.00     0.111 A 
ATOM      6  C   UNL     1     -19.059 -48.765 108.110  1.00  0.00     0.134 A 
ATOM      7  C   UNL     1     -19.949 -49.714 108.630  1.00  0.00     0.093 A 
ATOM      8  C   UNL     1     -21.044 -50.157 107.888  1.00  0.00     0.123 A 
ATOM      9  C   UNL     1     -21.265 -49.646 106.608  1.00  0.00     0.094 A 
ATOM     10  C   UNL     1     -20.416 -48.673 106.078  1.00  0.00     0.146 A 
ATOM     11  O   UNL     1     -20.668 -48.205 104.861  1.00  0.00    -0.452 OA
ENDROOT
BRANCH   1  12
ATOM     12  C   UNL     1     -20.310 -46.849 102.900  1.00  0.00     0.025 A 
ATOM     13  C   UNL     1     -21.454 -46.075 102.655  1.00  0.00     0.016 A 
ATOM     14  C   UNL     1     -21.771 -45.677 101.355  1.00  0.00     0.051 A 
ATOM     15  C   UNL     1     -20.949 -46.029 100.279  1.00  0.00     0.157 A 
ATOM     16  C   UNL     1     -19.472 -47.185 101.825  1.00  0.00     0.062 A 
ATOM     17  C   UNL     1     -19.781 -46.791 100.517  1.00  0.00     0.158 A 
BRANCH  15  18
ATOM     18  O   UNL     1     -21.324 -45.602  99.002  1.00  0.00    -0.504 OA
ATOM     19  H   UNL     1     -22.160 -45.071  98.808  1.00  0.00     0.293 HD
ENDBRANCH  15  18
BRANCH  17  20
ATOM     20  O   UNL     1     -18.907 -47.172  99.497  1.00  0.00    -0.504 OA
ATOM     21  H   UNL     1     -19.166 -47.225  98.523  1.00  0.00     0.293 HD
ENDBRANCH  17  20
ENDBRANCH   1  12
BRANCH   2  22
ATOM     22  O   UNL     1     -18.150 -45.625 104.393  1.00  0.00    -0.502 OA
ATOM     23  H   UNL     1     -18.002 -44.743 104.869  1.00  0.00     0.293 HD
ENDBRANCH   2  22
BRANCH   6  24
ATOM     24  O   UNL     1     -17.943 -48.461 108.895  1.00  0.00    -0.507 OA
ATOM     25  H   UNL     1     -17.659 -48.978 109.714  1.00  0.00     0.293 HD
ENDBRANCH   6  24
BRANCH   8  26
ATOM     26  O   UNL     1     -21.899 -51.113 108.430  1.00  0.00    -0.508 OA
ATOM     27  H   UNL     1     -21.783 -52.101 108.233  1.00  0.00     0.293 HD
ENDBRANCH   8  26
TORSDOF 6
ENDMDL
MODEL 2
REMARK VINA RESULT:    -6.792      4.288      6.627
REMARK INTER + INTRA:          -8.418
REMARK INTER:                  -8.353
REMARK INTRA:                  -0.066
REMARK UNBOUND:                -0.236
REMARK SMILES O=c1c(O)c(-c2ccc(O)c(O)c2)oc2cc(O)cc(O)c12
REMARK SMILES IDX 5 1 3 2 2 3 1 4 22 5 20 6 19 7 17 8 16 9 15 10 14 11 6 12
REMARK SMILES IDX 7 13 8 14 9 15 13 16 11 17 10 18 12 20 4 22 21 24 18 26
REMARK H PARENT 10 19 12 21 4 23 21 25 18 27
REMARK Flexibility Score: inf
ROOT
ATOM      1  C   UNL     1     -23.024 -49.952 103.357  1.00  0.00     0.180 A 
ATOM      2  C   UNL     1     -22.193 -49.852 104.486  1.00  0.00     0.208 A 
ATOM      3  C   UNL     1     -21.455 -48.674 104.686  1.00  0.00     0.238 A 
ATOM      4  O   UNL     1     -20.671 -48.612 105.670  1.00  0.00    -0.285 OA
ATOM      5  C   UNL     1     -21.568 -47.605 103.764  1.00  0.00     0.111 A 
ATOM      6  C   UNL     1     -20.898 -46.353 103.891  1.00  0.00     0.134 A 
ATOM      7  C   UNL     1     -20.982 -45.416 102.852  1.00  0.00     0.093 A 
ATOM      8  C   UNL     1     -21.763 -45.661 101.723  1.00  0.00     0.123 A 
ATOM      9  C   UNL     1     -22.472 -46.860 101.617  1.00  0.00     0.094 A 
ATOM     10  C   UNL     1     -22.379 -47.827 102.620  1.00  0.00     0.146 A 
ATOM     11  O   UNL     1     -23.059 -48.958 102.476  1.00  0.00    -0.452 OA
ENDROOT
BRANCH   1  12
ATOM     12  C   UNL     1     -23.852 -51.150 103.091  1.00  0.00     0.025 A 
ATOM     13  C   UNL     1     -24.738 -51.655 104.055  1.00  0.00     0.016 A 
ATOM     14  C   UNL     1     -25.526 -52.772 103.774  1.00  0.00     0.051 A 
ATOM     15  C   UNL     1     -25.457 -53.399 102.524  1.00  0.00     0.157 A 
ATOM     16  C   UNL     1     -23.797 -51.764 101.830  1.00  0.00     0.062 A 
ATOM     17  C   UNL     1     -24.583 -52.885 101.537  1.00  0.00     0.158 A 
BRANCH  15  18
ATOM     18  O   UNL     1     -26.268 -54.515 102.307  1.00  0.00    -0.504 OA
ATOM     19  H   UNL     1     -26.986 -54.823 102.945  1.00  0.00     0.293 HD
ENDBRANCH  15  18
BRANCH  17  20
ATOM     20  O   UNL     1     -24.465 -53.450 100.266  1.00  0.00    -0.504 OA
ATOM     21  H   UNL     1     -25.247 -53.622  99.650  1.00  0.00     0.293 HD
ENDBRANCH  17  20
ENDBRANCH   1  12
BRANCH   2  22
ATOM     22  O   UNL     1     -22.078 -50.926 105.372  1.00  0.00    -0.502 OA
ATOM     23  H   UNL     1     -22.228 -51.887 105.086  1.00  0.00     0.293 HD
ENDBRANCH   2  22
BRANCH   6  24
ATOM     24  O   UNL     1     -20.166 -45.969 105.017  1.00  0.00    -0.507 OA
ATOM     25  H   UNL     1     -19.354 -45.371 104.999  1.00  0.00     0.293 HD
ENDBRANCH   6  24
BRANCH   8  26
ATOM     26  O   UNL     1     -21.837 -44.701 100.716  1.00  0.00    -0.508 OA
ATOM     27  H   UNL     1     -22.584 -44.707 100.031  1.00  0.00     0.293 HD
ENDBRANCH   8  26
TORSDOF 6
ENDMDL
MODEL 3
REMARK VINA RESULT:    -6.749      1.492      3.304
REMARK INTER + INTRA:          -8.367
REMARK INTER:                  -8.047
REMARK INTRA:                  -0.320
REMARK UNBOUND:                -0.236
REMARK SMILES O=c1c(O)c(-c2ccc(O)c(O)c2)oc2cc(O)cc(O)c12
REMARK SMILES IDX 5 1 3 2 2 3 1 4 22 5 20 6 19 7 17 8 16 9 15 10 14 11 6 12
REMARK SMILES IDX 7 13 8 14 9 15 13 16 11 17 10 18 12 20 4 22 21 24 18 26
REMARK H PARENT 10 19 12 21 4 23 21 25 18 27
REMARK Flexibility Score: inf
ROOT
ATOM      1  C   UNL     1     -20.776 -47.817 103.847  1.00  0.00     0.180 A 
ATOM      2  C   UNL     1     -21.737 -48.842 103.829  1.00  0.00     0.208 A 
ATOM      3  C   UNL     1     -21.868 -49.674 104.952  1.00  0.00     0.238 A 
ATOM      4  O   UNL     1     -22.693 -50.624 104.908  1.00  0.00    -0.285 OA
ATOM      5  C   UNL     1     -21.048 -49.461 106.087  1.00  0.00     0.111 A 
ATOM      6  C   UNL     1     -21.123 -50.217 107.294  1.00  0.00     0.134 A 
ATOM      7  C   UNL     1     -20.176 -50.003 108.303  1.00  0.00     0.093 A 
ATOM      8  C   UNL     1     -19.197 -49.018 108.175  1.00  0.00     0.123 A 
ATOM      9  C   UNL     1     -19.152 -48.231 107.023  1.00  0.00     0.094 A 
ATOM     10  C   UNL     1     -20.062 -48.445 105.985  1.00  0.00     0.146 A 
ATOM     11  O   UNL     1     -19.978 -47.683 104.901  1.00  0.00    -0.452 OA
ENDROOT
BRANCH   1  12
ATOM     12  C   UNL     1     -20.597 -46.884 102.712  1.00  0.00     0.025 A 
ATOM     13  C   UNL     1     -19.668 -47.143 101.693  1.00  0.00     0.016 A 
ATOM     14  C   UNL     1     -19.533 -46.259 100.620  1.00  0.00     0.051 A 
ATOM     15  C   UNL     1     -20.329 -45.112 100.534  1.00  0.00     0.157 A 
ATOM     16  C   UNL     1     -21.412 -45.745 102.618  1.00  0.00     0.062 A 
ATOM     17  C   UNL     1     -21.284 -44.852 101.546  1.00  0.00     0.158 A 
BRANCH  15  18
ATOM     18  O   UNL     1     -20.142 -44.267  99.438  1.00  0.00    -0.504 OA
ATOM     19  H   UNL     1     -20.504 -44.452  98.515  1.00  0.00     0.293 HD
ENDBRANCH  15  18
BRANCH  17  20
ATOM     20  O   UNL     1     -22.120 -43.734 101.525  1.00  0.00    -0.504 OA
ATOM     21  H   UNL     1     -21.894 -42.852 101.962  1.00  0.00     0.293 HD
ENDBRANCH  17  20
ENDBRANCH   1  12
BRANCH   2  22
ATOM     22  O   UNL     1     -22.522 -49.050 102.691  1.00  0.00    -0.502 OA
ATOM     23  H   UNL     1     -22.328 -49.786 102.023  1.00  0.00     0.293 HD
ENDBRANCH   2  22
BRANCH   6  24
ATOM     24  O   UNL     1     -22.117 -51.162 107.563  1.00  0.00    -0.507 OA
ATOM     25  H   UNL     1     -22.183 -51.701 108.413  1.00  0.00     0.293 HD
ENDBRANCH   6  24
BRANCH   8  26
ATOM     26  O   UNL     1     -18.280 -48.822 109.205  1.00  0.00    -0.508 OA
ATOM     27  H   UNL     1     -17.281 -48.846 109.037  1.00  0.00     0.293 HD
ENDBRANCH   8  26
TORSDOF 6
ENDMDL
MODEL 4
REMARK VINA RESULT:    -6.724      1.403      3.042
REMARK INTER + INTRA:          -8.336
REMARK INTER:                  -8.026
REMARK INTRA:                  -0.310
REMARK UNBOUND:                -0.236
REMARK SMILES O=c1c(O)c(-c2ccc(O)c(O)c2)oc2cc(O)cc(O)c12
REMARK SMILES IDX 5 1 3 2 2 3 1 4 22 5 20 6 19 7 17 8 16 9 15 10 14 11 6 12
REMARK SMILES IDX 7 13 8 14 9 15 13 16 11 17 10 18 12 20 4 22 21 24 18 26
REMARK H PARENT 10 19 12 21 4 23 21 25 18 27
REMARK Flexibility Score: inf
ROOT
ATOM      1  C   UNL     1     -21.077 -48.021 103.704  1.00  0.00     0.180 A 
ATOM      2  C   UNL     1     -21.967 -49.108 103.739  1.00  0.00     0.208 A 
ATOM      3  C   UNL     1     -22.018 -49.911 104.891  1.00  0.00     0.238 A 
ATOM      4  O   UNL     1     -22.779 -50.914 104.895  1.00  0.00    -0.285 OA
ATOM      5  C   UNL     1     -21.190 -49.607 105.998  1.00  0.00     0.111 A 
ATOM      6  C   UNL     1     -21.188 -50.328 107.229  1.00  0.00     0.134 A 
ATOM      7  C   UNL     1     -20.235 -50.020 108.208  1.00  0.00     0.093 A 
ATOM      8  C   UNL     1     -19.327 -48.977 108.028  1.00  0.00     0.123 A 
ATOM      9  C   UNL     1     -19.360 -48.226 106.850  1.00  0.00     0.094 A 
ATOM     10  C   UNL     1     -20.275 -48.533 105.842  1.00  0.00     0.146 A 
ATOM     11  O   UNL     1     -20.266 -47.802 104.733  1.00  0.00    -0.452 OA
ENDROOT
BRANCH   1  12
ATOM     12  C   UNL     1     -20.984 -47.115 102.536  1.00  0.00     0.025 A 
ATOM     13  C   UNL     1     -21.918 -46.087 102.334  1.00  0.00     0.016 A 
ATOM     14  C   UNL     1     -21.797 -45.231 101.238  1.00  0.00     0.051 A 
ATOM     15  C   UNL     1     -20.739 -45.373 100.333  1.00  0.00     0.157 A 
ATOM     16  C   UNL     1     -19.910 -47.246 101.643  1.00  0.00     0.062 A 
ATOM     17  C   UNL     1     -19.779 -46.392 100.540  1.00  0.00     0.158 A 
BRANCH  15  18
ATOM     18  O   UNL     1     -20.677 -44.486  99.255  1.00  0.00    -0.504 OA
ATOM     19  H   UNL     1     -21.371 -43.778  99.067  1.00  0.00     0.293 HD
ENDBRANCH  15  18
BRANCH  17  20
ATOM     20  O   UNL     1     -18.692 -46.590  99.687  1.00  0.00    -0.504 OA
ATOM     21  H   UNL     1     -17.879 -45.992  99.661  1.00  0.00     0.293 HD
ENDBRANCH  17  20
ENDBRANCH   1  12
BRANCH   2  22
ATOM     22  O   UNL     1     -22.761 -49.403 102.627  1.00  0.00    -0.502 OA
ATOM     23  H   UNL     1     -22.622 -50.233 102.063  1.00  0.00     0.293 HD
ENDBRANCH   2  22
BRANCH   6  24
ATOM     24  O   UNL     1     -22.111 -51.327 107.550  1.00  0.00    -0.507 OA
ATOM     25  H   UNL     1     -22.692 -51.809 106.882  1.00  0.00     0.293 HD
ENDBRANCH   6  24
BRANCH   8  26
ATOM     26  O   UNL     1     -18.403 -48.688 109.029  1.00  0.00    -0.508 OA
ATOM     27  H   UNL     1     -17.417 -48.894 108.916  1.00  0.00     0.293 HD
ENDBRANCH   8  26
TORSDOF 6
ENDMDL
MODEL 5
REMARK VINA RESULT:    -6.698      1.794      7.264
REMARK INTER + INTRA:          -8.305
REMARK INTER:                  -8.560
REMARK INTRA:                   0.254
REMARK UNBOUND:                -0.236
REMARK SMILES O=c1c(O)c(-c2ccc(O)c(O)c2)oc2cc(O)cc(O)c12
REMARK SMILES IDX 5 1 3 2 2 3 1 4 22 5 20 6 19 7 17 8 16 9 15 10 14 11 6 12
REMARK SMILES IDX 7 13 8 14 9 15 13 16 11 17 10 18 12 20 4 22 21 24 18 26
REMARK H PARENT 10 19 12 21 4 23 21 25 18 27
REMARK Flexibility Score: inf
ROOT
ATOM      1  C   UNL     1     -20.731 -47.843 104.962  1.00  0.00     0.180 A 
ATOM      2  C   UNL     1     -21.464 -48.465 103.937  1.00  0.00     0.208 A 
ATOM      3  C   UNL     1     -21.728 -47.750 102.757  1.00  0.00     0.238 A 
ATOM      4  O   UNL     1     -22.431 -48.294 101.866  1.00  0.00    -0.285 OA
ATOM      5  C   UNL     1     -21.242 -46.428 102.611  1.00  0.00     0.111 A 
ATOM      6  C   UNL     1     -21.416 -45.627 101.444  1.00  0.00     0.134 A 
ATOM      7  C   UNL     1     -21.006 -44.287 101.459  1.00  0.00     0.093 A 
ATOM      8  C   UNL     1     -20.371 -43.740 102.574  1.00  0.00     0.123 A 
ATOM      9  C   UNL     1     -20.142 -44.534 103.699  1.00  0.00     0.094 A 
ATOM     10  C   UNL     1     -20.572 -45.863 103.727  1.00  0.00     0.146 A 
ATOM     11  O   UNL     1     -20.346 -46.580 104.821  1.00  0.00    -0.452 OA
ENDROOT
BRANCH   1  12
ATOM     12  C   UNL     1     -20.392 -48.541 106.224  1.00  0.00     0.025 A 
ATOM     13  C   UNL     1     -19.188 -48.286 106.898  1.00  0.00     0.016 A 
ATOM     14  C   UNL     1     -18.901 -48.939 108.098  1.00  0.00     0.051 A 
ATOM     15  C   UNL     1     -19.810 -49.845 108.655  1.00  0.00     0.157 A 
ATOM     16  C   UNL     1     -21.315 -49.433 106.791  1.00  0.00     0.062 A 
ATOM     17  C   UNL     1     -21.037 -50.093 107.994  1.00  0.00     0.158 A 
BRANCH  15  18
ATOM     18  O   UNL     1     -19.460 -50.469 109.855  1.00  0.00    -0.504 OA
ATOM     19  H   UNL     1     -19.558 -50.039 110.763  1.00  0.00     0.293 HD
ENDBRANCH  15  18
BRANCH  17  20
ATOM     20  O   UNL     1     -21.997 -50.976 108.491  1.00  0.00    -0.504 OA
ATOM     21  H   UNL     1     -22.020 -51.963 108.279  1.00  0.00     0.293 HD
ENDBRANCH  17  20
ENDBRANCH   1  12
BRANCH   2  22
ATOM     22  O   UNL     1     -21.954 -49.763 104.111  1.00  0.00    -0.502 OA
ATOM     23  H   UNL     1     -21.985 -50.439 103.357  1.00  0.00     0.293 HD
ENDBRANCH   2  22
BRANCH   6  24
ATOM     24  O   UNL     1     -21.954 -46.100 100.244  1.00  0.00    -0.507 OA
ATOM     25  H   UNL     1     -21.922 -47.061  99.940  1.00  0.00     0.293 HD
ENDBRANCH   6  24
BRANCH   8  26
ATOM     26  O   UNL     1     -19.962 -42.409 102.548  1.00  0.00    -0.508 OA
ATOM     27  H   UNL     1     -19.023 -42.138 102.817  1.00  0.00     0.293 HD
ENDBRANCH   8  26
TORSDOF 6
ENDMDL
MODEL 6
REMARK VINA RESULT:    -6.307      3.041      4.337
REMARK INTER + INTRA:          -7.834
REMARK INTER:                  -7.507
REMARK INTRA:                  -0.328
REMARK UNBOUND:                -0.236
REMARK SMILES O=c1c(O)c(-c2ccc(O)c(O)c2)oc2cc(O)cc(O)c12
REMARK SMILES IDX 5 1 3 2 2 3 1 4 22 5 20 6 19 7 17 8 16 9 15 10 14 11 6 12
REMARK SMILES IDX 7 13 8 14 9 15 13 16 11 17 10 18 12 20 4 22 21 24 18 26
REMARK H PARENT 10 19 12 21 4 23 21 25 18 27
REMARK Flexibility Score: inf
ROOT
ATOM      1  C   UNL     1     -21.362 -46.976 102.459  1.00  0.00     0.180 A 
ATOM      2  C   UNL     1     -20.885 -47.208 103.760  1.00  0.00     0.208 A 
ATOM      3  C   UNL     1     -21.297 -48.365 104.442  1.00  0.00     0.238 A 
ATOM      4  O   UNL     1     -20.909 -48.539 105.627  1.00  0.00    -0.285 OA
ATOM      5  C   UNL     1     -22.168 -49.284 103.807  1.00  0.00     0.111 A 
ATOM      6  C   UNL     1     -22.617 -50.507 104.388  1.00  0.00     0.134 A 
ATOM      7  C   UNL     1     -23.580 -51.275 103.722  1.00  0.00     0.093 A 
ATOM      8  C   UNL     1     -24.061 -50.898 102.468  1.00  0.00     0.123 A 
ATOM      9  C   UNL     1     -23.583 -49.733 101.864  1.00  0.00     0.094 A 
ATOM     10  C   UNL     1     -22.650 -48.928 102.520  1.00  0.00     0.146 A 
ATOM     11  O   UNL     1     -22.229 -47.823 101.917  1.00  0.00    -0.452 OA
ENDROOT
BRANCH   1  12
ATOM     12  C   UNL     1     -20.953 -45.793 101.669  1.00  0.00     0.025 A 
ATOM     13  C   UNL     1     -19.857 -45.842 100.793  1.00  0.00     0.016 A 
ATOM     14  C   UNL     1     -19.504 -44.720 100.041  1.00  0.00     0.051 A 
ATOM     15  C   UNL     1     -20.243 -43.536 100.135  1.00  0.00     0.157 A 
ATOM     16  C   UNL     1     -21.708 -44.613 101.749  1.00  0.00     0.062 A 
ATOM     17  C   UNL     1     -21.363 -43.482 100.998  1.00  0.00     0.158 A 
BRANCH  15  18
ATOM     18  O   UNL     1     -19.835 -42.448  99.359  1.00  0.00    -0.504 OA
ATOM     19  H   UNL     1     -19.115 -41.797  99.634  1.00  0.00     0.293 HD
ENDBRANCH  15  18
BRANCH  17  20
ATOM     20  O   UNL     1     -22.153 -42.339 101.138  1.00  0.00    -0.504 OA
ATOM     21  H   UNL     1     -22.646 -42.094 101.985  1.00  0.00     0.293 HD
ENDBRANCH  17  20
ENDBRANCH   1  12
BRANCH   2  22
ATOM     22  O   UNL     1     -20.043 -46.278 104.377  1.00  0.00    -0.502 OA
ATOM     23  H   UNL     1     -19.951 -45.324 104.048  1.00  0.00     0.293 HD
ENDBRANCH   2  22
BRANCH   6  24
ATOM     24  O   UNL     1     -22.133 -51.023 105.593  1.00  0.00    -0.507 OA
ATOM     25  H   UNL     1     -22.570 -50.890 106.492  1.00  0.00     0.293 HD
ENDBRANCH   6  24
BRANCH   8  26
ATOM     26  O   UNL     1     -25.007 -51.694 101.827  1.00  0.00    -0.508 OA
ATOM     27  H   UNL     1     -25.496 -52.435 102.316  1.00  0.00     0.293 HD
ENDBRANCH   8  26
TORSDOF 6
ENDMDL
MODEL 7
REMARK VINA RESULT:    -6.305      1.823      3.610
REMARK INTER + INTRA:          -7.831
REMARK INTER:                  -7.514
REMARK INTRA:                  -0.317
REMARK UNBOUND:                -0.236
REMARK SMILES O=c1c(O)c(-c2ccc(O)c(O)c2)oc2cc(O)cc(O)c12
REMARK SMILES IDX 5 1 3 2 2 3 1 4 22 5 20 6 19 7 17 8 16 9 15 10 14 11 6 12
REMARK SMILES IDX 7 13 8 14 9 15 13 16 11 17 10 18 12 20 4 22 21 24 18 26
REMARK H PARENT 10 19 12 21 4 23 21 25 18 27
REMARK Flexibility Score: inf
ROOT
ATOM      1  C   UNL     1     -20.427 -48.659 106.131  1.00  0.00     0.180 A 
ATOM      2  C   UNL     1     -20.842 -49.942 106.528  1.00  0.00     0.208 A 
ATOM      3  C   UNL     1     -20.377 -50.463 107.746  1.00  0.00     0.238 A 
ATOM      4  O   UNL     1     -20.709 -51.633 108.070  1.00  0.00    -0.285 OA
ATOM      5  C   UNL     1     -19.514 -49.689 108.560  1.00  0.00     0.111 A 
ATOM      6  C   UNL     1     -19.015 -50.101 109.831  1.00  0.00     0.134 A 
ATOM      7  C   UNL     1     -18.065 -49.310 110.490  1.00  0.00     0.093 A 
ATOM      8  C   UNL     1     -17.647 -48.091 109.955  1.00  0.00     0.123 A 
ATOM      9  C   UNL     1     -18.175 -47.650 108.740  1.00  0.00     0.094 A 
ATOM     10  C   UNL     1     -19.096 -48.435 108.043  1.00  0.00     0.146 A 
ATOM     11  O   UNL     1     -19.566 -47.985 106.886  1.00  0.00    -0.452 OA
ENDROOT
BRANCH   1  12
ATOM     12  C   UNL     1     -20.895 -48.033 104.874  1.00  0.00     0.025 A 
ATOM     13  C   UNL     1     -22.142 -47.394 104.796  1.00  0.00     0.016 A 
ATOM     14  C   UNL     1     -22.552 -46.790 103.606  1.00  0.00     0.051 A 
ATOM     15  C   UNL     1     -21.724 -46.798 102.479  1.00  0.00     0.157 A 
ATOM     16  C   UNL     1     -20.053 -48.023 103.751  1.00  0.00     0.062 A 
ATOM     17  C   UNL     1     -20.455 -47.420 102.553  1.00  0.00     0.158 A 
BRANCH  15  18
ATOM     18  O   UNL     1     -22.195 -46.180 101.318  1.00  0.00    -0.504 OA
ATOM     19  H   UNL     1     -21.649 -45.543 100.757  1.00  0.00     0.293 HD
ENDBRANCH  15  18
BRANCH  17  20
ATOM     20  O   UNL     1     -19.571 -47.460 101.473  1.00  0.00    -0.504 OA
ATOM     21  H   UNL     1     -19.175 -48.311 101.099  1.00  0.00     0.293 HD
ENDBRANCH  17  20
ENDBRANCH   1  12
BRANCH   2  22
ATOM     22  O   UNL     1     -21.676 -50.698 105.700  1.00  0.00    -0.502 OA
ATOM     23  H   UNL     1     -22.647 -50.879 105.923  1.00  0.00     0.293 HD
ENDBRANCH   2  22
BRANCH   6  24
ATOM     24  O   UNL     1     -19.435 -51.255 110.499  1.00  0.00    -0.507 OA
ATOM     25  H   UNL     1     -19.067 -52.179 110.336  1.00  0.00     0.293 HD
ENDBRANCH   6  24
BRANCH   8  26
ATOM     26  O   UNL     1     -16.713 -47.322 110.645  1.00  0.00    -0.508 OA
ATOM     27  H   UNL     1     -16.640 -46.321 110.501  1.00  0.00     0.293 HD
ENDBRANCH   8  26
TORSDOF 6
ENDMDL
MODEL 8
REMARK VINA RESULT:    -6.248      1.217      2.869
REMARK INTER + INTRA:          -7.763
REMARK INTER:                  -7.467
REMARK INTRA:                  -0.296
REMARK UNBOUND:                -0.236
REMARK SMILES O=c1c(O)c(-c2ccc(O)c(O)c2)oc2cc(O)cc(O)c12
REMARK SMILES IDX 5 1 3 2 2 3 1 4 22 5 20 6 19 7 17 8 16 9 15 10 14 11 6 12
REMARK SMILES IDX 7 13 8 14 9 15 13 16 11 17 10 18 12 20 4 22 21 24 18 26
REMARK H PARENT 10 19 12 21 4 23 21 25 18 27
REMARK Flexibility Score: inf
ROOT
ATOM      1  C   UNL     1     -20.372 -47.430 103.825  1.00  0.00     0.180 A 
ATOM      2  C   UNL     1     -21.172 -48.484 104.297  1.00  0.00     0.208 A 
ATOM      3  C   UNL     1     -20.971 -48.961 105.603  1.00  0.00     0.238 A 
ATOM      4  O   UNL     1     -21.653 -49.941 106.001  1.00  0.00    -0.285 OA
ATOM      5  C   UNL     1     -19.983 -48.367 106.426  1.00  0.00     0.111 A 
ATOM      6  C   UNL     1     -19.722 -48.743 107.777  1.00  0.00     0.134 A 
ATOM      7  C   UNL     1     -18.635 -48.176 108.454  1.00  0.00     0.093 A 
ATOM      8  C   UNL     1     -17.840 -47.200 107.851  1.00  0.00     0.123 A 
ATOM      9  C   UNL     1     -18.125 -46.782 106.550  1.00  0.00     0.094 A 
ATOM     10  C   UNL     1     -19.180 -47.355 105.837  1.00  0.00     0.146 A 
ATOM     11  O   UNL     1     -19.411 -46.938 104.598  1.00  0.00    -0.452 OA
ENDROOT
BRANCH   1  12
ATOM     12  C   UNL     1     -20.542 -46.857 102.470  1.00  0.00     0.025 A 
ATOM     13  C   UNL     1     -21.585 -45.965 102.180  1.00  0.00     0.016 A 
ATOM     14  C   UNL     1     -21.711 -45.419 100.901  1.00  0.00     0.051 A 
ATOM     15  C   UNL     1     -20.795 -45.741  99.893  1.00  0.00     0.157 A 
ATOM     16  C   UNL     1     -19.609 -47.164 101.468  1.00  0.00     0.062 A 
ATOM     17  C   UNL     1     -19.726 -46.623 100.182  1.00  0.00     0.158 A 
BRANCH  15  18
ATOM     18  O   UNL     1     -20.979 -45.165  98.634  1.00  0.00    -0.504 OA
ATOM     19  H   UNL     1     -21.453 -44.287  98.479  1.00  0.00     0.293 HD
ENDBRANCH  15  18
BRANCH  17  20
ATOM     20  O   UNL     1     -18.769 -46.983  99.232  1.00  0.00    -0.504 OA
ATOM     21  H   UNL     1     -18.576 -46.453  98.395  1.00  0.00     0.293 HD
ENDBRANCH  17  20
ENDBRANCH   1  12
BRANCH   2  22
ATOM     22  O   UNL     1     -22.126 -49.072 103.462  1.00  0.00    -0.502 OA
ATOM     23  H   UNL     1     -23.009 -49.427 103.808  1.00  0.00     0.293 HD
ENDBRANCH   2  22
BRANCH   6  24
ATOM     24  O   UNL     1     -20.509 -49.640 108.504  1.00  0.00    -0.507 OA
ATOM     25  H   UNL     1     -21.510 -49.574 108.605  1.00  0.00     0.293 HD
ENDBRANCH   6  24
BRANCH   8  26
ATOM     26  O   UNL     1     -16.776 -46.646 108.559  1.00  0.00    -0.508 OA
ATOM     27  H   UNL     1     -16.863 -46.398 109.538  1.00  0.00     0.293 HD
ENDBRANCH   8  26
TORSDOF 6
ENDMDL
MODEL 9
REMARK VINA RESULT:    -6.212      2.125      3.343
REMARK INTER + INTRA:          -7.720
REMARK INTER:                  -7.419
REMARK INTRA:                  -0.300
REMARK UNBOUND:                -0.236
REMARK SMILES O=c1c(O)c(-c2ccc(O)c(O)c2)oc2cc(O)cc(O)c12
REMARK SMILES IDX 5 1 3 2 2 3 1 4 22 5 20 6 19 7 17 8 16 9 15 10 14 11 6 12
REMARK SMILES IDX 7 13 8 14 9 15 13 16 11 17 10 18 12 20 4 22 21 24 18 26
REMARK H PARENT 10 19 12 21 4 23 21 25 18 27
REMARK Flexibility Score: inf
ROOT
ATOM      1  C   UNL     1     -20.362 -47.378 105.174  1.00  0.00     0.180 A 
ATOM      2  C   UNL     1     -21.343 -48.292 104.754  1.00  0.00     0.208 A 
ATOM      3  C   UNL     1     -21.595 -49.430 105.538  1.00  0.00     0.238 A 
ATOM      4  O   UNL     1     -22.436 -50.273 105.129  1.00  0.00    -0.285 OA
ATOM      5  C   UNL     1     -20.875 -49.630 106.741  1.00  0.00     0.111 A 
ATOM      6  C   UNL     1     -21.078 -50.725 107.633  1.00  0.00     0.134 A 
ATOM      7  C   UNL     1     -20.220 -50.892 108.727  1.00  0.00     0.093 A 
ATOM      8  C   UNL     1     -19.209 -49.970 108.998  1.00  0.00     0.123 A 
ATOM      9  C   UNL     1     -19.041 -48.862 108.165  1.00  0.00     0.094 A 
ATOM     10  C   UNL     1     -19.859 -48.688 107.046  1.00  0.00     0.146 A 
ATOM     11  O   UNL     1     -19.659 -47.627 106.273  1.00  0.00    -0.452 OA
ENDROOT
BRANCH   1  12
ATOM     12  C   UNL     1     -20.059 -46.144 104.415  1.00  0.00     0.025 A 
ATOM     13  C   UNL     1     -20.574 -44.899 104.807  1.00  0.00     0.016 A 
ATOM     14  C   UNL     1     -20.254 -43.745 104.088  1.00  0.00     0.051 A 
ATOM     15  C   UNL     1     -19.406 -43.807 102.977  1.00  0.00     0.157 A 
ATOM     16  C   UNL     1     -19.191 -46.206 103.314  1.00  0.00     0.062 A 
ATOM     17  C   UNL     1     -18.864 -45.055 102.586  1.00  0.00     0.158 A 
BRANCH  15  18
ATOM     18  O   UNL     1     -19.130 -42.618 102.299  1.00  0.00    -0.504 OA
ATOM     19  H   UNL     1     -18.849 -41.762 102.753  1.00  0.00     0.293 HD
ENDBRANCH  15  18
BRANCH  17  20
ATOM     20  O   UNL     1     -18.005 -45.194 101.494  1.00  0.00    -0.504 OA
ATOM     21  H   UNL     1     -17.620 -46.076 101.188  1.00  0.00     0.293 HD
ENDBRANCH  17  20
ENDBRANCH   1  12
BRANCH   2  22
ATOM     22  O   UNL     1     -22.027 -48.088 103.552  1.00  0.00    -0.502 OA
ATOM     23  H   UNL     1     -21.612 -48.282 102.649  1.00  0.00     0.293 HD
ENDBRANCH   2  22
BRANCH   6  24
ATOM     24  O   UNL     1     -22.115 -51.653 107.507  1.00  0.00    -0.507 OA
ATOM     25  H   UNL     1     -22.987 -51.612 108.011  1.00  0.00     0.293 HD
ENDBRANCH   6  24
BRANCH   8  26
ATOM     26  O   UNL     1     -18.384 -50.158 110.104  1.00  0.00    -0.508 OA
ATOM     27  H   UNL     1     -17.392 -49.953 110.067  1.00  0.00     0.293 HD
ENDBRANCH   8  26
TORSDOF 6
ENDMDL
