MODEL 1
REMARK VINA RESULT:    -7.321      0.000      0.000
REMARK INTER + INTRA:          -8.864
REMARK INTER:                  -8.605
REMARK INTRA:                  -0.259
REMARK UNBOUND:                -0.259
REMARK SMILES O=c1cc(-c2ccc(O)c(O)c2)oc2cc(O)cc(O)c12
REMARK SMILES IDX 4 1 3 2 2 3 1 4 21 5 19 6 18 7 16 8 15 9 14 10 13 11 5 12
REMARK SMILES IDX 6 13 7 14 8 15 12 16 10 17 9 18 11 20 20 22 17 24
REMARK H PARENT 9 19 11 21 20 23 17 25
REMARK Flexibility Score: inf
ROOT
ATOM      1  C   UNL     1      19.920  24.817  40.917  1.00  0.00     0.138 A 
ATOM      2  C   UNL     1      20.786  25.918  40.930  1.00  0.00     0.100 A 
ATOM      3  C   UNL     1      20.670  26.878  41.938  1.00  0.00     0.197 A 
ATOM      4  O   UNL     1      21.425  27.883  41.890  1.00  0.00    -0.289 OA
ATOM      5  C   UNL     1      19.700  26.713  42.957  1.00  0.00     0.107 A 
ATOM      6  C   UNL     1      19.512  27.609  44.052  1.00  0.00     0.134 A 
ATOM      7  C   UNL     1      18.453  27.393  44.945  1.00  0.00     0.093 A 
ATOM      8  C   UNL     1      17.616  26.287  44.817  1.00  0.00     0.123 A 
ATOM      9  C   UNL     1      17.822  25.377  43.779  1.00  0.00     0.094 A 
ATOM     10  C   UNL     1      18.847  25.582  42.852  1.00  0.00     0.146 A 
ATOM     11  O   UNL     1      18.998  24.703  41.867  1.00  0.00    -0.456 OA
ENDROOT
BRANCH   1  12
ATOM     12  C   UNL     1      20.002  23.765  39.873  1.00  0.00     0.021 A 
ATOM     13  C   UNL     1      20.581  22.507  40.132  1.00  0.00     0.016 A 
ATOM     14  C   UNL     1      20.653  21.540  39.126  1.00  0.00     0.051 A 
ATOM     15  C   UNL     1      20.157  21.813  37.846  1.00  0.00     0.157 A 
ATOM     16  C   UNL     1      19.518  24.035  38.580  1.00  0.00     0.062 A 
ATOM     17  C   UNL     1      19.589  23.063  37.571  1.00  0.00     0.158 A 
BRANCH  15  18
ATOM     18  O   UNL     1      20.225  20.849  36.841  1.00  0.00    -0.504 OA
ATOM     19  H   UNL     1      21.096  20.384  36.613  1.00  0.00     0.293 HD
ENDBRANCH  15  18
BRANCH  17  20
ATOM     20  O   UNL     1      19.099  23.333  36.295  1.00  0.00    -0.504 OA
ATOM     21  H   UNL     1      19.717  23.407  35.495  1.00  0.00     0.293 HD
ENDBRANCH  17  20
ENDBRANCH   1  12
BRANCH   6  22
ATOM     22  O   UNL     1      20.339  28.703  44.323  1.00  0.00    -0.507 OA
ATOM     23  H   UNL     1      21.334  28.653  44.475  1.00  0.00     0.293 HD
ENDBRANCH   6  22
BRANCH   8  24
ATOM     24  O   UNL     1      16.584  26.096  45.733  1.00  0.00    -0.508 OA
ATOM     25  H   UNL     1      16.067  25.225  45.775  1.00  0.00     0.293 HD
ENDBRANCH   8  24
TORSDOF 5
ENDMDL
MODEL 2
REMARK VINA RESULT:    -7.051      1.221      2.779
REMARK INTER + INTRA:          -8.546
REMARK INTER:                  -8.284
REMARK INTRA:                  -0.262
REMARK UNBOUND:                -0.259
REMARK SMILES O=c1cc(-c2ccc(O)c(O)c2)oc2cc(O)cc(O)c12
REMARK SMILES IDX 4 1 3 2 2 3 1 4 21 5 19 6 18 7 16 8 15 9 14 10 13 11 5 12
REMARK SMILES IDX 6 13 7 14 8 15 12 16 10 17 9 18 11 20 20 22 17 24
REMARK H PARENT 9 19 11 21 20 23 17 25
REMARK Flexibility Score: inf
ROOT
ATOM      1  C   UNL     1      18.824  24.128  41.729  1.00  0.00     0.138 A 
ATOM      2  C   UNL     1      17.671  23.719  42.412  1.00  0.00     0.100 A 
ATOM      3  C   UNL     1      17.219  24.457  43.507  1.00  0.00     0.197 A 
ATOM      4  O   UNL     1      16.213  24.034  44.133  1.00  0.00    -0.289 OA
ATOM      5  C   UNL     1      17.908  25.631  43.897  1.00  0.00     0.107 A 
ATOM      6  C   UNL     1      17.521  26.482  44.976  1.00  0.00     0.134 A 
ATOM      7  C   UNL     1      18.339  27.562  45.330  1.00  0.00     0.093 A 
ATOM      8  C   UNL     1      19.495  27.858  44.611  1.00  0.00     0.123 A 
ATOM      9  C   UNL     1      19.857  27.063  43.523  1.00  0.00     0.094 A 
ATOM     10  C   UNL     1      19.082  25.957  43.165  1.00  0.00     0.146 A 
ATOM     11  O   UNL     1      19.471  25.215  42.135  1.00  0.00    -0.456 OA
ENDROOT
BRANCH   1  12
ATOM     12  C   UNL     1      19.348  23.382  40.556  1.00  0.00     0.021 A 
ATOM     13  C   UNL     1      20.339  22.390  40.691  1.00  0.00     0.016 A 
ATOM     14  C   UNL     1      20.820  21.712  39.568  1.00  0.00     0.051 A 
ATOM     15  C   UNL     1      20.327  22.017  38.294  1.00  0.00     0.157 A 
ATOM     16  C   UNL     1      18.869  23.691  39.270  1.00  0.00     0.062 A 
ATOM     17  C   UNL     1      19.352  23.009  38.144  1.00  0.00     0.158 A 
BRANCH  15  18
ATOM     18  O   UNL     1      20.804  21.341  37.171  1.00  0.00    -0.504 OA
ATOM     19  H   UNL     1      20.702  20.337  37.075  1.00  0.00     0.293 HD
ENDBRANCH  15  18
BRANCH  17  20
ATOM     20  O   UNL     1      18.866  23.313  36.873  1.00  0.00    -0.504 OA
ATOM     21  H   UNL     1      19.150  24.154  36.384  1.00  0.00     0.293 HD
ENDBRANCH  17  20
ENDBRANCH   1  12
BRANCH   6  22
ATOM     22  O   UNL     1      16.342  26.327  45.713  1.00  0.00    -0.507 OA
ATOM     23  H   UNL     1      16.055  26.918  46.477  1.00  0.00     0.293 HD
ENDBRANCH   6  22
BRANCH   8  24
ATOM     24  O   UNL     1      20.276  28.950  44.983  1.00  0.00    -0.508 OA
ATOM     25  H   UNL     1      19.932  29.653  45.626  1.00  0.00     0.293 HD
ENDBRANCH   8  24
TORSDOF 5
ENDMDL
MODEL 3
REMARK VINA RESULT:    -6.948      1.404      7.034
REMARK INTER + INTRA:          -8.425
REMARK INTER:                  -8.160
REMARK INTRA:                  -0.265
REMARK UNBOUND:                -0.259
REMARK SMILES O=c1cc(-c2ccc(O)c(O)c2)oc2cc(O)cc(O)c12
REMARK SMILES IDX 4 1 3 2 2 3 1 4 21 5 19 6 18 7 16 8 15 9 14 10 13 11 5 12
REMARK SMILES IDX 6 13 7 14 8 15 12 16 10 17 9 18 11 20 20 22 17 24
REMARK H PARENT 9 19 11 21 20 23 17 25
REMARK Flexibility Score: inf
ROOT
ATOM      1  C   UNL     1      19.103  25.335  40.674  1.00  0.00     0.138 A 
ATOM      2  C   UNL     1      18.951  26.282  39.654  1.00  0.00     0.100 A 
ATOM      3  C   UNL     1      19.168  25.909  38.326  1.00  0.00     0.197 A 
ATOM      4  O   UNL     1      19.078  26.795  37.438  1.00  0.00    -0.289 OA
ATOM      5  C   UNL     1      19.506  24.568  38.018  1.00  0.00     0.107 A 
ATOM      6  C   UNL     1      19.718  24.064  36.700  1.00  0.00     0.134 A 
ATOM      7  C   UNL     1      20.146  22.741  36.528  1.00  0.00     0.093 A 
ATOM      8  C   UNL     1      20.311  21.889  37.618  1.00  0.00     0.123 A 
ATOM      9  C   UNL     1      20.058  22.356  38.908  1.00  0.00     0.094 A 
ATOM     10  C   UNL     1      19.664  23.680  39.117  1.00  0.00     0.146 A 
ATOM     11  O   UNL     1      19.452  24.091  40.362  1.00  0.00    -0.456 OA
ENDROOT
BRANCH   1  12
ATOM     12  C   UNL     1      18.881  25.676  42.102  1.00  0.00     0.021 A 
ATOM     13  C   UNL     1      17.906  25.019  42.878  1.00  0.00     0.016 A 
ATOM     14  C   UNL     1      17.713  25.367  44.217  1.00  0.00     0.051 A 
ATOM     15  C   UNL     1      18.482  26.380  44.801  1.00  0.00     0.157 A 
ATOM     16  C   UNL     1      19.640  26.701  42.695  1.00  0.00     0.062 A 
ATOM     17  C   UNL     1      19.446  27.050  44.039  1.00  0.00     0.158 A 
BRANCH  15  18
ATOM     18  O   UNL     1      18.293  26.730  46.138  1.00  0.00    -0.504 OA
ATOM     19  H   UNL     1      18.297  27.698  46.437  1.00  0.00     0.293 HD
ENDBRANCH  15  18
BRANCH  17  20
ATOM     20  O   UNL     1      20.208  28.060  44.623  1.00  0.00    -0.504 OA
ATOM     21  H   UNL     1      21.217  28.086  44.526  1.00  0.00     0.293 HD
ENDBRANCH  17  20
ENDBRANCH   1  12
BRANCH   6  22
ATOM     22  O   UNL     1      19.505  24.805  35.533  1.00  0.00    -0.507 OA
ATOM     23  H   UNL     1      18.682  24.748  34.953  1.00  0.00     0.293 HD
ENDBRANCH   6  22
BRANCH   8  24
ATOM     24  O   UNL     1      20.722  20.575  37.407  1.00  0.00    -0.508 OA
ATOM     25  H   UNL     1      21.683  20.349  37.182  1.00  0.00     0.293 HD
ENDBRANCH   8  24
TORSDOF 5
ENDMDL
MODEL 4
REMARK VINA RESULT:    -6.845      1.583      7.225
REMARK INTER + INTRA:          -8.305
REMARK INTER:                  -8.036
REMARK INTRA:                  -0.268
REMARK UNBOUND:                -0.259
REMARK SMILES O=c1cc(-c2ccc(O)c(O)c2)oc2cc(O)cc(O)c12
REMARK SMILES IDX 4 1 3 2 2 3 1 4 21 5 19 6 18 7 16 8 15 9 14 10 13 11 5 12
REMARK SMILES IDX 6 13 7 14 8 15 12 16 10 17 9 18 11 20 20 22 17 24
REMARK H PARENT 9 19 11 21 20 23 17 25
REMARK Flexibility Score: inf
ROOT
ATOM      1  C   UNL     1      19.043  24.431  40.771  1.00  0.00     0.138 A 
ATOM      2  C   UNL     1      20.062  23.480  40.910  1.00  0.00     0.100 A 
ATOM      3  C   UNL     1      20.346  22.613  39.853  1.00  0.00     0.197 A 
ATOM      4  O   UNL     1      21.229  21.734  40.028  1.00  0.00    -0.289 OA
ATOM      5  C   UNL     1      19.626  22.724  38.639  1.00  0.00     0.107 A 
ATOM      6  C   UNL     1      19.851  21.917  37.483  1.00  0.00     0.134 A 
ATOM      7  C   UNL     1      19.007  22.054  36.372  1.00  0.00     0.093 A 
ATOM      8  C   UNL     1      17.988  23.004  36.353  1.00  0.00     0.123 A 
ATOM      9  C   UNL     1      17.791  23.833  37.458  1.00  0.00     0.094 A 
ATOM     10  C   UNL     1      18.592  23.698  38.595  1.00  0.00     0.146 A 
ATOM     11  O   UNL     1      18.360  24.494  39.633  1.00  0.00    -0.456 OA
ENDROOT
BRANCH   1  12
ATOM     12  C   UNL     1      18.701  25.380  41.861  1.00  0.00     0.021 A 
ATOM     13  C   UNL     1      17.390  25.486  42.367  1.00  0.00     0.016 A 
ATOM     14  C   UNL     1      17.096  26.395  43.387  1.00  0.00     0.051 A 
ATOM     15  C   UNL     1      18.100  27.218  43.912  1.00  0.00     0.157 A 
ATOM     16  C   UNL     1      19.700  26.220  42.386  1.00  0.00     0.062 A 
ATOM     17  C   UNL     1      19.404  27.132  43.409  1.00  0.00     0.158 A 
BRANCH  15  18
ATOM     18  O   UNL     1      17.810  28.125  44.930  1.00  0.00    -0.504 OA
ATOM     19  H   UNL     1      17.271  27.853  45.744  1.00  0.00     0.293 HD
ENDBRANCH  15  18
BRANCH  17  20
ATOM     20  O   UNL     1      20.400  27.954  43.932  1.00  0.00    -0.504 OA
ATOM     21  H   UNL     1      21.325  27.598  44.143  1.00  0.00     0.293 HD
ENDBRANCH  17  20
ENDBRANCH   1  12
BRANCH   6  22
ATOM     22  O   UNL     1      20.891  20.991  37.362  1.00  0.00    -0.507 OA
ATOM     23  H   UNL     1      21.135  20.501  36.516  1.00  0.00     0.293 HD
ENDBRANCH   6  22
BRANCH   8  24
ATOM     24  O   UNL     1      17.179  23.122  35.225  1.00  0.00    -0.508 OA
ATOM     25  H   UNL     1      16.303  23.630  35.252  1.00  0.00     0.293 HD
ENDBRANCH   8  24
TORSDOF 5
ENDMDL
MODEL 5
REMARK VINA RESULT:    -6.728      4.379      7.840
REMARK INTER + INTRA:          -8.167
REMARK INTER:                  -7.894
REMARK INTRA:                  -0.273
REMARK UNBOUND:                -0.259
REMARK SMILES O=c1cc(-c2ccc(O)c(O)c2)oc2cc(O)cc(O)c12
REMARK SMILES IDX 4 1 3 2 2 3 1 4 21 5 19 6 18 7 16 8 15 9 14 10 13 11 5 12
REMARK SMILES IDX 6 13 7 14 8 15 12 16 10 17 9 18 11 20 20 22 17 24
REMARK H PARENT 9 19 11 21 20 23 17 25
REMARK Flexibility Score: inf
ROOT
ATOM      1  C   UNL     1      17.577  24.262  45.387  1.00  0.00     0.138 A 
ATOM      2  C   UNL     1      17.637  23.574  44.168  1.00  0.00     0.100 A 
ATOM      3  C   UNL     1      17.412  22.196  44.141  1.00  0.00     0.197 A 
ATOM      4  O   UNL     1      17.527  21.597  43.040  1.00  0.00    -0.289 OA
ATOM      5  C   UNL     1      17.090  21.512  45.339  1.00  0.00     0.107 A 
ATOM      6  C   UNL     1      16.808  20.115  45.427  1.00  0.00     0.134 A 
ATOM      7  C   UNL     1      16.601  19.532  46.684  1.00  0.00     0.093 A 
ATOM      8  C   UNL     1      16.607  20.302  47.846  1.00  0.00     0.123 A 
ATOM      9  C   UNL     1      16.832  21.677  47.767  1.00  0.00     0.094 A 
ATOM     10  C   UNL     1      17.077  22.283  46.532  1.00  0.00     0.146 A 
ATOM     11  O   UNL     1      17.305  23.592  46.501  1.00  0.00    -0.456 OA
ENDROOT
BRANCH   1  12
ATOM     12  C   UNL     1      17.804  25.727  45.474  1.00  0.00     0.021 A 
ATOM     13  C   UNL     1      16.919  26.574  46.169  1.00  0.00     0.016 A 
ATOM     14  C   UNL     1      17.154  27.950  46.226  1.00  0.00     0.051 A 
ATOM     15  C   UNL     1      18.268  28.504  45.585  1.00  0.00     0.157 A 
ATOM     16  C   UNL     1      18.914  26.295  44.821  1.00  0.00     0.062 A 
ATOM     17  C   UNL     1      19.149  27.676  44.880  1.00  0.00     0.158 A 
BRANCH  15  18
ATOM     18  O   UNL     1      18.505  29.877  45.641  1.00  0.00    -0.504 OA
ATOM     19  H   UNL     1      19.415  30.247  45.892  1.00  0.00     0.293 HD
ENDBRANCH  15  18
BRANCH  17  20
ATOM     20  O   UNL     1      20.255  28.231  44.240  1.00  0.00    -0.504 OA
ATOM     21  H   UNL     1      20.161  29.015  43.603  1.00  0.00     0.293 HD
ENDBRANCH  17  20
ENDBRANCH   1  12
BRANCH   6  22
ATOM     22  O   UNL     1      16.698  19.265  44.322  1.00  0.00    -0.507 OA
ATOM     23  H   UNL     1      17.113  19.434  43.419  1.00  0.00     0.293 HD
ENDBRANCH   6  22
BRANCH   8  24
ATOM     24  O   UNL     1      16.380  19.690  49.077  1.00  0.00    -0.508 OA
ATOM     25  H   UNL     1      15.611  19.045  49.215  1.00  0.00     0.293 HD
ENDBRANCH   8  24
TORSDOF 5
ENDMDL
MODEL 6
REMARK VINA RESULT:    -6.635      1.998      7.258
REMARK INTER + INTRA:          -8.058
REMARK INTER:                  -7.796
REMARK INTRA:                  -0.262
REMARK UNBOUND:                -0.259
REMARK SMILES O=c1cc(-c2ccc(O)c(O)c2)oc2cc(O)cc(O)c12
REMARK SMILES IDX 4 1 3 2 2 3 1 4 21 5 19 6 18 7 16 8 15 9 14 10 13 11 5 12
REMARK SMILES IDX 6 13 7 14 8 15 12 16 10 17 9 18 11 20 20 22 17 24
REMARK H PARENT 9 19 11 21 20 23 17 25
REMARK Flexibility Score: inf
ROOT
ATOM      1  C   UNL     1      17.714  25.318  42.226  1.00  0.00     0.138 A 
ATOM      2  C   UNL     1      17.041  25.728  41.068  1.00  0.00     0.100 A 
ATOM      3  C   UNL     1      17.374  25.158  39.837  1.00  0.00     0.197 A 
ATOM      4  O   UNL     1      16.790  25.587  38.809  1.00  0.00    -0.289 OA
ATOM      5  C   UNL     1      18.363  24.147  39.775  1.00  0.00     0.107 A 
ATOM      6  C   UNL     1      18.761  23.471  38.582  1.00  0.00     0.134 A 
ATOM      7  C   UNL     1      19.822  22.558  38.629  1.00  0.00     0.093 A 
ATOM      8  C   UNL     1      20.459  22.252  39.831  1.00  0.00     0.123 A 
ATOM      9  C   UNL     1      20.045  22.870  41.012  1.00  0.00     0.094 A 
ATOM     10  C   UNL     1      19.013  23.811  40.993  1.00  0.00     0.146 A 
ATOM     11  O   UNL     1      18.661  24.391  42.136  1.00  0.00    -0.456 OA
ENDROOT
BRANCH   1  12
ATOM     12  C   UNL     1      17.399  25.887  43.561  1.00  0.00     0.021 A 
ATOM     13  C   UNL     1      16.587  25.202  44.486  1.00  0.00     0.016 A 
ATOM     14  C   UNL     1      16.299  25.766  45.731  1.00  0.00     0.051 A 
ATOM     15  C   UNL     1      16.809  27.025  46.071  1.00  0.00     0.157 A 
ATOM     16  C   UNL     1      17.896  27.157  43.907  1.00  0.00     0.062 A 
ATOM     17  C   UNL     1      17.607  27.723  45.157  1.00  0.00     0.158 A 
BRANCH  15  18
ATOM     18  O   UNL     1      16.525  27.591  47.314  1.00  0.00    -0.504 OA
ATOM     19  H   UNL     1      16.692  27.085  48.176  1.00  0.00     0.293 HD
ENDBRANCH  15  18
BRANCH  17  20
ATOM     20  O   UNL     1      18.110  28.977  45.498  1.00  0.00    -0.504 OA
ATOM     21  H   UNL     1      18.401  29.192  46.445  1.00  0.00     0.293 HD
ENDBRANCH  17  20
ENDBRANCH   1  12
BRANCH   6  22
ATOM     22  O   UNL     1      18.141  23.640  37.340  1.00  0.00    -0.507 OA
ATOM     23  H   UNL     1      17.382  24.277  37.154  1.00  0.00     0.293 HD
ENDBRANCH   6  22
BRANCH   8  24
ATOM     24  O   UNL     1      21.500  21.326  39.842  1.00  0.00    -0.508 OA
ATOM     25  H   UNL     1      21.417  20.442  40.328  1.00  0.00     0.293 HD
ENDBRANCH   8  24
TORSDOF 5
ENDMDL
MODEL 7
REMARK VINA RESULT:    -6.445      4.675      7.719
REMARK INTER + INTRA:          -7.834
REMARK INTER:                  -7.559
REMARK INTRA:                  -0.275
REMARK UNBOUND:                -0.259
REMARK SMILES O=c1cc(-c2ccc(O)c(O)c2)oc2cc(O)cc(O)c12
REMARK SMILES IDX 4 1 3 2 2 3 1 4 21 5 19 6 18 7 16 8 15 9 14 10 13 11 5 12
REMARK SMILES IDX 6 13 7 14 8 15 12 16 10 17 9 18 11 20 20 22 17 24
REMARK H PARENT 9 19 11 21 20 23 17 25
REMARK Flexibility Score: inf
ROOT
ATOM      1  C   UNL     1      16.650  24.823  44.434  1.00  0.00     0.138 A 
ATOM      2  C   UNL     1      15.360  24.850  43.889  1.00  0.00     0.100 A 
ATOM      3  C   UNL     1      14.718  23.651  43.572  1.00  0.00     0.197 A 
ATOM      4  O   UNL     1      13.583  23.710  43.032  1.00  0.00    -0.289 OA
ATOM      5  C   UNL     1      15.362  22.417  43.836  1.00  0.00     0.107 A 
ATOM      6  C   UNL     1      14.792  21.133  43.586  1.00  0.00     0.134 A 
ATOM      7  C   UNL     1      15.564  19.983  43.797  1.00  0.00     0.093 A 
ATOM      8  C   UNL     1      16.860  20.068  44.302  1.00  0.00     0.123 A 
ATOM      9  C   UNL     1      17.410  21.316  44.598  1.00  0.00     0.094 A 
ATOM     10  C   UNL     1      16.678  22.483  44.366  1.00  0.00     0.146 A 
ATOM     11  O   UNL     1      17.245  23.653  44.643  1.00  0.00    -0.456 OA
ENDROOT
BRANCH   1  12
ATOM     12  C   UNL     1      17.377  26.066  44.794  1.00  0.00     0.021 A 
ATOM     13  C   UNL     1      16.887  26.955  45.771  1.00  0.00     0.016 A 
ATOM     14  C   UNL     1      17.589  28.123  46.082  1.00  0.00     0.051 A 
ATOM     15  C   UNL     1      18.783  28.427  45.419  1.00  0.00     0.157 A 
ATOM     16  C   UNL     1      18.572  26.388  44.124  1.00  0.00     0.062 A 
ATOM     17  C   UNL     1      19.275  27.559  44.437  1.00  0.00     0.158 A 
BRANCH  15  18
ATOM     18  O   UNL     1      19.486  29.591  45.727  1.00  0.00    -0.504 OA
ATOM     19  H   UNL     1      19.946  30.138  45.008  1.00  0.00     0.293 HD
ENDBRANCH  15  18
BRANCH  17  20
ATOM     20  O   UNL     1      20.463  27.867  43.777  1.00  0.00    -0.504 OA
ATOM     21  H   UNL     1      21.366  27.716  44.212  1.00  0.00     0.293 HD
ENDBRANCH  17  20
ENDBRANCH   1  12
BRANCH   6  22
ATOM     22  O   UNL     1      13.477  20.928  43.155  1.00  0.00    -0.507 OA
ATOM     23  H   UNL     1      13.055  21.369  42.354  1.00  0.00     0.293 HD
ENDBRANCH   6  22
BRANCH   8  24
ATOM     24  O   UNL     1      17.593  18.902  44.515  1.00  0.00    -0.508 OA
ATOM     25  H   UNL     1      17.140  18.026  44.747  1.00  0.00     0.293 HD
ENDBRANCH   8  24
TORSDOF 5
ENDMDL
MODEL 8
REMARK VINA RESULT:    -6.430      4.747      7.395
REMARK INTER + INTRA:          -7.817
REMARK INTER:                  -7.523
REMARK INTRA:                  -0.294
REMARK UNBOUND:                -0.259
REMARK SMILES O=c1cc(-c2ccc(O)c(O)c2)oc2cc(O)cc(O)c12
REMARK SMILES IDX 4 1 3 2 2 3 1 4 21 5 19 6 18 7 16 8 15 9 14 10 13 11 5 12
REMARK SMILES IDX 6 13 7 14 8 15 12 16 10 17 9 18 11 20 20 22 17 24
REMARK H PARENT 9 19 11 21 20 23 17 25
REMARK Flexibility Score: inf
ROOT
ATOM      1  C   UNL     1      17.460  22.910  44.777  1.00  0.00     0.138 A 
ATOM      2  C   UNL     1      17.101  23.115  46.115  1.00  0.00     0.100 A 
ATOM      3  C   UNL     1      16.740  22.025  46.909  1.00  0.00     0.197 A 
ATOM      4  O   UNL     1      16.370  22.248  48.090  1.00  0.00    -0.289 OA
ATOM      5  C   UNL     1      16.774  20.718  46.366  1.00  0.00     0.107 A 
ATOM      6  C   UNL     1      16.459  19.528  47.089  1.00  0.00     0.134 A 
ATOM      7  C   UNL     1      16.432  18.299  46.417  1.00  0.00     0.093 A 
ATOM      8  C   UNL     1      16.763  18.208  45.066  1.00  0.00     0.123 A 
ATOM      9  C   UNL     1      17.121  19.358  44.361  1.00  0.00     0.094 A 
ATOM     10  C   UNL     1      17.124  20.604  44.993  1.00  0.00     0.146 A 
ATOM     11  O   UNL     1      17.453  21.677  44.282  1.00  0.00    -0.456 OA
ENDROOT
BRANCH   1  12
ATOM     12  C   UNL     1      17.856  24.032  43.888  1.00  0.00     0.021 A 
ATOM     13  C   UNL     1      18.094  23.839  42.513  1.00  0.00     0.016 A 
ATOM     14  C   UNL     1      18.475  24.912  41.703  1.00  0.00     0.051 A 
ATOM     15  C   UNL     1      18.631  26.190  42.251  1.00  0.00     0.157 A 
ATOM     16  C   UNL     1      18.028  25.318  44.432  1.00  0.00     0.062 A 
ATOM     17  C   UNL     1      18.409  26.394  43.618  1.00  0.00     0.158 A 
BRANCH  15  18
ATOM     18  O   UNL     1      19.009  27.264  41.445  1.00  0.00    -0.504 OA
ATOM     19  H   UNL     1      19.967  27.381  41.134  1.00  0.00     0.293 HD
ENDBRANCH  15  18
BRANCH  17  20
ATOM     20  O   UNL     1      18.569  27.667  44.161  1.00  0.00    -0.504 OA
ATOM     21  H   UNL     1      18.938  27.803  45.095  1.00  0.00     0.293 HD
ENDBRANCH  17  20
ENDBRANCH   1  12
BRANCH   6  22
ATOM     22  O   UNL     1      16.190  19.492  48.461  1.00  0.00    -0.507 OA
ATOM     23  H   UNL     1      15.317  19.759  48.887  1.00  0.00     0.293 HD
ENDBRANCH   6  22
BRANCH   8  24
ATOM     24  O   UNL     1      16.741  16.967  44.434  1.00  0.00    -0.508 OA
ATOM     25  H   UNL     1      17.181  16.154  44.848  1.00  0.00     0.293 HD
ENDBRANCH   8  24
TORSDOF 5
ENDMDL
MODEL 9
REMARK VINA RESULT:    -6.408      4.208      6.126
REMARK INTER + INTRA:          -7.790
REMARK INTER:                  -7.480
REMARK INTRA:                  -0.311
REMARK UNBOUND:                -0.259
REMARK SMILES O=c1cc(-c2ccc(O)c(O)c2)oc2cc(O)cc(O)c12
REMARK SMILES IDX 4 1 3 2 2 3 1 4 21 5 19 6 18 7 16 8 15 9 14 10 13 11 5 12
REMARK SMILES IDX 6 13 7 14 8 15 12 16 10 17 9 18 11 20 20 22 17 24
REMARK H PARENT 9 19 11 21 20 23 17 25
REMARK Flexibility Score: inf
ROOT
ATOM      1  C   UNL     1      17.299  22.731  44.443  1.00  0.00     0.138 A 
ATOM      2  C   UNL     1      17.907  23.027  43.216  1.00  0.00     0.100 A 
ATOM      3  C   UNL     1      18.268  24.344  42.923  1.00  0.00     0.197 A 
ATOM      4  O   UNL     1      18.761  24.587  41.792  1.00  0.00    -0.289 OA
ATOM      5  C   UNL     1      18.049  25.363  43.882  1.00  0.00     0.107 A 
ATOM      6  C   UNL     1      18.406  26.734  43.708  1.00  0.00     0.134 A 
ATOM      7  C   UNL     1      18.048  27.670  44.688  1.00  0.00     0.093 A 
ATOM      8  C   UNL     1      17.401  27.277  45.858  1.00  0.00     0.123 A 
ATOM      9  C   UNL     1      17.092  25.931  46.062  1.00  0.00     0.094 A 
ATOM     10  C   UNL     1      17.404  24.979  45.089  1.00  0.00     0.146 A 
ATOM     11  O   UNL     1      17.075  23.711  45.313  1.00  0.00    -0.456 OA
ENDROOT
BRANCH   1  12
ATOM     12  C   UNL     1      16.898  21.349  44.808  1.00  0.00     0.021 A 
ATOM     13  C   UNL     1      16.631  20.372  43.828  1.00  0.00     0.016 A 
ATOM     14  C   UNL     1      16.246  19.082  44.201  1.00  0.00     0.051 A 
ATOM     15  C   UNL     1      16.115  18.747  45.553  1.00  0.00     0.157 A 
ATOM     16  C   UNL     1      16.751  21.006  46.164  1.00  0.00     0.062 A 
ATOM     17  C   UNL     1      16.366  19.710  46.537  1.00  0.00     0.158 A 
BRANCH  15  18
ATOM     18  O   UNL     1      15.732  17.459  45.929  1.00  0.00    -0.504 OA
ATOM     19  H   UNL     1      14.807  17.101  45.724  1.00  0.00     0.293 HD
ENDBRANCH  15  18
BRANCH  17  20
ATOM     20  O   UNL     1      16.231  19.374  47.883  1.00  0.00    -0.504 OA
ATOM     21  H   UNL     1      15.983  18.435  48.172  1.00  0.00     0.293 HD
ENDBRANCH  17  20
ENDBRANCH   1  12
BRANCH   6  22
ATOM     22  O   UNL     1      19.125  27.225  42.614  1.00  0.00    -0.507 OA
ATOM     23  H   UNL     1      18.717  27.538  41.746  1.00  0.00     0.293 HD
ENDBRANCH   6  22
BRANCH   8  24
ATOM     24  O   UNL     1      17.076  28.232  46.818  1.00  0.00    -0.508 OA
ATOM     25  H   UNL     1      17.676  28.409  47.615  1.00  0.00     0.293 HD
ENDBRANCH   8  24
TORSDOF 5
ENDMDL
