MODEL 1
REMARK VINA RESULT:    -4.511      0.000      0.000
REMARK INTER + INTRA:          -5.436
REMARK INTER:                  -5.302
REMARK INTRA:                  -0.134
REMARK UNBOUND:                -0.134
REMARK SMILES O=C([O-])C=Cc1ccc(O)c(O)c1
REMARK SMILES IDX 6 1 13 2 7 3 11 4 8 5 9 6 5 7 4 8 2 9 1 10 3 11 12 12 10 14
REMARK H PARENT 12 13 10 15
REMARK Flexibility Score: inf
ROOT
ATOM      1  C   UNL     1      19.423 -46.150   8.034  1.00  0.00    -0.022 A 
ATOM      2  C   UNL     1      19.458 -46.510   6.678  1.00  0.00     0.058 A 
ATOM      3  C   UNL     1      18.853 -47.045   8.959  1.00  0.00     0.012 A 
ATOM      4  C   UNL     1      18.917 -47.723   6.236  1.00  0.00     0.157 A 
ATOM      5  C   UNL     1      18.312 -48.257   8.525  1.00  0.00     0.051 A 
ATOM      6  C   UNL     1      18.333 -48.608   7.172  1.00  0.00     0.157 A 
ENDROOT
BRANCH   1   7
ATOM      7  C   UNL     1      20.022 -44.855   8.442  1.00  0.00     0.010 C 
ATOM      8  C   UNL     1      20.766 -44.088   7.631  1.00  0.00     0.025 C 
BRANCH   8   9
ATOM      9  C   UNL     1      21.355 -42.814   8.076  1.00  0.00     0.064 C 
ATOM     10  O   UNL     1      20.769 -42.082   8.917  1.00  0.00    -0.545 OA
ATOM     11  O   UNL     1      22.577 -42.409   7.556  1.00  0.00    -0.545 OA
ENDBRANCH   8   9
ENDBRANCH   1   7
BRANCH   4  12
ATOM     12  O   UNL     1      18.983 -48.007   4.869  1.00  0.00    -0.504 OA
ATOM     13  H   UNL     1      19.573 -48.721   4.469  1.00  0.00     0.293 HD
ENDBRANCH   4  12
BRANCH   6  14
ATOM     14  O   UNL     1      17.772 -49.833   6.806  1.00  0.00    -0.504 OA
ATOM     15  H   UNL     1      17.372 -50.489   7.460  1.00  0.00     0.293 HD
ENDBRANCH   6  14
TORSDOF 4
ENDMDL
MODEL 2
REMARK VINA RESULT:    -4.364      2.890      5.019
REMARK INTER + INTRA:          -5.263
REMARK INTER:                  -5.138
REMARK INTRA:                  -0.125
REMARK UNBOUND:                -0.134
REMARK SMILES O=C([O-])C=Cc1ccc(O)c(O)c1
REMARK SMILES IDX 6 1 13 2 7 3 11 4 8 5 9 6 5 7 4 8 2 9 1 10 3 11 12 12 10 14
REMARK H PARENT 12 13 10 15
REMARK Flexibility Score: inf
ROOT
ATOM      1  C   UNL     1      19.528 -47.274   6.199  1.00  0.00    -0.022 A 
ATOM      2  C   UNL     1      19.677 -45.886   6.051  1.00  0.00     0.058 A 
ATOM      3  C   UNL     1      18.552 -47.760   7.089  1.00  0.00     0.012 A 
ATOM      4  C   UNL     1      18.895 -44.990   6.789  1.00  0.00     0.157 A 
ATOM      5  C   UNL     1      17.768 -46.872   7.828  1.00  0.00     0.051 A 
ATOM      6  C   UNL     1      17.929 -45.490   7.692  1.00  0.00     0.157 A 
ENDROOT
BRANCH   1   7
ATOM      7  C   UNL     1      20.380 -48.173   5.381  1.00  0.00     0.010 C 
ATOM      8  C   UNL     1      21.719 -48.203   5.456  1.00  0.00     0.025 C 
BRANCH   8   9
ATOM      9  C   UNL     1      22.533 -49.101   4.619  1.00  0.00     0.064 C 
ATOM     10  O   UNL     1      23.386 -48.645   3.812  1.00  0.00    -0.545 OA
ATOM     11  O   UNL     1      22.355 -50.474   4.719  1.00  0.00    -0.545 OA
ENDBRANCH   8   9
ENDBRANCH   1   7
BRANCH   4  12
ATOM     12  O   UNL     1      19.109 -43.623   6.593  1.00  0.00    -0.504 OA
ATOM     13  H   UNL     1      19.199 -43.191   5.686  1.00  0.00     0.293 HD
ENDBRANCH   4  12
BRANCH   6  14
ATOM     14  O   UNL     1      17.114 -44.658   8.463  1.00  0.00    -0.504 OA
ATOM     15  H   UNL     1      17.352 -44.334   9.389  1.00  0.00     0.293 HD
ENDBRANCH   6  14
TORSDOF 4
ENDMDL
MODEL 3
REMARK VINA RESULT:    -4.323      1.957      2.615
REMARK INTER + INTRA:          -5.215
REMARK INTER:                  -5.078
REMARK INTRA:                  -0.138
REMARK UNBOUND:                -0.134
REMARK SMILES O=C([O-])C=Cc1ccc(O)c(O)c1
REMARK SMILES IDX 6 1 13 2 7 3 11 4 8 5 9 6 5 7 4 8 2 9 1 10 3 11 12 12 10 14
REMARK H PARENT 12 13 10 15
REMARK Flexibility Score: inf
ROOT
ATOM      1  C   UNL     1      21.269 -45.865   6.996  1.00  0.00    -0.022 A 
ATOM      2  C   UNL     1      20.138 -46.340   6.314  1.00  0.00     0.058 A 
ATOM      3  C   UNL     1      22.483 -46.565   6.865  1.00  0.00     0.012 A 
ATOM      4  C   UNL     1      20.196 -47.502   5.535  1.00  0.00     0.157 A 
ATOM      5  C   UNL     1      22.548 -47.724   6.090  1.00  0.00     0.051 A 
ATOM      6  C   UNL     1      21.417 -48.206   5.424  1.00  0.00     0.157 A 
ENDROOT
BRANCH   1   7
ATOM      7  C   UNL     1      21.147 -44.622   7.797  1.00  0.00     0.010 C 
ATOM      8  C   UNL     1      22.110 -43.693   7.884  1.00  0.00     0.025 C 
BRANCH   8   9
ATOM      9  C   UNL     1      21.958 -42.476   8.700  1.00  0.00     0.064 C 
ATOM     10  O   UNL     1      20.819 -42.041   9.017  1.00  0.00    -0.545 OA
ATOM     11  O   UNL     1      23.090 -41.794   9.125  1.00  0.00    -0.545 OA
ENDBRANCH   8   9
ENDBRANCH   1   7
BRANCH   4  12
ATOM     12  O   UNL     1      19.025 -47.916   4.894  1.00  0.00    -0.504 OA
ATOM     13  H   UNL     1      18.102 -47.824   5.292  1.00  0.00     0.293 HD
ENDBRANCH   4  12
BRANCH   6  14
ATOM     14  O   UNL     1      21.551 -49.372   4.668  1.00  0.00    -0.504 OA
ATOM     15  H   UNL     1      20.786 -49.825   4.189  1.00  0.00     0.293 HD
ENDBRANCH   6  14
TORSDOF 4
ENDMDL
MODEL 4
REMARK VINA RESULT:    -4.315      2.509      5.861
REMARK INTER + INTRA:          -5.206
REMARK INTER:                  -5.068
REMARK INTRA:                  -0.137
REMARK UNBOUND:                -0.134
REMARK SMILES O=C([O-])C=Cc1ccc(O)c(O)c1
REMARK SMILES IDX 6 1 13 2 7 3 11 4 8 5 9 6 5 7 4 8 2 9 1 10 3 11 12 12 10 14
REMARK H PARENT 12 13 10 15
REMARK Flexibility Score: inf
ROOT
ATOM      1  C   UNL     1      20.655 -44.296   8.374  1.00  0.00    -0.022 A 
ATOM      2  C   UNL     1      21.850 -44.741   7.787  1.00  0.00     0.058 A 
ATOM      3  C   UNL     1      20.587 -42.975   8.855  1.00  0.00     0.012 A 
ATOM      4  C   UNL     1      22.969 -43.905   7.698  1.00  0.00     0.157 A 
ATOM      5  C   UNL     1      21.700 -42.135   8.770  1.00  0.00     0.051 A 
ATOM      6  C   UNL     1      22.895 -42.585   8.199  1.00  0.00     0.157 A 
ENDROOT
BRANCH   1   7
ATOM      7  C   UNL     1      19.500 -45.226   8.430  1.00  0.00     0.010 C 
ATOM      8  C   UNL     1      18.240 -44.868   8.141  1.00  0.00     0.025 C 
BRANCH   8   9
ATOM      9  C   UNL     1      17.116 -45.816   8.219  1.00  0.00     0.064 C 
ATOM     10  O   UNL     1      15.935 -45.449   7.980  1.00  0.00    -0.545 OA
ATOM     11  O   UNL     1      17.362 -47.138   8.565  1.00  0.00    -0.545 OA
ENDBRANCH   8   9
ENDBRANCH   1   7
BRANCH   4  12
ATOM     12  O   UNL     1      24.125 -44.423   7.108  1.00  0.00    -0.504 OA
ATOM     13  H   UNL     1      24.563 -45.289   7.390  1.00  0.00     0.293 HD
ENDBRANCH   4  12
BRANCH   6  14
ATOM     14  O   UNL     1      23.970 -41.695   8.148  1.00  0.00    -0.504 OA
ATOM     15  H   UNL     1      24.938 -41.980   8.140  1.00  0.00     0.293 HD
ENDBRANCH   6  14
TORSDOF 4
ENDMDL
MODEL 5
REMARK VINA RESULT:    -4.270      1.114      2.175
REMARK INTER + INTRA:          -5.153
REMARK INTER:                  -5.029
REMARK INTRA:                  -0.124
REMARK UNBOUND:                -0.134
REMARK SMILES O=C([O-])C=Cc1ccc(O)c(O)c1
REMARK SMILES IDX 6 1 13 2 7 3 11 4 8 5 9 6 5 7 4 8 2 9 1 10 3 11 12 12 10 14
REMARK H PARENT 12 13 10 15
REMARK Flexibility Score: inf
ROOT
ATOM      1  C   UNL     1      19.723 -45.555   7.294  1.00  0.00    -0.022 A 
ATOM      2  C   UNL     1      18.869 -46.132   8.246  1.00  0.00     0.058 A 
ATOM      3  C   UNL     1      19.939 -46.233   6.079  1.00  0.00     0.012 A 
ATOM      4  C   UNL     1      18.257 -47.370   8.017  1.00  0.00     0.157 A 
ATOM      5  C   UNL     1      19.333 -47.468   5.843  1.00  0.00     0.051 A 
ATOM      6  C   UNL     1      18.495 -48.050   6.800  1.00  0.00     0.157 A 
ENDROOT
BRANCH   1   7
ATOM      7  C   UNL     1      20.333 -44.236   7.591  1.00  0.00     0.010 C 
ATOM      8  C   UNL     1      21.642 -44.054   7.821  1.00  0.00     0.025 C 
BRANCH   8   9
ATOM      9  C   UNL     1      22.210 -42.730   8.125  1.00  0.00     0.064 C 
ATOM     10  O   UNL     1      23.214 -42.292   7.503  1.00  0.00    -0.545 OA
ATOM     11  O   UNL     1      21.630 -41.950   9.118  1.00  0.00    -0.545 OA
ENDBRANCH   8   9
ENDBRANCH   1   7
BRANCH   4  12
ATOM     12  O   UNL     1      17.428 -47.883   9.017  1.00  0.00    -0.504 OA
ATOM     13  H   UNL     1      16.985 -48.790   8.973  1.00  0.00     0.293 HD
ENDBRANCH   4  12
BRANCH   6  14
ATOM     14  O   UNL     1      17.923 -49.288   6.501  1.00  0.00    -0.504 OA
ATOM     15  H   UNL     1      18.035 -50.114   7.071  1.00  0.00     0.293 HD
ENDBRANCH   6  14
TORSDOF 4
ENDMDL
MODEL 6
REMARK VINA RESULT:    -4.087      3.062      4.991
REMARK INTER + INTRA:          -4.938
REMARK INTER:                  -4.807
REMARK INTRA:                  -0.131
REMARK UNBOUND:                -0.134
REMARK SMILES O=C([O-])C=Cc1ccc(O)c(O)c1
REMARK SMILES IDX 6 1 13 2 7 3 11 4 8 5 9 6 5 7 4 8 2 9 1 10 3 11 12 12 10 14
REMARK H PARENT 12 13 10 15
REMARK Flexibility Score: inf
ROOT
ATOM      1  C   UNL     1      19.974 -46.600   6.424  1.00  0.00    -0.022 A 
ATOM      2  C   UNL     1      19.192 -47.366   7.303  1.00  0.00     0.058 A 
ATOM      3  C   UNL     1      19.671 -45.235   6.262  1.00  0.00     0.012 A 
ATOM      4  C   UNL     1      18.111 -46.802   7.991  1.00  0.00     0.157 A 
ATOM      5  C   UNL     1      18.595 -44.666   6.944  1.00  0.00     0.051 A 
ATOM      6  C   UNL     1      17.806 -45.434   7.807  1.00  0.00     0.157 A 
ENDROOT
BRANCH   1   7
ATOM      7  C   UNL     1      21.113 -47.253   5.732  1.00  0.00     0.010 C 
ATOM      8  C   UNL     1      21.126 -48.545   5.373  1.00  0.00     0.025 C 
BRANCH   8   9
ATOM      9  C   UNL     1      22.280 -49.161   4.697  1.00  0.00     0.064 C 
ATOM     10  O   UNL     1      22.409 -50.413   4.637  1.00  0.00    -0.545 OA
ATOM     11  O   UNL     1      23.246 -48.348   4.118  1.00  0.00    -0.545 OA
ENDBRANCH   8   9
ENDBRANCH   1   7
BRANCH   4  12
ATOM     12  O   UNL     1      17.375 -47.631   8.840  1.00  0.00    -0.504 OA
ATOM     13  H   UNL     1      16.724 -47.293   9.534  1.00  0.00     0.293 HD
ENDBRANCH   4  12
BRANCH   6  14
ATOM     14  O   UNL     1      16.743 -44.802   8.456  1.00  0.00    -0.504 OA
ATOM     15  H   UNL     1      16.378 -45.090   9.353  1.00  0.00     0.293 HD
ENDBRANCH   6  14
TORSDOF 4
ENDMDL
MODEL 7
REMARK VINA RESULT:    -4.020      2.083      2.539
REMARK INTER + INTRA:          -4.859
REMARK INTER:                  -4.722
REMARK INTRA:                  -0.137
REMARK UNBOUND:                -0.134
REMARK SMILES O=C([O-])C=Cc1ccc(O)c(O)c1
REMARK SMILES IDX 6 1 13 2 7 3 11 4 8 5 9 6 5 7 4 8 2 9 1 10 3 11 12 12 10 14
REMARK H PARENT 12 13 10 15
REMARK Flexibility Score: inf
ROOT
ATOM      1  C   UNL     1      20.153 -44.633   8.175  1.00  0.00    -0.022 A 
ATOM      2  C   UNL     1      18.801 -44.385   7.892  1.00  0.00     0.058 A 
ATOM      3  C   UNL     1      20.535 -45.927   8.578  1.00  0.00     0.012 A 
ATOM      4  C   UNL     1      17.835 -45.389   8.030  1.00  0.00     0.157 A 
ATOM      5  C   UNL     1      19.578 -46.933   8.718  1.00  0.00     0.051 A 
ATOM      6  C   UNL     1      18.228 -46.681   8.452  1.00  0.00     0.157 A 
ENDROOT
BRANCH   1   7
ATOM      7  C   UNL     1      21.130 -43.530   8.001  1.00  0.00     0.010 C 
ATOM      8  C   UNL     1      22.394 -43.576   8.447  1.00  0.00     0.025 C 
BRANCH   8   9
ATOM      9  C   UNL     1      23.333 -42.456   8.265  1.00  0.00     0.064 C 
ATOM     10  O   UNL     1      23.430 -41.540   9.125  1.00  0.00    -0.545 OA
ATOM     11  O   UNL     1      24.124 -42.407   7.125  1.00  0.00    -0.545 OA
ENDBRANCH   8   9
ENDBRANCH   1   7
BRANCH   4  12
ATOM     12  O   UNL     1      16.508 -45.063   7.739  1.00  0.00    -0.504 OA
ATOM     13  H   UNL     1      15.808 -44.869   8.440  1.00  0.00     0.293 HD
ENDBRANCH   4  12
BRANCH   6  14
ATOM     14  O   UNL     1      17.322 -47.731   8.614  1.00  0.00    -0.504 OA
ATOM     15  H   UNL     1      16.621 -47.765   9.339  1.00  0.00     0.293 HD
ENDBRANCH   6  14
TORSDOF 4
ENDMDL
MODEL 8
REMARK VINA RESULT:    -3.972      1.508      5.997
REMARK INTER + INTRA:          -4.803
REMARK INTER:                  -4.672
REMARK INTRA:                  -0.131
REMARK UNBOUND:                -0.134
REMARK SMILES O=C([O-])C=Cc1ccc(O)c(O)c1
REMARK SMILES IDX 6 1 13 2 7 3 11 4 8 5 9 6 5 7 4 8 2 9 1 10 3 11 12 12 10 14
REMARK H PARENT 12 13 10 15
REMARK Flexibility Score: inf
ROOT
ATOM      1  C   UNL     1      20.286 -44.766   8.374  1.00  0.00    -0.022 A 
ATOM      2  C   UNL     1      21.629 -45.132   8.557  1.00  0.00     0.058 A 
ATOM      3  C   UNL     1      19.954 -43.399   8.343  1.00  0.00     0.012 A 
ATOM      4  C   UNL     1      22.626 -44.166   8.733  1.00  0.00     0.157 A 
ATOM      5  C   UNL     1      20.944 -42.429   8.519  1.00  0.00     0.051 A 
ATOM      6  C   UNL     1      22.279 -42.795   8.717  1.00  0.00     0.157 A 
ENDROOT
BRANCH   1   7
ATOM      7  C   UNL     1      19.277 -45.837   8.183  1.00  0.00     0.010 C 
ATOM      8  C   UNL     1      19.545 -47.023   7.618  1.00  0.00     0.025 C 
BRANCH   8   9
ATOM      9  C   UNL     1      18.514 -48.058   7.433  1.00  0.00     0.064 C 
ATOM     10  O   UNL     1      18.154 -48.423   6.283  1.00  0.00    -0.545 OA
ATOM     11  O   UNL     1      17.924 -48.640   8.548  1.00  0.00    -0.545 OA
ENDBRANCH   8   9
ENDBRANCH   1   7
BRANCH   4  12
ATOM     12  O   UNL     1      23.938 -44.609   8.919  1.00  0.00    -0.504 OA
ATOM     13  H   UNL     1      24.229 -45.208   9.678  1.00  0.00     0.293 HD
ENDBRANCH   4  12
BRANCH   6  14
ATOM     14  O   UNL     1      23.218 -41.775   8.888  1.00  0.00    -0.504 OA
ATOM     15  H   UNL     1      23.051 -40.939   9.429  1.00  0.00     0.293 HD
ENDBRANCH   6  14
TORSDOF 4
ENDMDL
MODEL 9
REMARK VINA RESULT:    -3.959      2.634      5.715
REMARK INTER + INTRA:          -4.788
REMARK INTER:                  -4.659
REMARK INTRA:                  -0.129
REMARK UNBOUND:                -0.134
REMARK SMILES O=C([O-])C=Cc1ccc(O)c(O)c1
REMARK SMILES IDX 6 1 13 2 7 3 11 4 8 5 9 6 5 7 4 8 2 9 1 10 3 11 12 12 10 14
REMARK H PARENT 12 13 10 15
REMARK Flexibility Score: inf
ROOT
ATOM      1  C   UNL     1      21.009 -46.315   6.662  1.00  0.00    -0.022 A 
ATOM      2  C   UNL     1      19.830 -45.599   6.403  1.00  0.00     0.058 A 
ATOM      3  C   UNL     1      22.024 -45.700   7.419  1.00  0.00     0.012 A 
ATOM      4  C   UNL     1      19.665 -44.285   6.859  1.00  0.00     0.157 A 
ATOM      5  C   UNL     1      21.866 -44.390   7.877  1.00  0.00     0.051 A 
ATOM      6  C   UNL     1      20.698 -43.671   7.604  1.00  0.00     0.157 A 
ENDROOT
BRANCH   1   7
ATOM      7  C   UNL     1      21.120 -47.707   6.161  1.00  0.00     0.010 C 
ATOM      8  C   UNL     1      22.139 -48.150   5.409  1.00  0.00     0.025 C 
BRANCH   8   9
ATOM      9  C   UNL     1      22.210 -49.537   4.919  1.00  0.00     0.064 C 
ATOM     10  O   UNL     1      21.833 -50.502   5.635  1.00  0.00    -0.545 OA
ATOM     11  O   UNL     1      22.704 -49.785   3.645  1.00  0.00    -0.545 OA
ENDBRANCH   8   9
ENDBRANCH   1   7
BRANCH   4  12
ATOM     12  O   UNL     1      18.467 -43.635   6.553  1.00  0.00    -0.504 OA
ATOM     13  H   UNL     1      17.868 -43.889   5.780  1.00  0.00     0.293 HD
ENDBRANCH   4  12
BRANCH   6  14
ATOM     14  O   UNL     1      20.606 -42.365   8.090  1.00  0.00    -0.504 OA
ATOM     15  H   UNL     1      19.919 -41.694   7.778  1.00  0.00     0.293 HD
ENDBRANCH   6  14
TORSDOF 4
ENDMDL
