MODEL 1
REMARK VINA RESULT:    -5.109      0.000      0.000
REMARK INTER + INTRA:         -13.365
REMARK INTER:                 -11.680
REMARK INTRA:                  -1.685
REMARK UNBOUND:                -1.685
REMARK SMILES CCCCCCCCCCCCCCCCCCCCCCCC(=O)[O-]
REMARK SMILES IDX 13 1 14 2 15 3 16 4 17 5 18 6 19 7 20 8 21 9 22 10 23 11
REMARK SMILES IDX 24 12 25 13 26 14 12 15 11 16 10 17 9 18 8 19 7 20 6 21 5 22
REMARK SMILES IDX 4 23 3 24 2 25 1 26
REMARK H PARENT
REMARK Flexibility Score: inf
ROOT
ATOM      1  C   UNL     1      56.516 143.932 -26.247  1.00  0.00     0.000 C 
ENDROOT
BRANCH   1   2
ATOM      2  C   UNL     1      55.638 143.575 -25.036  1.00  0.00     0.000 C 
BRANCH   2   3
ATOM      3  C   UNL     1      55.095 142.131 -25.020  1.00  0.00     0.000 C 
BRANCH   3   4
ATOM      4  C   UNL     1      56.189 141.044 -25.048  1.00  0.00     0.000 C 
BRANCH   4   5
ATOM      5  C   UNL     1      56.377 140.352 -23.684  1.00  0.00     0.000 C 
BRANCH   5   6
ATOM      6  C   UNL     1      57.736 140.701 -23.038  1.00  0.00     0.000 C 
BRANCH   6   7
ATOM      7  C   UNL     1      57.674 141.934 -22.121  1.00  0.00     0.000 C 
BRANCH   7   8
ATOM      8  C   UNL     1      58.329 143.174 -22.749  1.00  0.00     0.000 C 
BRANCH   8   9
ATOM      9  C   UNL     1      59.835 143.274 -22.448  1.00  0.00     0.000 C 
BRANCH   9  10
ATOM     10  C   UNL     1      60.319 144.668 -22.000  1.00  0.00     0.006 C 
BRANCH  10  11
ATOM     11  C   UNL     1      60.688 144.772 -20.512  1.00  0.00     0.053 C 
BRANCH  11  12
ATOM     12  C   UNL     1      59.474 144.870 -19.638  1.00  0.00     0.041 C 
ATOM     13  O   UNL     1      59.041 145.998 -19.283  1.00  0.00    -0.550 OA
ATOM     14  O   UNL     1      58.805 143.719 -19.243  1.00  0.00    -0.550 OA
ENDBRANCH  11  12
ENDBRANCH  10  11
ENDBRANCH   9  10
ENDBRANCH   8   9
ENDBRANCH   7   8
ENDBRANCH   6   7
ENDBRANCH   5   6
ENDBRANCH   4   5
ENDBRANCH   3   4
ENDBRANCH   2   3
ENDBRANCH   1   2
BRANCH   1  15
ATOM     15  C   UNL     1      55.747 144.452 -27.477  1.00  0.00     0.000 C 
BRANCH  15  16
ATOM     16  C   UNL     1      55.549 143.392 -28.585  1.00  0.00     0.000 C 
BRANCH  16  17
ATOM     17  C   UNL     1      56.177 143.772 -29.939  1.00  0.00     0.000 C 
BRANCH  17  18
ATOM     18  C   UNL     1      57.715 143.818 -29.885  1.00  0.00    -0.000 C 
BRANCH  18  19
ATOM     19  C   UNL     1      58.339 144.149 -31.251  1.00  0.00    -0.000 C 
BRANCH  19  20
ATOM     20  C   UNL     1      59.649 143.381 -31.501  1.00  0.00    -0.000 C 
BRANCH  20  21
ATOM     21  C   UNL     1      59.999 143.285 -32.994  1.00  0.00    -0.000 C 
BRANCH  21  22
ATOM     22  C   UNL     1      59.995 144.657 -33.692  1.00  0.00    -0.000 C 
BRANCH  22  23
ATOM     23  C   UNL     1      61.401 145.290 -33.748  1.00  0.00    -0.000 C 
BRANCH  23  24
ATOM     24  C   UNL     1      61.429 146.714 -34.336  1.00  0.00    -0.000 C 
BRANCH  24  25
ATOM     25  C   UNL     1      60.087 147.466 -34.244  1.00  0.00    -0.003 C 
ATOM     26  C   UNL     1      59.854 148.090 -32.868  1.00  0.00     0.004 C 
ENDBRANCH  24  25
ENDBRANCH  23  24
ENDBRANCH  22  23
ENDBRANCH  21  22
ENDBRANCH  20  21
ENDBRANCH  19  20
ENDBRANCH  18  19
ENDBRANCH  17  18
ENDBRANCH  16  17
ENDBRANCH  15  16
ENDBRANCH   1  15
TORSDOF 22
ENDMDL
MODEL 2
REMARK VINA RESULT:    -4.997      5.722     12.256
REMARK INTER + INTRA:         -13.109
REMARK INTER:                 -11.963
REMARK INTRA:                  -1.146
REMARK UNBOUND:                -1.685
REMARK SMILES CCCCCCCCCCCCCCCCCCCCCCCC(=O)[O-]
REMARK SMILES IDX 13 1 14 2 15 3 16 4 17 5 18 6 19 7 20 8 21 9 22 10 23 11
REMARK SMILES IDX 24 12 25 13 26 14 12 15 11 16 10 17 9 18 8 19 7 20 6 21 5 22
REMARK SMILES IDX 4 23 3 24 2 25 1 26
REMARK H PARENT
REMARK Flexibility Score: inf
ROOT
ATOM      1  C   UNL     1      55.973 143.638 -25.075  1.00  0.00     0.000 C 
ENDROOT
BRANCH   1   2
ATOM      2  C   UNL     1      55.915 143.022 -26.483  1.00  0.00     0.000 C 
BRANCH   2   3
ATOM      3  C   UNL     1      56.348 143.958 -27.629  1.00  0.00     0.000 C 
BRANCH   3   4
ATOM      4  C   UNL     1      55.522 143.797 -28.923  1.00  0.00     0.000 C 
BRANCH   4   5
ATOM      5  C   UNL     1      56.401 143.741 -30.187  1.00  0.00     0.000 C 
BRANCH   5   6
ATOM      6  C   UNL     1      57.886 144.030 -29.875  1.00  0.00     0.000 C 
BRANCH   6   7
ATOM      7  C   UNL     1      58.841 143.578 -30.994  1.00  0.00     0.000 C 
BRANCH   7   8
ATOM      8  C   UNL     1      58.874 144.559 -32.176  1.00  0.00     0.000 C 
BRANCH   8   9
ATOM      9  C   UNL     1      60.071 144.324 -33.116  1.00  0.00     0.000 C 
BRANCH   9  10
ATOM     10  C   UNL     1      60.020 145.108 -34.443  1.00  0.00     0.006 C 
BRANCH  10  11
ATOM     11  C   UNL     1      59.296 146.461 -34.363  1.00  0.00     0.053 C 
BRANCH  11  12
ATOM     12  C   UNL     1      60.195 147.551 -33.863  1.00  0.00     0.041 C 
ATOM     13  O   UNL     1      60.415 147.672 -32.630  1.00  0.00    -0.550 OA
ATOM     14  O   UNL     1      60.813 148.411 -34.761  1.00  0.00    -0.550 OA
ENDBRANCH  11  12
ENDBRANCH  10  11
ENDBRANCH   9  10
ENDBRANCH   8   9
ENDBRANCH   7   8
ENDBRANCH   6   7
ENDBRANCH   5   6
ENDBRANCH   4   5
ENDBRANCH   3   4
ENDBRANCH   2   3
ENDBRANCH   1   2
BRANCH   1  15
ATOM     15  C   UNL     1      54.953 143.065 -24.071  1.00  0.00     0.000 C 
BRANCH  15  16
ATOM     16  C   UNL     1      55.045 141.532 -23.892  1.00  0.00     0.000 C 
BRANCH  16  17
ATOM     17  C   UNL     1      53.834 140.760 -24.447  1.00  0.00     0.000 C 
BRANCH  17  18
ATOM     18  C   UNL     1      53.020 140.065 -23.340  1.00  0.00    -0.000 C 
BRANCH  18  19
ATOM     19  C   UNL     1      51.659 140.740 -23.102  1.00  0.00    -0.000 C 
BRANCH  19  20
ATOM     20  C   UNL     1      50.484 139.896 -23.626  1.00  0.00    -0.000 C 
BRANCH  20  21
ATOM     21  C   UNL     1      49.343 139.778 -22.603  1.00  0.00    -0.000 C 
BRANCH  21  22
ATOM     22  C   UNL     1      49.463 140.804 -21.462  1.00  0.00    -0.000 C 
BRANCH  22  23
ATOM     23  C   UNL     1      48.542 140.466 -20.272  1.00  0.00    -0.000 C 
BRANCH  23  24
ATOM     24  C   UNL     1      49.227 140.568 -18.895  1.00  0.00    -0.000 C 
BRANCH  24  25
ATOM     25  C   UNL     1      50.729 140.909 -18.957  1.00  0.00    -0.003 C 
ATOM     26  C   UNL     1      51.178 141.808 -17.805  1.00  0.00     0.004 C 
ENDBRANCH  24  25
ENDBRANCH  23  24
ENDBRANCH  22  23
ENDBRANCH  21  22
ENDBRANCH  20  21
ENDBRANCH  19  20
ENDBRANCH  18  19
ENDBRANCH  17  18
ENDBRANCH  16  17
ENDBRANCH  15  16
ENDBRANCH   1  15
TORSDOF 22
ENDMDL
MODEL 3
REMARK VINA RESULT:    -4.977      1.633      2.690
REMARK INTER + INTRA:         -13.064
REMARK INTER:                 -11.876
REMARK INTRA:                  -1.188
REMARK UNBOUND:                -1.685
REMARK SMILES CCCCCCCCCCCCCCCCCCCCCCCC(=O)[O-]
REMARK SMILES IDX 13 1 14 2 15 3 16 4 17 5 18 6 19 7 20 8 21 9 22 10 23 11
REMARK SMILES IDX 24 12 25 13 26 14 12 15 11 16 10 17 9 18 8 19 7 20 6 21 5 22
REMARK SMILES IDX 4 23 3 24 2 25 1 26
REMARK H PARENT
REMARK Flexibility Score: inf
ROOT
ATOM      1  C   UNL     1      55.916 143.699 -25.178  1.00  0.00     0.000 C 
ENDROOT
BRANCH   1   2
ATOM      2  C   UNL     1      56.108 143.323 -23.699  1.00  0.00     0.000 C 
BRANCH   2   3
ATOM      3  C   UNL     1      56.407 141.834 -23.432  1.00  0.00     0.000 C 
BRANCH   3   4
ATOM      4  C   UNL     1      57.530 141.589 -22.402  1.00  0.00     0.000 C 
BRANCH   4   5
ATOM      5  C   UNL     1      58.385 142.844 -22.143  1.00  0.00     0.000 C 
BRANCH   5   6
ATOM      6  C   UNL     1      58.676 143.047 -20.640  1.00  0.00     0.000 C 
BRANCH   6   7
ATOM      7  C   UNL     1      60.141 143.416 -20.349  1.00  0.00     0.000 C 
BRANCH   7   8
ATOM      8  C   UNL     1      60.465 144.877 -20.698  1.00  0.00     0.000 C 
BRANCH   8   9
ATOM      9  C   UNL     1      61.604 145.459 -19.841  1.00  0.00     0.000 C 
BRANCH   9  10
ATOM     10  C   UNL     1      61.200 145.868 -18.411  1.00  0.00     0.006 C 
BRANCH  10  11
ATOM     11  C   UNL     1      59.786 146.458 -18.287  1.00  0.00     0.053 C 
BRANCH  11  12
ATOM     12  C   UNL     1      59.815 147.929 -18.002  1.00  0.00     0.041 C 
ATOM     13  O   UNL     1      60.350 148.722 -18.821  1.00  0.00    -0.550 OA
ATOM     14  O   UNL     1      59.225 148.428 -16.847  1.00  0.00    -0.550 OA
ENDBRANCH  11  12
ENDBRANCH  10  11
ENDBRANCH   9  10
ENDBRANCH   8   9
ENDBRANCH   7   8
ENDBRANCH   6   7
ENDBRANCH   5   6
ENDBRANCH   4   5
ENDBRANCH   3   4
ENDBRANCH   2   3
ENDBRANCH   1   2
BRANCH   1  15
ATOM     15  C   UNL     1      55.732 142.505 -26.135  1.00  0.00     0.000 C 
BRANCH  15  16
ATOM     16  C   UNL     1      55.241 142.904 -27.546  1.00  0.00     0.000 C 
BRANCH  16  17
ATOM     17  C   UNL     1      55.711 144.297 -28.005  1.00  0.00     0.000 C 
BRANCH  17  18
ATOM     18  C   UNL     1      57.140 144.279 -28.577  1.00  0.00    -0.000 C 
BRANCH  18  19
ATOM     19  C   UNL     1      57.187 143.735 -30.015  1.00  0.00    -0.000 C 
BRANCH  19  20
ATOM     20  C   UNL     1      58.593 143.829 -30.634  1.00  0.00    -0.000 C 
BRANCH  20  21
ATOM     21  C   UNL     1      58.571 144.411 -32.056  1.00  0.00    -0.000 C 
BRANCH  21  22
ATOM     22  C   UNL     1      59.863 144.112 -32.838  1.00  0.00    -0.000 C 
BRANCH  22  23
ATOM     23  C   UNL     1      60.233 145.247 -33.814  1.00  0.00    -0.000 C 
BRANCH  23  24
ATOM     24  C   UNL     1      59.243 146.429 -33.813  1.00  0.00    -0.000 C 
BRANCH  24  25
ATOM     25  C   UNL     1      59.896 147.803 -33.566  1.00  0.00    -0.003 C 
ATOM     26  C   UNL     1      60.700 148.299 -34.767  1.00  0.00     0.004 C 
ENDBRANCH  24  25
ENDBRANCH  23  24
ENDBRANCH  22  23
ENDBRANCH  21  22
ENDBRANCH  20  21
ENDBRANCH  19  20
ENDBRANCH  18  19
ENDBRANCH  17  18
ENDBRANCH  16  17
ENDBRANCH  15  16
ENDBRANCH   1  15
TORSDOF 22
ENDMDL
MODEL 4
REMARK VINA RESULT:    -4.954      4.808     10.855
REMARK INTER + INTRA:         -13.010
REMARK INTER:                 -10.583
REMARK INTRA:                  -2.426
REMARK UNBOUND:                -1.685
REMARK SMILES CCCCCCCCCCCCCCCCCCCCCCCC(=O)[O-]
REMARK SMILES IDX 13 1 14 2 15 3 16 4 17 5 18 6 19 7 20 8 21 9 22 10 23 11
REMARK SMILES IDX 24 12 25 13 26 14 12 15 11 16 10 17 9 18 8 19 7 20 6 21 5 22
REMARK SMILES IDX 4 23 3 24 2 25 1 26
REMARK H PARENT
REMARK Flexibility Score: inf
ROOT
ATOM      1  C   UNL     1      55.203 144.076 -24.209  1.00  0.00     0.000 C 
ENDROOT
BRANCH   1   2
ATOM      2  C   UNL     1      54.782 144.398 -25.653  1.00  0.00     0.000 C 
BRANCH   2   3
ATOM      3  C   UNL     1      55.842 144.095 -26.731  1.00  0.00     0.000 C 
BRANCH   3   4
ATOM      4  C   UNL     1      55.337 143.197 -27.880  1.00  0.00     0.000 C 
BRANCH   4   5
ATOM      5  C   UNL     1      55.677 143.762 -29.272  1.00  0.00     0.000 C 
BRANCH   5   6
ATOM      6  C   UNL     1      57.196 143.964 -29.461  1.00  0.00     0.000 C 
BRANCH   6   7
ATOM      7  C   UNL     1      57.664 143.739 -30.909  1.00  0.00     0.000 C 
BRANCH   7   8
ATOM      8  C   UNL     1      59.124 144.162 -31.133  1.00  0.00     0.000 C 
BRANCH   8   9
ATOM      9  C   UNL     1      59.718 143.597 -32.436  1.00  0.00     0.000 C 
BRANCH   9  10
ATOM     10  C   UNL     1      60.162 144.659 -33.463  1.00  0.00     0.006 C 
BRANCH  10  11
ATOM     11  C   UNL     1      59.182 145.830 -33.640  1.00  0.00     0.053 C 
BRANCH  11  12
ATOM     12  C   UNL     1      59.857 147.157 -33.470  1.00  0.00     0.041 C 
ATOM     13  O   UNL     1      60.379 147.464 -32.366  1.00  0.00    -0.550 OA
ATOM     14  O   UNL     1      59.936 148.041 -34.539  1.00  0.00    -0.550 OA
ENDBRANCH  11  12
ENDBRANCH  10  11
ENDBRANCH   9  10
ENDBRANCH   8   9
ENDBRANCH   7   8
ENDBRANCH   6   7
ENDBRANCH   5   6
ENDBRANCH   4   5
ENDBRANCH   3   4
ENDBRANCH   2   3
ENDBRANCH   1   2
BRANCH   1  15
ATOM     15  C   UNL     1      56.466 143.202 -24.079  1.00  0.00     0.000 C 
BRANCH  15  16
ATOM     16  C   UNL     1      56.294 141.989 -23.137  1.00  0.00     0.000 C 
BRANCH  16  17
ATOM     17  C   UNL     1      56.402 140.624 -23.841  1.00  0.00     0.000 C 
BRANCH  17  18
ATOM     18  C   UNL     1      55.850 140.655 -25.278  1.00  0.00    -0.000 C 
BRANCH  18  19
ATOM     19  C   UNL     1      54.334 140.398 -25.328  1.00  0.00    -0.000 C 
BRANCH  19  20
ATOM     20  C   UNL     1      53.879 139.363 -24.284  1.00  0.00    -0.000 C 
BRANCH  20  21
ATOM     21  C   UNL     1      52.877 139.947 -23.276  1.00  0.00    -0.000 C 
BRANCH  21  22
ATOM     22  C   UNL     1      52.590 141.439 -23.523  1.00  0.00    -0.000 C 
BRANCH  22  23
ATOM     23  C   UNL     1      51.489 141.986 -22.592  1.00  0.00    -0.000 C 
BRANCH  23  24
ATOM     24  C   UNL     1      50.068 141.507 -22.945  1.00  0.00    -0.000 C 
BRANCH  24  25
ATOM     25  C   UNL     1      49.414 140.615 -21.871  1.00  0.00    -0.003 C 
ATOM     26  C   UNL     1      50.139 140.681 -20.527  1.00  0.00     0.004 C 
ENDBRANCH  24  25
ENDBRANCH  23  24
ENDBRANCH  22  23
ENDBRANCH  21  22
ENDBRANCH  20  21
ENDBRANCH  19  20
ENDBRANCH  18  19
ENDBRANCH  17  18
ENDBRANCH  16  17
ENDBRANCH  15  16
ENDBRANCH   1  15
TORSDOF 22
ENDMDL
MODEL 5
REMARK VINA RESULT:    -4.931      1.795      2.442
REMARK INTER + INTRA:         -12.958
REMARK INTER:                 -11.422
REMARK INTRA:                  -1.536
REMARK UNBOUND:                -1.685
REMARK SMILES CCCCCCCCCCCCCCCCCCCCCCCC(=O)[O-]
REMARK SMILES IDX 13 1 14 2 15 3 16 4 17 5 18 6 19 7 20 8 21 9 22 10 23 11
REMARK SMILES IDX 24 12 25 13 26 14 12 15 11 16 10 17 9 18 8 19 7 20 6 21 5 22
REMARK SMILES IDX 4 23 3 24 2 25 1 26
REMARK H PARENT
REMARK Flexibility Score: inf
ROOT
ATOM      1  C   UNL     1      55.505 143.784 -25.314  1.00  0.00     0.000 C 
ENDROOT
BRANCH   1   2
ATOM      2  C   UNL     1      55.278 143.251 -23.889  1.00  0.00     0.000 C 
BRANCH   2   3
ATOM      3  C   UNL     1      55.027 141.733 -23.787  1.00  0.00     0.000 C 
BRANCH   3   4
ATOM      4  C   UNL     1      56.109 140.964 -23.000  1.00  0.00     0.000 C 
BRANCH   4   5
ATOM      5  C   UNL     1      57.531 141.486 -23.279  1.00  0.00     0.000 C 
BRANCH   5   6
ATOM      6  C   UNL     1      58.255 141.918 -21.985  1.00  0.00     0.000 C 
BRANCH   6   7
ATOM      7  C   UNL     1      58.969 143.275 -22.111  1.00  0.00     0.000 C 
BRANCH   7   8
ATOM      8  C   UNL     1      58.925 144.091 -20.811  1.00  0.00     0.000 C 
BRANCH   8   9
ATOM      9  C   UNL     1      59.895 143.563 -19.738  1.00  0.00     0.000 C 
BRANCH   9  10
ATOM     10  C   UNL     1      59.283 143.395 -18.332  1.00  0.00     0.006 C 
BRANCH  10  11
ATOM     11  C   UNL     1      58.932 141.948 -17.953  1.00  0.00     0.053 C 
BRANCH  11  12
ATOM     12  C   UNL     1      57.747 141.879 -17.038  1.00  0.00     0.041 C 
ATOM     13  O   UNL     1      57.501 140.821 -16.401  1.00  0.00    -0.550 OA
ATOM     14  O   UNL     1      56.934 142.992 -16.864  1.00  0.00    -0.550 OA
ENDBRANCH  11  12
ENDBRANCH  10  11
ENDBRANCH   9  10
ENDBRANCH   8   9
ENDBRANCH   7   8
ENDBRANCH   6   7
ENDBRANCH   5   6
ENDBRANCH   4   5
ENDBRANCH   3   4
ENDBRANCH   2   3
ENDBRANCH   1   2
BRANCH   1  15
ATOM     15  C   UNL     1      55.576 142.703 -26.410  1.00  0.00     0.000 C 
BRANCH  15  16
ATOM     16  C   UNL     1      55.119 143.194 -27.803  1.00  0.00     0.000 C 
BRANCH  16  17
ATOM     17  C   UNL     1      55.833 144.469 -28.287  1.00  0.00     0.000 C 
BRANCH  17  18
ATOM     18  C   UNL     1      57.273 144.197 -28.757  1.00  0.00    -0.000 C 
BRANCH  18  19
ATOM     19  C   UNL     1      57.336 143.775 -30.235  1.00  0.00    -0.000 C 
BRANCH  19  20
ATOM     20  C   UNL     1      58.761 143.860 -30.811  1.00  0.00    -0.000 C 
BRANCH  20  21
ATOM     21  C   UNL     1      58.797 144.528 -32.194  1.00  0.00    -0.000 C 
BRANCH  21  22
ATOM     22  C   UNL     1      59.999 144.072 -33.040  1.00  0.00    -0.000 C 
BRANCH  22  23
ATOM     23  C   UNL     1      60.360 145.090 -34.141  1.00  0.00    -0.000 C 
BRANCH  23  24
ATOM     24  C   UNL     1      59.266 146.141 -34.413  1.00  0.00    -0.000 C 
BRANCH  24  25
ATOM     25  C   UNL     1      59.732 147.601 -34.240  1.00  0.00    -0.003 C 
ATOM     26  C   UNL     1      59.985 147.970 -32.779  1.00  0.00     0.004 C 
ENDBRANCH  24  25
ENDBRANCH  23  24
ENDBRANCH  22  23
ENDBRANCH  21  22
ENDBRANCH  20  21
ENDBRANCH  19  20
ENDBRANCH  18  19
ENDBRANCH  17  18
ENDBRANCH  16  17
ENDBRANCH  15  16
ENDBRANCH   1  15
TORSDOF 22
ENDMDL
MODEL 6
REMARK VINA RESULT:    -4.816     13.344     17.741
REMARK INTER + INTRA:         -12.695
REMARK INTER:                 -11.226
REMARK INTRA:                  -1.468
REMARK UNBOUND:                -1.685
REMARK SMILES CCCCCCCCCCCCCCCCCCCCCCCC(=O)[O-]
REMARK SMILES IDX 13 1 14 2 15 3 16 4 17 5 18 6 19 7 20 8 21 9 22 10 23 11
REMARK SMILES IDX 24 12 25 13 26 14 12 15 11 16 10 17 9 18 8 19 7 20 6 21 5 22
REMARK SMILES IDX 4 23 3 24 2 25 1 26
REMARK H PARENT
REMARK Flexibility Score: inf
ROOT
ATOM      1  C   UNL     1      52.484 154.110 -25.758  1.00  0.00     0.000 C 
ENDROOT
BRANCH   1   2
ATOM      2  C   UNL     1      52.742 155.512 -25.182  1.00  0.00     0.000 C 
BRANCH   2   3
ATOM      3  C   UNL     1      52.520 156.679 -26.165  1.00  0.00     0.000 C 
BRANCH   3   4
ATOM      4  C   UNL     1      51.189 157.432 -25.963  1.00  0.00     0.000 C 
BRANCH   4   5
ATOM      5  C   UNL     1      50.227 157.272 -27.155  1.00  0.00     0.000 C 
BRANCH   5   6
ATOM      6  C   UNL     1      49.930 155.788 -27.466  1.00  0.00     0.000 C 
BRANCH   6   7
ATOM      7  C   UNL     1      48.428 155.482 -27.594  1.00  0.00     0.000 C 
BRANCH   7   8
ATOM      8  C   UNL     1      48.100 154.627 -28.827  1.00  0.00     0.000 C 
BRANCH   8   9
ATOM      9  C   UNL     1      49.336 153.921 -29.413  1.00  0.00     0.000 C 
BRANCH   9  10
ATOM     10  C   UNL     1      49.037 152.912 -30.541  1.00  0.00     0.006 C 
BRANCH  10  11
ATOM     11  C   UNL     1      49.175 153.479 -31.963  1.00  0.00     0.053 C 
BRANCH  11  12
ATOM     12  C   UNL     1      47.847 153.848 -32.551  1.00  0.00     0.041 C 
ATOM     13  O   UNL     1      46.908 154.227 -31.804  1.00  0.00    -0.550 OA
ATOM     14  O   UNL     1      47.658 153.803 -33.927  1.00  0.00    -0.550 OA
ENDBRANCH  11  12
ENDBRANCH  10  11
ENDBRANCH   9  10
ENDBRANCH   8   9
ENDBRANCH   7   8
ENDBRANCH   6   7
ENDBRANCH   5   6
ENDBRANCH   4   5
ENDBRANCH   3   4
ENDBRANCH   2   3
ENDBRANCH   1   2
BRANCH   1  15
ATOM     15  C   UNL     1      51.611 153.194 -24.877  1.00  0.00     0.000 C 
BRANCH  15  16
ATOM     16  C   UNL     1      50.813 153.949 -23.789  1.00  0.00     0.000 C 
BRANCH  16  17
ATOM     17  C   UNL     1      50.922 153.328 -22.384  1.00  0.00     0.000 C 
BRANCH  17  18
ATOM     18  C   UNL     1      49.611 152.659 -21.932  1.00  0.00    -0.000 C 
BRANCH  18  19
ATOM     19  C   UNL     1      49.150 153.152 -20.550  1.00  0.00    -0.000 C 
BRANCH  19  20
ATOM     20  C   UNL     1      50.327 153.558 -19.646  1.00  0.00    -0.000 C 
BRANCH  20  21
ATOM     21  C   UNL     1      49.870 154.316 -18.390  1.00  0.00    -0.000 C 
BRANCH  21  22
ATOM     22  C   UNL     1      49.171 153.400 -17.369  1.00  0.00    -0.000 C 
BRANCH  22  23
ATOM     23  C   UNL     1      49.146 154.013 -15.953  1.00  0.00    -0.000 C 
BRANCH  23  24
ATOM     24  C   UNL     1      49.816 153.139 -14.875  1.00  0.00    -0.000 C 
BRANCH  24  25
ATOM     25  C   UNL     1      50.166 151.712 -15.342  1.00  0.00    -0.003 C 
ATOM     26  C   UNL     1      51.670 151.440 -15.327  1.00  0.00     0.004 C 
ENDBRANCH  24  25
ENDBRANCH  23  24
ENDBRANCH  22  23
ENDBRANCH  21  22
ENDBRANCH  20  21
ENDBRANCH  19  20
ENDBRANCH  18  19
ENDBRANCH  17  18
ENDBRANCH  16  17
ENDBRANCH  15  16
ENDBRANCH   1  15
TORSDOF 22
ENDMDL
MODEL 7
REMARK VINA RESULT:    -4.774      1.598      2.045
REMARK INTER + INTRA:         -12.599
REMARK INTER:                 -11.472
REMARK INTRA:                  -1.127
REMARK UNBOUND:                -1.685
REMARK SMILES CCCCCCCCCCCCCCCCCCCCCCCC(=O)[O-]
REMARK SMILES IDX 13 1 14 2 15 3 16 4 17 5 18 6 19 7 20 8 21 9 22 10 23 11
REMARK SMILES IDX 24 12 25 13 26 14 12 15 11 16 10 17 9 18 8 19 7 20 6 21 5 22
REMARK SMILES IDX 4 23 3 24 2 25 1 26
REMARK H PARENT
REMARK Flexibility Score: inf
ROOT
ATOM      1  C   UNL     1      55.629 144.519 -27.033  1.00  0.00     0.000 C 
ENDROOT
BRANCH   1   2
ATOM      2  C   UNL     1      56.098 143.380 -26.112  1.00  0.00     0.000 C 
BRANCH   2   3
ATOM      3  C   UNL     1      55.435 143.344 -24.720  1.00  0.00     0.000 C 
BRANCH   3   4
ATOM      4  C   UNL     1      56.428 143.166 -23.552  1.00  0.00     0.000 C 
BRANCH   4   5
ATOM      5  C   UNL     1      56.452 141.725 -23.006  1.00  0.00     0.000 C 
BRANCH   5   6
ATOM      6  C   UNL     1      57.790 141.391 -22.310  1.00  0.00     0.000 C 
BRANCH   6   7
ATOM      7  C   UNL     1      58.625 142.638 -21.969  1.00  0.00     0.000 C 
BRANCH   7   8
ATOM      8  C   UNL     1      58.837 142.814 -20.457  1.00  0.00     0.000 C 
BRANCH   8   9
ATOM      9  C   UNL     1      59.489 144.161 -20.097  1.00  0.00     0.000 C 
BRANCH   9  10
ATOM     10  C   UNL     1      59.037 144.765 -18.752  1.00  0.00     0.006 C 
BRANCH  10  11
ATOM     11  C   UNL     1      60.181 145.107 -17.784  1.00  0.00     0.053 C 
BRANCH  11  12
ATOM     12  C   UNL     1      60.261 144.139 -16.643  1.00  0.00     0.041 C 
ATOM     13  O   UNL     1      59.297 143.365 -16.403  1.00  0.00    -0.550 OA
ATOM     14  O   UNL     1      61.410 144.070 -15.866  1.00  0.00    -0.550 OA
ENDBRANCH  11  12
ENDBRANCH  10  11
ENDBRANCH   9  10
ENDBRANCH   8   9
ENDBRANCH   7   8
ENDBRANCH   6   7
ENDBRANCH   5   6
ENDBRANCH   4   5
ENDBRANCH   3   4
ENDBRANCH   2   3
ENDBRANCH   1   2
BRANCH   1  15
ATOM     15  C   UNL     1      55.384 144.113 -28.499  1.00  0.00     0.000 C 
BRANCH  15  16
ATOM     16  C   UNL     1      56.526 143.272 -29.114  1.00  0.00     0.000 C 
BRANCH  16  17
ATOM     17  C   UNL     1      57.035 143.798 -30.469  1.00  0.00     0.000 C 
BRANCH  17  18
ATOM     18  C   UNL     1      58.530 144.166 -30.435  1.00  0.00    -0.000 C 
BRANCH  18  19
ATOM     19  C   UNL     1      59.343 143.408 -31.498  1.00  0.00    -0.000 C 
BRANCH  19  20
ATOM     20  C   UNL     1      59.636 144.270 -32.739  1.00  0.00    -0.000 C 
BRANCH  20  21
ATOM     21  C   UNL     1      60.433 143.507 -33.809  1.00  0.00    -0.000 C 
BRANCH  21  22
ATOM     22  C   UNL     1      61.100 144.446 -34.831  1.00  0.00    -0.000 C 
BRANCH  22  23
ATOM     23  C   UNL     1      60.281 145.732 -35.065  1.00  0.00    -0.000 C 
BRANCH  23  24
ATOM     24  C   UNL     1      61.109 147.030 -34.986  1.00  0.00    -0.000 C 
BRANCH  24  25
ATOM     25  C   UNL     1      60.375 148.211 -34.319  1.00  0.00    -0.003 C 
ATOM     26  C   UNL     1      59.965 147.912 -32.878  1.00  0.00     0.004 C 
ENDBRANCH  24  25
ENDBRANCH  23  24
ENDBRANCH  22  23
ENDBRANCH  21  22
ENDBRANCH  20  21
ENDBRANCH  19  20
ENDBRANCH  18  19
ENDBRANCH  17  18
ENDBRANCH  16  17
ENDBRANCH  15  16
ENDBRANCH   1  15
TORSDOF 22
ENDMDL
MODEL 8
REMARK VINA RESULT:    -4.758      4.410     10.843
REMARK INTER + INTRA:         -12.562
REMARK INTER:                 -11.073
REMARK INTRA:                  -1.489
REMARK UNBOUND:                -1.685
REMARK SMILES CCCCCCCCCCCCCCCCCCCCCCCC(=O)[O-]
REMARK SMILES IDX 13 1 14 2 15 3 16 4 17 5 18 6 19 7 20 8 21 9 22 10 23 11
REMARK SMILES IDX 24 12 25 13 26 14 12 15 11 16 10 17 9 18 8 19 7 20 6 21 5 22
REMARK SMILES IDX 4 23 3 24 2 25 1 26
REMARK H PARENT
REMARK Flexibility Score: inf
ROOT
ATOM      1  C   UNL     1      55.888 143.639 -24.683  1.00  0.00     0.000 C 
ENDROOT
BRANCH   1   2
ATOM      2  C   UNL     1      55.450 144.175 -26.056  1.00  0.00     0.000 C 
BRANCH   2   3
ATOM      3  C   UNL     1      56.291 143.684 -27.253  1.00  0.00     0.000 C 
BRANCH   3   4
ATOM      4  C   UNL     1      55.865 144.280 -28.611  1.00  0.00     0.000 C 
BRANCH   4   5
ATOM      5  C   UNL     1      56.641 143.674 -29.796  1.00  0.00     0.000 C 
BRANCH   5   6
ATOM      6  C   UNL     1      58.095 144.189 -29.862  1.00  0.00     0.000 C 
BRANCH   6   7
ATOM      7  C   UNL     1      58.913 143.556 -31.001  1.00  0.00     0.000 C 
BRANCH   7   8
ATOM      8  C   UNL     1      59.025 144.471 -32.230  1.00  0.00     0.000 C 
BRANCH   8   9
ATOM      9  C   UNL     1      60.117 144.019 -33.216  1.00  0.00     0.000 C 
BRANCH   9  10
ATOM     10  C   UNL     1      60.402 145.003 -34.369  1.00  0.00     0.006 C 
BRANCH  10  11
ATOM     11  C   UNL     1      60.935 146.375 -33.925  1.00  0.00     0.053 C 
BRANCH  11  12
ATOM     12  C   UNL     1      59.988 147.484 -34.271  1.00  0.00     0.041 C 
ATOM     13  O   UNL     1      58.799 147.223 -34.592  1.00  0.00    -0.550 OA
ATOM     14  O   UNL     1      60.411 148.806 -34.209  1.00  0.00    -0.550 OA
ENDBRANCH  11  12
ENDBRANCH  10  11
ENDBRANCH   9  10
ENDBRANCH   8   9
ENDBRANCH   7   8
ENDBRANCH   6   7
ENDBRANCH   5   6
ENDBRANCH   4   5
ENDBRANCH   3   4
ENDBRANCH   2   3
ENDBRANCH   1   2
BRANCH   1  15
ATOM     15  C   UNL     1      54.781 142.934 -23.876  1.00  0.00     0.000 C 
BRANCH  15  16
ATOM     16  C   UNL     1      54.990 141.409 -23.726  1.00  0.00     0.000 C 
BRANCH  16  17
ATOM     17  C   UNL     1      56.284 140.885 -24.375  1.00  0.00     0.000 C 
BRANCH  17  18
ATOM     18  C   UNL     1      57.095 139.982 -23.429  1.00  0.00    -0.000 C 
BRANCH  18  19
ATOM     19  C   UNL     1      57.535 140.719 -22.152  1.00  0.00    -0.000 C 
BRANCH  19  20
ATOM     20  C   UNL     1      58.513 141.871 -22.445  1.00  0.00    -0.000 C 
BRANCH  20  21
ATOM     21  C   UNL     1      58.126 143.169 -21.719  1.00  0.00    -0.000 C 
BRANCH  21  22
ATOM     22  C   UNL     1      59.344 143.902 -21.129  1.00  0.00    -0.000 C 
BRANCH  22  23
ATOM     23  C   UNL     1      59.247 144.061 -19.598  1.00  0.00    -0.000 C 
BRANCH  23  24
ATOM     24  C   UNL     1      59.364 145.517 -19.106  1.00  0.00    -0.000 C 
BRANCH  24  25
ATOM     25  C   UNL     1      60.068 145.671 -17.743  1.00  0.00    -0.003 C 
ATOM     26  C   UNL     1      60.013 147.103 -17.210  1.00  0.00     0.004 C 
ENDBRANCH  24  25
ENDBRANCH  23  24
ENDBRANCH  22  23
ENDBRANCH  21  22
ENDBRANCH  20  21
ENDBRANCH  19  20
ENDBRANCH  18  19
ENDBRANCH  17  18
ENDBRANCH  16  17
ENDBRANCH  15  16
ENDBRANCH   1  15
TORSDOF 22
ENDMDL
MODEL 9
REMARK VINA RESULT:    -4.728      7.538     11.508
REMARK INTER + INTRA:         -12.495
REMARK INTER:                  -8.564
REMARK INTRA:                  -3.931
REMARK UNBOUND:                -1.685
REMARK SMILES CCCCCCCCCCCCCCCCCCCCCCCC(=O)[O-]
REMARK SMILES IDX 13 1 14 2 15 3 16 4 17 5 18 6 19 7 20 8 21 9 22 10 23 11
REMARK SMILES IDX 24 12 25 13 26 14 12 15 11 16 10 17 9 18 8 19 7 20 6 21 5 22
REMARK SMILES IDX 4 23 3 24 2 25 1 26
REMARK H PARENT
REMARK Flexibility Score: inf
ROOT
ATOM      1  C   UNL     1      58.869 144.223 -18.608  1.00  0.00     0.000 C 
ENDROOT
BRANCH   1   2
ATOM      2  C   UNL     1      59.512 144.888 -19.837  1.00  0.00     0.000 C 
BRANCH   2   3
ATOM      3  C   UNL     1      59.237 144.189 -21.183  1.00  0.00     0.000 C 
BRANCH   3   4
ATOM      4  C   UNL     1      60.362 144.360 -22.226  1.00  0.00     0.000 C 
BRANCH   4   5
ATOM      5  C   UNL     1      61.212 143.088 -22.400  1.00  0.00     0.000 C 
BRANCH   5   6
ATOM      6  C   UNL     1      62.570 143.193 -21.671  1.00  0.00     0.000 C 
BRANCH   6   7
ATOM      7  C   UNL     1      62.530 142.652 -20.232  1.00  0.00     0.000 C 
BRANCH   7   8
ATOM      8  C   UNL     1      62.638 143.765 -19.177  1.00  0.00     0.000 C 
BRANCH   8   9
ATOM      9  C   UNL     1      63.634 144.871 -19.572  1.00  0.00     0.000 C 
BRANCH   9  10
ATOM     10  C   UNL     1      63.069 146.304 -19.520  1.00  0.00     0.006 C 
BRANCH  10  11
ATOM     11  C   UNL     1      62.648 146.880 -20.881  1.00  0.00     0.053 C 
BRANCH  11  12
ATOM     12  C   UNL     1      62.215 148.311 -20.777  1.00  0.00     0.041 C 
ATOM     13  O   UNL     1      61.253 148.627 -20.029  1.00  0.00    -0.550 OA
ATOM     14  O   UNL     1      62.894 149.298 -21.481  1.00  0.00    -0.550 OA
ENDBRANCH  11  12
ENDBRANCH  10  11
ENDBRANCH   9  10
ENDBRANCH   8   9
ENDBRANCH   7   8
ENDBRANCH   6   7
ENDBRANCH   5   6
ENDBRANCH   4   5
ENDBRANCH   3   4
ENDBRANCH   2   3
ENDBRANCH   1   2
BRANCH   1  15
ATOM     15  C   UNL     1      58.794 142.685 -18.665  1.00  0.00     0.000 C 
BRANCH  15  16
ATOM     16  C   UNL     1      58.514 142.021 -17.297  1.00  0.00     0.000 C 
BRANCH  16  17
ATOM     17  C   UNL     1      58.967 142.859 -16.087  1.00  0.00     0.000 C 
BRANCH  17  18
ATOM     18  C   UNL     1      60.166 142.234 -15.351  1.00  0.00    -0.000 C 
BRANCH  18  19
ATOM     19  C   UNL     1      61.459 143.045 -15.546  1.00  0.00    -0.000 C 
BRANCH  19  20
ATOM     20  C   UNL     1      61.183 144.509 -15.929  1.00  0.00    -0.000 C 
BRANCH  20  21
ATOM     21  C   UNL     1      62.433 145.394 -15.810  1.00  0.00    -0.000 C 
BRANCH  21  22
ATOM     22  C   UNL     1      62.107 146.895 -15.907  1.00  0.00    -0.000 C 
BRANCH  22  23
ATOM     23  C   UNL     1      60.726 147.155 -16.543  1.00  0.00    -0.000 C 
BRANCH  23  24
ATOM     24  C   UNL     1      60.029 148.434 -16.040  1.00  0.00    -0.000 C 
BRANCH  24  25
ATOM     25  C   UNL     1      58.987 149.015 -17.016  1.00  0.00    -0.003 C 
ATOM     26  C   UNL     1      58.041 150.009 -16.345  1.00  0.00     0.004 C 
ENDBRANCH  24  25
ENDBRANCH  23  24
ENDBRANCH  22  23
ENDBRANCH  21  22
ENDBRANCH  20  21
ENDBRANCH  19  20
ENDBRANCH  18  19
ENDBRANCH  17  18
ENDBRANCH  16  17
ENDBRANCH  15  16
ENDBRANCH   1  15
TORSDOF 22
ENDMDL
