MODEL 1
REMARK VINA RESULT:    -7.688      0.000      0.000
REMARK INTER + INTRA:          -9.439
REMARK INTER:                  -9.262
REMARK INTRA:                  -0.178
REMARK UNBOUND:                -0.178
REMARK SMILES O=c1c(O)c(-c2ccc(O)c(O)c2)oc2cc(O)cc(O)c12
REMARK SMILES IDX 5 1 3 2 2 3 1 4 22 5 20 6 19 7 17 8 16 9 15 10 14 11 6 12
REMARK SMILES IDX 7 13 8 14 9 15 13 16 11 17 10 18 12 20 4 22 21 24 18 26
REMARK H PARENT 10 19 12 21 4 23 21 25 18 27
REMARK Flexibility Score: inf
ROOT
ATOM      1  C   UNL     1      24.067  -4.493  24.079  1.00  0.00     0.180 A 
ATOM      2  C   UNL     1      24.853  -3.551  23.394  1.00  0.00     0.208 A 
ATOM      3  C   UNL     1      24.391  -3.038  22.171  1.00  0.00     0.238 A 
ATOM      4  O   UNL     1      25.123  -2.236  21.536  1.00  0.00    -0.285 OA
ATOM      5  C   UNL     1      23.142  -3.463  21.656  1.00  0.00     0.111 A 
ATOM      6  C   UNL     1      22.557  -2.981  20.447  1.00  0.00     0.134 A 
ATOM      7  C   UNL     1      21.380  -3.567  19.968  1.00  0.00     0.093 A 
ATOM      8  C   UNL     1      20.731  -4.573  20.688  1.00  0.00     0.123 A 
ATOM      9  C   UNL     1      21.261  -5.009  21.899  1.00  0.00     0.094 A 
ATOM     10  C   UNL     1      22.455  -4.469  22.384  1.00  0.00     0.146 A 
ATOM     11  O   UNL     1      22.932  -4.921  23.538  1.00  0.00    -0.452 OA
ENDROOT
BRANCH   1  12
ATOM     12  C   UNL     1      24.475  -5.060  25.385  1.00  0.00     0.025 A 
ATOM     13  C   UNL     1      24.562  -4.219  26.506  1.00  0.00     0.016 A 
ATOM     14  C   UNL     1      24.964  -4.729  27.743  1.00  0.00     0.051 A 
ATOM     15  C   UNL     1      25.300  -6.082  27.875  1.00  0.00     0.157 A 
ATOM     16  C   UNL     1      24.833  -6.414  25.516  1.00  0.00     0.062 A 
ATOM     17  C   UNL     1      25.238  -6.927  26.754  1.00  0.00     0.158 A 
BRANCH  15  18
ATOM     18  O   UNL     1      25.699  -6.589  29.111  1.00  0.00    -0.504 OA
ATOM     19  H   UNL     1      25.727  -6.005  29.940  1.00  0.00     0.293 HD
ENDBRANCH  15  18
BRANCH  17  20
ATOM     20  O   UNL     1      25.580  -8.276  26.848  1.00  0.00    -0.504 OA
ATOM     21  H   UNL     1      24.947  -9.013  26.562  1.00  0.00     0.293 HD
ENDBRANCH  17  20
ENDBRANCH   1  12
BRANCH   2  22
ATOM     22  O   UNL     1      26.093  -3.161  23.909  1.00  0.00    -0.502 OA
ATOM     23  H   UNL     1      26.483  -3.564  24.751  1.00  0.00     0.293 HD
ENDBRANCH   2  22
BRANCH   6  24
ATOM     24  O   UNL     1      23.075  -1.918  19.700  1.00  0.00    -0.507 OA
ATOM     25  H   UNL     1      24.041  -1.824  19.425  1.00  0.00     0.293 HD
ENDBRANCH   6  24
BRANCH   8  26
ATOM     26  O   UNL     1      19.551  -5.140  20.211  1.00  0.00    -0.508 OA
ATOM     27  H   UNL     1      19.304  -6.101  20.416  1.00  0.00     0.293 HD
ENDBRANCH   8  26
TORSDOF 6
ENDMDL
MODEL 2
REMARK VINA RESULT:    -7.559      4.043      6.056
REMARK INTER + INTRA:          -9.284
REMARK INTER:                  -8.963
REMARK INTRA:                  -0.321
REMARK UNBOUND:                -0.178
REMARK SMILES O=c1c(O)c(-c2ccc(O)c(O)c2)oc2cc(O)cc(O)c12
REMARK SMILES IDX 5 1 3 2 2 3 1 4 22 5 20 6 19 7 17 8 16 9 15 10 14 11 6 12
REMARK SMILES IDX 7 13 8 14 9 15 13 16 11 17 10 18 12 20 4 22 21 24 18 26
REMARK H PARENT 10 19 12 21 4 23 21 25 18 27
REMARK Flexibility Score: inf
ROOT
ATOM      1  C   UNL     1      23.852  -4.331  20.307  1.00  0.00     0.180 A 
ATOM      2  C   UNL     1      23.094  -4.469  21.482  1.00  0.00     0.208 A 
ATOM      3  C   UNL     1      21.928  -5.250  21.453  1.00  0.00     0.238 A 
ATOM      4  O   UNL     1      21.225  -5.327  22.494  1.00  0.00    -0.285 OA
ATOM      5  C   UNL     1      21.542  -5.895  20.252  1.00  0.00     0.111 A 
ATOM      6  C   UNL     1      20.401  -6.742  20.118  1.00  0.00     0.134 A 
ATOM      7  C   UNL     1      20.042  -7.221  18.853  1.00  0.00     0.093 A 
ATOM      8  C   UNL     1      20.821  -6.938  17.728  1.00  0.00     0.123 A 
ATOM      9  C   UNL     1      21.969  -6.162  17.858  1.00  0.00     0.094 A 
ATOM     10  C   UNL     1      22.332  -5.638  19.102  1.00  0.00     0.146 A 
ATOM     11  O   UNL     1      23.429  -4.894  19.181  1.00  0.00    -0.452 OA
ENDROOT
BRANCH   1  12
ATOM     12  C   UNL     1      25.107  -3.545  20.265  1.00  0.00     0.025 A 
ATOM     13  C   UNL     1      26.315  -4.153  20.640  1.00  0.00     0.016 A 
ATOM     14  C   UNL     1      27.508  -3.425  20.628  1.00  0.00     0.051 A 
ATOM     15  C   UNL     1      27.507  -2.075  20.255  1.00  0.00     0.157 A 
ATOM     16  C   UNL     1      25.107  -2.184  19.911  1.00  0.00     0.062 A 
ATOM     17  C   UNL     1      26.300  -1.451  19.900  1.00  0.00     0.158 A 
BRANCH  15  18
ATOM     18  O   UNL     1      28.699  -1.351  20.242  1.00  0.00    -0.504 OA
ATOM     19  H   UNL     1      28.753  -0.425  19.832  1.00  0.00     0.293 HD
ENDBRANCH  15  18
BRANCH  17  20
ATOM     20  O   UNL     1      26.263  -0.104  19.539  1.00  0.00    -0.504 OA
ATOM     21  H   UNL     1      25.460   0.483  19.731  1.00  0.00     0.293 HD
ENDBRANCH  17  20
ENDBRANCH   1  12
BRANCH   2  22
ATOM     22  O   UNL     1      23.481  -3.807  22.651  1.00  0.00    -0.502 OA
ATOM     23  H   UNL     1      23.403  -4.229  23.567  1.00  0.00     0.293 HD
ENDBRANCH   2  22
BRANCH   6  24
ATOM     24  O   UNL     1      19.610  -7.162  21.192  1.00  0.00    -0.507 OA
ATOM     25  H   UNL     1      18.649  -7.460  21.117  1.00  0.00     0.293 HD
ENDBRANCH   6  24
BRANCH   8  26
ATOM     26  O   UNL     1      20.465  -7.432  16.475  1.00  0.00    -0.508 OA
ATOM     27  H   UNL     1      21.079  -7.340  15.674  1.00  0.00     0.293 HD
ENDBRANCH   8  26
TORSDOF 6
ENDMDL
MODEL 3
REMARK VINA RESULT:    -7.337     10.265     12.830
REMARK INTER + INTRA:          -9.017
REMARK INTER:                  -8.939
REMARK INTRA:                  -0.077
REMARK UNBOUND:                -0.178
REMARK SMILES O=c1c(O)c(-c2ccc(O)c(O)c2)oc2cc(O)cc(O)c12
REMARK SMILES IDX 5 1 3 2 2 3 1 4 22 5 20 6 19 7 17 8 16 9 15 10 14 11 6 12
REMARK SMILES IDX 7 13 8 14 9 15 13 16 11 17 10 18 12 20 4 22 21 24 18 26
REMARK H PARENT 10 19 12 21 4 23 21 25 18 27
REMARK Flexibility Score: inf
ROOT
ATOM      1  C   UNL     1      23.241   6.523  23.843  1.00  0.00     0.180 A 
ATOM      2  C   UNL     1      23.991   7.556  23.257  1.00  0.00     0.208 A 
ATOM      3  C   UNL     1      25.026   8.152  23.997  1.00  0.00     0.238 A 
ATOM      4  O   UNL     1      25.659   9.113  23.487  1.00  0.00    -0.285 OA
ATOM      5  C   UNL     1      25.307   7.695  25.308  1.00  0.00     0.111 A 
ATOM      6  C   UNL     1      26.358   8.198  26.133  1.00  0.00     0.134 A 
ATOM      7  C   UNL     1      26.461   7.765  27.460  1.00  0.00     0.093 A 
ATOM      8  C   UNL     1      25.593   6.797  27.971  1.00  0.00     0.123 A 
ATOM      9  C   UNL     1      24.602   6.256  27.156  1.00  0.00     0.094 A 
ATOM     10  C   UNL     1      24.451   6.696  25.838  1.00  0.00     0.146 A 
ATOM     11  O   UNL     1      23.487   6.162  25.098  1.00  0.00    -0.452 OA
ENDROOT
BRANCH   1  12
ATOM     12  C   UNL     1      22.153   5.829  23.117  1.00  0.00     0.025 A 
ATOM     13  C   UNL     1      22.428   5.206  21.890  1.00  0.00     0.016 A 
ATOM     14  C   UNL     1      21.411   4.563  21.179  1.00  0.00     0.051 A 
ATOM     15  C   UNL     1      20.102   4.547  21.677  1.00  0.00     0.157 A 
ATOM     16  C   UNL     1      20.833   5.829  23.605  1.00  0.00     0.062 A 
ATOM     17  C   UNL     1      19.812   5.188  22.894  1.00  0.00     0.158 A 
BRANCH  15  18
ATOM     18  O   UNL     1      19.089   3.904  20.967  1.00  0.00    -0.504 OA
ATOM     19  H   UNL     1      19.142   3.780  19.962  1.00  0.00     0.293 HD
ENDBRANCH  15  18
BRANCH  17  20
ATOM     20  O   UNL     1      18.515   5.203  23.409  1.00  0.00    -0.504 OA
ATOM     21  H   UNL     1      18.325   5.411  24.382  1.00  0.00     0.293 HD
ENDBRANCH  17  20
ENDBRANCH   1  12
BRANCH   2  22
ATOM     22  O   UNL     1      23.684   8.006  21.970  1.00  0.00    -0.502 OA
ATOM     23  H   UNL     1      22.843   8.530  21.763  1.00  0.00     0.293 HD
ENDBRANCH   2  22
BRANCH   6  24
ATOM     24  O   UNL     1      27.333   9.098  25.692  1.00  0.00    -0.507 OA
ATOM     25  H   UNL     1      27.181  10.083  25.540  1.00  0.00     0.293 HD
ENDBRANCH   6  24
BRANCH   8  26
ATOM     26  O   UNL     1      25.713   6.359  29.288  1.00  0.00    -0.508 OA
ATOM     27  H   UNL     1      25.391   6.924  30.066  1.00  0.00     0.293 HD
ENDBRANCH   8  26
TORSDOF 6
ENDMDL
MODEL 4
REMARK VINA RESULT:    -7.323      1.761      3.833
REMARK INTER + INTRA:          -9.000
REMARK INTER:                  -9.040
REMARK INTRA:                   0.040
REMARK UNBOUND:                -0.178
REMARK SMILES O=c1c(O)c(-c2ccc(O)c(O)c2)oc2cc(O)cc(O)c12
REMARK SMILES IDX 5 1 3 2 2 3 1 4 22 5 20 6 19 7 17 8 16 9 15 10 14 11 6 12
REMARK SMILES IDX 7 13 8 14 9 15 13 16 11 17 10 18 12 20 4 22 21 24 18 26
REMARK H PARENT 10 19 12 21 4 23 21 25 18 27
REMARK Flexibility Score: inf
ROOT
ATOM      1  C   UNL     1      22.594  -5.506  22.324  1.00  0.00     0.180 A 
ATOM      2  C   UNL     1      21.368  -6.105  21.986  1.00  0.00     0.208 A 
ATOM      3  C   UNL     1      20.760  -5.770  20.765  1.00  0.00     0.238 A 
ATOM      4  O   UNL     1      19.637  -6.269  20.492  1.00  0.00    -0.285 OA
ATOM      5  C   UNL     1      21.391  -4.852  19.892  1.00  0.00     0.111 A 
ATOM      6  C   UNL     1      20.885  -4.470  18.613  1.00  0.00     0.134 A 
ATOM      7  C   UNL     1      21.526  -3.456  17.892  1.00  0.00     0.093 A 
ATOM      8  C   UNL     1      22.692  -2.857  18.373  1.00  0.00     0.123 A 
ATOM      9  C   UNL     1      23.228  -3.264  19.591  1.00  0.00     0.094 A 
ATOM     10  C   UNL     1      22.590  -4.247  20.352  1.00  0.00     0.146 A 
ATOM     11  O   UNL     1      23.128  -4.599  21.513  1.00  0.00    -0.452 OA
ENDROOT
BRANCH   1  12
ATOM     12  C   UNL     1      23.309  -5.827  23.580  1.00  0.00     0.025 A 
ATOM     13  C   UNL     1      23.490  -7.170  23.948  1.00  0.00     0.016 A 
ATOM     14  C   UNL     1      24.144  -7.495  25.139  1.00  0.00     0.051 A 
ATOM     15  C   UNL     1      24.613  -6.483  25.987  1.00  0.00     0.157 A 
ATOM     16  C   UNL     1      23.763  -4.814  24.444  1.00  0.00     0.062 A 
ATOM     17  C   UNL     1      24.416  -5.136  25.639  1.00  0.00     0.158 A 
BRANCH  15  18
ATOM     18  O   UNL     1      25.267  -6.811  27.174  1.00  0.00    -0.504 OA
ATOM     19  H   UNL     1      25.030  -6.362  28.052  1.00  0.00     0.293 HD
ENDBRANCH  15  18
BRANCH  17  20
ATOM     20  O   UNL     1      24.858  -4.106  26.468  1.00  0.00    -0.504 OA
ATOM     21  H   UNL     1      24.355  -3.230  26.554  1.00  0.00     0.293 HD
ENDBRANCH  17  20
ENDBRANCH   1  12
BRANCH   2  22
ATOM     22  O   UNL     1      20.751  -6.993  22.872  1.00  0.00    -0.502 OA
ATOM     23  H   UNL     1      20.267  -6.682  23.704  1.00  0.00     0.293 HD
ENDBRANCH   2  22
BRANCH   6  24
ATOM     24  O   UNL     1      19.781  -5.071  18.000  1.00  0.00    -0.507 OA
ATOM     25  H   UNL     1      19.354  -5.934  18.302  1.00  0.00     0.293 HD
ENDBRANCH   6  24
BRANCH   8  26
ATOM     26  O   UNL     1      23.332  -1.859  17.640  1.00  0.00    -0.508 OA
ATOM     27  H   UNL     1      23.000  -0.901  17.646  1.00  0.00     0.293 HD
ENDBRANCH   8  26
TORSDOF 6
ENDMDL
MODEL 5
REMARK VINA RESULT:    -7.302      8.786     10.483
REMARK INTER + INTRA:          -8.974
REMARK INTER:                  -8.683
REMARK INTRA:                  -0.291
REMARK UNBOUND:                -0.178
REMARK SMILES O=c1c(O)c(-c2ccc(O)c(O)c2)oc2cc(O)cc(O)c12
REMARK SMILES IDX 5 1 3 2 2 3 1 4 22 5 20 6 19 7 17 8 16 9 15 10 14 11 6 12
REMARK SMILES IDX 7 13 8 14 9 15 13 16 11 17 10 18 12 20 4 22 21 24 18 26
REMARK H PARENT 10 19 12 21 4 23 21 25 18 27
REMARK Flexibility Score: inf
ROOT
ATOM      1  C   UNL     1      22.803   5.562  23.688  1.00  0.00     0.180 A 
ATOM      2  C   UNL     1      21.424   5.828  23.723  1.00  0.00     0.208 A 
ATOM      3  C   UNL     1      20.579   5.171  22.813  1.00  0.00     0.238 A 
ATOM      4  O   UNL     1      19.353   5.453  22.814  1.00  0.00    -0.285 OA
ATOM      5  C   UNL     1      21.123   4.246  21.890  1.00  0.00     0.111 A 
ATOM      6  C   UNL     1      20.357   3.494  20.949  1.00  0.00     0.134 A 
ATOM      7  C   UNL     1      21.013   2.706  19.997  1.00  0.00     0.093 A 
ATOM      8  C   UNL     1      22.405   2.591  19.992  1.00  0.00     0.123 A 
ATOM      9  C   UNL     1      23.159   3.274  20.943  1.00  0.00     0.094 A 
ATOM     10  C   UNL     1      22.534   4.098  21.883  1.00  0.00     0.146 A 
ATOM     11  O   UNL     1      23.291   4.739  22.766  1.00  0.00    -0.452 OA
ENDROOT
BRANCH   1  12
ATOM     12  C   UNL     1      23.753   6.196  24.631  1.00  0.00     0.025 A 
ATOM     13  C   UNL     1      24.602   7.217  24.176  1.00  0.00     0.016 A 
ATOM     14  C   UNL     1      25.519   7.814  25.044  1.00  0.00     0.051 A 
ATOM     15  C   UNL     1      25.612   7.389  26.375  1.00  0.00     0.157 A 
ATOM     16  C   UNL     1      23.863   5.757  25.963  1.00  0.00     0.062 A 
ATOM     17  C   UNL     1      24.783   6.352  26.835  1.00  0.00     0.158 A 
BRANCH  15  18
ATOM     18  O   UNL     1      26.527   7.988  27.240  1.00  0.00    -0.504 OA
ATOM     19  H   UNL     1      26.230   8.631  27.965  1.00  0.00     0.293 HD
ENDBRANCH  15  18
BRANCH  17  20
ATOM     20  O   UNL     1      24.861   5.896  28.151  1.00  0.00    -0.504 OA
ATOM     21  H   UNL     1      24.063   5.913  28.775  1.00  0.00     0.293 HD
ENDBRANCH  17  20
ENDBRANCH   1  12
BRANCH   2  22
ATOM     22  O   UNL     1      20.910   6.761  24.629  1.00  0.00    -0.502 OA
ATOM     23  H   UNL     1      21.476   7.184  25.354  1.00  0.00     0.293 HD
ENDBRANCH   2  22
BRANCH   6  24
ATOM     24  O   UNL     1      18.959   3.465  20.927  1.00  0.00    -0.507 OA
ATOM     25  H   UNL     1      18.404   2.947  20.263  1.00  0.00     0.293 HD
ENDBRANCH   6  24
BRANCH   8  26
ATOM     26  O   UNL     1      23.049   1.792  19.050  1.00  0.00    -0.508 OA
ATOM     27  H   UNL     1      22.541   1.351  18.292  1.00  0.00     0.293 HD
ENDBRANCH   8  26
TORSDOF 6
ENDMDL
MODEL 6
REMARK VINA RESULT:    -7.284      6.109      8.644
REMARK INTER + INTRA:          -8.952
REMARK INTER:                  -8.617
REMARK INTRA:                  -0.335
REMARK UNBOUND:                -0.178
REMARK SMILES O=c1c(O)c(-c2ccc(O)c(O)c2)oc2cc(O)cc(O)c12
REMARK SMILES IDX 5 1 3 2 2 3 1 4 22 5 20 6 19 7 17 8 16 9 15 10 14 11 6 12
REMARK SMILES IDX 7 13 8 14 9 15 13 16 11 17 10 18 12 20 4 22 21 24 18 26
REMARK H PARENT 10 19 12 21 4 23 21 25 18 27
REMARK Flexibility Score: inf
ROOT
ATOM      1  C   UNL     1      23.439   1.774  22.089  1.00  0.00     0.180 A 
ATOM      2  C   UNL     1      22.460   2.470  21.360  1.00  0.00     0.208 A 
ATOM      3  C   UNL     1      22.024   3.721  21.827  1.00  0.00     0.238 A 
ATOM      4  O   UNL     1      21.109   4.315  21.199  1.00  0.00    -0.285 OA
ATOM      5  C   UNL     1      22.583   4.266  23.008  1.00  0.00     0.111 A 
ATOM      6  C   UNL     1      22.244   5.542  23.551  1.00  0.00     0.134 A 
ATOM      7  C   UNL     1      22.762   5.922  24.794  1.00  0.00     0.093 A 
ATOM      8  C   UNL     1      23.658   5.102  25.483  1.00  0.00     0.123 A 
ATOM      9  C   UNL     1      24.041   3.881  24.934  1.00  0.00     0.094 A 
ATOM     10  C   UNL     1      23.512   3.457  23.712  1.00  0.00     0.146 A 
ATOM     11  O   UNL     1      23.895   2.281  23.229  1.00  0.00    -0.452 OA
ENDROOT
BRANCH   1  12
ATOM     12  C   UNL     1      23.968   0.463  21.647  1.00  0.00     0.025 A 
ATOM     13  C   UNL     1      23.392  -0.717  22.143  1.00  0.00     0.016 A 
ATOM     14  C   UNL     1      23.889  -1.964  21.754  1.00  0.00     0.051 A 
ATOM     15  C   UNL     1      24.977  -2.049  20.878  1.00  0.00     0.157 A 
ATOM     16  C   UNL     1      25.075   0.374  20.783  1.00  0.00     0.062 A 
ATOM     17  C   UNL     1      25.576  -0.874  20.394  1.00  0.00     0.158 A 
BRANCH  15  18
ATOM     18  O   UNL     1      25.470  -3.295  20.490  1.00  0.00    -0.504 OA
ATOM     19  H   UNL     1      24.851  -4.047  20.211  1.00  0.00     0.293 HD
ENDBRANCH  15  18
BRANCH  17  20
ATOM     20  O   UNL     1      26.671  -0.924  19.532  1.00  0.00    -0.504 OA
ATOM     21  H   UNL     1      27.388  -0.208  19.529  1.00  0.00     0.293 HD
ENDBRANCH  17  20
ENDBRANCH   1  12
BRANCH   2  22
ATOM     22  O   UNL     1      21.907   1.905  20.208  1.00  0.00    -0.502 OA
ATOM     23  H   UNL     1      21.644   2.459  19.402  1.00  0.00     0.293 HD
ENDBRANCH   2  22
BRANCH   6  24
ATOM     24  O   UNL     1      21.432   6.476  22.901  1.00  0.00    -0.507 OA
ATOM     25  H   UNL     1      21.400   6.613  21.902  1.00  0.00     0.293 HD
ENDBRANCH   6  24
BRANCH   8  26
ATOM     26  O   UNL     1      24.182   5.495  26.713  1.00  0.00    -0.508 OA
ATOM     27  H   UNL     1      24.562   6.425  26.855  1.00  0.00     0.293 HD
ENDBRANCH   8  26
TORSDOF 6
ENDMDL
MODEL 7
REMARK VINA RESULT:    -7.230      9.392     10.831
REMARK INTER + INTRA:          -8.888
REMARK INTER:                  -9.049
REMARK INTRA:                   0.162
REMARK UNBOUND:                -0.178
REMARK SMILES O=c1c(O)c(-c2ccc(O)c(O)c2)oc2cc(O)cc(O)c12
REMARK SMILES IDX 5 1 3 2 2 3 1 4 22 5 20 6 19 7 17 8 16 9 15 10 14 11 6 12
REMARK SMILES IDX 7 13 8 14 9 15 13 16 11 17 10 18 12 20 4 22 21 24 18 26
REMARK H PARENT 10 19 12 21 4 23 21 25 18 27
REMARK Flexibility Score: inf
ROOT
ATOM      1  C   UNL     1      23.267   5.644  24.658  1.00  0.00     0.180 A 
ATOM      2  C   UNL     1      22.941   4.280  24.743  1.00  0.00     0.208 A 
ATOM      3  C   UNL     1      22.099   3.718  23.770  1.00  0.00     0.238 A 
ATOM      4  O   UNL     1      21.767   2.509  23.882  1.00  0.00    -0.285 OA
ATOM      5  C   UNL     1      21.605   4.524  22.716  1.00  0.00     0.111 A 
ATOM      6  C   UNL     1      20.777   4.052  21.653  1.00  0.00     0.134 A 
ATOM      7  C   UNL     1      20.241   4.964  20.738  1.00  0.00     0.093 A 
ATOM      8  C   UNL     1      20.556   6.323  20.806  1.00  0.00     0.123 A 
ATOM      9  C   UNL     1      21.411   6.786  21.803  1.00  0.00     0.094 A 
ATOM     10  C   UNL     1      21.932   5.905  22.754  1.00  0.00     0.146 A 
ATOM     11  O   UNL     1      22.736   6.389  23.694  1.00  0.00    -0.452 OA
ENDROOT
BRANCH   1  12
ATOM     12  C   UNL     1      24.170   6.302  25.630  1.00  0.00     0.025 A 
ATOM     13  C   UNL     1      25.139   7.207  25.171  1.00  0.00     0.016 A 
ATOM     14  C   UNL     1      26.014   7.823  26.070  1.00  0.00     0.051 A 
ATOM     15  C   UNL     1      25.942   7.533  27.438  1.00  0.00     0.157 A 
ATOM     16  C   UNL     1      24.114   5.997  27.003  1.00  0.00     0.062 A 
ATOM     17  C   UNL     1      24.990   6.612  27.905  1.00  0.00     0.158 A 
BRANCH  15  18
ATOM     18  O   UNL     1      26.815   8.151  28.333  1.00  0.00    -0.504 OA
ATOM     19  H   UNL     1      27.363   8.961  28.065  1.00  0.00     0.293 HD
ENDBRANCH  15  18
BRANCH  17  20
ATOM     20  O   UNL     1      24.902   6.290  29.259  1.00  0.00    -0.504 OA
ATOM     21  H   UNL     1      24.012   6.197  29.734  1.00  0.00     0.293 HD
ENDBRANCH  17  20
ENDBRANCH   1  12
BRANCH   2  22
ATOM     22  O   UNL     1      23.422   3.507  25.804  1.00  0.00    -0.502 OA
ATOM     23  H   UNL     1      23.778   2.569  25.675  1.00  0.00     0.293 HD
ENDBRANCH   2  22
BRANCH   6  24
ATOM     24  O   UNL     1      20.476   2.703  21.440  1.00  0.00    -0.507 OA
ATOM     25  H   UNL     1      20.260   2.296  20.542  1.00  0.00     0.293 HD
ENDBRANCH   6  24
BRANCH   8  26
ATOM     26  O   UNL     1      20.031   7.222  19.881  1.00  0.00    -0.508 OA
ATOM     27  H   UNL     1      19.308   6.948  19.225  1.00  0.00     0.293 HD
ENDBRANCH   8  26
TORSDOF 6
ENDMDL
MODEL 8
REMARK VINA RESULT:    -7.194      4.130      7.368
REMARK INTER + INTRA:          -8.844
REMARK INTER:                  -8.585
REMARK INTRA:                  -0.259
REMARK UNBOUND:                -0.178
REMARK SMILES O=c1c(O)c(-c2ccc(O)c(O)c2)oc2cc(O)cc(O)c12
REMARK SMILES IDX 5 1 3 2 2 3 1 4 22 5 20 6 19 7 17 8 16 9 15 10 14 11 6 12
REMARK SMILES IDX 7 13 8 14 9 15 13 16 11 17 10 18 12 20 4 22 21 24 18 26
REMARK H PARENT 10 19 12 21 4 23 21 25 18 27
REMARK Flexibility Score: inf
ROOT
ATOM      1  C   UNL     1      24.438  -3.685  19.626  1.00  0.00     0.180 A 
ATOM      2  C   UNL     1      24.717  -2.352  19.275  1.00  0.00     0.208 A 
ATOM      3  C   UNL     1      25.910  -1.764  19.727  1.00  0.00     0.238 A 
ATOM      4  O   UNL     1      26.128  -0.555  19.455  1.00  0.00    -0.285 OA
ATOM      5  C   UNL     1      26.814  -2.520  20.511  1.00  0.00     0.111 A 
ATOM      6  C   UNL     1      28.070  -2.038  20.990  1.00  0.00     0.134 A 
ATOM      7  C   UNL     1      28.824  -2.828  21.865  1.00  0.00     0.093 A 
ATOM      8  C   UNL     1      28.400  -4.109  22.227  1.00  0.00     0.123 A 
ATOM      9  C   UNL     1      27.206  -4.611  21.718  1.00  0.00     0.094 A 
ATOM     10  C   UNL     1      26.413  -3.832  20.872  1.00  0.00     0.146 A 
ATOM     11  O   UNL     1      25.276  -4.346  20.417  1.00  0.00    -0.452 OA
ENDROOT
BRANCH   1  12
ATOM     12  C   UNL     1      23.215  -4.382  19.166  1.00  0.00     0.025 A 
ATOM     13  C   UNL     1      23.300  -5.303  18.111  1.00  0.00     0.016 A 
ATOM     14  C   UNL     1      22.155  -5.957  17.649  1.00  0.00     0.051 A 
ATOM     15  C   UNL     1      20.907  -5.688  18.224  1.00  0.00     0.157 A 
ATOM     16  C   UNL     1      21.956  -4.098  19.728  1.00  0.00     0.062 A 
ATOM     17  C   UNL     1      20.807  -4.750  19.265  1.00  0.00     0.158 A 
BRANCH  15  18
ATOM     18  O   UNL     1      19.766  -6.343  17.761  1.00  0.00    -0.504 OA
ATOM     19  H   UNL     1      19.510  -7.264  18.098  1.00  0.00     0.293 HD
ENDBRANCH  15  18
BRANCH  17  20
ATOM     20  O   UNL     1      19.577  -4.448  19.848  1.00  0.00    -0.504 OA
ATOM     21  H   UNL     1      19.494  -4.177  20.821  1.00  0.00     0.293 HD
ENDBRANCH  17  20
ENDBRANCH   1  12
BRANCH   2  22
ATOM     22  O   UNL     1      23.800  -1.618  18.518  1.00  0.00    -0.502 OA
ATOM     23  H   UNL     1      24.051  -0.761  18.042  1.00  0.00     0.293 HD
ENDBRANCH   2  22
BRANCH   6  24
ATOM     24  O   UNL     1      28.629  -0.812  20.616  1.00  0.00    -0.507 OA
ATOM     25  H   UNL     1      28.596  -0.425  19.685  1.00  0.00     0.293 HD
ENDBRANCH   6  24
BRANCH   8  26
ATOM     26  O   UNL     1      29.164  -4.894  23.087  1.00  0.00    -0.508 OA
ATOM     27  H   UNL     1      30.117  -5.158  22.859  1.00  0.00     0.293 HD
ENDBRANCH   8  26
TORSDOF 6
ENDMDL
MODEL 9
REMARK VINA RESULT:    -7.179      7.324      9.280
REMARK INTER + INTRA:          -8.826
REMARK INTER:                  -8.582
REMARK INTRA:                  -0.243
REMARK UNBOUND:                -0.178
REMARK SMILES O=c1c(O)c(-c2ccc(O)c(O)c2)oc2cc(O)cc(O)c12
REMARK SMILES IDX 5 1 3 2 2 3 1 4 22 5 20 6 19 7 17 8 16 9 15 10 14 11 6 12
REMARK SMILES IDX 7 13 8 14 9 15 13 16 11 17 10 18 12 20 4 22 21 24 18 26
REMARK H PARENT 10 19 12 21 4 23 21 25 18 27
REMARK Flexibility Score: inf
ROOT
ATOM      1  C   UNL     1      22.623   3.607  21.215  1.00  0.00     0.180 A 
ATOM      2  C   UNL     1      21.768   4.626  20.760  1.00  0.00     0.208 A 
ATOM      3  C   UNL     1      21.797   4.984  19.402  1.00  0.00     0.238 A 
ATOM      4  O   UNL     1      21.068   5.932  19.011  1.00  0.00    -0.285 OA
ATOM      5  C   UNL     1      22.670   4.308  18.515  1.00  0.00     0.111 A 
ATOM      6  C   UNL     1      22.754   4.561  17.112  1.00  0.00     0.134 A 
ATOM      7  C   UNL     1      23.744   3.926  16.354  1.00  0.00     0.093 A 
ATOM      8  C   UNL     1      24.610   2.997  16.935  1.00  0.00     0.123 A 
ATOM      9  C   UNL     1      24.498   2.699  18.290  1.00  0.00     0.094 A 
ATOM     10  C   UNL     1      23.544   3.344  19.080  1.00  0.00     0.146 A 
ATOM     11  O   UNL     1      23.477   3.039  20.371  1.00  0.00    -0.452 OA
ENDROOT
BRANCH   1  12
ATOM     12  C   UNL     1      22.632   3.157  22.626  1.00  0.00     0.025 A 
ATOM     13  C   UNL     1      22.023   1.939  22.966  1.00  0.00     0.016 A 
ATOM     14  C   UNL     1      22.003   1.505  24.294  1.00  0.00     0.051 A 
ATOM     15  C   UNL     1      22.577   2.289  25.303  1.00  0.00     0.157 A 
ATOM     16  C   UNL     1      23.189   3.951  23.645  1.00  0.00     0.062 A 
ATOM     17  C   UNL     1      23.168   3.520  24.976  1.00  0.00     0.158 A 
BRANCH  15  18
ATOM     18  O   UNL     1      22.556   1.852  26.627  1.00  0.00    -0.504 OA
ATOM     19  H   UNL     1      21.744   1.989  27.218  1.00  0.00     0.293 HD
ENDBRANCH  15  18
BRANCH  17  20
ATOM     20  O   UNL     1      23.735   4.331  25.959  1.00  0.00    -0.504 OA
ATOM     21  H   UNL     1      24.722   4.294  26.184  1.00  0.00     0.293 HD
ENDBRANCH  17  20
ENDBRANCH   1  12
BRANCH   2  22
ATOM     22  O   UNL     1      20.930   5.294  21.657  1.00  0.00    -0.502 OA
ATOM     23  H   UNL     1      21.285   5.911  22.377  1.00  0.00     0.293 HD
ENDBRANCH   2  22
BRANCH   6  24
ATOM     24  O   UNL     1      21.877   5.400  16.417  1.00  0.00    -0.507 OA
ATOM     25  H   UNL     1      22.032   6.384  16.251  1.00  0.00     0.293 HD
ENDBRANCH   6  24
BRANCH   8  26
ATOM     26  O   UNL     1      25.583   2.357  16.170  1.00  0.00    -0.508 OA
ATOM     27  H   UNL     1      25.485   1.388  15.889  1.00  0.00     0.293 HD
ENDBRANCH   8  26
TORSDOF 6
ENDMDL
