MODEL 1
REMARK VINA RESULT:    -8.989      0.000      0.000
REMARK INTER + INTRA:         -14.590
REMARK INTER:                 -13.193
REMARK INTRA:                  -1.396
REMARK UNBOUND:                -1.396
REMARK SMILES O=c1c(O[C@@H]2O[C@H](CO)[C@@H](O)[C@@H](O)[C@@H]2O)c(-c2ccc(O)c(O)c2)oc2cc(O)cc(O)c12
REMARK SMILES IDX 4 1 3 2 16 3 25 4 2 5 26 6 1 7 33 8 27 9 31 10 28 11 30 12
REMARK SMILES IDX 17 13 18 14 19 15 20 16 24 17 22 18 21 19 23 21 32 23 29 25
REMARK SMILES IDX 5 27 14 28 6 29 12 30 7 31 10 32 15 33 13 35 8 37 9 38 11 40
REMARK H PARENT 21 20 23 22 32 24 29 26 15 34 13 36 9 39 11 41
REMARK Flexibility Score: inf
ROOT
ATOM      1  O   UNL     1      49.400  60.971   3.813  1.00  0.00    -0.454 OA
ENDROOT
BRANCH   1   2
ATOM      2  C   UNL     1      50.556  60.428   3.226  1.00  0.00     0.214 A 
ATOM      3  C   UNL     1      51.708  60.254   4.020  1.00  0.00     0.180 A 
ATOM      4  O   UNL     1      52.801  59.708   3.497  1.00  0.00    -0.452 OA
ATOM      5  C   UNL     1      50.606  60.035   1.874  1.00  0.00     0.239 A 
ATOM      6  C   UNL     1      52.889  59.319   2.232  1.00  0.00     0.146 A 
ATOM      7  O   UNL     1      49.604  60.206   1.132  1.00  0.00    -0.285 OA
ATOM      8  C   UNL     1      51.790  59.467   1.356  1.00  0.00     0.111 A 
ATOM      9  C   UNL     1      54.086  58.760   1.774  1.00  0.00     0.094 A 
ATOM     10  C   UNL     1      51.920  59.044   0.010  1.00  0.00     0.134 A 
ATOM     11  C   UNL     1      54.208  58.343   0.444  1.00  0.00     0.123 A 
ATOM     12  C   UNL     1      53.129  58.487  -0.430  1.00  0.00     0.093 A 
BRANCH   3  13
ATOM     13  C   UNL     1      51.730  60.611   5.457  1.00  0.00     0.025 A 
ATOM     14  C   UNL     1      52.231  61.862   5.848  1.00  0.00     0.016 A 
ATOM     15  C   UNL     1      52.271  62.218   7.199  1.00  0.00     0.051 A 
ATOM     16  C   UNL     1      51.803  61.334   8.177  1.00  0.00     0.157 A 
ATOM     17  C   UNL     1      51.235  59.737   6.440  1.00  0.00     0.062 A 
ATOM     18  C   UNL     1      51.279  60.088   7.796  1.00  0.00     0.158 A 
BRANCH  16  19
ATOM     19  O   UNL     1      51.863  61.712   9.518  1.00  0.00    -0.504 OA
ATOM     20  H   UNL     1      51.282  62.451   9.895  1.00  0.00     0.293 HD
ENDBRANCH  16  19
BRANCH  18  21
ATOM     21  O   UNL     1      50.802  59.205   8.764  1.00  0.00    -0.504 OA
ATOM     22  H   UNL     1      50.035  58.571   8.571  1.00  0.00     0.293 HD
ENDBRANCH  18  21
ENDBRANCH   3  13
BRANCH  10  23
ATOM     23  O   UNL     1      50.861  59.172  -0.890  1.00  0.00    -0.507 OA
ATOM     24  H   UNL     1      49.975  59.581  -0.617  1.00  0.00     0.293 HD
ENDBRANCH  10  23
BRANCH  11  25
ATOM     25  O   UNL     1      55.398  57.786  -0.018  1.00  0.00    -0.508 OA
ATOM     26  H   UNL     1      55.484  56.792  -0.198  1.00  0.00     0.293 HD
ENDBRANCH  11  25
ENDBRANCH   1   2
BRANCH   1  27
ATOM     27  C   UNL     1      49.130  62.367   3.965  1.00  0.00     0.339 C 
ATOM     28  C   UNL     1      47.929  62.772   3.097  1.00  0.00     0.214 C 
ATOM     29  O   UNL     1      48.963  62.732   5.327  1.00  0.00    -0.332 OA
ATOM     30  C   UNL     1      46.646  62.135   3.640  1.00  0.00     0.180 C 
ATOM     31  C   UNL     1      47.793  62.210   5.945  1.00  0.00     0.179 C 
ATOM     32  C   UNL     1      46.483  62.451   5.141  1.00  0.00     0.177 C 
BRANCH  28  33
ATOM     33  O   UNL     1      48.155  62.352   1.776  1.00  0.00    -0.384 OA
ATOM     34  H   UNL     1      47.357  61.830   1.498  1.00  0.00     0.211 HD
ENDBRANCH  28  33
BRANCH  30  35
ATOM     35  O   UNL     1      45.541  62.619   2.920  1.00  0.00    -0.387 OA
ATOM     36  H   UNL     1      45.573  63.610   2.981  1.00  0.00     0.211 HD
ENDBRANCH  30  35
BRANCH  31  37
ATOM     37  C   UNL     1      47.983  60.764   6.458  1.00  0.00     0.191 C 
BRANCH  37  38
ATOM     38  O   UNL     1      47.074  59.878   5.870  1.00  0.00    -0.394 OA
ATOM     39  H   UNL     1      46.832  59.223   6.575  1.00  0.00     0.210 HD
ENDBRANCH  37  38
ENDBRANCH  31  37
BRANCH  32  40
ATOM     40  O   UNL     1      46.019  63.769   5.326  1.00  0.00    -0.387 OA
ATOM     41  H   UNL     1      46.624  64.380   4.829  1.00  0.00     0.211 HD
ENDBRANCH  32  40
ENDBRANCH   1  27
TORSDOF 12
ENDMDL
MODEL 2
REMARK VINA RESULT:    -8.773      1.819      5.548
REMARK INTER + INTRA:         -14.272
REMARK INTER:                 -12.925
REMARK INTRA:                  -1.347
REMARK UNBOUND:                -1.396
REMARK SMILES O=c1c(O[C@@H]2O[C@H](CO)[C@@H](O)[C@@H](O)[C@@H]2O)c(-c2ccc(O)c(O)c2)oc2cc(O)cc(O)c12
REMARK SMILES IDX 4 1 3 2 16 3 25 4 2 5 26 6 1 7 33 8 27 9 31 10 28 11 30 12
REMARK SMILES IDX 17 13 18 14 19 15 20 16 24 17 22 18 21 19 23 21 32 23 29 25
REMARK SMILES IDX 5 27 14 28 6 29 12 30 7 31 10 32 15 33 13 35 8 37 9 38 11 40
REMARK H PARENT 21 20 23 22 32 24 29 26 15 34 13 36 9 39 11 41
REMARK Flexibility Score: inf
ROOT
ATOM      1  O   UNL     1      49.839  61.370   3.782  1.00  0.00    -0.454 OA
ENDROOT
BRANCH   1   2
ATOM      2  C   UNL     1      50.889  60.720   4.452  1.00  0.00     0.214 A 
ATOM      3  C   UNL     1      51.845  60.011   3.696  1.00  0.00     0.180 A 
ATOM      4  O   UNL     1      52.868  59.418   4.304  1.00  0.00    -0.452 OA
ATOM      5  C   UNL     1      51.034  60.758   5.852  1.00  0.00     0.239 A 
ATOM      6  C   UNL     1      53.046  59.436   5.618  1.00  0.00     0.146 A 
ATOM      7  O   UNL     1      50.180  61.357   6.557  1.00  0.00    -0.285 OA
ATOM      8  C   UNL     1      52.131  60.109   6.459  1.00  0.00     0.111 A 
ATOM      9  C   UNL     1      54.153  58.778   6.163  1.00  0.00     0.094 A 
ATOM     10  C   UNL     1      52.350  60.104   7.859  1.00  0.00     0.134 A 
ATOM     11  C   UNL     1      54.364  58.777   7.546  1.00  0.00     0.123 A 
ATOM     12  C   UNL     1      53.465  59.437   8.386  1.00  0.00     0.093 A 
BRANCH   3  13
ATOM     13  C   UNL     1      51.784  59.946   2.218  1.00  0.00     0.025 A 
ATOM     14  C   UNL     1      50.632  59.441   1.597  1.00  0.00     0.016 A 
ATOM     15  C   UNL     1      50.555  59.361   0.204  1.00  0.00     0.051 A 
ATOM     16  C   UNL     1      51.623  59.793  -0.589  1.00  0.00     0.157 A 
ATOM     17  C   UNL     1      52.844  60.406   1.417  1.00  0.00     0.062 A 
ATOM     18  C   UNL     1      52.773  60.322   0.020  1.00  0.00     0.158 A 
BRANCH  16  19
ATOM     19  O   UNL     1      51.522  59.694  -1.977  1.00  0.00    -0.504 OA
ATOM     20  H   UNL     1      50.673  59.937  -2.473  1.00  0.00     0.293 HD
ENDBRANCH  16  19
BRANCH  18  21
ATOM     21  O   UNL     1      53.839  60.763  -0.763  1.00  0.00    -0.504 OA
ATOM     22  H   UNL     1      54.585  60.137  -1.043  1.00  0.00     0.293 HD
ENDBRANCH  18  21
ENDBRANCH   3  13
BRANCH  10  23
ATOM     23  O   UNL     1      51.471  60.756   8.727  1.00  0.00    -0.507 OA
ATOM     24  H   UNL     1      50.707  60.267   9.178  1.00  0.00     0.293 HD
ENDBRANCH  10  23
BRANCH  11  25
ATOM     25  O   UNL     1      55.463  58.123   8.095  1.00  0.00    -0.508 OA
ATOM     26  H   UNL     1      56.237  58.636   8.503  1.00  0.00     0.293 HD
ENDBRANCH  11  25
ENDBRANCH   1   2
BRANCH   1  27
ATOM     27  C   UNL     1      49.568  62.773   3.838  1.00  0.00     0.339 C 
ATOM     28  C   UNL     1      49.338  63.326   2.423  1.00  0.00     0.214 C 
ATOM     29  O   UNL     1      48.496  63.074   4.719  1.00  0.00    -0.332 OA
ATOM     30  C   UNL     1      48.033  62.769   1.844  1.00  0.00     0.180 C 
ATOM     31  C   UNL     1      47.220  62.618   4.284  1.00  0.00     0.179 C 
ATOM     32  C   UNL     1      46.865  63.013   2.821  1.00  0.00     0.177 C 
BRANCH  28  33
ATOM     33  O   UNL     1      50.422  62.962   1.607  1.00  0.00    -0.384 OA
ATOM     34  H   UNL     1      51.181  62.747   2.211  1.00  0.00     0.211 HD
ENDBRANCH  28  33
BRANCH  30  35
ATOM     35  O   UNL     1      47.769  63.383   0.609  1.00  0.00    -0.387 OA
ATOM     36  H   UNL     1      47.535  64.329   0.804  1.00  0.00     0.211 HD
ENDBRANCH  30  35
BRANCH  31  37
ATOM     37  C   UNL     1      46.963  61.135   4.636  1.00  0.00     0.191 C 
BRANCH  37  38
ATOM     38  O   UNL     1      47.581  60.769   5.836  1.00  0.00    -0.394 OA
ATOM     39  H   UNL     1      48.391  61.339   5.915  1.00  0.00     0.210 HD
ENDBRANCH  37  38
ENDBRANCH  31  37
BRANCH  32  40
ATOM     40  O   UNL     1      46.433  64.353   2.756  1.00  0.00    -0.387 OA
ATOM     41  H   UNL     1      46.415  64.624   1.802  1.00  0.00     0.211 HD
ENDBRANCH  32  40
ENDBRANCH   1  27
TORSDOF 12
ENDMDL
MODEL 3
REMARK VINA RESULT:    -8.732      1.682      4.974
REMARK INTER + INTRA:         -14.213
REMARK INTER:                 -13.317
REMARK INTRA:                  -0.895
REMARK UNBOUND:                -1.396
REMARK SMILES O=c1c(O[C@@H]2O[C@H](CO)[C@@H](O)[C@@H](O)[C@@H]2O)c(-c2ccc(O)c(O)c2)oc2cc(O)cc(O)c12
REMARK SMILES IDX 4 1 3 2 16 3 25 4 2 5 26 6 1 7 33 8 27 9 31 10 28 11 30 12
REMARK SMILES IDX 17 13 18 14 19 15 20 16 24 17 22 18 21 19 23 21 32 23 29 25
REMARK SMILES IDX 5 27 14 28 6 29 12 30 7 31 10 32 15 33 13 35 8 37 9 38 11 40
REMARK H PARENT 21 20 23 22 32 24 29 26 15 34 13 36 9 39 11 41
REMARK Flexibility Score: inf
ROOT
ATOM      1  O   UNL     1      51.844  60.019   5.501  1.00  0.00    -0.454 OA
ENDROOT
BRANCH   1   2
ATOM      2  C   UNL     1      51.813  60.099   4.098  1.00  0.00     0.214 A 
ATOM      3  C   UNL     1      50.757  60.797   3.478  1.00  0.00     0.180 A 
ATOM      4  O   UNL     1      50.726  60.918   2.154  1.00  0.00    -0.452 OA
ATOM      5  C   UNL     1      52.806  59.519   3.285  1.00  0.00     0.239 A 
ATOM      6  C   UNL     1      51.643  60.394   1.351  1.00  0.00     0.146 A 
ATOM      7  O   UNL     1      53.745  58.864   3.808  1.00  0.00    -0.285 OA
ATOM      8  C   UNL     1      52.731  59.664   1.882  1.00  0.00     0.111 A 
ATOM      9  C   UNL     1      51.519  60.572  -0.030  1.00  0.00     0.094 A 
ATOM     10  C   UNL     1      53.690  59.115   0.995  1.00  0.00     0.134 A 
ATOM     11  C   UNL     1      52.470  60.028  -0.900  1.00  0.00     0.123 A 
ATOM     12  C   UNL     1      53.547  59.304  -0.387  1.00  0.00     0.093 A 
BRANCH   3  13
ATOM     13  C   UNL     1      49.690  61.462   4.261  1.00  0.00     0.025 A 
ATOM     14  C   UNL     1      49.136  60.803   5.369  1.00  0.00     0.016 A 
ATOM     15  C   UNL     1      48.122  61.406   6.117  1.00  0.00     0.051 A 
ATOM     16  C   UNL     1      47.653  62.679   5.776  1.00  0.00     0.157 A 
ATOM     17  C   UNL     1      49.237  62.752   3.938  1.00  0.00     0.062 A 
ATOM     18  C   UNL     1      48.215  63.358   4.682  1.00  0.00     0.158 A 
BRANCH  16  19
ATOM     19  O   UNL     1      46.634  63.253   6.535  1.00  0.00    -0.504 OA
ATOM     20  H   UNL     1      46.009  62.697   7.105  1.00  0.00     0.293 HD
ENDBRANCH  16  19
BRANCH  18  21
ATOM     21  O   UNL     1      47.760  64.631   4.340  1.00  0.00    -0.504 OA
ATOM     22  H   UNL     1      47.376  64.827   3.423  1.00  0.00     0.293 HD
ENDBRANCH  18  21
ENDBRANCH   3  13
BRANCH  10  23
ATOM     23  O   UNL     1      54.780  58.387   1.475  1.00  0.00    -0.507 OA
ATOM     24  H   UNL     1      54.658  57.550   2.033  1.00  0.00     0.293 HD
ENDBRANCH  10  23
BRANCH  11  25
ATOM     25  O   UNL     1      52.351  60.201  -2.277  1.00  0.00    -0.508 OA
ATOM     26  H   UNL     1      52.631  59.476  -2.929  1.00  0.00     0.293 HD
ENDBRANCH  11  25
ENDBRANCH   1   2
BRANCH   1  27
ATOM     27  C   UNL     1      52.982  60.305   6.319  1.00  0.00     0.339 C 
ATOM     28  C   UNL     1      52.710  61.538   7.193  1.00  0.00     0.214 C 
ATOM     29  O   UNL     1      53.386  59.178   7.082  1.00  0.00    -0.332 OA
ATOM     30  C   UNL     1      51.635  61.220   8.237  1.00  0.00     0.180 C 
ATOM     31  C   UNL     1      52.472  58.787   8.100  1.00  0.00     0.179 C 
ATOM     32  C   UNL     1      52.013  59.950   9.027  1.00  0.00     0.177 C 
BRANCH  28  33
ATOM     33  O   UNL     1      52.287  62.598   6.373  1.00  0.00    -0.384 OA
ATOM     34  H   UNL     1      53.100  62.975   5.944  1.00  0.00     0.211 HD
ENDBRANCH  28  33
BRANCH  30  35
ATOM     35  O   UNL     1      51.493  62.310   9.112  1.00  0.00    -0.387 OA
ATOM     36  H   UNL     1      50.734  62.095   9.715  1.00  0.00     0.211 HD
ENDBRANCH  30  35
BRANCH  31  37
ATOM     37  C   UNL     1      51.329  57.893   7.567  1.00  0.00     0.191 C 
BRANCH  37  38
ATOM     38  O   UNL     1      51.704  57.202   6.410  1.00  0.00    -0.394 OA
ATOM     39  H   UNL     1      50.874  57.087   5.877  1.00  0.00     0.210 HD
ENDBRANCH  37  38
ENDBRANCH  31  37
BRANCH  32  40
ATOM     40  O   UNL     1      52.999  60.238   9.992  1.00  0.00    -0.387 OA
ATOM     41  H   UNL     1      53.351  61.148   9.810  1.00  0.00     0.211 HD
ENDBRANCH  32  40
ENDBRANCH   1  27
TORSDOF 12
ENDMDL
MODEL 4
REMARK VINA RESULT:    -8.708      2.154      5.973
REMARK INTER + INTRA:         -14.177
REMARK INTER:                 -12.788
REMARK INTRA:                  -1.389
REMARK UNBOUND:                -1.396
REMARK SMILES O=c1c(O[C@@H]2O[C@H](CO)[C@@H](O)[C@@H](O)[C@@H]2O)c(-c2ccc(O)c(O)c2)oc2cc(O)cc(O)c12
REMARK SMILES IDX 4 1 3 2 16 3 25 4 2 5 26 6 1 7 33 8 27 9 31 10 28 11 30 12
REMARK SMILES IDX 17 13 18 14 19 15 20 16 24 17 22 18 21 19 23 21 32 23 29 25
REMARK SMILES IDX 5 27 14 28 6 29 12 30 7 31 10 32 15 33 13 35 8 37 9 38 11 40
REMARK H PARENT 21 20 23 22 32 24 29 26 15 34 13 36 9 39 11 41
REMARK Flexibility Score: inf
ROOT
ATOM      1  O   UNL     1      50.327  62.271   3.190  1.00  0.00    -0.454 OA
ENDROOT
BRANCH   1   2
ATOM      2  C   UNL     1      51.243  61.371   3.762  1.00  0.00     0.214 A 
ATOM      3  C   UNL     1      51.810  60.366   2.951  1.00  0.00     0.180 A 
ATOM      4  O   UNL     1      52.706  59.526   3.460  1.00  0.00    -0.452 OA
ATOM      5  C   UNL     1      51.629  61.440   5.114  1.00  0.00     0.239 A 
ATOM      6  C   UNL     1      53.102  59.561   4.726  1.00  0.00     0.146 A 
ATOM      7  O   UNL     1      51.118  62.307   5.871  1.00  0.00    -0.285 OA
ATOM      8  C   UNL     1      52.578  60.524   5.617  1.00  0.00     0.111 A 
ATOM      9  C   UNL     1      54.047  58.630   5.168  1.00  0.00     0.094 A 
ATOM     10  C   UNL     1      53.022  60.529   6.963  1.00  0.00     0.134 A 
ATOM     11  C   UNL     1      54.481  58.641   6.497  1.00  0.00     0.123 A 
ATOM     12  C   UNL     1      53.969  59.586   7.387  1.00  0.00     0.093 A 
BRANCH   3  13
ATOM     13  C   UNL     1      51.482  60.242   1.512  1.00  0.00     0.025 A 
ATOM     14  C   UNL     1      50.486  59.340   1.108  1.00  0.00     0.016 A 
ATOM     15  C   UNL     1      50.166  59.199  -0.245  1.00  0.00     0.051 A 
ATOM     16  C   UNL     1      50.827  59.963  -1.212  1.00  0.00     0.157 A 
ATOM     17  C   UNL     1      52.124  61.029   0.541  1.00  0.00     0.062 A 
ATOM     18  C   UNL     1      51.810  60.886  -0.817  1.00  0.00     0.158 A 
BRANCH  16  19
ATOM     19  O   UNL     1      50.493  59.795  -2.556  1.00  0.00    -0.504 OA
ATOM     20  H   UNL     1      49.727  60.298  -2.986  1.00  0.00     0.293 HD
ENDBRANCH  16  19
BRANCH  18  21
ATOM     21  O   UNL     1      52.469  61.658  -1.774  1.00  0.00    -0.504 OA
ATOM     22  H   UNL     1      53.472  61.799  -1.742  1.00  0.00     0.293 HD
ENDBRANCH  18  21
ENDBRANCH   3  13
BRANCH  10  23
ATOM     23  O   UNL     1      52.531  61.462   7.879  1.00  0.00    -0.507 OA
ATOM     24  H   UNL     1      52.650  62.458   7.740  1.00  0.00     0.293 HD
ENDBRANCH  10  23
BRANCH  11  25
ATOM     25  O   UNL     1      55.421  57.715   6.943  1.00  0.00    -0.508 OA
ATOM     26  H   UNL     1      56.392  57.764   6.654  1.00  0.00     0.293 HD
ENDBRANCH  11  25
ENDBRANCH   1   2
BRANCH   1  27
ATOM     27  C   UNL     1      48.931  62.025   3.011  1.00  0.00     0.339 C 
ATOM     28  C   UNL     1      48.107  62.982   3.885  1.00  0.00     0.214 C 
ATOM     29  O   UNL     1      48.551  62.076   1.644  1.00  0.00    -0.332 OA
ATOM     30  C   UNL     1      48.249  64.419   3.373  1.00  0.00     0.180 C 
ATOM     31  C   UNL     1      48.628  63.368   1.052  1.00  0.00     0.179 C 
ATOM     32  C   UNL     1      47.920  64.488   1.867  1.00  0.00     0.177 C 
BRANCH  28  33
ATOM     33  O   UNL     1      48.560  62.897   5.213  1.00  0.00    -0.384 OA
ATOM     34  H   UNL     1      48.088  62.130   5.631  1.00  0.00     0.211 HD
ENDBRANCH  28  33
BRANCH  30  35
ATOM     35  O   UNL     1      47.389  65.262   4.096  1.00  0.00    -0.387 OA
ATOM     36  H   UNL     1      46.482  64.862   4.038  1.00  0.00     0.211 HD
ENDBRANCH  30  35
BRANCH  31  37
ATOM     37  C   UNL     1      50.053  63.720   0.568  1.00  0.00     0.191 C 
BRANCH  37  38
ATOM     38  O   UNL     1      50.405  65.033   0.896  1.00  0.00    -0.394 OA
ATOM     39  H   UNL     1      51.355  65.139   0.626  1.00  0.00     0.210 HD
ENDBRANCH  37  38
ENDBRANCH  31  37
BRANCH  32  40
ATOM     40  O   UNL     1      46.526  64.451   1.660  1.00  0.00    -0.387 OA
ATOM     41  H   UNL     1      46.174  65.373   1.768  1.00  0.00     0.211 HD
ENDBRANCH  32  40
ENDBRANCH   1  27
TORSDOF 12
ENDMDL
MODEL 5
REMARK VINA RESULT:    -8.703      1.092      2.190
REMARK INTER + INTRA:         -14.170
REMARK INTER:                 -12.762
REMARK INTRA:                  -1.408
REMARK UNBOUND:                -1.396
REMARK SMILES O=c1c(O[C@@H]2O[C@H](CO)[C@@H](O)[C@@H](O)[C@@H]2O)c(-c2ccc(O)c(O)c2)oc2cc(O)cc(O)c12
REMARK SMILES IDX 4 1 3 2 16 3 25 4 2 5 26 6 1 7 33 8 27 9 31 10 28 11 30 12
REMARK SMILES IDX 17 13 18 14 19 15 20 16 24 17 22 18 21 19 23 21 32 23 29 25
REMARK SMILES IDX 5 27 14 28 6 29 12 30 7 31 10 32 15 33 13 35 8 37 9 38 11 40
REMARK H PARENT 21 20 23 22 32 24 29 26 15 34 13 36 9 39 11 41
REMARK Flexibility Score: inf
ROOT
ATOM      1  O   UNL     1      49.665  61.801   3.454  1.00  0.00    -0.454 OA
ENDROOT
BRANCH   1   2
ATOM      2  C   UNL     1      50.694  61.086   2.816  1.00  0.00     0.214 A 
ATOM      3  C   UNL     1      51.716  60.514   3.602  1.00  0.00     0.180 A 
ATOM      4  O   UNL     1      52.680  59.803   3.024  1.00  0.00    -0.452 OA
ATOM      5  C   UNL     1      50.738  60.905   1.421  1.00  0.00     0.239 A 
ATOM      6  C   UNL     1      52.755  59.602   1.715  1.00  0.00     0.146 A 
ATOM      7  O   UNL     1      49.857  61.429   0.690  1.00  0.00    -0.285 OA
ATOM      8  C   UNL     1      51.783  60.149   0.847  1.00  0.00     0.111 A 
ATOM      9  C   UNL     1      53.811  58.842   1.204  1.00  0.00     0.094 A 
ATOM     10  C   UNL     1      51.897  59.918  -0.546  1.00  0.00     0.134 A 
ATOM     11  C   UNL     1      53.917  58.617  -0.173  1.00  0.00     0.123 A 
ATOM     12  C   UNL     1      52.964  59.154  -1.040  1.00  0.00     0.093 A 
BRANCH   3  13
ATOM     13  C   UNL     1      51.729  60.630   5.078  1.00  0.00     0.025 A 
ATOM     14  C   UNL     1      51.838  61.899   5.668  1.00  0.00     0.016 A 
ATOM     15  C   UNL     1      51.861  62.033   7.059  1.00  0.00     0.051 A 
ATOM     16  C   UNL     1      51.766  60.904   7.880  1.00  0.00     0.157 A 
ATOM     17  C   UNL     1      51.605  59.502   5.905  1.00  0.00     0.062 A 
ATOM     18  C   UNL     1      51.634  59.631   7.300  1.00  0.00     0.158 A 
BRANCH  16  19
ATOM     19  O   UNL     1      51.801  61.067   9.264  1.00  0.00    -0.504 OA
ATOM     20  H   UNL     1      51.259  61.781   9.736  1.00  0.00     0.293 HD
ENDBRANCH  16  19
BRANCH  18  21
ATOM     21  O   UNL     1      51.530  58.502   8.111  1.00  0.00    -0.504 OA
ATOM     22  H   UNL     1      50.913  58.481   8.914  1.00  0.00     0.293 HD
ENDBRANCH  18  21
ENDBRANCH   3  13
BRANCH  10  23
ATOM     23  O   UNL     1      50.960  60.439  -1.441  1.00  0.00    -0.507 OA
ATOM     24  H   UNL     1      50.165  59.897  -1.755  1.00  0.00     0.293 HD
ENDBRANCH  10  23
BRANCH  11  25
ATOM     25  O   UNL     1      54.968  57.862  -0.688  1.00  0.00    -0.508 OA
ATOM     26  H   UNL     1      55.913  58.227  -0.730  1.00  0.00     0.293 HD
ENDBRANCH  11  25
ENDBRANCH   1   2
BRANCH   1  27
ATOM     27  C   UNL     1      48.278  61.460   3.416  1.00  0.00     0.339 C 
ATOM     28  C   UNL     1      47.689  61.470   4.834  1.00  0.00     0.214 C 
ATOM     29  O   UNL     1      47.550  62.289   2.521  1.00  0.00    -0.332 OA
ATOM     30  C   UNL     1      47.654  62.901   5.382  1.00  0.00     0.180 C 
ATOM     31  C   UNL     1      47.435  63.648   2.926  1.00  0.00     0.179 C 
ATOM     32  C   UNL     1      46.939  63.839   4.388  1.00  0.00     0.177 C 
BRANCH  28  33
ATOM     33  O   UNL     1      48.477  60.656   5.664  1.00  0.00    -0.384 OA
ATOM     34  H   UNL     1      48.698  61.191   6.471  1.00  0.00     0.211 HD
ENDBRANCH  28  33
BRANCH  30  35
ATOM     35  O   UNL     1      46.994  62.913   6.622  1.00  0.00    -0.387 OA
ATOM     36  H   UNL     1      47.385  62.176   7.160  1.00  0.00     0.211 HD
ENDBRANCH  30  35
BRANCH  31  37
ATOM     37  C   UNL     1      48.673  64.492   2.546  1.00  0.00     0.191 C 
BRANCH  37  38
ATOM     38  O   UNL     1      49.211  64.105   1.315  1.00  0.00    -0.394 OA
ATOM     39  H   UNL     1      50.061  63.635   1.520  1.00  0.00     0.210 HD
ENDBRANCH  37  38
ENDBRANCH  31  37
BRANCH  32  40
ATOM     40  O   UNL     1      45.541  63.674   4.466  1.00  0.00    -0.387 OA
ATOM     41  H   UNL     1      45.243  63.993   5.358  1.00  0.00     0.211 HD
ENDBRANCH  32  40
ENDBRANCH   1  27
TORSDOF 12
ENDMDL
MODEL 6
REMARK VINA RESULT:    -8.681      1.930      6.831
REMARK INTER + INTRA:         -14.137
REMARK INTER:                 -13.233
REMARK INTRA:                  -0.904
REMARK UNBOUND:                -1.396
REMARK SMILES O=c1c(O[C@@H]2O[C@H](CO)[C@@H](O)[C@@H](O)[C@@H]2O)c(-c2ccc(O)c(O)c2)oc2cc(O)cc(O)c12
REMARK SMILES IDX 4 1 3 2 16 3 25 4 2 5 26 6 1 7 33 8 27 9 31 10 28 11 30 12
REMARK SMILES IDX 17 13 18 14 19 15 20 16 24 17 22 18 21 19 23 21 32 23 29 25
REMARK SMILES IDX 5 27 14 28 6 29 12 30 7 31 10 32 15 33 13 35 8 37 9 38 11 40
REMARK H PARENT 21 20 23 22 32 24 29 26 15 34 13 36 9 39 11 41
REMARK Flexibility Score: inf
ROOT
ATOM      1  O   UNL     1      51.946  60.330   1.532  1.00  0.00    -0.454 OA
ENDROOT
BRANCH   1   2
ATOM      2  C   UNL     1      51.883  60.334   2.936  1.00  0.00     0.214 A 
ATOM      3  C   UNL     1      50.869  61.079   3.572  1.00  0.00     0.180 A 
ATOM      4  O   UNL     1      50.768  61.068   4.898  1.00  0.00    -0.452 OA
ATOM      5  C   UNL     1      52.787  59.608   3.736  1.00  0.00     0.239 A 
ATOM      6  C   UNL     1      51.592  60.394   5.688  1.00  0.00     0.146 A 
ATOM      7  O   UNL     1      53.721  58.958   3.199  1.00  0.00    -0.285 OA
ATOM      8  C   UNL     1      52.648  59.630   5.141  1.00  0.00     0.111 A 
ATOM      9  C   UNL     1      51.405  60.450   7.072  1.00  0.00     0.094 A 
ATOM     10  C   UNL     1      53.513  58.925   6.015  1.00  0.00     0.134 A 
ATOM     11  C   UNL     1      52.262  59.751   7.930  1.00  0.00     0.123 A 
ATOM     12  C   UNL     1      53.309  58.995   7.401  1.00  0.00     0.093 A 
BRANCH   3  13
ATOM     13  C   UNL     1      49.860  61.844   2.805  1.00  0.00     0.025 A 
ATOM     14  C   UNL     1      50.263  62.578   1.678  1.00  0.00     0.016 A 
ATOM     15  C   UNL     1      49.330  63.315   0.944  1.00  0.00     0.051 A 
ATOM     16  C   UNL     1      47.982  63.324   1.318  1.00  0.00     0.157 A 
ATOM     17  C   UNL     1      48.501  61.832   3.161  1.00  0.00     0.062 A 
ATOM     18  C   UNL     1      47.564  62.575   2.431  1.00  0.00     0.158 A 
BRANCH  16  19
ATOM     19  O   UNL     1      47.075  64.075   0.571  1.00  0.00    -0.504 OA
ATOM     20  H   UNL     1      46.143  63.740   0.362  1.00  0.00     0.293 HD
ENDBRANCH  16  19
BRANCH  18  21
ATOM     21  O   UNL     1      46.221  62.570   2.805  1.00  0.00    -0.504 OA
ATOM     22  H   UNL     1      45.561  61.916   2.402  1.00  0.00     0.293 HD
ENDBRANCH  18  21
ENDBRANCH   3  13
BRANCH  10  23
ATOM     23  O   UNL     1      54.569  58.158   5.519  1.00  0.00    -0.507 OA
ATOM     24  H   UNL     1      54.443  57.192   5.245  1.00  0.00     0.293 HD
ENDBRANCH  10  23
BRANCH  11  25
ATOM     25  O   UNL     1      52.081  59.804   9.310  1.00  0.00    -0.508 OA
ATOM     26  H   UNL     1      51.914  58.965   9.855  1.00  0.00     0.293 HD
ENDBRANCH  11  25
ENDBRANCH   1   2
BRANCH   1  27
ATOM     27  C   UNL     1      52.053  59.163   0.714  1.00  0.00     0.339 C 
ATOM     28  C   UNL     1      50.814  59.030  -0.185  1.00  0.00     0.214 C 
ATOM     29  O   UNL     1      53.264  59.140  -0.027  1.00  0.00    -0.332 OA
ATOM     30  C   UNL     1      50.794  60.153  -1.227  1.00  0.00     0.180 C 
ATOM     31  C   UNL     1      53.363  60.133  -1.041  1.00  0.00     0.179 C 
ATOM     32  C   UNL     1      52.133  60.201  -1.991  1.00  0.00     0.177 C 
BRANCH  28  33
ATOM     33  O   UNL     1      49.659  59.091   0.613  1.00  0.00    -0.384 OA
ATOM     34  H   UNL     1      48.881  58.995   0.004  1.00  0.00     0.211 HD
ENDBRANCH  28  33
BRANCH  30  35
ATOM     35  O   UNL     1      49.731  59.942  -2.122  1.00  0.00    -0.387 OA
ATOM     36  H   UNL     1      50.136  59.660  -2.984  1.00  0.00     0.211 HD
ENDBRANCH  30  35
BRANCH  31  37
ATOM     37  C   UNL     1      53.836  61.500  -0.495  1.00  0.00     0.191 C 
BRANCH  37  38
ATOM     38  O   UNL     1      54.617  61.360   0.657  1.00  0.00    -0.394 OA
ATOM     39  H   UNL     1      54.731  62.275   1.025  1.00  0.00     0.210 HD
ENDBRANCH  37  38
ENDBRANCH  31  37
BRANCH  32  40
ATOM     40  O   UNL     1      52.192  59.176  -2.957  1.00  0.00    -0.387 OA
ATOM     41  H   UNL     1      51.877  59.550  -3.821  1.00  0.00     0.211 HD
ENDBRANCH  32  40
ENDBRANCH   1  27
TORSDOF 12
ENDMDL
MODEL 7
REMARK VINA RESULT:    -8.539      1.308      1.700
REMARK INTER + INTRA:         -13.928
REMARK INTER:                 -12.802
REMARK INTRA:                  -1.126
REMARK UNBOUND:                -1.396
REMARK SMILES O=c1c(O[C@@H]2O[C@H](CO)[C@@H](O)[C@@H](O)[C@@H]2O)c(-c2ccc(O)c(O)c2)oc2cc(O)cc(O)c12
REMARK SMILES IDX 4 1 3 2 16 3 25 4 2 5 26 6 1 7 33 8 27 9 31 10 28 11 30 12
REMARK SMILES IDX 17 13 18 14 19 15 20 16 24 17 22 18 21 19 23 21 32 23 29 25
REMARK SMILES IDX 5 27 14 28 6 29 12 30 7 31 10 32 15 33 13 35 8 37 9 38 11 40
REMARK H PARENT 21 20 23 22 32 24 29 26 15 34 13 36 9 39 11 41
REMARK Flexibility Score: inf
ROOT
ATOM      1  O   UNL     1      50.204  60.538   3.870  1.00  0.00    -0.454 OA
ENDROOT
BRANCH   1   2
ATOM      2  C   UNL     1      51.244  60.041   3.065  1.00  0.00     0.214 A 
ATOM      3  C   UNL     1      52.423  59.576   3.683  1.00  0.00     0.180 A 
ATOM      4  O   UNL     1      53.405  59.068   2.945  1.00  0.00    -0.452 OA
ATOM      5  C   UNL     1      51.150  59.977   1.662  1.00  0.00     0.239 A 
ATOM      6  C   UNL     1      53.355  58.982   1.622  1.00  0.00     0.146 A 
ATOM      7  O   UNL     1      50.123  60.413   1.079  1.00  0.00    -0.285 OA
ATOM      8  C   UNL     1      52.220  59.437   0.915  1.00  0.00     0.111 A 
ATOM      9  C   UNL     1      54.443  58.435   0.935  1.00  0.00     0.094 A 
ATOM     10  C   UNL     1      52.202  59.333  -0.498  1.00  0.00     0.134 A 
ATOM     11  C   UNL     1      54.419  58.335  -0.460  1.00  0.00     0.123 A 
ATOM     12  C   UNL     1      53.304  58.784  -1.169  1.00  0.00     0.093 A 
BRANCH   3  13
ATOM     13  C   UNL     1      52.591  59.579   5.154  1.00  0.00     0.025 A 
ATOM     14  C   UNL     1      52.284  58.422   5.886  1.00  0.00     0.016 A 
ATOM     15  C   UNL     1      52.425  58.404   7.276  1.00  0.00     0.051 A 
ATOM     16  C   UNL     1      52.884  59.538   7.954  1.00  0.00     0.157 A 
ATOM     17  C   UNL     1      53.079  60.707   5.836  1.00  0.00     0.062 A 
ATOM     18  C   UNL     1      53.216  60.696   7.230  1.00  0.00     0.158 A 
BRANCH  16  19
ATOM     19  O   UNL     1      53.007  59.496   9.343  1.00  0.00    -0.504 OA
ATOM     20  H   UNL     1      53.442  60.244   9.867  1.00  0.00     0.293 HD
ENDBRANCH  16  19
BRANCH  18  21
ATOM     21  O   UNL     1      53.683  61.828   7.898  1.00  0.00    -0.504 OA
ATOM     22  H   UNL     1      54.309  61.754   8.690  1.00  0.00     0.293 HD
ENDBRANCH  18  21
ENDBRANCH   3  13
BRANCH  10  23
ATOM     23  O   UNL     1      51.102  59.771  -1.238  1.00  0.00    -0.507 OA
ATOM     24  H   UNL     1      50.174  59.391  -1.089  1.00  0.00     0.293 HD
ENDBRANCH  10  23
BRANCH  11  25
ATOM     25  O   UNL     1      55.500  57.793  -1.150  1.00  0.00    -0.508 OA
ATOM     26  H   UNL     1      56.236  58.379  -1.530  1.00  0.00     0.293 HD
ENDBRANCH  11  25
ENDBRANCH   1   2
BRANCH   1  27
ATOM     27  C   UNL     1      49.908  61.921   4.074  1.00  0.00     0.339 C 
ATOM     28  C   UNL     1      48.500  62.245   3.550  1.00  0.00     0.214 C 
ATOM     29  O   UNL     1      50.086  62.311   5.428  1.00  0.00    -0.332 OA
ATOM     30  C   UNL     1      47.442  61.557   4.420  1.00  0.00     0.180 C 
ATOM     31  C   UNL     1      49.151  61.746   6.339  1.00  0.00     0.179 C 
ATOM     32  C   UNL     1      47.664  61.901   5.907  1.00  0.00     0.177 C 
BRANCH  28  33
ATOM     33  O   UNL     1      48.392  61.804   2.221  1.00  0.00    -0.384 OA
ATOM     34  H   UNL     1      48.775  62.518   1.647  1.00  0.00     0.211 HD
ENDBRANCH  28  33
BRANCH  30  35
ATOM     35  O   UNL     1      46.162  61.967   4.012  1.00  0.00    -0.387 OA
ATOM     36  H   UNL     1      45.560  61.188   4.137  1.00  0.00     0.211 HD
ENDBRANCH  30  35
BRANCH  31  37
ATOM     37  C   UNL     1      49.548  60.325   6.798  1.00  0.00     0.191 C 
BRANCH  37  38
ATOM     38  O   UNL     1      48.472  59.644   7.377  1.00  0.00    -0.394 OA
ATOM     39  H   UNL     1      48.612  58.682   7.173  1.00  0.00     0.210 HD
ENDBRANCH  37  38
ENDBRANCH  31  37
BRANCH  32  40
ATOM     40  O   UNL     1      47.193  63.198   6.194  1.00  0.00    -0.387 OA
ATOM     41  H   UNL     1      47.948  63.724   6.566  1.00  0.00     0.211 HD
ENDBRANCH  32  40
ENDBRANCH   1  27
TORSDOF 12
ENDMDL
MODEL 8
REMARK VINA RESULT:    -8.356      1.697      5.095
REMARK INTER + INTRA:         -13.660
REMARK INTER:                 -12.293
REMARK INTRA:                  -1.367
REMARK UNBOUND:                -1.396
REMARK SMILES O=c1c(O[C@@H]2O[C@H](CO)[C@@H](O)[C@@H](O)[C@@H]2O)c(-c2ccc(O)c(O)c2)oc2cc(O)cc(O)c12
REMARK SMILES IDX 4 1 3 2 16 3 25 4 2 5 26 6 1 7 33 8 27 9 31 10 28 11 30 12
REMARK SMILES IDX 17 13 18 14 19 15 20 16 24 17 22 18 21 19 23 21 32 23 29 25
REMARK SMILES IDX 5 27 14 28 6 29 12 30 7 31 10 32 15 33 13 35 8 37 9 38 11 40
REMARK H PARENT 21 20 23 22 32 24 29 26 15 34 13 36 9 39 11 41
REMARK Flexibility Score: inf
ROOT
ATOM      1  O   UNL     1      52.380  60.108   4.889  1.00  0.00    -0.454 OA
ENDROOT
BRANCH   1   2
ATOM      2  C   UNL     1      52.142  59.981   3.510  1.00  0.00     0.214 A 
ATOM      3  C   UNL     1      50.953  60.512   2.970  1.00  0.00     0.180 A 
ATOM      4  O   UNL     1      50.723  60.435   1.663  1.00  0.00    -0.452 OA
ATOM      5  C   UNL     1      53.054  59.354   2.639  1.00  0.00     0.239 A 
ATOM      6  C   UNL     1      51.557  59.860   0.807  1.00  0.00     0.146 A 
ATOM      7  O   UNL     1      54.111  58.844   3.095  1.00  0.00    -0.285 OA
ATOM      8  C   UNL     1      52.768  59.288   1.258  1.00  0.00     0.111 A 
ATOM      9  C   UNL     1      51.223  59.827  -0.550  1.00  0.00     0.094 A 
ATOM     10  C   UNL     1      53.634  58.678   0.317  1.00  0.00     0.134 A 
ATOM     11  C   UNL     1      52.083  59.224  -1.475  1.00  0.00     0.123 A 
ATOM     12  C   UNL     1      53.280  58.654  -1.040  1.00  0.00     0.093 A 
BRANCH   3  13
ATOM     13  C   UNL     1      49.955  61.213   3.811  1.00  0.00     0.025 A 
ATOM     14  C   UNL     1      49.996  62.612   3.904  1.00  0.00     0.016 A 
ATOM     15  C   UNL     1      49.071  63.296   4.699  1.00  0.00     0.051 A 
ATOM     16  C   UNL     1      48.088  62.593   5.403  1.00  0.00     0.157 A 
ATOM     17  C   UNL     1      48.949  60.512   4.496  1.00  0.00     0.062 A 
ATOM     18  C   UNL     1      48.024  61.193   5.299  1.00  0.00     0.158 A 
BRANCH  16  19
ATOM     19  O   UNL     1      47.183  63.300   6.195  1.00  0.00    -0.504 OA
ATOM     20  H   UNL     1      47.463  64.103   6.744  1.00  0.00     0.293 HD
ENDBRANCH  16  19
BRANCH  18  21
ATOM     21  O   UNL     1      47.041  60.485   5.990  1.00  0.00    -0.504 OA
ATOM     22  H   UNL     1      47.255  59.974   6.838  1.00  0.00     0.293 HD
ENDBRANCH  18  21
ENDBRANCH   3  13
BRANCH  10  23
ATOM     23  O   UNL     1      54.840  58.100   0.717  1.00  0.00    -0.507 OA
ATOM     24  H   UNL     1      55.436  57.604   0.066  1.00  0.00     0.293 HD
ENDBRANCH  10  23
BRANCH  11  25
ATOM     25  O   UNL     1      51.754  59.187  -2.827  1.00  0.00    -0.508 OA
ATOM     26  H   UNL     1      51.632  60.036  -3.368  1.00  0.00     0.293 HD
ENDBRANCH  11  25
ENDBRANCH   1   2
BRANCH   1  27
ATOM     27  C   UNL     1      52.128  59.096   5.867  1.00  0.00     0.339 C 
ATOM     28  C   UNL     1      53.443  58.658   6.528  1.00  0.00     0.214 C 
ATOM     29  O   UNL     1      51.153  59.503   6.816  1.00  0.00    -0.332 OA
ATOM     30  C   UNL     1      54.010  59.796   7.383  1.00  0.00     0.180 C 
ATOM     31  C   UNL     1      51.566  60.553   7.683  1.00  0.00     0.179 C 
ATOM     32  C   UNL     1      52.942  60.311   8.369  1.00  0.00     0.177 C 
BRANCH  28  33
ATOM     33  O   UNL     1      54.363  58.300   5.528  1.00  0.00    -0.384 OA
ATOM     34  H   UNL     1      55.246  58.662   5.804  1.00  0.00     0.211 HD
ENDBRANCH  28  33
BRANCH  30  35
ATOM     35  O   UNL     1      55.138  59.338   8.084  1.00  0.00    -0.387 OA
ATOM     36  H   UNL     1      55.914  59.439   7.473  1.00  0.00     0.211 HD
ENDBRANCH  30  35
BRANCH  31  37
ATOM     37  C   UNL     1      51.394  61.953   7.051  1.00  0.00     0.191 C 
BRANCH  37  38
ATOM     38  O   UNL     1      52.611  62.481   6.612  1.00  0.00    -0.394 OA
ATOM     39  H   UNL     1      53.157  61.707   6.314  1.00  0.00     0.210 HD
ENDBRANCH  37  38
ENDBRANCH  31  37
BRANCH  32  40
ATOM     40  O   UNL     1      52.807  59.431   9.461  1.00  0.00    -0.387 OA
ATOM     41  H   UNL     1      52.909  58.503   9.124  1.00  0.00     0.211 HD
ENDBRANCH  32  40
ENDBRANCH   1  27
TORSDOF 12
ENDMDL
MODEL 9
REMARK VINA RESULT:    -8.310      2.117      6.081
REMARK INTER + INTRA:         -13.593
REMARK INTER:                 -12.413
REMARK INTRA:                  -1.181
REMARK UNBOUND:                -1.396
REMARK SMILES O=c1c(O[C@@H]2O[C@H](CO)[C@@H](O)[C@@H](O)[C@@H]2O)c(-c2ccc(O)c(O)c2)oc2cc(O)cc(O)c12
REMARK SMILES IDX 4 1 3 2 16 3 25 4 2 5 26 6 1 7 33 8 27 9 31 10 28 11 30 12
REMARK SMILES IDX 17 13 18 14 19 15 20 16 24 17 22 18 21 19 23 21 32 23 29 25
REMARK SMILES IDX 5 27 14 28 6 29 12 30 7 31 10 32 15 33 13 35 8 37 9 38 11 40
REMARK H PARENT 21 20 23 22 32 24 29 26 15 34 13 36 9 39 11 41
REMARK Flexibility Score: inf
ROOT
ATOM      1  O   UNL     1      50.919  61.755   3.102  1.00  0.00    -0.454 OA
ENDROOT
BRANCH   1   2
ATOM      2  C   UNL     1      51.741  60.958   3.918  1.00  0.00     0.214 A 
ATOM      3  C   UNL     1      52.585  60.005   3.313  1.00  0.00     0.180 A 
ATOM      4  O   UNL     1      53.397  59.265   4.062  1.00  0.00    -0.452 OA
ATOM      5  C   UNL     1      51.765  61.084   5.320  1.00  0.00     0.239 A 
ATOM      6  C   UNL     1      53.457  59.356   5.384  1.00  0.00     0.146 A 
ATOM      7  O   UNL     1      51.000  61.905   5.892  1.00  0.00    -0.285 OA
ATOM      8  C   UNL     1      52.637  60.274   6.079  1.00  0.00     0.111 A 
ATOM      9  C   UNL     1      54.342  58.530   6.083  1.00  0.00     0.094 A 
ATOM     10  C   UNL     1      52.723  60.341   7.492  1.00  0.00     0.134 A 
ATOM     11  C   UNL     1      54.423  58.602   7.478  1.00  0.00     0.123 A 
ATOM     12  C   UNL     1      53.616  59.503   8.175  1.00  0.00     0.093 A 
BRANCH   3  13
ATOM     13  C   UNL     1      52.644  59.830   1.844  1.00  0.00     0.025 A 
ATOM     14  C   UNL     1      53.673  60.448   1.117  1.00  0.00     0.016 A 
ATOM     15  C   UNL     1      53.743  60.306  -0.271  1.00  0.00     0.051 A 
ATOM     16  C   UNL     1      52.794  59.536  -0.952  1.00  0.00     0.157 A 
ATOM     17  C   UNL     1      51.709  59.034   1.160  1.00  0.00     0.062 A 
ATOM     18  C   UNL     1      51.773  58.893  -0.232  1.00  0.00     0.158 A 
BRANCH  16  19
ATOM     19  O   UNL     1      52.884  59.417  -2.339  1.00  0.00    -0.504 OA
ATOM     20  H   UNL     1      53.666  59.794  -2.861  1.00  0.00     0.293 HD
ENDBRANCH  16  19
BRANCH  18  21
ATOM     21  O   UNL     1      50.828  58.117  -0.902  1.00  0.00    -0.504 OA
ATOM     22  H   UNL     1      51.066  57.600  -1.740  1.00  0.00     0.293 HD
ENDBRANCH  18  21
ENDBRANCH   3  13
BRANCH  10  23
ATOM     23  O   UNL     1      51.932  61.232   8.219  1.00  0.00    -0.507 OA
ATOM     24  H   UNL     1      51.502  62.040   7.785  1.00  0.00     0.293 HD
ENDBRANCH  10  23
BRANCH  11  25
ATOM     25  O   UNL     1      55.302  57.781   8.180  1.00  0.00    -0.508 OA
ATOM     26  H   UNL     1      55.011  56.881   8.545  1.00  0.00     0.293 HD
ENDBRANCH  11  25
ENDBRANCH   1   2
BRANCH   1  27
ATOM     27  C   UNL     1      49.525  61.537   2.871  1.00  0.00     0.339 C 
ATOM     28  C   UNL     1      48.709  62.731   3.388  1.00  0.00     0.214 C 
ATOM     29  O   UNL     1      49.250  61.240   1.510  1.00  0.00    -0.332 OA
ATOM     30  C   UNL     1      48.987  63.971   2.531  1.00  0.00     0.180 C 
ATOM     31  C   UNL     1      49.459  62.321   0.610  1.00  0.00     0.179 C 
ATOM     32  C   UNL     1      48.773  63.651   1.038  1.00  0.00     0.177 C 
BRANCH  28  33
ATOM     33  O   UNL     1      49.057  62.982   4.725  1.00  0.00    -0.384 OA
ATOM     34  H   UNL     1      48.588  62.304   5.279  1.00  0.00     0.211 HD
ENDBRANCH  28  33
BRANCH  30  35
ATOM     35  O   UNL     1      48.138  65.016   2.930  1.00  0.00    -0.387 OA
ATOM     36  H   UNL     1      47.592  64.669   3.683  1.00  0.00     0.211 HD
ENDBRANCH  30  35
BRANCH  31  37
ATOM     37  C   UNL     1      50.936  62.463   0.178  1.00  0.00     0.191 C 
BRANCH  37  38
ATOM     38  O   UNL     1      51.168  63.664  -0.501  1.00  0.00    -0.394 OA
ATOM     39  H   UNL     1      51.664  64.247   0.131  1.00  0.00     0.210 HD
ENDBRANCH  37  38
ENDBRANCH  31  37
BRANCH  32  40
ATOM     40  O   UNL     1      47.399  63.627   0.725  1.00  0.00    -0.387 OA
ATOM     41  H   UNL     1      47.258  64.182  -0.085  1.00  0.00     0.211 HD
ENDBRANCH  32  40
ENDBRANCH   1  27
TORSDOF 12
ENDMDL
