MODEL 1
REMARK VINA RESULT:    -7.119      0.000      0.000
REMARK INTER + INTRA:          -7.673
REMARK INTER:                  -7.743
REMARK INTRA:                   0.070
REMARK UNBOUND:                 0.070
REMARK SMILES C[C@H]1[C@H]2C3=CC[C@@H]4[C@@]5(C)CC[C@@H](O)C(C)(C)[C@H]5CC[C@]4(C)[C@]3(C)CC[C@@]2(C(=O)[O-])CC[C@@H]1C
REMARK SMILES IDX 26 1 30 2 25 3 3 4 31 5 24 6 4 7 2 8 32 9 22 10 5 11 1 12
REMARK SMILES IDX 33 13 23 14 20 15 6 16 7 17 19 18 21 19 8 20 18 21 17 22
REMARK SMILES IDX 10 23 9 24 14 25 11 26 12 27 15 28 16 29 27 30 28 31 29 32
REMARK SMILES IDX 13 33
REMARK H PARENT 13 34
REMARK Flexibility Score: inf
ROOT
ATOM      1  C   UNL     1       4.752  42.479   8.552  1.00  0.00     0.017 C 
ATOM      2  C   UNL     1       3.680  42.350   9.678  1.00  0.00     0.014 C 
ATOM      3  C   UNL     1       5.384  41.076   8.267  1.00  0.00     0.014 C 
ATOM      4  C   UNL     1       5.826  43.517   9.028  1.00  0.00     0.030 C 
ATOM      5  C   UNL     1       3.012  43.690  10.029  1.00  0.00     0.004 C 
ATOM      6  C   UNL     1       6.914  41.017   8.424  1.00  0.00     0.013 C 
ATOM      7  C   UNL     1       6.764  42.890  10.094  1.00  0.00    -0.063 C 
ATOM      8  C   UNL     1       5.136  44.897   9.340  1.00  0.00    -0.003 C 
ATOM      9  C   UNL     1       4.042  44.766  10.438  1.00  0.00    -0.011 C 
ATOM     10  C   UNL     1       7.426  41.538   9.816  1.00  0.00    -0.006 C 
ATOM     11  C   UNL     1       7.190  43.578  11.163  1.00  0.00    -0.027 C 
ATOM     12  C   UNL     1       6.131  46.066   9.545  1.00  0.00     0.008 C 
ATOM     13  C   UNL     1       3.310  46.096  10.682  1.00  0.00     0.008 C 
ATOM     14  C   UNL     1       6.937  40.522  10.896  1.00  0.00     0.017 C 
ATOM     15  C   UNL     1       9.029  41.707   9.895  1.00  0.00    -0.020 C 
ATOM     16  C   UNL     1       8.452  43.275  11.918  1.00  0.00     0.032 C 
ATOM     17  C   UNL     1       9.450  42.192  11.349  1.00  0.00     0.006 C 
ATOM     18  C   UNL     1       9.516  42.794   8.893  1.00  0.00     0.008 C 
ATOM     19  C   UNL     1       9.702  40.332   9.554  1.00  0.00     0.012 C 
ATOM     20  C   UNL     1      10.982  42.642  11.569  1.00  0.00    -0.025 C 
ATOM     21  C   UNL     1      10.991  43.183   9.038  1.00  0.00     0.005 C 
ATOM     22  C   UNL     1      11.414  43.679  10.456  1.00  0.00     0.003 C 
ATOM     23  C   UNL     1      11.970  41.429  11.549  1.00  0.00     0.010 C 
ATOM     24  C   UNL     1      11.072  43.248  13.020  1.00  0.00     0.012 C 
ATOM     25  C   UNL     1      12.963  44.080  10.493  1.00  0.00    -0.006 C 
ATOM     26  C   UNL     1      13.459  41.817  11.659  1.00  0.00     0.033 C 
ATOM     27  C   UNL     1      13.891  42.820  10.574  1.00  0.00     0.120 C 
ATOM     28  C   UNL     1      13.269  45.027  11.691  1.00  0.00     0.014 C 
ATOM     29  C   UNL     1      13.360  44.909   9.233  1.00  0.00     0.014 C 
ENDROOT
BRANCH   1  30
ATOM     30  C   UNL     1       4.090  42.932   7.251  1.00  0.00     0.048 C 
ATOM     31  O   UNL     1       2.842  42.835   7.102  1.00  0.00    -0.550 OA
ATOM     32  O   UNL     1       4.833  43.572   6.265  1.00  0.00    -0.550 OA
ENDBRANCH   1  30
BRANCH  27  33
ATOM     33  O   UNL     1      13.952  42.159   9.334  1.00  0.00    -0.393 OA
ATOM     34  H   UNL     1      14.860  41.765   9.254  1.00  0.00     0.210 HD
ENDBRANCH  27  33
TORSDOF 2
ENDMDL
MODEL 2
REMARK VINA RESULT:    -6.223      2.498      3.216
REMARK INTER + INTRA:          -6.699
REMARK INTER:                  -6.710
REMARK INTRA:                   0.011
REMARK UNBOUND:                 0.070
REMARK SMILES C[C@H]1[C@H]2C3=CC[C@@H]4[C@@]5(C)CC[C@@H](O)C(C)(C)[C@H]5CC[C@]4(C)[C@]3(C)CC[C@@]2(C(=O)[O-])CC[C@@H]1C
REMARK SMILES IDX 26 1 30 2 25 3 3 4 31 5 24 6 4 7 2 8 32 9 22 10 5 11 1 12
REMARK SMILES IDX 33 13 23 14 20 15 6 16 7 17 19 18 21 19 8 20 18 21 17 22
REMARK SMILES IDX 10 23 9 24 14 25 11 26 12 27 15 28 16 29 27 30 28 31 29 32
REMARK SMILES IDX 13 33
REMARK H PARENT 13 34
REMARK Flexibility Score: inf
ROOT
ATOM      1  C   UNL     1       4.557  42.407   7.838  1.00  0.00     0.017 C 
ATOM      2  C   UNL     1       3.341  42.396   8.814  1.00  0.00     0.014 C 
ATOM      3  C   UNL     1       4.597  41.065   7.035  1.00  0.00     0.014 C 
ATOM      4  C   UNL     1       5.856  42.617   8.692  1.00  0.00     0.030 C 
ATOM      5  C   UNL     1       3.231  43.679   9.655  1.00  0.00     0.004 C 
ATOM      6  C   UNL     1       5.912  40.275   7.171  1.00  0.00     0.013 C 
ATOM      7  C   UNL     1       6.241  41.310   9.437  1.00  0.00    -0.063 C 
ATOM      8  C   UNL     1       5.749  43.956   9.511  1.00  0.00    -0.003 C 
ATOM      9  C   UNL     1       4.517  43.962  10.460  1.00  0.00    -0.011 C 
ATOM     10  C   UNL     1       6.328  39.995   8.660  1.00  0.00    -0.006 C 
ATOM     11  C   UNL     1       6.709  41.317  10.694  1.00  0.00    -0.027 C 
ATOM     12  C   UNL     1       7.080  44.402  10.164  1.00  0.00     0.008 C 
ATOM     13  C   UNL     1       4.365  45.303  11.197  1.00  0.00     0.008 C 
ATOM     14  C   UNL     1       5.276  39.005   9.254  1.00  0.00     0.017 C 
ATOM     15  C   UNL     1       7.815  39.387   8.814  1.00  0.00    -0.020 C 
ATOM     16  C   UNL     1       7.574  40.241  11.283  1.00  0.00     0.032 C 
ATOM     17  C   UNL     1       8.123  39.095  10.346  1.00  0.00     0.006 C 
ATOM     18  C   UNL     1       8.879  40.409   8.319  1.00  0.00     0.008 C 
ATOM     19  C   UNL     1       7.913  38.068   7.970  1.00  0.00     0.012 C 
ATOM     20  C   UNL     1       9.636  38.702  10.739  1.00  0.00    -0.025 C 
ATOM     21  C   UNL     1      10.331  40.016   8.619  1.00  0.00     0.005 C 
ATOM     22  C   UNL     1      10.653  39.746  10.122  1.00  0.00     0.003 C 
ATOM     23  C   UNL     1      10.025  37.265  10.256  1.00  0.00     0.010 C 
ATOM     24  C   UNL     1       9.700  38.661  12.311  1.00  0.00     0.012 C 
ATOM     25  C   UNL     1      12.194  39.368  10.326  1.00  0.00    -0.006 C 
ATOM     26  C   UNL     1      11.494  36.878  10.523  1.00  0.00     0.033 C 
ATOM     27  C   UNL     1      12.491  37.884   9.919  1.00  0.00     0.120 C 
ATOM     28  C   UNL     1      12.636  39.598  11.802  1.00  0.00     0.014 C 
ATOM     29  C   UNL     1      13.120  40.306   9.494  1.00  0.00     0.014 C 
ENDROOT
BRANCH   1  30
ATOM     30  C   UNL     1       4.391  43.527   6.811  1.00  0.00     0.048 C 
ATOM     31  O   UNL     1       5.373  44.245   6.484  1.00  0.00    -0.550 OA
ATOM     32  O   UNL     1       3.189  43.689   6.130  1.00  0.00    -0.550 OA
ENDBRANCH   1  30
BRANCH  27  33
ATOM     33  O   UNL     1      12.500  37.739   8.519  1.00  0.00    -0.393 OA
ATOM     34  H   UNL     1      11.742  37.144   8.280  1.00  0.00     0.210 HD
ENDBRANCH  27  33
TORSDOF 2
ENDMDL
MODEL 3
REMARK VINA RESULT:    -5.998      2.583      7.230
REMARK INTER + INTRA:          -6.454
REMARK INTER:                  -6.404
REMARK INTRA:                  -0.050
REMARK UNBOUND:                 0.070
REMARK SMILES C[C@H]1[C@H]2C3=CC[C@@H]4[C@@]5(C)CC[C@@H](O)C(C)(C)[C@H]5CC[C@]4(C)[C@]3(C)CC[C@@]2(C(=O)[O-])CC[C@@H]1C
REMARK SMILES IDX 26 1 30 2 25 3 3 4 31 5 24 6 4 7 2 8 32 9 22 10 5 11 1 12
REMARK SMILES IDX 33 13 23 14 20 15 6 16 7 17 19 18 21 19 8 20 18 21 17 22
REMARK SMILES IDX 10 23 9 24 14 25 11 26 12 27 15 28 16 29 27 30 28 31 29 32
REMARK SMILES IDX 13 33
REMARK H PARENT 13 34
REMARK Flexibility Score: inf
ROOT
ATOM      1  C   UNL     1      11.118  44.629  10.054  1.00  0.00     0.017 C 
ATOM      2  C   UNL     1      11.255  45.347  11.433  1.00  0.00     0.014 C 
ATOM      3  C   UNL     1       9.754  45.017   9.395  1.00  0.00     0.014 C 
ATOM      4  C   UNL     1      11.229  43.085  10.304  1.00  0.00     0.030 C 
ATOM      5  C   UNL     1      12.569  45.013  12.158  1.00  0.00     0.004 C 
ATOM      6  C   UNL     1       8.845  43.823   9.049  1.00  0.00     0.013 C 
ATOM      7  C   UNL     1       9.916  42.532  10.922  1.00  0.00    -0.063 C 
ATOM      8  C   UNL     1      12.598  42.752  11.005  1.00  0.00    -0.003 C 
ATOM      9  C   UNL     1      12.752  43.494  12.364  1.00  0.00    -0.011 C 
ATOM     10  C   UNL     1       8.574  42.865  10.265  1.00  0.00    -0.006 C 
ATOM     11  C   UNL     1       9.918  41.599  11.885  1.00  0.00    -0.027 C 
ATOM     12  C   UNL     1      12.934  41.241  11.043  1.00  0.00     0.008 C 
ATOM     13  C   UNL     1      14.125  43.235  13.008  1.00  0.00     0.008 C 
ATOM     14  C   UNL     1       7.710  43.660  11.294  1.00  0.00     0.017 C 
ATOM     15  C   UNL     1       7.831  41.493   9.855  1.00  0.00    -0.020 C 
ATOM     16  C   UNL     1       8.783  40.654  12.152  1.00  0.00     0.032 C 
ATOM     17  C   UNL     1       7.560  40.616  11.154  1.00  0.00     0.006 C 
ATOM     18  C   UNL     1       8.729  40.643   8.910  1.00  0.00     0.008 C 
ATOM     19  C   UNL     1       6.482  41.842   9.133  1.00  0.00     0.012 C 
ATOM     20  C   UNL     1       7.036  39.107  10.938  1.00  0.00    -0.025 C 
ATOM     21  C   UNL     1       8.208  39.228   8.633  1.00  0.00     0.005 C 
ATOM     22  C   UNL     1       7.956  38.350   9.898  1.00  0.00     0.003 C 
ATOM     23  C   UNL     1       5.553  39.055  10.439  1.00  0.00     0.010 C 
ATOM     24  C   UNL     1       7.039  38.419  12.354  1.00  0.00     0.012 C 
ATOM     25  C   UNL     1       7.439  36.890   9.498  1.00  0.00    -0.006 C 
ATOM     26  C   UNL     1       5.036  37.637  10.124  1.00  0.00     0.033 C 
ATOM     27  C   UNL     1       5.921  36.895   9.107  1.00  0.00     0.120 C 
ATOM     28  C   UNL     1       7.672  35.875  10.656  1.00  0.00     0.014 C 
ATOM     29  C   UNL     1       8.256  36.310   8.304  1.00  0.00     0.014 C 
ENDROOT
BRANCH   1  30
ATOM     30  C   UNL     1      12.215  45.110   9.105  1.00  0.00     0.048 C 
ATOM     31  O   UNL     1      12.649  44.354   8.195  1.00  0.00    -0.550 OA
ATOM     32  O   UNL     1      12.662  46.426   9.149  1.00  0.00    -0.550 OA
ENDBRANCH   1  30
BRANCH  27  33
ATOM     33  O   UNL     1       5.731  37.460   7.833  1.00  0.00    -0.393 OA
ATOM     34  H   UNL     1       4.880  37.971   7.861  1.00  0.00     0.210 HD
ENDBRANCH  27  33
TORSDOF 2
ENDMDL
MODEL 4
REMARK VINA RESULT:    -5.979      3.181      4.695
REMARK INTER + INTRA:          -6.433
REMARK INTER:                  -6.487
REMARK INTRA:                   0.054
REMARK UNBOUND:                 0.070
REMARK SMILES C[C@H]1[C@H]2C3=CC[C@@H]4[C@@]5(C)CC[C@@H](O)C(C)(C)[C@H]5CC[C@]4(C)[C@]3(C)CC[C@@]2(C(=O)[O-])CC[C@@H]1C
REMARK SMILES IDX 26 1 30 2 25 3 3 4 31 5 24 6 4 7 2 8 32 9 22 10 5 11 1 12
REMARK SMILES IDX 33 13 23 14 20 15 6 16 7 17 19 18 21 19 8 20 18 21 17 22
REMARK SMILES IDX 10 23 9 24 14 25 11 26 12 27 15 28 16 29 27 30 28 31 29 32
REMARK SMILES IDX 13 33
REMARK H PARENT 13 34
REMARK Flexibility Score: inf
ROOT
ATOM      1  C   UNL     1       7.308  37.045   8.485  1.00  0.00     0.017 C 
ATOM      2  C   UNL     1       7.071  35.875   9.490  1.00  0.00     0.014 C 
ATOM      3  C   UNL     1       8.693  36.858   7.780  1.00  0.00     0.014 C 
ATOM      4  C   UNL     1       7.238  38.390   9.288  1.00  0.00     0.030 C 
ATOM      5  C   UNL     1       5.732  35.986  10.238  1.00  0.00     0.004 C 
ATOM      6  C   UNL     1       9.660  38.045   7.940  1.00  0.00     0.013 C 
ATOM      7  C   UNL     1       8.534  38.604  10.117  1.00  0.00    -0.063 C 
ATOM      8  C   UNL     1       5.845  38.511  10.010  1.00  0.00    -0.003 C 
ATOM      9  C   UNL     1       5.591  37.327  10.987  1.00  0.00    -0.011 C 
ATOM     10  C   UNL     1       9.897  38.468   9.435  1.00  0.00    -0.006 C 
ATOM     11  C   UNL     1       8.511  39.112  11.358  1.00  0.00    -0.027 C 
ATOM     12  C   UNL     1       5.560  39.916  10.596  1.00  0.00     0.008 C 
ATOM     13  C   UNL     1       4.194  37.401  11.629  1.00  0.00     0.008 C 
ATOM     14  C   UNL     1      10.676  37.304  10.125  1.00  0.00     0.017 C 
ATOM     15  C   UNL     1      10.709  39.854   9.595  1.00  0.00    -0.020 C 
ATOM     16  C   UNL     1       9.662  39.829  12.001  1.00  0.00     0.032 C 
ATOM     17  C   UNL     1      10.938  40.171  11.136  1.00  0.00     0.006 C 
ATOM     18  C   UNL     1       9.894  41.039   9.001  1.00  0.00     0.008 C 
ATOM     19  C   UNL     1      12.082  39.727   8.846  1.00  0.00     0.012 C 
ATOM     20  C   UNL     1      11.526  41.622  11.518  1.00  0.00    -0.025 C 
ATOM     21  C   UNL     1      10.478  42.426   9.292  1.00  0.00     0.005 C 
ATOM     22  C   UNL     1      10.691  42.758  10.801  1.00  0.00     0.003 C 
ATOM     23  C   UNL     1      13.034  41.777  11.131  1.00  0.00     0.010 C 
ATOM     24  C   UNL     1      11.469  41.735  13.087  1.00  0.00     0.012 C 
ATOM     25  C   UNL     1      11.280  44.233  10.994  1.00  0.00    -0.006 C 
ATOM     26  C   UNL     1      13.618  43.181  11.388  1.00  0.00     0.033 C 
ATOM     27  C   UNL     1      12.816  44.294  10.688  1.00  0.00     0.120 C 
ATOM     28  C   UNL     1      11.019  44.757  12.437  1.00  0.00     0.014 C 
ATOM     29  C   UNL     1      10.550  45.257  10.073  1.00  0.00     0.014 C 
ENDROOT
BRANCH   1  30
ATOM     30  C   UNL     1       6.249  37.008   7.384  1.00  0.00     0.048 C 
ATOM     31  O   UNL     1       5.645  35.935   7.114  1.00  0.00    -0.550 OA
ATOM     32  O   UNL     1       5.846  38.178   6.750  1.00  0.00    -0.550 OA
ENDBRANCH   1  30
BRANCH  27  33
ATOM     33  O   UNL     1      13.055  44.232   9.303  1.00  0.00    -0.393 OA
ATOM     34  H   UNL     1      14.039  44.268   9.172  1.00  0.00     0.210 HD
ENDBRANCH  27  33
TORSDOF 2
ENDMDL
MODEL 5
REMARK VINA RESULT:    -5.488      3.643      7.171
REMARK INTER + INTRA:          -5.899
REMARK INTER:                  -5.880
REMARK INTRA:                  -0.020
REMARK UNBOUND:                 0.070
REMARK SMILES C[C@H]1[C@H]2C3=CC[C@@H]4[C@@]5(C)CC[C@@H](O)C(C)(C)[C@H]5CC[C@]4(C)[C@]3(C)CC[C@@]2(C(=O)[O-])CC[C@@H]1C
REMARK SMILES IDX 26 1 30 2 25 3 3 4 31 5 24 6 4 7 2 8 32 9 22 10 5 11 1 12
REMARK SMILES IDX 33 13 23 14 20 15 6 16 7 17 19 18 21 19 8 20 18 21 17 22
REMARK SMILES IDX 10 23 9 24 14 25 11 26 12 27 15 28 16 29 27 30 28 31 29 32
REMARK SMILES IDX 13 33
REMARK H PARENT 13 34
REMARK Flexibility Score: inf
ROOT
ATOM      1  C   UNL     1      11.814  44.332  11.609  1.00  0.00     0.017 C 
ATOM      2  C   UNL     1      12.766  44.806  10.468  1.00  0.00     0.014 C 
ATOM      3  C   UNL     1      12.499  43.179  12.417  1.00  0.00     0.014 C 
ATOM      4  C   UNL     1      10.470  43.866  10.951  1.00  0.00     0.030 C 
ATOM      5  C   UNL     1      12.166  45.936   9.614  1.00  0.00     0.004 C 
ATOM      6  C   UNL     1      11.691  41.870  12.475  1.00  0.00     0.013 C 
ATOM      7  C   UNL     1      10.640  42.478  10.275  1.00  0.00    -0.063 C 
ATOM      8  C   UNL     1       9.844  45.045  10.118  1.00  0.00    -0.003 C 
ATOM      9  C   UNL     1      10.805  45.544   9.001  1.00  0.00    -0.011 C 
ATOM     10  C   UNL     1      11.267  41.326  11.063  1.00  0.00    -0.006 C 
ATOM     11  C   UNL     1      10.068  42.182   9.098  1.00  0.00    -0.027 C 
ATOM     12  C   UNL     1       8.386  44.789   9.661  1.00  0.00     0.008 C 
ATOM     13  C   UNL     1      10.227  46.752   8.243  1.00  0.00     0.008 C 
ATOM     14  C   UNL     1      12.573  40.885  10.329  1.00  0.00     0.017 C 
ATOM     15  C   UNL     1      10.222  40.098  11.128  1.00  0.00    -0.020 C 
ATOM     16  C   UNL     1       9.730  40.792   8.646  1.00  0.00     0.032 C 
ATOM     17  C   UNL     1       9.893  39.591   9.658  1.00  0.00     0.006 C 
ATOM     18  C   UNL     1       8.878  40.555  11.766  1.00  0.00     0.008 C 
ATOM     19  C   UNL     1      10.849  38.943  11.984  1.00  0.00     0.012 C 
ATOM     20  C   UNL     1       8.695  38.525   9.489  1.00  0.00    -0.025 C 
ATOM     21  C   UNL     1       7.746  39.525  11.680  1.00  0.00     0.005 C 
ATOM     22  C   UNL     1       7.399  39.032  10.241  1.00  0.00     0.003 C 
ATOM     23  C   UNL     1       9.077  37.107  10.030  1.00  0.00     0.010 C 
ATOM     24  C   UNL     1       8.461  38.348   7.943  1.00  0.00     0.012 C 
ATOM     25  C   UNL     1       6.194  37.980  10.262  1.00  0.00    -0.006 C 
ATOM     26  C   UNL     1       7.931  36.076   9.980  1.00  0.00     0.033 C 
ATOM     27  C   UNL     1       6.667  36.557  10.716  1.00  0.00     0.120 C 
ATOM     28  C   UNL     1       5.514  37.878   8.865  1.00  0.00     0.014 C 
ATOM     29  C   UNL     1       5.052  38.450  11.215  1.00  0.00     0.014 C 
ENDROOT
BRANCH   1  30
ATOM     30  C   UNL     1      11.574  45.474  12.596  1.00  0.00     0.048 C 
ATOM     31  O   UNL     1      10.441  45.633  13.125  1.00  0.00    -0.550 OA
ATOM     32  O   UNL     1      12.627  46.275  13.021  1.00  0.00    -0.550 OA
ENDBRANCH   1  30
BRANCH  27  33
ATOM     33  O   UNL     1       6.902  36.523  12.103  1.00  0.00    -0.393 OA
ATOM     34  H   UNL     1       7.439  37.327  12.331  1.00  0.00     0.210 HD
ENDBRANCH  27  33
TORSDOF 2
ENDMDL
MODEL 6
REMARK VINA RESULT:    -5.480      3.294      6.604
REMARK INTER + INTRA:          -5.891
REMARK INTER:                  -5.890
REMARK INTRA:                  -0.001
REMARK UNBOUND:                 0.070
REMARK SMILES C[C@H]1[C@H]2C3=CC[C@@H]4[C@@]5(C)CC[C@@H](O)C(C)(C)[C@H]5CC[C@]4(C)[C@]3(C)CC[C@@]2(C(=O)[O-])CC[C@@H]1C
REMARK SMILES IDX 26 1 30 2 25 3 3 4 31 5 24 6 4 7 2 8 32 9 22 10 5 11 1 12
REMARK SMILES IDX 33 13 23 14 20 15 6 16 7 17 19 18 21 19 8 20 18 21 17 22
REMARK SMILES IDX 10 23 9 24 14 25 11 26 12 27 15 28 16 29 27 30 28 31 29 32
REMARK SMILES IDX 13 33
REMARK H PARENT 13 34
REMARK Flexibility Score: inf
ROOT
ATOM      1  C   UNL     1      10.006  45.117   9.394  1.00  0.00     0.017 C 
ATOM      2  C   UNL     1      11.160  45.709  10.263  1.00  0.00     0.014 C 
ATOM      3  C   UNL     1       8.796  44.744  10.314  1.00  0.00     0.014 C 
ATOM      4  C   UNL     1      10.570  43.868   8.634  1.00  0.00     0.030 C 
ATOM      5  C   UNL     1      12.398  46.095   9.437  1.00  0.00     0.004 C 
ATOM      6  C   UNL     1       8.354  43.272  10.225  1.00  0.00     0.013 C 
ATOM      7  C   UNL     1      10.707  42.655   9.593  1.00  0.00    -0.063 C 
ATOM      8  C   UNL     1      11.808  44.287   7.757  1.00  0.00    -0.003 C 
ATOM      9  C   UNL     1      12.946  44.909   8.616  1.00  0.00    -0.011 C 
ATOM     10  C   UNL     1       9.520  42.247  10.469  1.00  0.00    -0.006 C 
ATOM     11  C   UNL     1      11.751  41.814   9.537  1.00  0.00    -0.027 C 
ATOM     12  C   UNL     1      12.266  43.200   6.753  1.00  0.00     0.008 C 
ATOM     13  C   UNL     1      14.120  45.396   7.749  1.00  0.00     0.008 C 
ATOM     14  C   UNL     1       9.947  42.382  11.965  1.00  0.00     0.017 C 
ATOM     15  C   UNL     1       9.119  40.719  10.139  1.00  0.00    -0.020 C 
ATOM     16  C   UNL     1      11.719  40.391  10.012  1.00  0.00     0.032 C 
ATOM     17  C   UNL     1      10.344  39.758  10.460  1.00  0.00     0.006 C 
ATOM     18  C   UNL     1       8.792  40.552   8.627  1.00  0.00     0.008 C 
ATOM     19  C   UNL     1       7.868  40.326  10.999  1.00  0.00     0.012 C 
ATOM     20  C   UNL     1      10.230  38.222   9.984  1.00  0.00    -0.025 C 
ATOM     21  C   UNL     1       8.607  39.101   8.169  1.00  0.00     0.005 C 
ATOM     22  C   UNL     1       9.810  38.150   8.461  1.00  0.00     0.003 C 
ATOM     23  C   UNL     1       9.203  37.406  10.836  1.00  0.00     0.010 C 
ATOM     24  C   UNL     1      11.634  37.560  10.250  1.00  0.00     0.012 C 
ATOM     25  C   UNL     1       9.524  36.671   7.923  1.00  0.00    -0.006 C 
ATOM     26  C   UNL     1       8.986  35.957  10.358  1.00  0.00     0.033 C 
ATOM     27  C   UNL     1       8.568  35.876   8.878  1.00  0.00     0.120 C 
ATOM     28  C   UNL     1      10.850  35.875   7.740  1.00  0.00     0.014 C 
ATOM     29  C   UNL     1       8.890  36.701   6.499  1.00  0.00     0.014 C 
ENDROOT
BRANCH   1  30
ATOM     30  C   UNL     1       9.500  46.173   8.413  1.00  0.00     0.048 C 
ATOM     31  O   UNL     1       8.727  45.851   7.470  1.00  0.00    -0.550 OA
ATOM     32  O   UNL     1       9.779  47.520   8.615  1.00  0.00    -0.550 OA
ENDBRANCH   1  30
BRANCH  27  33
ATOM     33  O   UNL     1       7.241  36.326   8.750  1.00  0.00    -0.393 OA
ATOM     34  H   UNL     1       6.649  35.590   9.057  1.00  0.00     0.210 HD
ENDBRANCH  27  33
TORSDOF 2
ENDMDL
MODEL 7
REMARK VINA RESULT:    -5.397      3.696      5.493
REMARK INTER + INTRA:          -5.801
REMARK INTER:                  -5.752
REMARK INTRA:                  -0.049
REMARK UNBOUND:                 0.070
REMARK SMILES C[C@H]1[C@H]2C3=CC[C@@H]4[C@@]5(C)CC[C@@H](O)C(C)(C)[C@H]5CC[C@]4(C)[C@]3(C)CC[C@@]2(C(=O)[O-])CC[C@@H]1C
REMARK SMILES IDX 26 1 30 2 25 3 3 4 31 5 24 6 4 7 2 8 32 9 22 10 5 11 1 12
REMARK SMILES IDX 33 13 23 14 20 15 6 16 7 17 19 18 21 19 8 20 18 21 17 22
REMARK SMILES IDX 10 23 9 24 14 25 11 26 12 27 15 28 16 29 27 30 28 31 29 32
REMARK SMILES IDX 13 33
REMARK H PARENT 13 34
REMARK Flexibility Score: inf
ROOT
ATOM      1  C   UNL     1       8.803  38.856  11.768  1.00  0.00     0.017 C 
ATOM      2  C   UNL     1       7.321  38.951  12.248  1.00  0.00     0.014 C 
ATOM      3  C   UNL     1       9.735  39.568  12.804  1.00  0.00     0.014 C 
ATOM      4  C   UNL     1       8.892  39.518  10.350  1.00  0.00     0.030 C 
ATOM      5  C   UNL     1       6.331  38.283  11.279  1.00  0.00     0.004 C 
ATOM      6  C   UNL     1      10.601  40.698  12.217  1.00  0.00     0.013 C 
ATOM      7  C   UNL     1       8.841  41.066  10.461  1.00  0.00    -0.063 C 
ATOM      8  C   UNL     1       7.907  38.795   9.358  1.00  0.00    -0.003 C 
ATOM      9  C   UNL     1       6.433  38.858   9.851  1.00  0.00    -0.011 C 
ATOM     10  C   UNL     1       9.777  41.784  11.437  1.00  0.00    -0.006 C 
ATOM     11  C   UNL     1       8.163  41.823   9.586  1.00  0.00    -0.027 C 
ATOM     12  C   UNL     1       8.117  39.178   7.872  1.00  0.00     0.008 C 
ATOM     13  C   UNL     1       5.483  38.078   8.925  1.00  0.00     0.008 C 
ATOM     14  C   UNL     1       8.902  42.540  12.486  1.00  0.00     0.017 C 
ATOM     15  C   UNL     1      10.694  42.830  10.619  1.00  0.00    -0.020 C 
ATOM     16  C   UNL     1       8.473  43.261   9.290  1.00  0.00     0.032 C 
ATOM     17  C   UNL     1       9.774  43.912   9.904  1.00  0.00     0.006 C 
ATOM     18  C   UNL     1      11.493  42.100   9.500  1.00  0.00     0.008 C 
ATOM     19  C   UNL     1      11.688  43.521  11.616  1.00  0.00     0.012 C 
ATOM     20  C   UNL     1      10.477  44.908   8.850  1.00  0.00    -0.025 C 
ATOM     21  C   UNL     1      12.231  43.030   8.530  1.00  0.00     0.005 C 
ATOM     22  C   UNL     1      11.336  44.085   7.807  1.00  0.00     0.003 C 
ATOM     23  C   UNL     1      11.396  45.964   9.548  1.00  0.00     0.010 C 
ATOM     24  C   UNL     1       9.323  45.727   8.162  1.00  0.00     0.012 C 
ATOM     25  C   UNL     1      12.197  44.986   6.803  1.00  0.00    -0.006 C 
ATOM     26  C   UNL     1      12.168  46.879   8.575  1.00  0.00     0.033 C 
ATOM     27  C   UNL     1      13.014  46.088   7.561  1.00  0.00     0.120 C 
ATOM     28  C   UNL     1      11.287  45.660   5.734  1.00  0.00     0.014 C 
ATOM     29  C   UNL     1      13.189  44.115   5.974  1.00  0.00     0.014 C 
ENDROOT
BRANCH   1  30
ATOM     30  C   UNL     1       9.241  37.393  11.718  1.00  0.00     0.048 C 
ATOM     31  O   UNL     1      10.123  37.018  10.899  1.00  0.00    -0.550 OA
ATOM     32  O   UNL     1       8.769  36.480  12.655  1.00  0.00    -0.550 OA
ENDBRANCH   1  30
BRANCH  27  33
ATOM     33  O   UNL     1      14.121  45.527   8.224  1.00  0.00    -0.393 OA
ATOM     34  H   UNL     1      13.848  44.628   8.544  1.00  0.00     0.210 HD
ENDBRANCH  27  33
TORSDOF 2
ENDMDL
MODEL 8
REMARK VINA RESULT:    -5.306      2.791      6.085
REMARK INTER + INTRA:          -5.702
REMARK INTER:                  -6.340
REMARK INTRA:                   0.639
REMARK UNBOUND:                 0.070
REMARK SMILES C[C@H]1[C@H]2C3=CC[C@@H]4[C@@]5(C)CC[C@@H](O)C(C)(C)[C@H]5CC[C@]4(C)[C@]3(C)CC[C@@]2(C(=O)[O-])CC[C@@H]1C
REMARK SMILES IDX 26 1 30 2 25 3 3 4 31 5 24 6 4 7 2 8 32 9 22 10 5 11 1 12
REMARK SMILES IDX 33 13 23 14 20 15 6 16 7 17 19 18 21 19 8 20 18 21 17 22
REMARK SMILES IDX 10 23 9 24 14 25 11 26 12 27 15 28 16 29 27 30 28 31 29 32
REMARK SMILES IDX 13 33
REMARK H PARENT 13 34
REMARK Flexibility Score: inf
ROOT
ATOM      1  C   UNL     1       7.416  45.459   7.846  1.00  0.00     0.017 C 
ATOM      2  C   UNL     1       7.718  46.526   8.943  1.00  0.00     0.014 C 
ATOM      3  C   UNL     1       5.881  45.153   7.821  1.00  0.00     0.014 C 
ATOM      4  C   UNL     1       8.262  44.180   8.173  1.00  0.00     0.030 C 
ATOM      5  C   UNL     1       9.212  46.880   9.043  1.00  0.00     0.004 C 
ATOM      6  C   UNL     1       5.519  43.672   8.033  1.00  0.00     0.013 C 
ATOM      7  C   UNL     1       7.637  43.396   9.358  1.00  0.00    -0.063 C 
ATOM      8  C   UNL     1       9.791  44.548   8.227  1.00  0.00    -0.003 C 
ATOM      9  C   UNL     1      10.091  45.637   9.297  1.00  0.00    -0.011 C 
ATOM     10  C   UNL     1       6.146  43.049   9.332  1.00  0.00    -0.006 C 
ATOM     11  C   UNL     1       8.388  42.821  10.309  1.00  0.00    -0.027 C 
ATOM     12  C   UNL     1      10.733  43.320   8.262  1.00  0.00     0.008 C 
ATOM     13  C   UNL     1      11.571  46.057   9.291  1.00  0.00     0.008 C 
ATOM     14  C   UNL     1       5.461  43.742  10.552  1.00  0.00     0.017 C 
ATOM     15  C   UNL     1       5.974  41.448   9.431  1.00  0.00    -0.020 C 
ATOM     16  C   UNL     1       7.952  41.651  11.142  1.00  0.00     0.032 C 
ATOM     17  C   UNL     1       6.596  40.920  10.795  1.00  0.00     0.006 C 
ATOM     18  C   UNL     1       6.740  40.741   8.276  1.00  0.00     0.008 C 
ATOM     19  C   UNL     1       4.447  41.095   9.347  1.00  0.00     0.012 C 
ATOM     20  C   UNL     1       6.733  39.325  10.984  1.00  0.00    -0.025 C 
ATOM     21  C   UNL     1       6.818  39.215   8.399  1.00  0.00     0.005 C 
ATOM     22  C   UNL     1       7.445  38.683   9.725  1.00  0.00     0.003 C 
ATOM     23  C   UNL     1       5.349  38.628  11.199  1.00  0.00     0.010 C 
ATOM     24  C   UNL     1       7.544  39.095  12.313  1.00  0.00     0.012 C 
ATOM     25  C   UNL     1       7.500  37.084   9.742  1.00  0.00    -0.006 C 
ATOM     26  C   UNL     1       5.417  37.090  11.288  1.00  0.00     0.033 C 
ATOM     27  C   UNL     1       6.101  36.455  10.063  1.00  0.00     0.120 C 
ATOM     28  C   UNL     1       8.548  36.570  10.772  1.00  0.00     0.014 C 
ATOM     29  C   UNL     1       7.994  36.523   8.374  1.00  0.00     0.014 C 
ENDROOT
BRANCH   1  30
ATOM     30  C   UNL     1       7.773  46.014   6.467  1.00  0.00     0.048 C 
ATOM     31  O   UNL     1       8.797  46.734   6.314  1.00  0.00    -0.550 OA
ATOM     32  O   UNL     1       7.050  45.634   5.342  1.00  0.00    -0.550 OA
ENDBRANCH   1  30
BRANCH  27  33
ATOM     33  O   UNL     1       5.240  36.549   8.954  1.00  0.00    -0.393 OA
ATOM     34  H   UNL     1       5.073  37.515   8.793  1.00  0.00     0.210 HD
ENDBRANCH  27  33
TORSDOF 2
ENDMDL
MODEL 9
REMARK VINA RESULT:    -5.262      7.267      9.675
REMARK INTER + INTRA:          -5.654
REMARK INTER:                  -6.024
REMARK INTRA:                   0.370
REMARK UNBOUND:                 0.070
REMARK SMILES C[C@H]1[C@H]2C3=CC[C@@H]4[C@@]5(C)CC[C@@H](O)C(C)(C)[C@H]5CC[C@]4(C)[C@]3(C)CC[C@@]2(C(=O)[O-])CC[C@@H]1C
REMARK SMILES IDX 26 1 30 2 25 3 3 4 31 5 24 6 4 7 2 8 32 9 22 10 5 11 1 12
REMARK SMILES IDX 33 13 23 14 20 15 6 16 7 17 19 18 21 19 8 20 18 21 17 22
REMARK SMILES IDX 10 23 9 24 14 25 11 26 12 27 15 28 16 29 27 30 28 31 29 32
REMARK SMILES IDX 13 33
REMARK H PARENT 13 34
REMARK Flexibility Score: inf
ROOT
ATOM      1  C   UNL     1      11.234  49.888   1.026  1.00  0.00     0.017 C 
ATOM      2  C   UNL     1      11.779  49.252  -0.290  1.00  0.00     0.014 C 
ATOM      3  C   UNL     1      12.407  50.572   1.803  1.00  0.00     0.014 C 
ATOM      4  C   UNL     1      10.562  48.748   1.868  1.00  0.00     0.030 C 
ATOM      5  C   UNL     1      10.690  48.545  -1.114  1.00  0.00     0.004 C 
ATOM      6  C   UNL     1      12.609  50.061   3.241  1.00  0.00     0.013 C 
ATOM      7  C   UNL     1      11.638  47.852   2.539  1.00  0.00    -0.063 C 
ATOM      8  C   UNL     1       9.419  48.066   1.030  1.00  0.00    -0.003 C 
ATOM      9  C   UNL     1       9.953  47.460  -0.300  1.00  0.00    -0.011 C 
ATOM     10  C   UNL     1      12.769  48.501   3.339  1.00  0.00    -0.006 C 
ATOM     11  C   UNL     1      11.504  46.521   2.627  1.00  0.00    -0.027 C 
ATOM     12  C   UNL     1       8.507  47.125   1.856  1.00  0.00     0.008 C 
ATOM     13  C   UNL     1       8.822  46.868  -1.158  1.00  0.00     0.008 C 
ATOM     14  C   UNL     1      14.125  48.134   2.657  1.00  0.00     0.017 C 
ATOM     15  C   UNL     1      12.736  47.941   4.852  1.00  0.00    -0.020 C 
ATOM     16  C   UNL     1      12.169  45.669   3.668  1.00  0.00     0.032 C 
ATOM     17  C   UNL     1      12.952  46.366   4.849  1.00  0.00     0.006 C 
ATOM     18  C   UNL     1      11.350  48.211   5.507  1.00  0.00     0.008 C 
ATOM     19  C   UNL     1      13.862  48.651   5.681  1.00  0.00     0.012 C 
ATOM     20  C   UNL     1      12.723  45.581   6.238  1.00  0.00    -0.025 C 
ATOM     21  C   UNL     1      11.142  47.532   6.865  1.00  0.00     0.005 C 
ATOM     22  C   UNL     1      11.331  45.983   6.873  1.00  0.00     0.003 C 
ATOM     23  C   UNL     1      13.858  45.861   7.278  1.00  0.00     0.010 C 
ATOM     24  C   UNL     1      12.809  44.043   5.909  1.00  0.00     0.012 C 
ATOM     25  C   UNL     1      11.068  45.373   8.329  1.00  0.00    -0.006 C 
ATOM     26  C   UNL     1      13.635  45.210   8.658  1.00  0.00     0.033 C 
ATOM     27  C   UNL     1      12.286  45.602   9.288  1.00  0.00     0.120 C 
ATOM     28  C   UNL     1      10.750  43.851   8.250  1.00  0.00     0.014 C 
ATOM     29  C   UNL     1       9.799  46.000   8.982  1.00  0.00     0.014 C 
ENDROOT
BRANCH   1  30
ATOM     30  C   UNL     1      10.228  50.989   0.694  1.00  0.00     0.048 C 
ATOM     31  O   UNL     1      10.000  51.916   1.518  1.00  0.00    -0.550 OA
ATOM     32  O   UNL     1       9.644  51.059  -0.566  1.00  0.00    -0.550 OA
ENDBRANCH   1  30
BRANCH  27  33
ATOM     33  O   UNL     1      12.349  46.942   9.711  1.00  0.00    -0.393 OA
ATOM     34  H   UNL     1      13.309  47.175   9.814  1.00  0.00     0.210 HD
ENDBRANCH  27  33
TORSDOF 2
ENDMDL
