MODEL 1
REMARK VINA RESULT:    -3.971      0.000      0.000
REMARK INTER + INTRA:          -7.138
REMARK INTER:                  -6.292
REMARK INTRA:                  -0.846
REMARK UNBOUND:                -0.846
REMARK SMILES CCCCCCCCCCCC(=O)[O-]
REMARK SMILES IDX 7 1 8 2 9 3 10 4 11 5 12 6 13 7 14 8 6 9 5 10 4 11 3 12 2 13
REMARK SMILES IDX 1 14
REMARK H PARENT
REMARK Flexibility Score: inf
ROOT
ATOM      1  C   UNL     1     -31.816  22.871  29.415  1.00  0.00     0.000 C 
ENDROOT
BRANCH   1   2
ATOM      2  C   UNL     1     -30.892  21.936  28.614  1.00  0.00     0.000 C 
BRANCH   2   3
ATOM      3  C   UNL     1     -29.411  22.092  28.997  1.00  0.00     0.000 C 
BRANCH   3   4
ATOM      4  C   UNL     1     -28.473  21.988  27.785  1.00  0.00     0.006 C 
BRANCH   4   5
ATOM      5  C   UNL     1     -29.022  22.718  26.552  1.00  0.00     0.053 C 
BRANCH   5   6
ATOM      6  C   UNL     1     -29.063  21.795  25.376  1.00  0.00     0.041 C 
ATOM      7  O   UNL     1     -28.296  21.982  24.395  1.00  0.00    -0.550 OA
ATOM      8  O   UNL     1     -29.915  20.698  25.382  1.00  0.00    -0.550 OA
ENDBRANCH   5   6
ENDBRANCH   4   5
ENDBRANCH   3   4
ENDBRANCH   2   3
ENDBRANCH   1   2
BRANCH   1   9
ATOM      9  C   UNL     1     -31.378  24.349  29.441  1.00  0.00     0.000 C 
BRANCH   9  10
ATOM     10  C   UNL     1     -31.750  25.117  30.724  1.00  0.00    -0.000 C 
BRANCH  10  11
ATOM     11  C   UNL     1     -32.676  24.356  31.694  1.00  0.00    -0.000 C 
BRANCH  11  12
ATOM     12  C   UNL     1     -34.087  24.951  31.848  1.00  0.00    -0.000 C 
BRANCH  12  13
ATOM     13  C   UNL     1     -34.321  26.171  30.945  1.00  0.00    -0.003 C 
ATOM     14  C   UNL     1     -35.331  25.855  29.845  1.00  0.00     0.004 C 
ENDBRANCH  12  13
ENDBRANCH  11  12
ENDBRANCH  10  11
ENDBRANCH   9  10
ENDBRANCH   1   9
TORSDOF 10
ENDMDL
MODEL 2
REMARK VINA RESULT:    -3.941      3.748      7.410
REMARK INTER + INTRA:          -7.091
REMARK INTER:                  -6.697
REMARK INTRA:                  -0.394
REMARK UNBOUND:                -0.846
REMARK SMILES CCCCCCCCCCCC(=O)[O-]
REMARK SMILES IDX 7 1 8 2 9 3 10 4 11 5 12 6 13 7 14 8 6 9 5 10 4 11 3 12 2 13
REMARK SMILES IDX 1 14
REMARK H PARENT
REMARK Flexibility Score: inf
ROOT
ATOM      1  C   UNL     1     -30.441  22.030  29.214  1.00  0.00     0.000 C 
ENDROOT
BRANCH   1   2
ATOM      2  C   UNL     1     -31.033  22.988  30.264  1.00  0.00     0.000 C 
BRANCH   2   3
ATOM      3  C   UNL     1     -31.648  24.251  29.637  1.00  0.00     0.000 C 
BRANCH   3   4
ATOM      4  C   UNL     1     -32.086  25.279  30.691  1.00  0.00     0.006 C 
BRANCH   4   5
ATOM      5  C   UNL     1     -33.611  25.436  30.761  1.00  0.00     0.053 C 
BRANCH   5   6
ATOM      6  C   UNL     1     -34.167  24.625  31.888  1.00  0.00     0.041 C 
ATOM      7  O   UNL     1     -35.377  24.278  31.884  1.00  0.00    -0.550 OA
ATOM      8  O   UNL     1     -33.337  24.210  32.922  1.00  0.00    -0.550 OA
ENDBRANCH   5   6
ENDBRANCH   4   5
ENDBRANCH   3   4
ENDBRANCH   2   3
ENDBRANCH   1   2
BRANCH   1   9
ATOM      9  C   UNL     1     -29.815  22.722  27.986  1.00  0.00     0.000 C 
BRANCH   9  10
ATOM     10  C   UNL     1     -28.845  21.847  27.168  1.00  0.00    -0.000 C 
BRANCH  10  11
ATOM     11  C   UNL     1     -28.776  22.182  25.664  1.00  0.00    -0.000 C 
BRANCH  11  12
ATOM     12  C   UNL     1     -29.439  21.148  24.737  1.00  0.00    -0.000 C 
BRANCH  12  13
ATOM     13  C   UNL     1     -29.404  21.563  23.259  1.00  0.00    -0.003 C 
ATOM     14  C   UNL     1     -27.992  21.951  22.830  1.00  0.00     0.004 C 
ENDBRANCH  12  13
ENDBRANCH  11  12
ENDBRANCH  10  11
ENDBRANCH   9  10
ENDBRANCH   1   9
TORSDOF 10
ENDMDL
MODEL 3
REMARK VINA RESULT:    -3.856      1.704      2.625
REMARK INTER + INTRA:          -6.956
REMARK INTER:                  -6.367
REMARK INTRA:                  -0.589
REMARK UNBOUND:                -0.846
REMARK SMILES CCCCCCCCCCCC(=O)[O-]
REMARK SMILES IDX 7 1 8 2 9 3 10 4 11 5 12 6 13 7 14 8 6 9 5 10 4 11 3 12 2 13
REMARK SMILES IDX 1 14
REMARK H PARENT
REMARK Flexibility Score: inf
ROOT
ATOM      1  C   UNL     1     -31.919  24.851  30.491  1.00  0.00     0.000 C 
ENDROOT
BRANCH   1   2
ATOM      2  C   UNL     1     -31.286  24.100  29.307  1.00  0.00     0.000 C 
BRANCH   2   3
ATOM      3  C   UNL     1     -31.659  22.608  29.279  1.00  0.00     0.000 C 
BRANCH   3   4
ATOM      4  C   UNL     1     -30.853  21.816  28.239  1.00  0.00     0.006 C 
BRANCH   4   5
ATOM      5  C   UNL     1     -29.418  22.338  28.085  1.00  0.00     0.053 C 
BRANCH   5   6
ATOM      6  C   UNL     1     -29.020  22.349  26.643  1.00  0.00     0.041 C 
ATOM      7  O   UNL     1     -28.082  23.090  26.250  1.00  0.00    -0.550 OA
ATOM      8  O   UNL     1     -29.653  21.503  25.741  1.00  0.00    -0.550 OA
ENDBRANCH   5   6
ENDBRANCH   4   5
ENDBRANCH   3   4
ENDBRANCH   2   3
ENDBRANCH   1   2
BRANCH   1   9
ATOM      9  C   UNL     1     -33.429  25.128  30.351  1.00  0.00     0.000 C 
BRANCH   9  10
ATOM     10  C   UNL     1     -34.165  25.418  31.673  1.00  0.00    -0.000 C 
BRANCH  10  11
ATOM     11  C   UNL     1     -33.798  24.483  32.843  1.00  0.00    -0.000 C 
BRANCH  11  12
ATOM     12  C   UNL     1     -34.362  23.056  32.736  1.00  0.00    -0.000 C 
BRANCH  12  13
ATOM     13  C   UNL     1     -35.892  23.026  32.620  1.00  0.00    -0.003 C 
ATOM     14  C   UNL     1     -36.481  21.856  33.403  1.00  0.00     0.004 C 
ENDBRANCH  12  13
ENDBRANCH  11  12
ENDBRANCH  10  11
ENDBRANCH   9  10
ENDBRANCH   1   9
TORSDOF 10
ENDMDL
MODEL 4
REMARK VINA RESULT:    -3.837      1.202      2.187
REMARK INTER + INTRA:          -6.926
REMARK INTER:                  -6.486
REMARK INTRA:                  -0.441
REMARK UNBOUND:                -0.846
REMARK SMILES CCCCCCCCCCCC(=O)[O-]
REMARK SMILES IDX 7 1 8 2 9 3 10 4 11 5 12 6 13 7 14 8 6 9 5 10 4 11 3 12 2 13
REMARK SMILES IDX 1 14
REMARK H PARENT
REMARK Flexibility Score: inf
ROOT
ATOM      1  C   UNL     1     -30.900  22.058  28.408  1.00  0.00     0.000 C 
ENDROOT
BRANCH   1   2
ATOM      2  C   UNL     1     -29.392  22.306  28.226  1.00  0.00     0.000 C 
BRANCH   2   3
ATOM      3  C   UNL     1     -29.014  22.629  26.770  1.00  0.00     0.000 C 
BRANCH   3   4
ATOM      4  C   UNL     1     -29.460  21.536  25.788  1.00  0.00     0.006 C 
BRANCH   4   5
ATOM      5  C   UNL     1     -28.303  21.011  24.927  1.00  0.00     0.053 C 
BRANCH   5   6
ATOM      6  C   UNL     1     -28.259  21.734  23.618  1.00  0.00     0.041 C 
ATOM      7  O   UNL     1     -29.237  21.676  22.827  1.00  0.00    -0.550 OA
ATOM      8  O   UNL     1     -27.156  22.512  23.291  1.00  0.00    -0.550 OA
ENDBRANCH   5   6
ENDBRANCH   4   5
ENDBRANCH   3   4
ENDBRANCH   2   3
ENDBRANCH   1   2
BRANCH   1   9
ATOM      9  C   UNL     1     -31.535  22.777  29.616  1.00  0.00     0.000 C 
BRANCH   9  10
ATOM     10  C   UNL     1     -31.546  24.315  29.527  1.00  0.00    -0.000 C 
BRANCH  10  11
ATOM     11  C   UNL     1     -32.103  25.036  30.771  1.00  0.00    -0.000 C 
BRANCH  11  12
ATOM     12  C   UNL     1     -33.549  25.544  30.634  1.00  0.00    -0.000 C 
BRANCH  12  13
ATOM     13  C   UNL     1     -34.527  24.819  31.570  1.00  0.00    -0.003 C 
ATOM     14  C   UNL     1     -34.168  25.058  33.034  1.00  0.00     0.004 C 
ENDBRANCH  12  13
ENDBRANCH  11  12
ENDBRANCH  10  11
ENDBRANCH   9  10
ENDBRANCH   1   9
TORSDOF 10
ENDMDL
MODEL 5
REMARK VINA RESULT:    -3.807      3.920      7.007
REMARK INTER + INTRA:          -6.878
REMARK INTER:                  -5.936
REMARK INTRA:                  -0.942
REMARK UNBOUND:                -0.846
REMARK SMILES CCCCCCCCCCCC(=O)[O-]
REMARK SMILES IDX 7 1 8 2 9 3 10 4 11 5 12 6 13 7 14 8 6 9 5 10 4 11 3 12 2 13
REMARK SMILES IDX 1 14
REMARK H PARENT
REMARK Flexibility Score: inf
ROOT
ATOM      1  C   UNL     1     -31.663  22.626  29.204  1.00  0.00     0.000 C 
ENDROOT
BRANCH   1   2
ATOM      2  C   UNL     1     -30.971  23.955  29.557  1.00  0.00     0.000 C 
BRANCH   2   3
ATOM      3  C   UNL     1     -31.836  24.855  30.456  1.00  0.00     0.000 C 
BRANCH   3   4
ATOM      4  C   UNL     1     -33.321  24.828  30.067  1.00  0.00     0.006 C 
BRANCH   4   5
ATOM      5  C   UNL     1     -34.188  25.693  30.991  1.00  0.00     0.053 C 
BRANCH   5   6
ATOM      6  C   UNL     1     -34.614  24.908  32.191  1.00  0.00     0.041 C 
ATOM      7  O   UNL     1     -35.430  23.957  32.071  1.00  0.00    -0.550 OA
ATOM      8  O   UNL     1     -34.072  25.195  33.438  1.00  0.00    -0.550 OA
ENDBRANCH   5   6
ENDBRANCH   4   5
ENDBRANCH   3   4
ENDBRANCH   2   3
ENDBRANCH   1   2
BRANCH   1   9
ATOM      9  C   UNL     1     -30.926  21.770  28.154  1.00  0.00     0.000 C 
BRANCH   9  10
ATOM     10  C   UNL     1     -29.777  22.487  27.418  1.00  0.00    -0.000 C 
BRANCH  10  11
ATOM     11  C   UNL     1     -28.422  21.752  27.452  1.00  0.00    -0.000 C 
BRANCH  11  12
ATOM     12  C   UNL     1     -27.524  22.103  28.651  1.00  0.00    -0.000 C 
BRANCH  12  13
ATOM     13  C   UNL     1     -27.754  21.182  29.859  1.00  0.00    -0.003 C 
ATOM     14  C   UNL     1     -28.172  21.983  31.089  1.00  0.00     0.004 C 
ENDBRANCH  12  13
ENDBRANCH  11  12
ENDBRANCH  10  11
ENDBRANCH   9  10
ENDBRANCH   1   9
TORSDOF 10
ENDMDL
MODEL 6
REMARK VINA RESULT:    -3.799      1.478      2.722
REMARK INTER + INTRA:          -6.866
REMARK INTER:                  -6.469
REMARK INTRA:                  -0.397
REMARK UNBOUND:                -0.846
REMARK SMILES CCCCCCCCCCCC(=O)[O-]
REMARK SMILES IDX 7 1 8 2 9 3 10 4 11 5 12 6 13 7 14 8 6 9 5 10 4 11 3 12 2 13
REMARK SMILES IDX 1 14
REMARK H PARENT
REMARK Flexibility Score: inf
ROOT
ATOM      1  C   UNL     1     -29.476  22.415  28.190  1.00  0.00     0.000 C 
ENDROOT
BRANCH   1   2
ATOM      2  C   UNL     1     -29.975  21.558  27.013  1.00  0.00     0.000 C 
BRANCH   2   3
ATOM      3  C   UNL     1     -29.073  21.669  25.771  1.00  0.00     0.000 C 
BRANCH   3   4
ATOM      4  C   UNL     1     -29.703  21.032  24.524  1.00  0.00     0.006 C 
BRANCH   4   5
ATOM      5  C   UNL     1     -29.183  21.652  23.220  1.00  0.00     0.053 C 
BRANCH   5   6
ATOM      6  C   UNL     1     -27.688  21.630  23.193  1.00  0.00     0.041 C 
ATOM      7  O   UNL     1     -27.037  22.708  23.208  1.00  0.00    -0.550 OA
ATOM      8  O   UNL     1     -27.010  20.418  23.200  1.00  0.00    -0.550 OA
ENDBRANCH   5   6
ENDBRANCH   4   5
ENDBRANCH   3   4
ENDBRANCH   2   3
ENDBRANCH   1   2
BRANCH   1   9
ATOM      9  C   UNL     1     -30.093  22.059  29.558  1.00  0.00     0.000 C 
BRANCH   9  10
ATOM     10  C   UNL     1     -31.546  22.528  29.761  1.00  0.00    -0.000 C 
BRANCH  10  11
ATOM     11  C   UNL     1     -31.809  24.006  29.407  1.00  0.00    -0.000 C 
BRANCH  11  12
ATOM     12  C   UNL     1     -32.039  24.932  30.614  1.00  0.00    -0.000 C 
BRANCH  12  13
ATOM     13  C   UNL     1     -33.461  25.510  30.661  1.00  0.00    -0.003 C 
ATOM     14  C   UNL     1     -34.276  24.876  31.785  1.00  0.00     0.004 C 
ENDBRANCH  12  13
ENDBRANCH  11  12
ENDBRANCH  10  11
ENDBRANCH   9  10
ENDBRANCH   1   9
TORSDOF 10
ENDMDL
MODEL 7
REMARK VINA RESULT:    -3.736      3.646      7.198
REMARK INTER + INTRA:          -6.766
REMARK INTER:                  -6.247
REMARK INTRA:                  -0.519
REMARK UNBOUND:                -0.846
REMARK SMILES CCCCCCCCCCCC(=O)[O-]
REMARK SMILES IDX 7 1 8 2 9 3 10 4 11 5 12 6 13 7 14 8 6 9 5 10 4 11 3 12 2 13
REMARK SMILES IDX 1 14
REMARK H PARENT
REMARK Flexibility Score: inf
ROOT
ATOM      1  C   UNL     1     -29.954  21.930  27.521  1.00  0.00     0.000 C 
ENDROOT
BRANCH   1   2
ATOM      2  C   UNL     1     -30.069  22.678  28.861  1.00  0.00     0.000 C 
BRANCH   2   3
ATOM      3  C   UNL     1     -31.519  23.057  29.209  1.00  0.00     0.000 C 
BRANCH   3   4
ATOM      4  C   UNL     1     -31.641  24.490  29.748  1.00  0.00     0.006 C 
BRANCH   4   5
ATOM      5  C   UNL     1     -32.102  24.530  31.212  1.00  0.00     0.053 C 
BRANCH   5   6
ATOM      6  C   UNL     1     -33.517  25.006  31.300  1.00  0.00     0.041 C 
ATOM      7  O   UNL     1     -33.995  25.744  30.399  1.00  0.00    -0.550 OA
ATOM      8  O   UNL     1     -34.324  24.596  32.353  1.00  0.00    -0.550 OA
ENDBRANCH   5   6
ENDBRANCH   4   5
ENDBRANCH   3   4
ENDBRANCH   2   3
ENDBRANCH   1   2
BRANCH   1   9
ATOM      9  C   UNL     1     -29.037  22.603  26.480  1.00  0.00     0.000 C 
BRANCH   9  10
ATOM     10  C   UNL     1     -28.540  21.677  25.352  1.00  0.00    -0.000 C 
BRANCH  10  11
ATOM     11  C   UNL     1     -29.425  21.655  24.090  1.00  0.00    -0.000 C 
BRANCH  11  12
ATOM     12  C   UNL     1     -29.807  20.251  23.589  1.00  0.00    -0.000 C 
BRANCH  12  13
ATOM     13  C   UNL     1     -31.319  19.988  23.647  1.00  0.00    -0.003 C 
ATOM     14  C   UNL     1     -31.789  19.796  25.086  1.00  0.00     0.004 C 
ENDBRANCH  12  13
ENDBRANCH  11  12
ENDBRANCH  10  11
ENDBRANCH   9  10
ENDBRANCH   1   9
TORSDOF 10
ENDMDL
MODEL 8
REMARK VINA RESULT:    -3.704      3.550      7.232
REMARK INTER + INTRA:          -6.715
REMARK INTER:                  -5.457
REMARK INTRA:                  -1.258
REMARK UNBOUND:                -0.846
REMARK SMILES CCCCCCCCCCCC(=O)[O-]
REMARK SMILES IDX 7 1 8 2 9 3 10 4 11 5 12 6 13 7 14 8 6 9 5 10 4 11 3 12 2 13
REMARK SMILES IDX 1 14
REMARK H PARENT
REMARK Flexibility Score: inf
ROOT
ATOM      1  C   UNL     1     -29.860  19.454  25.958  1.00  0.00     0.000 C 
ENDROOT
BRANCH   1   2
ATOM      2  C   UNL     1     -29.223  20.323  27.056  1.00  0.00     0.000 C 
BRANCH   2   3
ATOM      3  C   UNL     1     -29.226  21.821  26.706  1.00  0.00     0.000 C 
BRANCH   3   4
ATOM      4  C   UNL     1     -29.888  22.681  27.793  1.00  0.00     0.006 C 
BRANCH   4   5
ATOM      5  C   UNL     1     -30.981  21.923  28.558  1.00  0.00     0.053 C 
BRANCH   5   6
ATOM      6  C   UNL     1     -31.092  22.441  29.957  1.00  0.00     0.041 C 
ATOM      7  O   UNL     1     -30.055  22.713  30.617  1.00  0.00    -0.550 OA
ATOM      8  O   UNL     1     -32.342  22.671  30.516  1.00  0.00    -0.550 OA
ENDBRANCH   5   6
ENDBRANCH   4   5
ENDBRANCH   3   4
ENDBRANCH   2   3
ENDBRANCH   1   2
BRANCH   1   9
ATOM      9  C   UNL     1     -31.195  19.989  25.400  1.00  0.00     0.000 C 
BRANCH   9  10
ATOM     10  C   UNL     1     -31.267  20.085  23.863  1.00  0.00    -0.000 C 
BRANCH  10  11
ATOM     11  C   UNL     1     -29.905  20.217  23.153  1.00  0.00    -0.000 C 
BRANCH  11  12
ATOM     12  C   UNL     1     -29.421  21.661  22.939  1.00  0.00    -0.000 C 
BRANCH  12  13
ATOM     13  C   UNL     1     -27.918  21.832  23.200  1.00  0.00    -0.003 C 
ATOM     14  C   UNL     1     -27.202  20.484  23.198  1.00  0.00     0.004 C 
ENDBRANCH  12  13
ENDBRANCH  11  12
ENDBRANCH  10  11
ENDBRANCH   9  10
ENDBRANCH   1   9
TORSDOF 10
ENDMDL
MODEL 9
REMARK VINA RESULT:    -3.689      5.432      7.562
REMARK INTER + INTRA:          -6.692
REMARK INTER:                  -5.396
REMARK INTRA:                  -1.295
REMARK UNBOUND:                -0.846
REMARK SMILES CCCCCCCCCCCC(=O)[O-]
REMARK SMILES IDX 7 1 8 2 9 3 10 4 11 5 12 6 13 7 14 8 6 9 5 10 4 11 3 12 2 13
REMARK SMILES IDX 1 14
REMARK H PARENT
REMARK Flexibility Score: inf
ROOT
ATOM      1  C   UNL     1     -29.907  19.351  22.970  1.00  0.00     0.000 C 
ENDROOT
BRANCH   1   2
ATOM      2  C   UNL     1     -31.168  18.716  23.583  1.00  0.00     0.000 C 
BRANCH   2   3
ATOM      3  C   UNL     1     -32.145  19.760  24.150  1.00  0.00     0.000 C 
BRANCH   3   4
ATOM      4  C   UNL     1     -33.157  19.151  25.131  1.00  0.00     0.006 C 
BRANCH   4   5
ATOM      5  C   UNL     1     -33.809  17.873  24.586  1.00  0.00     0.053 C 
BRANCH   5   6
ATOM      6  C   UNL     1     -33.876  16.826  25.652  1.00  0.00     0.041 C 
ATOM      7  O   UNL     1     -34.666  16.958  26.622  1.00  0.00    -0.550 OA
ATOM      8  O   UNL     1     -33.099  15.679  25.549  1.00  0.00    -0.550 OA
ENDBRANCH   5   6
ENDBRANCH   4   5
ENDBRANCH   3   4
ENDBRANCH   2   3
ENDBRANCH   1   2
BRANCH   1   9
ATOM      9  C   UNL     1     -29.928  20.892  22.895  1.00  0.00     0.000 C 
BRANCH   9  10
ATOM     10  C   UNL     1     -28.609  21.583  23.291  1.00  0.00    -0.000 C 
BRANCH  10  11
ATOM     11  C   UNL     1     -28.220  21.442  24.777  1.00  0.00    -0.000 C 
BRANCH  11  12
ATOM     12  C   UNL     1     -29.194  22.103  25.769  1.00  0.00    -0.000 C 
BRANCH  12  13
ATOM     13  C   UNL     1     -29.750  21.116  26.805  1.00  0.00    -0.003 C 
ATOM     14  C   UNL     1     -29.173  19.718  26.600  1.00  0.00     0.004 C 
ENDBRANCH  12  13
ENDBRANCH  11  12
ENDBRANCH  10  11
ENDBRANCH   9  10
ENDBRANCH   1   9
TORSDOF 10
ENDMDL
