MODEL 1
REMARK VINA RESULT:    -3.569      0.000      0.000
REMARK INTER + INTRA:         -12.483
REMARK INTER:                  -8.158
REMARK INTRA:                  -4.325
REMARK UNBOUND:                -4.325
REMARK SMILES CCCCCCCCCCCCCCCCCCCCCCCC(=O)[O-]
REMARK SMILES IDX 13 1 14 2 15 3 16 4 17 5 18 6 19 7 20 8 21 9 22 10 23 11
REMARK SMILES IDX 24 12 25 13 26 14 12 15 11 16 10 17 9 18 8 19 7 20 6 21 5 22
REMARK SMILES IDX 4 23 3 24 2 25 1 26
REMARK H PARENT
REMARK Flexibility Score: inf
ROOT
ATOM      1  C   UNL     1     161.626 164.734 185.284  1.00  0.00     0.000 C 
ENDROOT
BRANCH   1   2
ATOM      2  C   UNL     1     162.354 164.537 186.626  1.00  0.00     0.000 C 
BRANCH   2   3
ATOM      3  C   UNL     1     161.399 164.548 187.829  1.00  0.00     0.000 C 
BRANCH   3   4
ATOM      4  C   UNL     1     161.573 163.279 188.677  1.00  0.00     0.000 C 
BRANCH   4   5
ATOM      5  C   UNL     1     162.868 162.521 188.348  1.00  0.00     0.000 C 
BRANCH   5   6
ATOM      6  C   UNL     1     162.714 160.996 188.489  1.00  0.00     0.000 C 
BRANCH   6   7
ATOM      7  C   UNL     1     164.030 160.246 188.231  1.00  0.00     0.000 C 
BRANCH   7   8
ATOM      8  C   UNL     1     164.841 160.014 189.519  1.00  0.00     0.000 C 
BRANCH   8   9
ATOM      9  C   UNL     1     166.252 160.627 189.459  1.00  0.00     0.000 C 
BRANCH   9  10
ATOM     10  C   UNL     1     166.363 162.056 190.023  1.00  0.00     0.006 C 
BRANCH  10  11
ATOM     11  C   UNL     1     167.475 162.878 189.357  1.00  0.00     0.053 C 
BRANCH  11  12
ATOM     12  C   UNL     1     167.306 164.332 189.661  1.00  0.00     0.041 C 
ATOM     13  O   UNL     1     168.125 164.922 190.414  1.00  0.00    -0.550 OA
ATOM     14  O   UNL     1     166.223 165.030 189.141  1.00  0.00    -0.550 OA
ENDBRANCH  11  12
ENDBRANCH  10  11
ENDBRANCH   9  10
ENDBRANCH   8   9
ENDBRANCH   7   8
ENDBRANCH   6   7
ENDBRANCH   5   6
ENDBRANCH   4   5
ENDBRANCH   3   4
ENDBRANCH   2   3
ENDBRANCH   1   2
BRANCH   1  15
ATOM     15  C   UNL     1     160.177 164.207 185.247  1.00  0.00     0.000 C 
BRANCH  15  16
ATOM     16  C   UNL     1     160.000 162.817 184.601  1.00  0.00     0.000 C 
BRANCH  16  17
ATOM     17  C   UNL     1     160.185 161.627 185.560  1.00  0.00     0.000 C 
BRANCH  17  18
ATOM     18  C   UNL     1     161.347 160.709 185.156  1.00  0.00    -0.000 C 
BRANCH  18  19
ATOM     19  C   UNL     1     162.226 161.375 184.087  1.00  0.00    -0.000 C 
BRANCH  19  20
ATOM     20  C   UNL     1     163.390 160.479 183.632  1.00  0.00    -0.000 C 
BRANCH  20  21
ATOM     21  C   UNL     1     164.577 160.505 184.611  1.00  0.00    -0.000 C 
BRANCH  21  22
ATOM     22  C   UNL     1     164.879 161.930 185.121  1.00  0.00    -0.000 C 
BRANCH  22  23
ATOM     23  C   UNL     1     166.229 162.046 185.851  1.00  0.00    -0.000 C 
BRANCH  23  24
ATOM     24  C   UNL     1     166.985 160.709 185.923  1.00  0.00    -0.000 C 
BRANCH  24  25
ATOM     25  C   UNL     1     168.433 160.876 186.409  1.00  0.00    -0.003 C 
ATOM     26  C   UNL     1     169.046 162.213 185.994  1.00  0.00     0.004 C 
ENDBRANCH  24  25
ENDBRANCH  23  24
ENDBRANCH  22  23
ENDBRANCH  21  22
ENDBRANCH  20  21
ENDBRANCH  19  20
ENDBRANCH  18  19
ENDBRANCH  17  18
ENDBRANCH  16  17
ENDBRANCH  15  16
ENDBRANCH   1  15
TORSDOF 22
ENDMDL
MODEL 2
REMARK VINA RESULT:    -3.451      1.797      4.305
REMARK INTER + INTRA:         -12.214
REMARK INTER:                  -8.243
REMARK INTRA:                  -3.971
REMARK UNBOUND:                -4.325
REMARK SMILES CCCCCCCCCCCCCCCCCCCCCCCC(=O)[O-]
REMARK SMILES IDX 13 1 14 2 15 3 16 4 17 5 18 6 19 7 20 8 21 9 22 10 23 11
REMARK SMILES IDX 24 12 25 13 26 14 12 15 11 16 10 17 9 18 8 19 7 20 6 21 5 22
REMARK SMILES IDX 4 23 3 24 2 25 1 26
REMARK H PARENT
REMARK Flexibility Score: inf
ROOT
ATOM      1  C   UNL     1     161.401 161.172 188.589  1.00  0.00     0.000 C 
ENDROOT
BRANCH   1   2
ATOM      2  C   UNL     1     162.896 161.523 188.491  1.00  0.00     0.000 C 
BRANCH   2   3
ATOM      3  C   UNL     1     163.806 160.290 188.594  1.00  0.00     0.000 C 
BRANCH   3   4
ATOM      4  C   UNL     1     164.898 160.323 187.515  1.00  0.00     0.000 C 
BRANCH   4   5
ATOM      5  C   UNL     1     166.309 160.473 188.106  1.00  0.00     0.000 C 
BRANCH   5   6
ATOM      6  C   UNL     1     166.314 160.433 189.645  1.00  0.00     0.000 C 
BRANCH   6   7
ATOM      7  C   UNL     1     166.609 161.806 190.267  1.00  0.00     0.000 C 
BRANCH   7   8
ATOM      8  C   UNL     1     167.288 162.770 189.277  1.00  0.00     0.000 C 
BRANCH   8   9
ATOM      9  C   UNL     1     166.540 164.108 189.135  1.00  0.00     0.000 C 
BRANCH   9  10
ATOM     10  C   UNL     1     165.265 164.051 188.273  1.00  0.00     0.006 C 
BRANCH  10  11
ATOM     11  C   UNL     1     165.389 164.844 186.965  1.00  0.00     0.053 C 
BRANCH  11  12
ATOM     12  C   UNL     1     164.540 166.074 187.016  1.00  0.00     0.041 C 
ATOM     13  O   UNL     1     164.152 166.531 188.123  1.00  0.00    -0.550 OA
ATOM     14  O   UNL     1     164.149 166.698 185.838  1.00  0.00    -0.550 OA
ENDBRANCH  11  12
ENDBRANCH  10  11
ENDBRANCH   9  10
ENDBRANCH   8   9
ENDBRANCH   7   8
ENDBRANCH   6   7
ENDBRANCH   5   6
ENDBRANCH   4   5
ENDBRANCH   3   4
ENDBRANCH   2   3
ENDBRANCH   1   2
BRANCH   1  15
ATOM     15  C   UNL     1     160.460 162.380 188.767  1.00  0.00     0.000 C 
BRANCH  15  16
ATOM     16  C   UNL     1     161.161 163.752 188.847  1.00  0.00     0.000 C 
BRANCH  16  17
ATOM     17  C   UNL     1     160.681 164.787 187.814  1.00  0.00     0.000 C 
BRANCH  17  18
ATOM     18  C   UNL     1     161.260 164.547 186.413  1.00  0.00    -0.000 C 
BRANCH  18  19
ATOM     19  C   UNL     1     160.139 164.362 185.380  1.00  0.00    -0.000 C 
BRANCH  19  20
ATOM     20  C   UNL     1     160.352 163.129 184.487  1.00  0.00    -0.000 C 
BRANCH  20  21
ATOM     21  C   UNL     1     159.875 161.825 185.151  1.00  0.00    -0.000 C 
BRANCH  21  22
ATOM     22  C   UNL     1     160.999 160.770 185.235  1.00  0.00    -0.000 C 
BRANCH  22  23
ATOM     23  C   UNL     1     162.392 161.331 184.900  1.00  0.00    -0.000 C 
BRANCH  23  24
ATOM     24  C   UNL     1     163.028 160.658 183.673  1.00  0.00    -0.000 C 
BRANCH  24  25
ATOM     25  C   UNL     1     163.494 161.673 182.618  1.00  0.00    -0.003 C 
ATOM     26  C   UNL     1     164.167 162.899 183.234  1.00  0.00     0.004 C 
ENDBRANCH  24  25
ENDBRANCH  23  24
ENDBRANCH  22  23
ENDBRANCH  21  22
ENDBRANCH  20  21
ENDBRANCH  19  20
ENDBRANCH  18  19
ENDBRANCH  17  18
ENDBRANCH  16  17
ENDBRANCH  15  16
ENDBRANCH   1  15
TORSDOF 22
ENDMDL
MODEL 3
REMARK VINA RESULT:    -3.419      1.972      2.807
REMARK INTER + INTRA:         -12.140
REMARK INTER:                  -8.783
REMARK INTRA:                  -3.357
REMARK UNBOUND:                -4.325
REMARK SMILES CCCCCCCCCCCCCCCCCCCCCCCC(=O)[O-]
REMARK SMILES IDX 13 1 14 2 15 3 16 4 17 5 18 6 19 7 20 8 21 9 22 10 23 11
REMARK SMILES IDX 24 12 25 13 26 14 12 15 11 16 10 17 9 18 8 19 7 20 6 21 5 22
REMARK SMILES IDX 4 23 3 24 2 25 1 26
REMARK H PARENT
REMARK Flexibility Score: inf
ROOT
ATOM      1  C   UNL     1     161.004 164.423 186.108  1.00  0.00     0.000 C 
ENDROOT
BRANCH   1   2
ATOM      2  C   UNL     1     160.290 164.794 187.420  1.00  0.00     0.000 C 
BRANCH   2   3
ATOM      3  C   UNL     1     160.706 163.901 188.598  1.00  0.00     0.000 C 
BRANCH   3   4
ATOM      4  C   UNL     1     159.970 162.554 188.551  1.00  0.00     0.000 C 
BRANCH   4   5
ATOM      5  C   UNL     1     160.906 161.380 188.218  1.00  0.00     0.000 C 
BRANCH   5   6
ATOM      6  C   UNL     1     162.383 161.701 188.506  1.00  0.00     0.000 C 
BRANCH   6   7
ATOM      7  C   UNL     1     163.324 161.161 187.417  1.00  0.00     0.000 C 
BRANCH   7   8
ATOM      8  C   UNL     1     164.434 160.261 187.989  1.00  0.00     0.000 C 
BRANCH   8   9
ATOM      9  C   UNL     1     165.840 160.663 187.509  1.00  0.00     0.000 C 
BRANCH   9  10
ATOM     10  C   UNL     1     166.886 160.825 188.629  1.00  0.00     0.006 C 
BRANCH  10  11
ATOM     11  C   UNL     1     166.295 161.407 189.921  1.00  0.00     0.053 C 
BRANCH  11  12
ATOM     12  C   UNL     1     166.410 162.898 189.924  1.00  0.00     0.041 C 
ATOM     13  O   UNL     1     165.375 163.614 189.873  1.00  0.00    -0.550 OA
ATOM     14  O   UNL     1     167.662 163.499 189.949  1.00  0.00    -0.550 OA
ENDBRANCH  11  12
ENDBRANCH  10  11
ENDBRANCH   9  10
ENDBRANCH   8   9
ENDBRANCH   7   8
ENDBRANCH   6   7
ENDBRANCH   5   6
ENDBRANCH   4   5
ENDBRANCH   3   4
ENDBRANCH   2   3
ENDBRANCH   1   2
BRANCH   1  15
ATOM     15  C   UNL     1     160.073 163.944 184.975  1.00  0.00     0.000 C 
BRANCH  15  16
ATOM     16  C   UNL     1     159.982 162.413 184.804  1.00  0.00     0.000 C 
BRANCH  16  17
ATOM     17  C   UNL     1     161.299 161.726 184.400  1.00  0.00     0.000 C 
BRANCH  17  18
ATOM     18  C   UNL     1     161.904 162.301 183.112  1.00  0.00    -0.000 C 
BRANCH  18  19
ATOM     19  C   UNL     1     163.190 161.553 182.729  1.00  0.00    -0.000 C 
BRANCH  19  20
ATOM     20  C   UNL     1     163.495 160.376 183.670  1.00  0.00    -0.000 C 
BRANCH  20  21
ATOM     21  C   UNL     1     165.001 160.190 183.919  1.00  0.00    -0.000 C 
BRANCH  21  22
ATOM     22  C   UNL     1     165.799 161.485 183.654  1.00  0.00    -0.000 C 
BRANCH  22  23
ATOM     23  C   UNL     1     166.900 161.320 182.591  1.00  0.00    -0.000 C 
BRANCH  23  24
ATOM     24  C   UNL     1     166.507 160.341 181.473  1.00  0.00    -0.000 C 
BRANCH  24  25
ATOM     25  C   UNL     1     166.404 161.024 180.101  1.00  0.00    -0.003 C 
ATOM     26  C   UNL     1     165.150 160.615 179.328  1.00  0.00     0.004 C 
ENDBRANCH  24  25
ENDBRANCH  23  24
ENDBRANCH  22  23
ENDBRANCH  21  22
ENDBRANCH  20  21
ENDBRANCH  19  20
ENDBRANCH  18  19
ENDBRANCH  17  18
ENDBRANCH  16  17
ENDBRANCH  15  16
ENDBRANCH   1  15
TORSDOF 22
ENDMDL
MODEL 4
REMARK VINA RESULT:    -3.386      1.245      2.115
REMARK INTER + INTRA:         -12.067
REMARK INTER:                  -8.004
REMARK INTRA:                  -4.063
REMARK UNBOUND:                -4.325
REMARK SMILES CCCCCCCCCCCCCCCCCCCCCCCC(=O)[O-]
REMARK SMILES IDX 13 1 14 2 15 3 16 4 17 5 18 6 19 7 20 8 21 9 22 10 23 11
REMARK SMILES IDX 24 12 25 13 26 14 12 15 11 16 10 17 9 18 8 19 7 20 6 21 5 22
REMARK SMILES IDX 4 23 3 24 2 25 1 26
REMARK H PARENT
REMARK Flexibility Score: inf
ROOT
ATOM      1  C   UNL     1     161.929 164.381 187.845  1.00  0.00     0.000 C 
ENDROOT
BRANCH   1   2
ATOM      2  C   UNL     1     161.227 163.520 188.910  1.00  0.00     0.000 C 
BRANCH   2   3
ATOM      3  C   UNL     1     160.911 162.101 188.415  1.00  0.00     0.000 C 
BRANCH   3   4
ATOM      4  C   UNL     1     162.123 161.489 187.698  1.00  0.00     0.000 C 
BRANCH   4   5
ATOM      5  C   UNL     1     163.190 160.971 188.676  1.00  0.00     0.000 C 
BRANCH   5   6
ATOM      6  C   UNL     1     164.275 160.131 187.980  1.00  0.00     0.000 C 
BRANCH   6   7
ATOM      7  C   UNL     1     165.696 160.606 188.322  1.00  0.00     0.000 C 
BRANCH   7   8
ATOM      8  C   UNL     1     166.068 160.343 189.792  1.00  0.00     0.000 C 
BRANCH   8   9
ATOM      9  C   UNL     1     166.598 161.598 190.511  1.00  0.00     0.000 C 
BRANCH   9  10
ATOM     10  C   UNL     1     166.334 162.926 189.777  1.00  0.00     0.006 C 
BRANCH  10  11
ATOM     11  C   UNL     1     167.615 163.577 189.237  1.00  0.00     0.053 C 
BRANCH  11  12
ATOM     12  C   UNL     1     167.600 165.051 189.491  1.00  0.00     0.041 C 
ATOM     13  O   UNL     1     166.651 165.758 189.062  1.00  0.00    -0.550 OA
ATOM     14  O   UNL     1     168.652 165.649 190.173  1.00  0.00    -0.550 OA
ENDBRANCH  11  12
ENDBRANCH  10  11
ENDBRANCH   9  10
ENDBRANCH   8   9
ENDBRANCH   7   8
ENDBRANCH   6   7
ENDBRANCH   5   6
ENDBRANCH   4   5
ENDBRANCH   3   4
ENDBRANCH   2   3
ENDBRANCH   1   2
BRANCH   1  15
ATOM     15  C   UNL     1     160.981 165.117 186.876  1.00  0.00     0.000 C 
BRANCH  15  16
ATOM     16  C   UNL     1     161.009 164.611 185.419  1.00  0.00     0.000 C 
BRANCH  16  17
ATOM     17  C   UNL     1     159.925 163.576 185.071  1.00  0.00     0.000 C 
BRANCH  17  18
ATOM     18  C   UNL     1     160.478 162.363 184.310  1.00  0.00    -0.000 C 
BRANCH  18  19
ATOM     19  C   UNL     1     162.014 162.378 184.298  1.00  0.00    -0.000 C 
BRANCH  19  20
ATOM     20  C   UNL     1     162.619 160.977 184.115  1.00  0.00    -0.000 C 
BRANCH  20  21
ATOM     21  C   UNL     1     163.975 161.006 183.387  1.00  0.00    -0.000 C 
BRANCH  21  22
ATOM     22  C   UNL     1     165.023 160.104 184.073  1.00  0.00    -0.000 C 
BRANCH  22  23
ATOM     23  C   UNL     1     166.159 160.892 184.750  1.00  0.00    -0.000 C 
BRANCH  23  24
ATOM     24  C   UNL     1     166.098 162.400 184.456  1.00  0.00    -0.000 C 
BRANCH  24  25
ATOM     25  C   UNL     1     166.284 163.255 185.719  1.00  0.00    -0.003 C 
ATOM     26  C   UNL     1     164.956 163.674 186.350  1.00  0.00     0.004 C 
ENDBRANCH  24  25
ENDBRANCH  23  24
ENDBRANCH  22  23
ENDBRANCH  21  22
ENDBRANCH  20  21
ENDBRANCH  19  20
ENDBRANCH  18  19
ENDBRANCH  17  18
ENDBRANCH  16  17
ENDBRANCH  15  16
ENDBRANCH   1  15
TORSDOF 22
ENDMDL
MODEL 5
REMARK VINA RESULT:    -3.372      3.108      5.912
REMARK INTER + INTRA:         -12.034
REMARK INTER:                  -8.198
REMARK INTRA:                  -3.836
REMARK UNBOUND:                -4.325
REMARK SMILES CCCCCCCCCCCCCCCCCCCCCCCC(=O)[O-]
REMARK SMILES IDX 13 1 14 2 15 3 16 4 17 5 18 6 19 7 20 8 21 9 22 10 23 11
REMARK SMILES IDX 24 12 25 13 26 14 12 15 11 16 10 17 9 18 8 19 7 20 6 21 5 22
REMARK SMILES IDX 4 23 3 24 2 25 1 26
REMARK H PARENT
REMARK Flexibility Score: inf
ROOT
ATOM      1  C   UNL     1     162.296 163.959 188.723  1.00  0.00     0.000 C 
ENDROOT
BRANCH   1   2
ATOM      2  C   UNL     1     162.653 165.122 187.780  1.00  0.00     0.000 C 
BRANCH   2   3
ATOM      3  C   UNL     1     163.211 164.645 186.431  1.00  0.00     0.000 C 
BRANCH   3   4
ATOM      4  C   UNL     1     162.579 165.427 185.270  1.00  0.00     0.000 C 
BRANCH   4   5
ATOM      5  C   UNL     1     162.188 164.521 184.092  1.00  0.00     0.000 C 
BRANCH   5   6
ATOM      6  C   UNL     1     161.230 163.390 184.507  1.00  0.00     0.000 C 
BRANCH   6   7
ATOM      7  C   UNL     1     161.389 162.136 183.634  1.00  0.00     0.000 C 
BRANCH   7   8
ATOM      8  C   UNL     1     162.770 162.057 182.960  1.00  0.00     0.000 C 
BRANCH   8   9
ATOM      9  C   UNL     1     162.686 161.761 181.451  1.00  0.00     0.000 C 
BRANCH   9  10
ATOM     10  C   UNL     1     163.493 160.535 180.984  1.00  0.00     0.006 C 
BRANCH  10  11
ATOM     11  C   UNL     1     164.676 160.905 180.079  1.00  0.00     0.053 C 
BRANCH  11  12
ATOM     12  C   UNL     1     165.971 160.573 180.747  1.00  0.00     0.041 C 
ATOM     13  O   UNL     1     167.022 160.444 180.065  1.00  0.00    -0.550 OA
ATOM     14  O   UNL     1     166.013 160.374 182.122  1.00  0.00    -0.550 OA
ENDBRANCH  11  12
ENDBRANCH  10  11
ENDBRANCH   9  10
ENDBRANCH   8   9
ENDBRANCH   7   8
ENDBRANCH   6   7
ENDBRANCH   5   6
ENDBRANCH   4   5
ENDBRANCH   3   4
ENDBRANCH   2   3
ENDBRANCH   1   2
BRANCH   1  15
ATOM     15  C   UNL     1     161.114 163.085 188.258  1.00  0.00     0.000 C 
BRANCH  15  16
ATOM     16  C   UNL     1     161.349 161.563 188.343  1.00  0.00     0.000 C 
BRANCH  16  17
ATOM     17  C   UNL     1     162.795 161.114 188.064  1.00  0.00     0.000 C 
BRANCH  17  18
ATOM     18  C   UNL     1     163.108 161.001 186.565  1.00  0.00    -0.000 C 
BRANCH  18  19
ATOM     19  C   UNL     1     164.603 161.227 186.299  1.00  0.00    -0.000 C 
BRANCH  19  20
ATOM     20  C   UNL     1     165.490 160.148 186.941  1.00  0.00    -0.000 C 
BRANCH  20  21
ATOM     21  C   UNL     1     166.982 160.525 186.937  1.00  0.00    -0.000 C 
BRANCH  21  22
ATOM     22  C   UNL     1     167.601 160.463 188.349  1.00  0.00    -0.000 C 
BRANCH  22  23
ATOM     23  C   UNL     1     166.564 160.589 189.479  1.00  0.00    -0.000 C 
BRANCH  23  24
ATOM     24  C   UNL     1     166.623 161.949 190.194  1.00  0.00    -0.000 C 
BRANCH  24  25
ATOM     25  C   UNL     1     165.628 162.964 189.611  1.00  0.00    -0.003 C 
ATOM     26  C   UNL     1     166.256 163.866 188.548  1.00  0.00     0.004 C 
ENDBRANCH  24  25
ENDBRANCH  23  24
ENDBRANCH  22  23
ENDBRANCH  21  22
ENDBRANCH  20  21
ENDBRANCH  19  20
ENDBRANCH  18  19
ENDBRANCH  17  18
ENDBRANCH  16  17
ENDBRANCH  15  16
ENDBRANCH   1  15
TORSDOF 22
ENDMDL
MODEL 6
REMARK VINA RESULT:    -3.359      6.756     11.625
REMARK INTER + INTRA:         -12.003
REMARK INTER:                  -7.784
REMARK INTRA:                  -4.219
REMARK UNBOUND:                -4.325
REMARK SMILES CCCCCCCCCCCCCCCCCCCCCCCC(=O)[O-]
REMARK SMILES IDX 13 1 14 2 15 3 16 4 17 5 18 6 19 7 20 8 21 9 22 10 23 11
REMARK SMILES IDX 24 12 25 13 26 14 12 15 11 16 10 17 9 18 8 19 7 20 6 21 5 22
REMARK SMILES IDX 4 23 3 24 2 25 1 26
REMARK H PARENT
REMARK Flexibility Score: inf
ROOT
ATOM      1  C   UNL     1     176.658 162.501 188.473  1.00  0.00     0.000 C 
ENDROOT
BRANCH   1   2
ATOM      2  C   UNL     1     176.715 161.017 188.876  1.00  0.00     0.000 C 
BRANCH   2   3
ATOM      3  C   UNL     1     175.436 160.251 188.510  1.00  0.00     0.000 C 
BRANCH   3   4
ATOM      4  C   UNL     1     174.252 161.213 188.337  1.00  0.00     0.000 C 
BRANCH   4   5
ATOM      5  C   UNL     1     172.897 160.488 188.331  1.00  0.00     0.000 C 
BRANCH   5   6
ATOM      6  C   UNL     1     172.557 159.879 186.959  1.00  0.00     0.000 C 
BRANCH   6   7
ATOM      7  C   UNL     1     173.132 160.699 185.794  1.00  0.00     0.000 C 
BRANCH   7   8
ATOM      8  C   UNL     1     174.082 159.876 184.905  1.00  0.00     0.000 C 
BRANCH   8   9
ATOM      9  C   UNL     1     175.517 160.434 184.881  1.00  0.00     0.000 C 
BRANCH   9  10
ATOM     10  C   UNL     1     175.615 161.971 184.925  1.00  0.00     0.006 C 
BRANCH  10  11
ATOM     11  C   UNL     1     177.042 162.486 184.693  1.00  0.00     0.053 C 
BRANCH  11  12
ATOM     12  C   UNL     1     177.538 162.067 183.346  1.00  0.00     0.041 C 
ATOM     13  O   UNL     1     176.953 162.462 182.304  1.00  0.00    -0.550 OA
ATOM     14  O   UNL     1     178.627 161.211 183.242  1.00  0.00    -0.550 OA
ENDBRANCH  11  12
ENDBRANCH  10  11
ENDBRANCH   9  10
ENDBRANCH   8   9
ENDBRANCH   7   8
ENDBRANCH   6   7
ENDBRANCH   5   6
ENDBRANCH   4   5
ENDBRANCH   3   4
ENDBRANCH   2   3
ENDBRANCH   1   2
BRANCH   1  15
ATOM     15  C   UNL     1     176.961 163.497 189.612  1.00  0.00     0.000 C 
BRANCH  15  16
ATOM     16  C   UNL     1     176.073 164.758 189.634  1.00  0.00     0.000 C 
BRANCH  16  17
ATOM     17  C   UNL     1     174.604 164.511 190.019  1.00  0.00     0.000 C 
BRANCH  17  18
ATOM     18  C   UNL     1     173.612 165.119 189.017  1.00  0.00    -0.000 C 
BRANCH  18  19
ATOM     19  C   UNL     1     174.055 164.845 187.573  1.00  0.00    -0.000 C 
BRANCH  19  20
ATOM     20  C   UNL     1     172.914 164.308 186.693  1.00  0.00    -0.000 C 
BRANCH  20  21
ATOM     21  C   UNL     1     171.634 164.015 187.495  1.00  0.00    -0.000 C 
BRANCH  21  22
ATOM     22  C   UNL     1     170.645 163.128 186.709  1.00  0.00    -0.000 C 
BRANCH  22  23
ATOM     23  C   UNL     1     169.730 162.282 187.612  1.00  0.00    -0.000 C 
BRANCH  23  24
ATOM     24  C   UNL     1     169.045 161.131 186.857  1.00  0.00    -0.000 C 
BRANCH  24  25
ATOM     25  C   UNL     1     168.489 160.055 187.802  1.00  0.00    -0.003 C 
ATOM     26  C   UNL     1     167.392 160.586 188.724  1.00  0.00     0.004 C 
ENDBRANCH  24  25
ENDBRANCH  23  24
ENDBRANCH  22  23
ENDBRANCH  21  22
ENDBRANCH  20  21
ENDBRANCH  19  20
ENDBRANCH  18  19
ENDBRANCH  17  18
ENDBRANCH  16  17
ENDBRANCH  15  16
ENDBRANCH   1  15
TORSDOF 22
ENDMDL
MODEL 7
REMARK VINA RESULT:    -3.339      1.707      4.236
REMARK INTER + INTRA:         -11.958
REMARK INTER:                  -7.563
REMARK INTRA:                  -4.394
REMARK UNBOUND:                -4.325
REMARK SMILES CCCCCCCCCCCCCCCCCCCCCCCC(=O)[O-]
REMARK SMILES IDX 13 1 14 2 15 3 16 4 17 5 18 6 19 7 20 8 21 9 22 10 23 11
REMARK SMILES IDX 24 12 25 13 26 14 12 15 11 16 10 17 9 18 8 19 7 20 6 21 5 22
REMARK SMILES IDX 4 23 3 24 2 25 1 26
REMARK H PARENT
REMARK Flexibility Score: inf
ROOT
ATOM      1  C   UNL     1     162.243 165.133 187.714  1.00  0.00     0.000 C 
ENDROOT
BRANCH   1   2
ATOM      2  C   UNL     1     162.980 164.592 186.475  1.00  0.00     0.000 C 
BRANCH   2   3
ATOM      3  C   UNL     1     162.328 165.030 185.156  1.00  0.00     0.000 C 
BRANCH   3   4
ATOM      4  C   UNL     1     162.308 163.874 184.145  1.00  0.00     0.000 C 
BRANCH   4   5
ATOM      5  C   UNL     1     161.430 162.700 184.607  1.00  0.00     0.000 C 
BRANCH   5   6
ATOM      6  C   UNL     1     162.051 161.330 184.277  1.00  0.00     0.000 C 
BRANCH   6   7
ATOM      7  C   UNL     1     163.277 161.447 183.358  1.00  0.00     0.000 C 
BRANCH   7   8
ATOM      8  C   UNL     1     164.093 160.144 183.294  1.00  0.00     0.000 C 
BRANCH   8   9
ATOM      9  C   UNL     1     165.074 159.991 184.472  1.00  0.00     0.000 C 
BRANCH   9  10
ATOM     10  C   UNL     1     165.786 161.289 184.895  1.00  0.00     0.006 C 
BRANCH  10  11
ATOM     11  C   UNL     1     167.000 161.039 185.800  1.00  0.00     0.053 C 
BRANCH  11  12
ATOM     12  C   UNL     1     167.916 162.221 185.788  1.00  0.00     0.041 C 
ATOM     13  O   UNL     1     169.040 162.157 186.350  1.00  0.00    -0.550 OA
ATOM     14  O   UNL     1     167.514 163.405 185.183  1.00  0.00    -0.550 OA
ENDBRANCH  11  12
ENDBRANCH  10  11
ENDBRANCH   9  10
ENDBRANCH   8   9
ENDBRANCH   7   8
ENDBRANCH   6   7
ENDBRANCH   5   6
ENDBRANCH   4   5
ENDBRANCH   3   4
ENDBRANCH   2   3
ENDBRANCH   1   2
BRANCH   1  15
ATOM     15  C   UNL     1     160.721 165.311 187.538  1.00  0.00     0.000 C 
BRANCH  15  16
ATOM     16  C   UNL     1     159.878 164.044 187.788  1.00  0.00     0.000 C 
BRANCH  16  17
ATOM     17  C   UNL     1     160.459 163.074 188.832  1.00  0.00     0.000 C 
BRANCH  17  18
ATOM     18  C   UNL     1     160.953 161.757 188.217  1.00  0.00    -0.000 C 
BRANCH  18  19
ATOM     19  C   UNL     1     162.335 161.378 188.769  1.00  0.00    -0.000 C 
BRANCH  19  20
ATOM     20  C   UNL     1     163.346 161.044 187.661  1.00  0.00    -0.000 C 
BRANCH  20  21
ATOM     21  C   UNL     1     164.276 159.877 188.038  1.00  0.00    -0.000 C 
BRANCH  21  22
ATOM     22  C   UNL     1     164.857 160.031 189.460  1.00  0.00    -0.000 C 
BRANCH  22  23
ATOM     23  C   UNL     1     166.367 160.325 189.476  1.00  0.00    -0.000 C 
BRANCH  23  24
ATOM     24  C   UNL     1     166.699 161.715 190.042  1.00  0.00    -0.000 C 
BRANCH  24  25
ATOM     25  C   UNL     1     166.298 162.851 189.089  1.00  0.00    -0.003 C 
ATOM     26  C   UNL     1     165.127 163.680 189.616  1.00  0.00     0.004 C 
ENDBRANCH  24  25
ENDBRANCH  23  24
ENDBRANCH  22  23
ENDBRANCH  21  22
ENDBRANCH  20  21
ENDBRANCH  19  20
ENDBRANCH  18  19
ENDBRANCH  17  18
ENDBRANCH  16  17
ENDBRANCH  15  16
ENDBRANCH   1  15
TORSDOF 22
ENDMDL
MODEL 8
REMARK VINA RESULT:    -3.308      1.476      4.292
REMARK INTER + INTRA:         -11.888
REMARK INTER:                  -7.549
REMARK INTRA:                  -4.339
REMARK UNBOUND:                -4.325
REMARK SMILES CCCCCCCCCCCCCCCCCCCCCCCC(=O)[O-]
REMARK SMILES IDX 13 1 14 2 15 3 16 4 17 5 18 6 19 7 20 8 21 9 22 10 23 11
REMARK SMILES IDX 24 12 25 13 26 14 12 15 11 16 10 17 9 18 8 19 7 20 6 21 5 22
REMARK SMILES IDX 4 23 3 24 2 25 1 26
REMARK H PARENT
REMARK Flexibility Score: inf
ROOT
ATOM      1  C   UNL     1     164.504 164.009 185.084  1.00  0.00     0.000 C 
ENDROOT
BRANCH   1   2
ATOM      2  C   UNL     1     164.574 163.142 186.354  1.00  0.00     0.000 C 
BRANCH   2   3
ATOM      3  C   UNL     1     164.166 163.907 187.621  1.00  0.00     0.000 C 
BRANCH   3   4
ATOM      4  C   UNL     1     164.328 163.026 188.869  1.00  0.00     0.000 C 
BRANCH   4   5
ATOM      5  C   UNL     1     164.863 161.623 188.537  1.00  0.00     0.000 C 
BRANCH   5   6
ATOM      6  C   UNL     1     165.859 161.105 189.589  1.00  0.00     0.000 C 
BRANCH   6   7
ATOM      7  C   UNL     1     167.173 160.614 188.962  1.00  0.00     0.000 C 
BRANCH   7   8
ATOM      8  C   UNL     1     167.220 160.836 187.439  1.00  0.00     0.000 C 
BRANCH   8   9
ATOM      9  C   UNL     1     167.994 162.106 187.041  1.00  0.00     0.000 C 
BRANCH   9  10
ATOM     10  C   UNL     1     168.442 162.989 188.221  1.00  0.00     0.006 C 
BRANCH  10  11
ATOM     11  C   UNL     1     167.668 164.313 188.305  1.00  0.00     0.053 C 
BRANCH  11  12
ATOM     12  C   UNL     1     167.750 164.880 189.686  1.00  0.00     0.041 C 
ATOM     13  O   UNL     1     166.771 164.779 190.472  1.00  0.00    -0.550 OA
ATOM     14  O   UNL     1     168.896 165.550 190.096  1.00  0.00    -0.550 OA
ENDBRANCH  11  12
ENDBRANCH  10  11
ENDBRANCH   9  10
ENDBRANCH   8   9
ENDBRANCH   7   8
ENDBRANCH   6   7
ENDBRANCH   5   6
ENDBRANCH   4   5
ENDBRANCH   3   4
ENDBRANCH   2   3
ENDBRANCH   1   2
BRANCH   1  15
ATOM     15  C   UNL     1     163.758 165.349 185.253  1.00  0.00     0.000 C 
BRANCH  15  16
ATOM     16  C   UNL     1     162.370 165.415 184.584  1.00  0.00     0.000 C 
BRANCH  16  17
ATOM     17  C   UNL     1     161.202 164.930 185.462  1.00  0.00     0.000 C 
BRANCH  17  18
ATOM     18  C   UNL     1     161.067 165.724 186.769  1.00  0.00    -0.000 C 
BRANCH  18  19
ATOM     19  C   UNL     1     160.135 165.004 187.754  1.00  0.00    -0.000 C 
BRANCH  19  20
ATOM     20  C   UNL     1     160.833 163.855 188.500  1.00  0.00    -0.000 C 
BRANCH  20  21
ATOM     21  C   UNL     1     159.875 162.701 188.844  1.00  0.00    -0.000 C 
BRANCH  21  22
ATOM     22  C   UNL     1     160.309 161.370 188.194  1.00  0.00    -0.000 C 
BRANCH  22  23
ATOM     23  C   UNL     1     161.374 161.544 187.096  1.00  0.00    -0.000 C 
BRANCH  23  24
ATOM     24  C   UNL     1     160.857 161.166 185.699  1.00  0.00    -0.000 C 
BRANCH  24  25
ATOM     25  C   UNL     1     161.994 160.833 184.720  1.00  0.00    -0.003 C 
ATOM     26  C   UNL     1     162.068 161.809 183.545  1.00  0.00     0.004 C 
ENDBRANCH  24  25
ENDBRANCH  23  24
ENDBRANCH  22  23
ENDBRANCH  21  22
ENDBRANCH  20  21
ENDBRANCH  19  20
ENDBRANCH  18  19
ENDBRANCH  17  18
ENDBRANCH  16  17
ENDBRANCH  15  16
ENDBRANCH   1  15
TORSDOF 22
ENDMDL
MODEL 9
REMARK VINA RESULT:    -3.303      2.026      5.559
REMARK INTER + INTRA:         -11.875
REMARK INTER:                  -7.760
REMARK INTRA:                  -4.115
REMARK UNBOUND:                -4.325
REMARK SMILES CCCCCCCCCCCCCCCCCCCCCCCC(=O)[O-]
REMARK SMILES IDX 13 1 14 2 15 3 16 4 17 5 18 6 19 7 20 8 21 9 22 10 23 11
REMARK SMILES IDX 24 12 25 13 26 14 12 15 11 16 10 17 9 18 8 19 7 20 6 21 5 22
REMARK SMILES IDX 4 23 3 24 2 25 1 26
REMARK H PARENT
REMARK Flexibility Score: inf
ROOT
ATOM      1  C   UNL     1     164.764 163.456 188.214  1.00  0.00     0.000 C 
ENDROOT
BRANCH   1   2
ATOM      2  C   UNL     1     163.402 163.397 188.929  1.00  0.00     0.000 C 
BRANCH   2   3
ATOM      3  C   UNL     1     162.511 162.255 188.419  1.00  0.00     0.000 C 
BRANCH   3   4
ATOM      4  C   UNL     1     161.048 162.477 188.829  1.00  0.00     0.000 C 
BRANCH   4   5
ATOM      5  C   UNL     1     160.056 161.794 187.874  1.00  0.00     0.000 C 
BRANCH   5   6
ATOM      6  C   UNL     1     160.709 161.366 186.548  1.00  0.00     0.000 C 
BRANCH   6   7
ATOM      7  C   UNL     1     160.180 162.166 185.347  1.00  0.00     0.000 C 
BRANCH   7   8
ATOM      8  C   UNL     1     161.087 163.356 184.984  1.00  0.00     0.000 C 
BRANCH   8   9
ATOM      9  C   UNL     1     160.644 164.672 185.649  1.00  0.00     0.000 C 
BRANCH   9  10
ATOM     10  C   UNL     1     161.735 165.381 186.474  1.00  0.00     0.006 C 
BRANCH  10  11
ATOM     11  C   UNL     1     161.237 166.670 187.142  1.00  0.00     0.053 C 
BRANCH  11  12
ATOM     12  C   UNL     1     162.380 167.422 187.746  1.00  0.00     0.041 C 
ATOM     13  O   UNL     1     162.246 168.634 188.060  1.00  0.00    -0.550 OA
ATOM     14  O   UNL     1     163.605 166.794 187.932  1.00  0.00    -0.550 OA
ENDBRANCH  11  12
ENDBRANCH  10  11
ENDBRANCH   9  10
ENDBRANCH   8   9
ENDBRANCH   7   8
ENDBRANCH   6   7
ENDBRANCH   5   6
ENDBRANCH   4   5
ENDBRANCH   3   4
ENDBRANCH   2   3
ENDBRANCH   1   2
BRANCH   1  15
ATOM     15  C   UNL     1     165.987 163.228 189.126  1.00  0.00     0.000 C 
BRANCH  15  16
ATOM     16  C   UNL     1     166.077 161.827 189.766  1.00  0.00     0.000 C 
BRANCH  16  17
ATOM     17  C   UNL     1     166.075 160.656 188.766  1.00  0.00     0.000 C 
BRANCH  17  18
ATOM     18  C   UNL     1     167.123 160.816 187.656  1.00  0.00    -0.000 C 
BRANCH  18  19
ATOM     19  C   UNL     1     166.542 160.415 186.292  1.00  0.00    -0.000 C 
BRANCH  19  20
ATOM     20  C   UNL     1     165.008 160.317 186.306  1.00  0.00    -0.000 C 
BRANCH  20  21
ATOM     21  C   UNL     1     164.343 161.266 185.294  1.00  0.00    -0.000 C 
BRANCH  21  22
ATOM     22  C   UNL     1     163.433 160.513 184.301  1.00  0.00    -0.000 C 
BRANCH  22  23
ATOM     23  C   UNL     1     163.648 160.931 182.835  1.00  0.00    -0.000 C 
BRANCH  23  24
ATOM     24  C   UNL     1     163.964 162.428 182.682  1.00  0.00    -0.000 C 
BRANCH  24  25
ATOM     25  C   UNL     1     162.977 163.146 181.749  1.00  0.00    -0.003 C 
ATOM     26  C   UNL     1     161.718 162.323 181.472  1.00  0.00     0.004 C 
ENDBRANCH  24  25
ENDBRANCH  23  24
ENDBRANCH  22  23
ENDBRANCH  21  22
ENDBRANCH  20  21
ENDBRANCH  19  20
ENDBRANCH  18  19
ENDBRANCH  17  18
ENDBRANCH  16  17
ENDBRANCH  15  16
ENDBRANCH   1  15
TORSDOF 22
ENDMDL
