MODEL 1
REMARK VINA RESULT:    -3.340      0.000      0.000
REMARK INTER + INTRA:          -7.536
REMARK INTER:                  -5.683
REMARK INTRA:                  -1.853
REMARK UNBOUND:                -1.853
REMARK SMILES CCCCCCCCCCCCCC(=O)[O-]
REMARK SMILES IDX 8 1 9 2 10 3 11 4 12 5 13 6 14 7 15 8 16 9 7 10 6 11 5 12
REMARK SMILES IDX 4 13 3 14 2 15 1 16
REMARK H PARENT
REMARK Flexibility Score: inf
ROOT
ATOM      1  C   UNL     1     -19.745 -21.220   3.776  1.00  0.00     0.000 C 
ENDROOT
BRANCH   1   2
ATOM      2  C   UNL     1     -20.610 -21.115   2.514  1.00  0.00     0.000 C 
BRANCH   2   3
ATOM      3  C   UNL     1     -21.471 -19.843   2.540  1.00  0.00     0.000 C 
BRANCH   3   4
ATOM      4  C   UNL     1     -21.568 -19.164   1.164  1.00  0.00     0.000 C 
BRANCH   4   5
ATOM      5  C   UNL     1     -20.738 -19.885   0.089  1.00  0.00     0.006 C 
BRANCH   5   6
ATOM      6  C   UNL     1     -21.604 -20.366  -1.083  1.00  0.00     0.053 C 
BRANCH   6   7
ATOM      7  C   UNL     1     -22.703 -21.275  -0.625  1.00  0.00     0.041 C 
ATOM      8  O   UNL     1     -22.446 -22.457  -0.276  1.00  0.00    -0.550 OA
ATOM      9  O   UNL     1     -24.010 -20.807  -0.557  1.00  0.00    -0.550 OA
ENDBRANCH   6   7
ENDBRANCH   5   6
ENDBRANCH   4   5
ENDBRANCH   3   4
ENDBRANCH   2   3
ENDBRANCH   1   2
BRANCH   1  10
ATOM     10  C   UNL     1     -18.333 -21.720   3.435  1.00  0.00     0.000 C 
BRANCH  10  11
ATOM     11  C   UNL     1     -17.257 -20.639   3.627  1.00  0.00    -0.000 C 
BRANCH  11  12
ATOM     12  C   UNL     1     -16.670 -20.146   2.292  1.00  0.00    -0.000 C 
BRANCH  12  13
ATOM     13  C   UNL     1     -17.375 -18.886   1.766  1.00  0.00    -0.000 C 
BRANCH  13  14
ATOM     14  C   UNL     1     -17.713 -17.884   2.885  1.00  0.00    -0.000 C 
BRANCH  14  15
ATOM     15  C   UNL     1     -18.991 -17.083   2.591  1.00  0.00    -0.003 C 
ATOM     16  C   UNL     1     -18.984 -16.451   1.199  1.00  0.00     0.004 C 
ENDBRANCH  14  15
ENDBRANCH  13  14
ENDBRANCH  12  13
ENDBRANCH  11  12
ENDBRANCH  10  11
ENDBRANCH   1  10
TORSDOF 12
ENDMDL
MODEL 2
REMARK VINA RESULT:    -3.295      1.139      2.999
REMARK INTER + INTRA:          -7.460
REMARK INTER:                  -6.105
REMARK INTRA:                  -1.355
REMARK UNBOUND:                -1.853
REMARK SMILES CCCCCCCCCCCCCC(=O)[O-]
REMARK SMILES IDX 8 1 9 2 10 3 11 4 12 5 13 6 14 7 15 8 16 9 7 10 6 11 5 12
REMARK SMILES IDX 4 13 3 14 2 15 1 16
REMARK H PARENT
REMARK Flexibility Score: inf
ROOT
ATOM      1  C   UNL     1     -20.125 -18.335   1.352  1.00  0.00     0.000 C 
ENDROOT
BRANCH   1   2
ATOM      2  C   UNL     1     -21.469 -18.356   2.088  1.00  0.00     0.000 C 
BRANCH   2   3
ATOM      3  C   UNL     1     -22.616 -18.718   1.131  1.00  0.00     0.000 C 
BRANCH   3   4
ATOM      4  C   UNL     1     -22.237 -18.531  -0.346  1.00  0.00     0.000 C 
BRANCH   4   5
ATOM      5  C   UNL     1     -22.624 -19.740  -1.214  1.00  0.00     0.006 C 
BRANCH   5   6
ATOM      6  C   UNL     1     -21.617 -20.891  -1.085  1.00  0.00     0.053 C 
BRANCH   6   7
ATOM      7  C   UNL     1     -22.207 -22.066  -0.367  1.00  0.00     0.041 C 
ATOM      8  O   UNL     1     -22.681 -23.035  -1.018  1.00  0.00    -0.550 OA
ATOM      9  O   UNL     1     -22.208 -22.106   1.022  1.00  0.00    -0.550 OA
ENDBRANCH   6   7
ENDBRANCH   5   6
ENDBRANCH   4   5
ENDBRANCH   3   4
ENDBRANCH   2   3
ENDBRANCH   1   2
BRANCH   1  10
ATOM     10  C   UNL     1     -19.184 -17.281   1.955  1.00  0.00     0.000 C 
BRANCH  10  11
ATOM     11  C   UNL     1     -17.721 -17.750   2.005  1.00  0.00    -0.000 C 
BRANCH  11  12
ATOM     12  C   UNL     1     -17.552 -19.211   1.550  1.00  0.00    -0.000 C 
BRANCH  12  13
ATOM     13  C   UNL     1     -16.639 -20.018   2.486  1.00  0.00    -0.000 C 
BRANCH  13  14
ATOM     14  C   UNL     1     -17.374 -20.530   3.737  1.00  0.00    -0.000 C 
BRANCH  14  15
ATOM     15  C   UNL     1     -18.340 -21.682   3.421  1.00  0.00    -0.003 C 
ATOM     16  C   UNL     1     -19.805 -21.295   3.623  1.00  0.00     0.004 C 
ENDBRANCH  14  15
ENDBRANCH  13  14
ENDBRANCH  12  13
ENDBRANCH  11  12
ENDBRANCH  10  11
ENDBRANCH   1  10
TORSDOF 12
ENDMDL
MODEL 3
REMARK VINA RESULT:    -3.281      5.151      7.474
REMARK INTER + INTRA:          -7.436
REMARK INTER:                  -6.579
REMARK INTRA:                  -0.857
REMARK UNBOUND:                -1.853
REMARK SMILES CCCCCCCCCCCCCC(=O)[O-]
REMARK SMILES IDX 8 1 9 2 10 3 11 4 12 5 13 6 14 7 15 8 16 9 7 10 6 11 5 12
REMARK SMILES IDX 4 13 3 14 2 15 1 16
REMARK H PARENT
REMARK Flexibility Score: inf
ROOT
ATOM      1  C   UNL     1     -17.374 -14.730   0.930  1.00  0.00     0.000 C 
ENDROOT
BRANCH   1   2
ATOM      2  C   UNL     1     -16.848 -14.008  -0.315  1.00  0.00     0.000 C 
BRANCH   2   3
ATOM      3  C   UNL     1     -16.930 -14.914  -1.554  1.00  0.00     0.000 C 
BRANCH   3   4
ATOM      4  C   UNL     1     -17.212 -14.129  -2.845  1.00  0.00     0.000 C 
BRANCH   4   5
ATOM      5  C   UNL     1     -18.235 -12.999  -2.640  1.00  0.00     0.006 C 
BRANCH   5   6
ATOM      6  C   UNL     1     -19.464 -13.160  -3.544  1.00  0.00     0.053 C 
BRANCH   6   7
ATOM      7  C   UNL     1     -19.739 -11.917  -4.334  1.00  0.00     0.041 C 
ATOM      8  O   UNL     1     -19.710 -10.790  -3.773  1.00  0.00    -0.550 OA
ATOM      9  O   UNL     1     -19.999 -12.000  -5.696  1.00  0.00    -0.550 OA
ENDBRANCH   6   7
ENDBRANCH   5   6
ENDBRANCH   4   5
ENDBRANCH   3   4
ENDBRANCH   2   3
ENDBRANCH   1   2
BRANCH   1  10
ATOM     10  C   UNL     1     -18.681 -15.477   0.622  1.00  0.00     0.000 C 
BRANCH  10  11
ATOM     11  C   UNL     1     -18.870 -16.729   1.494  1.00  0.00    -0.000 C 
BRANCH  11  12
ATOM     12  C   UNL     1     -18.001 -16.701   2.764  1.00  0.00    -0.000 C 
BRANCH  12  13
ATOM     13  C   UNL     1     -17.443 -18.087   3.127  1.00  0.00    -0.000 C 
BRANCH  13  14
ATOM     14  C   UNL     1     -17.527 -19.085   1.960  1.00  0.00    -0.000 C 
BRANCH  14  15
ATOM     15  C   UNL     1     -16.395 -20.125   1.993  1.00  0.00    -0.003 C 
ATOM     16  C   UNL     1     -15.604 -20.093   3.300  1.00  0.00     0.004 C 
ENDBRANCH  14  15
ENDBRANCH  13  14
ENDBRANCH  12  13
ENDBRANCH  11  12
ENDBRANCH  10  11
ENDBRANCH   1  10
TORSDOF 12
ENDMDL
MODEL 4
REMARK VINA RESULT:    -3.267      3.359      6.312
REMARK INTER + INTRA:          -7.411
REMARK INTER:                  -5.781
REMARK INTRA:                  -1.630
REMARK UNBOUND:                -1.853
REMARK SMILES CCCCCCCCCCCCCC(=O)[O-]
REMARK SMILES IDX 8 1 9 2 10 3 11 4 12 5 13 6 14 7 15 8 16 9 7 10 6 11 5 12
REMARK SMILES IDX 4 13 3 14 2 15 1 16
REMARK H PARENT
REMARK Flexibility Score: inf
ROOT
ATOM      1  C   UNL     1     -22.517 -17.735   1.744  1.00  0.00     0.000 C 
ENDROOT
BRANCH   1   2
ATOM      2  C   UNL     1     -21.145 -18.083   2.334  1.00  0.00     0.000 C 
BRANCH   2   3
ATOM      3  C   UNL     1     -20.150 -18.464   1.227  1.00  0.00     0.000 C 
BRANCH   3   4
ATOM      4  C   UNL     1     -19.098 -19.480   1.700  1.00  0.00     0.000 C 
BRANCH   4   5
ATOM      5  C   UNL     1     -17.746 -18.822   2.027  1.00  0.00     0.006 C 
BRANCH   5   6
ATOM      6  C   UNL     1     -16.583 -19.818   1.942  1.00  0.00     0.053 C 
BRANCH   6   7
ATOM      7  C   UNL     1     -15.975 -20.078   3.287  1.00  0.00     0.041 C 
ATOM      8  O   UNL     1     -14.726 -20.183   3.409  1.00  0.00    -0.550 OA
ATOM      9  O   UNL     1     -16.786 -20.176   4.411  1.00  0.00    -0.550 OA
ENDBRANCH   6   7
ENDBRANCH   5   6
ENDBRANCH   4   5
ENDBRANCH   3   4
ENDBRANCH   2   3
ENDBRANCH   1   2
BRANCH   1  10
ATOM     10  C   UNL     1     -22.425 -17.524   0.225  1.00  0.00     0.000 C 
BRANCH  10  11
ATOM     11  C   UNL     1     -23.719 -17.914  -0.508  1.00  0.00    -0.000 C 
BRANCH  11  12
ATOM     12  C   UNL     1     -23.646 -19.322  -1.126  1.00  0.00    -0.000 C 
BRANCH  12  13
ATOM     13  C   UNL     1     -22.248 -19.656  -1.671  1.00  0.00    -0.000 C 
BRANCH  13  14
ATOM     14  C   UNL     1     -21.670 -20.950  -1.070  1.00  0.00    -0.000 C 
BRANCH  14  15
ATOM     15  C   UNL     1     -22.619 -21.599  -0.050  1.00  0.00    -0.003 C 
ATOM     16  C   UNL     1     -22.002 -21.705   1.344  1.00  0.00     0.004 C 
ENDBRANCH  14  15
ENDBRANCH  13  14
ENDBRANCH  12  13
ENDBRANCH  11  12
ENDBRANCH  10  11
ENDBRANCH   1  10
TORSDOF 12
ENDMDL
MODEL 5
REMARK VINA RESULT:    -3.265      0.993      2.947
REMARK INTER + INTRA:          -7.409
REMARK INTER:                  -5.902
REMARK INTRA:                  -1.506
REMARK UNBOUND:                -1.853
REMARK SMILES CCCCCCCCCCCCCC(=O)[O-]
REMARK SMILES IDX 8 1 9 2 10 3 11 4 12 5 13 6 14 7 15 8 16 9 7 10 6 11 5 12
REMARK SMILES IDX 4 13 3 14 2 15 1 16
REMARK H PARENT
REMARK Flexibility Score: inf
ROOT
ATOM      1  C   UNL     1     -17.717 -18.125   2.319  1.00  0.00     0.000 C 
ENDROOT
BRANCH   1   2
ATOM      2  C   UNL     1     -18.993 -17.607   1.647  1.00  0.00     0.000 C 
BRANCH   2   3
ATOM      3  C   UNL     1     -20.218 -18.424   2.086  1.00  0.00     0.000 C 
BRANCH   3   4
ATOM      4  C   UNL     1     -21.145 -18.781   0.913  1.00  0.00     0.000 C 
BRANCH   4   5
ATOM      5  C   UNL     1     -20.644 -19.996   0.113  1.00  0.00     0.006 C 
BRANCH   5   6
ATOM      6  C   UNL     1     -21.581 -20.349  -1.050  1.00  0.00     0.053 C 
BRANCH   6   7
ATOM      7  C   UNL     1     -22.741 -21.180  -0.595  1.00  0.00     0.041 C 
ATOM      8  O   UNL     1     -22.562 -22.372  -0.228  1.00  0.00    -0.550 OA
ATOM      9  O   UNL     1     -24.017 -20.631  -0.550  1.00  0.00    -0.550 OA
ENDBRANCH   6   7
ENDBRANCH   5   6
ENDBRANCH   4   5
ENDBRANCH   3   4
ENDBRANCH   2   3
ENDBRANCH   1   2
BRANCH   1  10
ATOM     10  C   UNL     1     -17.216 -19.407   1.636  1.00  0.00     0.000 C 
BRANCH  10  11
ATOM     11  C   UNL     1     -16.197 -20.177   2.491  1.00  0.00    -0.000 C 
BRANCH  11  12
ATOM     12  C   UNL     1     -16.028 -19.573   3.896  1.00  0.00    -0.000 C 
BRANCH  12  13
ATOM     13  C   UNL     1     -16.505 -20.520   5.008  1.00  0.00    -0.000 C 
BRANCH  13  14
ATOM     14  C   UNL     1     -18.038 -20.588   5.113  1.00  0.00    -0.000 C 
BRANCH  14  15
ATOM     15  C   UNL     1     -18.604 -21.924   4.606  1.00  0.00    -0.003 C 
ATOM     16  C   UNL     1     -19.573 -21.748   3.438  1.00  0.00     0.004 C 
ENDBRANCH  14  15
ENDBRANCH  13  14
ENDBRANCH  12  13
ENDBRANCH  11  12
ENDBRANCH  10  11
ENDBRANCH   1  10
TORSDOF 12
ENDMDL
MODEL 6
REMARK VINA RESULT:    -3.247      7.083      8.853
REMARK INTER + INTRA:          -7.377
REMARK INTER:                  -5.864
REMARK INTRA:                  -1.513
REMARK UNBOUND:                -1.853
REMARK SMILES CCCCCCCCCCCCCC(=O)[O-]
REMARK SMILES IDX 8 1 9 2 10 3 11 4 12 5 13 6 14 7 15 8 16 9 7 10 6 11 5 12
REMARK SMILES IDX 4 13 3 14 2 15 1 16
REMARK H PARENT
REMARK Flexibility Score: inf
ROOT
ATOM      1  C   UNL     1     -15.940 -11.699   1.103  1.00  0.00     0.000 C 
ENDROOT
BRANCH   1   2
ATOM      2  C   UNL     1     -16.161 -13.163   1.500  1.00  0.00     0.000 C 
BRANCH   2   3
ATOM      3  C   UNL     1     -15.898 -14.101   0.312  1.00  0.00     0.000 C 
BRANCH   3   4
ATOM      4  C   UNL     1     -17.194 -14.585  -0.359  1.00  0.00     0.000 C 
BRANCH   4   5
ATOM      5  C   UNL     1     -17.056 -14.716  -1.886  1.00  0.00     0.006 C 
BRANCH   5   6
ATOM      6  C   UNL     1     -17.378 -13.403  -2.611  1.00  0.00     0.053 C 
BRANCH   6   7
ATOM      7  C   UNL     1     -18.704 -13.462  -3.305  1.00  0.00     0.041 C 
ATOM      8  O   UNL     1     -18.897 -14.289  -4.235  1.00  0.00    -0.550 OA
ATOM      9  O   UNL     1     -19.737 -12.623  -2.906  1.00  0.00    -0.550 OA
ENDBRANCH   6   7
ENDBRANCH   5   6
ENDBRANCH   4   5
ENDBRANCH   3   4
ENDBRANCH   2   3
ENDBRANCH   1   2
BRANCH   1  10
ATOM     10  C   UNL     1     -15.063 -11.596  -0.154  1.00  0.00     0.000 C 
BRANCH  10  11
ATOM     11  C   UNL     1     -13.790 -10.766   0.075  1.00  0.00    -0.000 C 
BRANCH  11  12
ATOM     12  C   UNL     1     -12.869 -11.380   1.146  1.00  0.00    -0.000 C 
BRANCH  12  13
ATOM     13  C   UNL     1     -12.054 -12.568   0.611  1.00  0.00    -0.000 C 
BRANCH  13  14
ATOM     14  C   UNL     1     -12.364 -13.881   1.351  1.00  0.00    -0.000 C 
BRANCH  14  15
ATOM     15  C   UNL     1     -11.978 -13.824   2.838  1.00  0.00    -0.003 C 
ATOM     16  C   UNL     1     -13.182 -13.983   3.766  1.00  0.00     0.004 C 
ENDBRANCH  14  15
ENDBRANCH  13  14
ENDBRANCH  12  13
ENDBRANCH  11  12
ENDBRANCH  10  11
ENDBRANCH   1  10
TORSDOF 12
ENDMDL
MODEL 7
REMARK VINA RESULT:    -3.194      3.484      6.085
REMARK INTER + INTRA:          -7.288
REMARK INTER:                  -5.881
REMARK INTRA:                  -1.407
REMARK UNBOUND:                -1.853
REMARK SMILES CCCCCCCCCCCCCC(=O)[O-]
REMARK SMILES IDX 8 1 9 2 10 3 11 4 12 5 13 6 14 7 15 8 16 9 7 10 6 11 5 12
REMARK SMILES IDX 4 13 3 14 2 15 1 16
REMARK H PARENT
REMARK Flexibility Score: inf
ROOT
ATOM      1  C   UNL     1     -20.764 -18.286   2.389  1.00  0.00     0.000 C 
ENDROOT
BRANCH   1   2
ATOM      2  C   UNL     1     -19.571 -18.069   1.451  1.00  0.00     0.000 C 
BRANCH   2   3
ATOM      3  C   UNL     1     -18.246 -18.110   2.228  1.00  0.00     0.000 C 
BRANCH   3   4
ATOM      4  C   UNL     1     -17.268 -19.162   1.678  1.00  0.00     0.000 C 
BRANCH   4   5
ATOM      5  C   UNL     1     -17.000 -20.300   2.677  1.00  0.00     0.006 C 
BRANCH   5   6
ATOM      6  C   UNL     1     -15.682 -20.104   3.436  1.00  0.00     0.053 C 
BRANCH   6   7
ATOM      7  C   UNL     1     -15.905 -19.976   4.912  1.00  0.00     0.041 C 
ATOM      8  O   UNL     1     -16.819 -19.232   5.354  1.00  0.00    -0.550 OA
ATOM      9  O   UNL     1     -15.121 -20.702   5.800  1.00  0.00    -0.550 OA
ENDBRANCH   6   7
ENDBRANCH   5   6
ENDBRANCH   4   5
ENDBRANCH   3   4
ENDBRANCH   2   3
ENDBRANCH   1   2
BRANCH   1  10
ATOM     10  C   UNL     1     -20.965 -19.779   2.688  1.00  0.00     0.000 C 
BRANCH  10  11
ATOM     11  C   UNL     1     -20.693 -20.672   1.466  1.00  0.00    -0.000 C 
BRANCH  11  12
ATOM     12  C   UNL     1     -21.904 -21.544   1.089  1.00  0.00    -0.000 C 
BRANCH  12  13
ATOM     13  C   UNL     1     -22.115 -21.636  -0.430  1.00  0.00    -0.000 C 
BRANCH  13  14
ATOM     14  C   UNL     1     -21.635 -20.377  -1.174  1.00  0.00    -0.000 C 
BRANCH  14  15
ATOM     15  C   UNL     1     -22.787 -19.417  -1.509  1.00  0.00    -0.003 C 
ATOM     16  C   UNL     1     -22.805 -18.181  -0.610  1.00  0.00     0.004 C 
ENDBRANCH  14  15
ENDBRANCH  13  14
ENDBRANCH  12  13
ENDBRANCH  11  12
ENDBRANCH  10  11
ENDBRANCH   1  10
TORSDOF 12
ENDMDL
MODEL 8
REMARK VINA RESULT:    -3.163      4.690      7.253
REMARK INTER + INTRA:          -7.235
REMARK INTER:                  -6.150
REMARK INTRA:                  -1.084
REMARK UNBOUND:                -1.853
REMARK SMILES CCCCCCCCCCCCCC(=O)[O-]
REMARK SMILES IDX 8 1 9 2 10 3 11 4 12 5 13 6 14 7 15 8 16 9 7 10 6 11 5 12
REMARK SMILES IDX 4 13 3 14 2 15 1 16
REMARK H PARENT
REMARK Flexibility Score: inf
ROOT
ATOM      1  C   UNL     1     -17.008 -14.701   1.524  1.00  0.00     0.000 C 
ENDROOT
BRANCH   1   2
ATOM      2  C   UNL     1     -17.899 -15.585   0.644  1.00  0.00     0.000 C 
BRANCH   2   3
ATOM      3  C   UNL     1     -18.572 -16.689   1.475  1.00  0.00     0.000 C 
BRANCH   3   4
ATOM      4  C   UNL     1     -17.571 -17.481   2.331  1.00  0.00     0.000 C 
BRANCH   4   5
ATOM      5  C   UNL     1     -17.426 -18.942   1.873  1.00  0.00     0.006 C 
BRANCH   5   6
ATOM      6  C   UNL     1     -17.350 -19.914   3.057  1.00  0.00     0.053 C 
BRANCH   6   7
ATOM      7  C   UNL     1     -16.044 -19.806   3.782  1.00  0.00     0.041 C 
ATOM      8  O   UNL     1     -14.971 -20.131   3.209  1.00  0.00    -0.550 OA
ATOM      9  O   UNL     1     -16.007 -19.319   5.083  1.00  0.00    -0.550 OA
ENDBRANCH   6   7
ENDBRANCH   5   6
ENDBRANCH   4   5
ENDBRANCH   3   4
ENDBRANCH   2   3
ENDBRANCH   1   2
BRANCH   1  10
ATOM     10  C   UNL     1     -16.102 -13.805   0.666  1.00  0.00     0.000 C 
BRANCH  10  11
ATOM     11  C   UNL     1     -16.812 -12.530   0.183  1.00  0.00    -0.000 C 
BRANCH  11  12
ATOM     12  C   UNL     1     -16.012 -11.781  -0.898  1.00  0.00    -0.000 C 
BRANCH  12  13
ATOM     13  C   UNL     1     -16.510 -12.087  -2.319  1.00  0.00    -0.000 C 
BRANCH  13  14
ATOM     14  C   UNL     1     -17.948 -12.634  -2.339  1.00  0.00    -0.000 C 
BRANCH  14  15
ATOM     15  C   UNL     1     -18.062 -13.959  -3.112  1.00  0.00    -0.003 C 
ATOM     16  C   UNL     1     -16.940 -14.939  -2.769  1.00  0.00     0.004 C 
ENDBRANCH  14  15
ENDBRANCH  13  14
ENDBRANCH  12  13
ENDBRANCH  11  12
ENDBRANCH  10  11
ENDBRANCH   1  10
TORSDOF 12
ENDMDL
MODEL 9
REMARK VINA RESULT:    -3.154      6.473      8.443
REMARK INTER + INTRA:          -7.219
REMARK INTER:                  -5.941
REMARK INTRA:                  -1.278
REMARK UNBOUND:                -1.853
REMARK SMILES CCCCCCCCCCCCCC(=O)[O-]
REMARK SMILES IDX 8 1 9 2 10 3 11 4 12 5 13 6 14 7 15 8 16 9 7 10 6 11 5 12
REMARK SMILES IDX 4 13 3 14 2 15 1 16
REMARK H PARENT
REMARK Flexibility Score: inf
ROOT
ATOM      1  C   UNL     1     -16.126 -14.111   1.118  1.00  0.00     0.000 C 
ENDROOT
BRANCH   1   2
ATOM      2  C   UNL     1     -17.275 -15.060   0.756  1.00  0.00     0.000 C 
BRANCH   2   3
ATOM      3  C   UNL     1     -17.931 -14.649  -0.572  1.00  0.00     0.000 C 
BRANCH   3   4
ATOM      4  C   UNL     1     -16.972 -14.765  -1.768  1.00  0.00     0.000 C 
BRANCH   4   5
ATOM      5  C   UNL     1     -17.597 -14.256  -3.078  1.00  0.00     0.006 C 
BRANCH   5   6
ATOM      6  C   UNL     1     -18.270 -12.888  -2.906  1.00  0.00     0.053 C 
BRANCH   6   7
ATOM      7  C   UNL     1     -19.619 -12.847  -3.555  1.00  0.00     0.041 C 
ATOM      8  O   UNL     1     -20.655 -13.092  -2.882  1.00  0.00    -0.550 OA
ATOM      9  O   UNL     1     -19.736 -12.510  -4.898  1.00  0.00    -0.550 OA
ENDBRANCH   6   7
ENDBRANCH   5   6
ENDBRANCH   4   5
ENDBRANCH   3   4
ENDBRANCH   2   3
ENDBRANCH   1   2
BRANCH   1  10
ATOM     10  C   UNL     1     -16.664 -12.750   1.585  1.00  0.00     0.000 C 
BRANCH  10  11
ATOM     11  C   UNL     1     -15.824 -11.571   1.068  1.00  0.00    -0.000 C 
BRANCH  11  12
ATOM     12  C   UNL     1     -14.622 -12.027   0.222  1.00  0.00    -0.000 C 
BRANCH  12  13
ATOM     13  C   UNL     1     -13.328 -11.281   0.585  1.00  0.00    -0.000 C 
BRANCH  13  14
ATOM     14  C   UNL     1     -12.099 -12.207   0.622  1.00  0.00    -0.000 C 
BRANCH  14  15
ATOM     15  C   UNL     1     -12.456 -13.639   1.051  1.00  0.00    -0.003 C 
ATOM     16  C   UNL     1     -12.346 -13.846   2.561  1.00  0.00     0.004 C 
ENDBRANCH  14  15
ENDBRANCH  13  14
ENDBRANCH  12  13
ENDBRANCH  11  12
ENDBRANCH  10  11
ENDBRANCH   1  10
TORSDOF 12
ENDMDL
