MODEL 1
REMARK VINA RESULT:    -3.954      0.000      0.000
REMARK INTER + INTRA:          -7.698
REMARK INTER:                  -6.265
REMARK INTRA:                  -1.433
REMARK UNBOUND:                -1.433
REMARK SMILES CCCCCCCCCCCC(=O)[O-]
REMARK SMILES IDX 7 1 8 2 9 3 10 4 11 5 12 6 13 7 14 8 6 9 5 10 4 11 3 12 2 13
REMARK SMILES IDX 1 14
REMARK H PARENT
REMARK Flexibility Score: inf
ROOT
ATOM      1  C   UNL     1     -10.904 -11.752   6.539  1.00  0.00     0.000 C 
ENDROOT
BRANCH   1   2
ATOM      2  C   UNL     1     -11.310 -10.489   5.763  1.00  0.00     0.000 C 
BRANCH   2   3
ATOM      3  C   UNL     1     -12.455  -9.722   6.441  1.00  0.00     0.000 C 
BRANCH   3   4
ATOM      4  C   UNL     1     -13.293 -10.654   7.325  1.00  0.00     0.006 C 
BRANCH   4   5
ATOM      5  C   UNL     1     -14.003  -9.871   8.432  1.00  0.00     0.053 C 
BRANCH   5   6
ATOM      6  C   UNL     1     -15.469  -9.774   8.149  1.00  0.00     0.041 C 
ATOM      7  O   UNL     1     -15.910 -10.025   6.997  1.00  0.00    -0.550 OA
ATOM      8  O   UNL     1     -16.343  -9.361   9.147  1.00  0.00    -0.550 OA
ENDBRANCH   5   6
ENDBRANCH   4   5
ENDBRANCH   3   4
ENDBRANCH   2   3
ENDBRANCH   1   2
BRANCH   1   9
ATOM      9  C   UNL     1      -9.414 -11.758   6.922  1.00  0.00     0.000 C 
BRANCH   9  10
ATOM     10  C   UNL     1      -8.879 -10.352   7.238  1.00  0.00    -0.000 C 
BRANCH  10  11
ATOM     11  C   UNL     1      -8.737 -10.100   8.747  1.00  0.00    -0.000 C 
BRANCH  11  12
ATOM     12  C   UNL     1      -9.990  -9.420   9.311  1.00  0.00    -0.000 C 
BRANCH  12  13
ATOM     13  C   UNL     1     -10.839 -10.412  10.114  1.00  0.00    -0.003 C 
ATOM     14  C   UNL     1      -9.999 -11.587  10.605  1.00  0.00     0.004 C 
ENDBRANCH  12  13
ENDBRANCH  11  12
ENDBRANCH  10  11
ENDBRANCH   9  10
ENDBRANCH   1   9
TORSDOF 10
ENDMDL
MODEL 2
REMARK VINA RESULT:    -3.864      5.047      7.194
REMARK INTER + INTRA:          -7.557
REMARK INTER:                  -7.169
REMARK INTRA:                  -0.388
REMARK UNBOUND:                -1.433
REMARK SMILES CCCCCCCCCCCC(=O)[O-]
REMARK SMILES IDX 7 1 8 2 9 3 10 4 11 5 12 6 13 7 14 8 6 9 5 10 4 11 3 12 2 13
REMARK SMILES IDX 1 14
REMARK H PARENT
REMARK Flexibility Score: inf
ROOT
ATOM      1  C   UNL     1     -10.624 -12.015   6.074  1.00  0.00     0.000 C 
ENDROOT
BRANCH   1   2
ATOM      2  C   UNL     1      -9.210 -12.574   6.296  1.00  0.00     0.000 C 
BRANCH   2   3
ATOM      3  C   UNL     1      -8.837 -13.660   5.276  1.00  0.00     0.000 C 
BRANCH   3   4
ATOM      4  C   UNL     1      -7.319 -13.720   5.067  1.00  0.00     0.006 C 
BRANCH   4   5
ATOM      5  C   UNL     1      -6.685 -14.799   5.948  1.00  0.00     0.053 C 
BRANCH   5   6
ATOM      6  C   UNL     1      -6.432 -16.042   5.155  1.00  0.00     0.041 C 
ATOM      7  O   UNL     1      -7.319 -16.932   5.070  1.00  0.00    -0.550 OA
ATOM      8  O   UNL     1      -5.198 -16.241   4.549  1.00  0.00    -0.550 OA
ENDBRANCH   5   6
ENDBRANCH   4   5
ENDBRANCH   3   4
ENDBRANCH   2   3
ENDBRANCH   1   2
BRANCH   1   9
ATOM      9  C   UNL     1     -10.687 -10.486   6.227  1.00  0.00     0.000 C 
BRANCH   9  10
ATOM     10  C   UNL     1     -12.126  -9.949   6.208  1.00  0.00    -0.000 C 
BRANCH  10  11
ATOM     11  C   UNL     1     -13.087 -10.805   7.047  1.00  0.00    -0.000 C 
BRANCH  11  12
ATOM     12  C   UNL     1     -14.505 -10.222   7.024  1.00  0.00    -0.000 C 
BRANCH  12  13
ATOM     13  C   UNL     1     -15.000  -9.922   8.444  1.00  0.00    -0.003 C 
ATOM     14  C   UNL     1     -13.867 -10.040   9.459  1.00  0.00     0.004 C 
ENDBRANCH  12  13
ENDBRANCH  11  12
ENDBRANCH  10  11
ENDBRANCH   9  10
ENDBRANCH   1   9
TORSDOF 10
ENDMDL
MODEL 3
REMARK VINA RESULT:    -3.804      1.730      3.307
REMARK INTER + INTRA:          -7.461
REMARK INTER:                  -6.663
REMARK INTRA:                  -0.798
REMARK UNBOUND:                -1.433
REMARK SMILES CCCCCCCCCCCC(=O)[O-]
REMARK SMILES IDX 7 1 8 2 9 3 10 4 11 5 12 6 13 7 14 8 6 9 5 10 4 11 3 12 2 13
REMARK SMILES IDX 1 14
REMARK H PARENT
REMARK Flexibility Score: inf
ROOT
ATOM      1  C   UNL     1     -11.064  -9.922   8.036  1.00  0.00     0.000 C 
ENDROOT
BRANCH   1   2
ATOM      2  C   UNL     1     -11.555  -9.196   6.773  1.00  0.00     0.000 C 
BRANCH   2   3
ATOM      3  C   UNL     1     -12.720  -9.927   6.087  1.00  0.00     0.000 C 
BRANCH   3   4
ATOM      4  C   UNL     1     -13.524 -10.751   7.100  1.00  0.00     0.006 C 
BRANCH   4   5
ATOM      5  C   UNL     1     -14.919 -10.157   7.309  1.00  0.00     0.053 C 
BRANCH   5   6
ATOM      6  C   UNL     1     -15.140  -9.833   8.753  1.00  0.00     0.041 C 
ATOM      7  O   UNL     1     -14.281 -10.158   9.615  1.00  0.00    -0.550 OA
ATOM      8  O   UNL     1     -16.317  -9.214   9.154  1.00  0.00    -0.550 OA
ENDBRANCH   5   6
ENDBRANCH   4   5
ENDBRANCH   3   4
ENDBRANCH   2   3
ENDBRANCH   1   2
BRANCH   1   9
ATOM      9  C   UNL     1      -9.600 -10.379   7.923  1.00  0.00     0.000 C 
BRANCH   9  10
ATOM     10  C   UNL     1      -9.298 -11.073   6.586  1.00  0.00    -0.000 C 
BRANCH  10  11
ATOM     11  C   UNL     1     -10.017 -12.424   6.446  1.00  0.00    -0.000 C 
BRANCH  11  12
ATOM     12  C   UNL     1      -9.272 -13.344   5.472  1.00  0.00    -0.000 C 
BRANCH  12  13
ATOM     13  C   UNL     1      -7.779 -13.414   5.813  1.00  0.00    -0.003 C 
ATOM     14  C   UNL     1      -7.081 -14.512   5.015  1.00  0.00     0.004 C 
ENDBRANCH  12  13
ENDBRANCH  11  12
ENDBRANCH  10  11
ENDBRANCH   9  10
ENDBRANCH   1   9
TORSDOF 10
ENDMDL
MODEL 4
REMARK VINA RESULT:    -3.737      3.315      5.087
REMARK INTER + INTRA:          -7.355
REMARK INTER:                  -6.129
REMARK INTRA:                  -1.226
REMARK UNBOUND:                -1.433
REMARK SMILES CCCCCCCCCCCC(=O)[O-]
REMARK SMILES IDX 7 1 8 2 9 3 10 4 11 5 12 6 13 7 14 8 6 9 5 10 4 11 3 12 2 13
REMARK SMILES IDX 1 14
REMARK H PARENT
REMARK Flexibility Score: inf
ROOT
ATOM      1  C   UNL     1     -13.614 -10.758   7.018  1.00  0.00     0.000 C 
ENDROOT
BRANCH   1   2
ATOM      2  C   UNL     1     -12.711  -9.981   6.047  1.00  0.00     0.000 C 
BRANCH   2   3
ATOM      3  C   UNL     1     -11.218 -10.268   6.272  1.00  0.00     0.000 C 
BRANCH   3   4
ATOM      4  C   UNL     1     -11.000 -11.715   6.729  1.00  0.00     0.006 C 
BRANCH   4   5
ATOM      5  C   UNL     1     -10.198 -12.504   5.690  1.00  0.00     0.053 C 
BRANCH   5   6
ATOM      6  C   UNL     1      -8.917 -13.000   6.283  1.00  0.00     0.041 C 
ATOM      7  O   UNL     1      -8.735 -12.957   7.528  1.00  0.00    -0.550 OA
ATOM      8  O   UNL     1      -7.903 -13.465   5.454  1.00  0.00    -0.550 OA
ENDBRANCH   5   6
ENDBRANCH   4   5
ENDBRANCH   3   4
ENDBRANCH   2   3
ENDBRANCH   1   2
BRANCH   1   9
ATOM      9  C   UNL     1     -14.708  -9.875   7.643  1.00  0.00     0.000 C 
BRANCH   9  10
ATOM     10  C   UNL     1     -14.487  -9.637   9.145  1.00  0.00    -0.000 C 
BRANCH  10  11
ATOM     11  C   UNL     1     -13.094 -10.081   9.616  1.00  0.00    -0.000 C 
BRANCH  11  12
ATOM     12  C   UNL     1     -12.165  -8.875   9.798  1.00  0.00    -0.000 C 
BRANCH  12  13
ATOM     13  C   UNL     1     -10.733  -9.325  10.109  1.00  0.00    -0.003 C 
ATOM     14  C   UNL     1     -10.658 -10.838  10.294  1.00  0.00     0.004 C 
ENDBRANCH  12  13
ENDBRANCH  11  12
ENDBRANCH  10  11
ENDBRANCH   9  10
ENDBRANCH   1   9
TORSDOF 10
ENDMDL
MODEL 5
REMARK VINA RESULT:    -3.720      2.638      4.022
REMARK INTER + INTRA:          -7.328
REMARK INTER:                  -6.579
REMARK INTRA:                  -0.749
REMARK UNBOUND:                -1.433
REMARK SMILES CCCCCCCCCCCC(=O)[O-]
REMARK SMILES IDX 7 1 8 2 9 3 10 4 11 5 12 6 13 7 14 8 6 9 5 10 4 11 3 12 2 13
REMARK SMILES IDX 1 14
REMARK H PARENT
REMARK Flexibility Score: inf
ROOT
ATOM      1  C   UNL     1      -9.176 -12.224   6.883  1.00  0.00     0.000 C 
ENDROOT
BRANCH   1   2
ATOM      2  C   UNL     1      -9.977 -10.968   7.258  1.00  0.00     0.000 C 
BRANCH   2   3
ATOM      3  C   UNL     1     -10.694 -10.343   6.052  1.00  0.00     0.000 C 
BRANCH   3   4
ATOM      4  C   UNL     1     -12.016  -9.692   6.475  1.00  0.00     0.006 C 
BRANCH   4   5
ATOM      5  C   UNL     1     -13.005 -10.740   6.991  1.00  0.00     0.053 C 
BRANCH   5   6
ATOM      6  C   UNL     1     -14.245 -10.082   7.510  1.00  0.00     0.041 C 
ATOM      7  O   UNL     1     -15.363 -10.340   6.994  1.00  0.00    -0.550 OA
ATOM      8  O   UNL     1     -14.157  -9.145   8.532  1.00  0.00    -0.550 OA
ENDBRANCH   5   6
ENDBRANCH   4   5
ENDBRANCH   3   4
ENDBRANCH   2   3
ENDBRANCH   1   2
BRANCH   1   9
ATOM      9  C   UNL     1      -9.823 -13.018   5.735  1.00  0.00     0.000 C 
BRANCH   9  10
ATOM     10  C   UNL     1      -8.791 -13.777   4.886  1.00  0.00    -0.000 C 
BRANCH  10  11
ATOM     11  C   UNL     1      -7.380 -13.733   5.492  1.00  0.00    -0.000 C 
BRANCH  11  12
ATOM     12  C   UNL     1      -6.613 -15.026   5.193  1.00  0.00    -0.000 C 
BRANCH  12  13
ATOM     13  C   UNL     1      -6.063 -15.650   6.480  1.00  0.00    -0.003 C 
ATOM     14  C   UNL     1      -6.530 -14.879   7.711  1.00  0.00     0.004 C 
ENDBRANCH  12  13
ENDBRANCH  11  12
ENDBRANCH  10  11
ENDBRANCH   9  10
ENDBRANCH   1   9
TORSDOF 10
ENDMDL
MODEL 6
REMARK VINA RESULT:    -3.616      5.184      6.883
REMARK INTER + INTRA:          -7.163
REMARK INTER:                  -6.764
REMARK INTRA:                  -0.399
REMARK UNBOUND:                -1.433
REMARK SMILES CCCCCCCCCCCC(=O)[O-]
REMARK SMILES IDX 7 1 8 2 9 3 10 4 11 5 12 6 13 7 14 8 6 9 5 10 4 11 3 12 2 13
REMARK SMILES IDX 1 14
REMARK H PARENT
REMARK Flexibility Score: inf
ROOT
ATOM      1  C   UNL     1      -7.138 -14.112   4.929  1.00  0.00     0.000 C 
ENDROOT
BRANCH   1   2
ATOM      2  C   UNL     1      -8.628 -13.741   4.970  1.00  0.00     0.000 C 
BRANCH   2   3
ATOM      3  C   UNL     1      -8.987 -12.869   6.183  1.00  0.00     0.000 C 
BRANCH   3   4
ATOM      4  C   UNL     1     -10.494 -12.596   6.237  1.00  0.00     0.006 C 
BRANCH   4   5
ATOM      5  C   UNL     1     -10.784 -11.094   6.167  1.00  0.00     0.053 C 
BRANCH   5   6
ATOM      6  C   UNL     1     -11.800 -10.707   7.195  1.00  0.00     0.041 C 
ATOM      7  O   UNL     1     -11.437 -10.188   8.283  1.00  0.00    -0.550 OA
ATOM      8  O   UNL     1     -13.147 -10.966   6.971  1.00  0.00    -0.550 OA
ENDBRANCH   5   6
ENDBRANCH   4   5
ENDBRANCH   3   4
ENDBRANCH   2   3
ENDBRANCH   1   2
BRANCH   1   9
ATOM      9  C   UNL     1      -6.642 -14.719   6.253  1.00  0.00     0.000 C 
BRANCH   9  10
ATOM     10  C   UNL     1      -6.055 -16.128   6.074  1.00  0.00    -0.000 C 
BRANCH  10  11
ATOM     11  C   UNL     1      -5.279 -16.282   4.757  1.00  0.00    -0.000 C 
BRANCH  11  12
ATOM     12  C   UNL     1      -3.771 -16.369   5.016  1.00  0.00    -0.000 C 
BRANCH  12  13
ATOM     13  C   UNL     1      -3.014 -16.747   3.737  1.00  0.00    -0.003 C 
ATOM     14  C   UNL     1      -3.051 -18.254   3.499  1.00  0.00     0.004 C 
ENDBRANCH  12  13
ENDBRANCH  11  12
ENDBRANCH  10  11
ENDBRANCH   9  10
ENDBRANCH   1   9
TORSDOF 10
ENDMDL
MODEL 7
REMARK VINA RESULT:    -3.587      4.102      5.661
REMARK INTER + INTRA:          -7.118
REMARK INTER:                  -6.598
REMARK INTRA:                  -0.520
REMARK UNBOUND:                -1.433
REMARK SMILES CCCCCCCCCCCC(=O)[O-]
REMARK SMILES IDX 7 1 8 2 9 3 10 4 11 5 12 6 13 7 14 8 6 9 5 10 4 11 3 12 2 13
REMARK SMILES IDX 1 14
REMARK H PARENT
REMARK Flexibility Score: inf
ROOT
ATOM      1  C   UNL     1      -8.764 -13.784   5.110  1.00  0.00     0.000 C 
ENDROOT
BRANCH   1   2
ATOM      2  C   UNL     1      -9.218 -12.904   6.286  1.00  0.00     0.000 C 
BRANCH   2   3
ATOM      3  C   UNL     1     -10.576 -12.233   6.031  1.00  0.00     0.000 C 
BRANCH   3   4
ATOM      4  C   UNL     1     -10.506 -10.727   6.311  1.00  0.00     0.006 C 
BRANCH   4   5
ATOM      5  C   UNL     1     -11.861 -10.058   6.063  1.00  0.00     0.053 C 
BRANCH   5   6
ATOM      6  C   UNL     1     -12.833 -10.426   7.140  1.00  0.00     0.041 C 
ATOM      7  O   UNL     1     -13.981 -10.846   6.841  1.00  0.00    -0.550 OA
ATOM      8  O   UNL     1     -12.487 -10.257   8.475  1.00  0.00    -0.550 OA
ENDBRANCH   5   6
ENDBRANCH   4   5
ENDBRANCH   3   4
ENDBRANCH   2   3
ENDBRANCH   1   2
BRANCH   1   9
ATOM      9  C   UNL     1      -7.233 -13.856   4.982  1.00  0.00     0.000 C 
BRANCH   9  10
ATOM     10  C   UNL     1      -6.597 -14.800   6.014  1.00  0.00    -0.000 C 
BRANCH  10  11
ATOM     11  C   UNL     1      -5.915 -16.013   5.364  1.00  0.00    -0.000 C 
BRANCH  11  12
ATOM     12  C   UNL     1      -6.485 -17.325   5.917  1.00  0.00    -0.000 C 
BRANCH  12  13
ATOM     13  C   UNL     1      -6.885 -18.274   4.782  1.00  0.00    -0.003 C 
ATOM     14  C   UNL     1      -8.339 -18.060   4.370  1.00  0.00     0.004 C 
ENDBRANCH  12  13
ENDBRANCH  11  12
ENDBRANCH  10  11
ENDBRANCH   9  10
ENDBRANCH   1   9
TORSDOF 10
ENDMDL
MODEL 8
REMARK VINA RESULT:    -3.535     13.008     14.932
REMARK INTER + INTRA:          -7.035
REMARK INTER:                  -5.780
REMARK INTRA:                  -1.255
REMARK UNBOUND:                -1.433
REMARK SMILES CCCCCCCCCCCC(=O)[O-]
REMARK SMILES IDX 7 1 8 2 9 3 10 4 11 5 12 6 13 7 14 8 6 9 5 10 4 11 3 12 2 13
REMARK SMILES IDX 1 14
REMARK H PARENT
REMARK Flexibility Score: inf
ROOT
ATOM      1  C   UNL     1      -8.053 -19.139  15.206  1.00  0.00     0.000 C 
ENDROOT
BRANCH   1   2
ATOM      2  C   UNL     1      -6.982 -19.397  16.277  1.00  0.00     0.000 C 
BRANCH   2   3
ATOM      3  C   UNL     1      -6.154 -20.659  15.991  1.00  0.00     0.000 C 
BRANCH   3   4
ATOM      4  C   UNL     1      -6.955 -21.926  16.314  1.00  0.00     0.006 C 
BRANCH   4   5
ATOM      5  C   UNL     1      -7.216 -22.749  15.049  1.00  0.00     0.053 C 
BRANCH   5   6
ATOM      6  C   UNL     1      -5.969 -23.451  14.612  1.00  0.00     0.041 C 
ATOM      7  O   UNL     1      -5.574 -23.360  13.420  1.00  0.00    -0.550 OA
ATOM      8  O   UNL     1      -5.270 -24.247  15.511  1.00  0.00    -0.550 OA
ENDBRANCH   5   6
ENDBRANCH   4   5
ENDBRANCH   3   4
ENDBRANCH   2   3
ENDBRANCH   1   2
BRANCH   1   9
ATOM      9  C   UNL     1      -9.479 -19.140  15.783  1.00  0.00     0.000 C 
BRANCH   9  10
ATOM     10  C   UNL     1     -10.264 -20.408  15.416  1.00  0.00    -0.000 C 
BRANCH  10  11
ATOM     11  C   UNL     1     -10.793 -21.155  16.650  1.00  0.00    -0.000 C 
BRANCH  11  12
ATOM     12  C   UNL     1     -10.221 -20.556  17.940  1.00  0.00    -0.000 C 
BRANCH  12  13
ATOM     13  C   UNL     1     -11.338 -20.230  18.938  1.00  0.00    -0.003 C 
ATOM     14  C   UNL     1     -12.443 -19.409  18.281  1.00  0.00     0.004 C 
ENDBRANCH  12  13
ENDBRANCH  11  12
ENDBRANCH  10  11
ENDBRANCH   9  10
ENDBRANCH   1   9
TORSDOF 10
ENDMDL
MODEL 9
REMARK VINA RESULT:    -3.473      2.598      4.691
REMARK INTER + INTRA:          -6.937
REMARK INTER:                  -5.810
REMARK INTRA:                  -1.127
REMARK UNBOUND:                -1.433
REMARK SMILES CCCCCCCCCCCC(=O)[O-]
REMARK SMILES IDX 7 1 8 2 9 3 10 4 11 5 12 6 13 7 14 8 6 9 5 10 4 11 3 12 2 13
REMARK SMILES IDX 1 14
REMARK H PARENT
REMARK Flexibility Score: inf
ROOT
ATOM      1  C   UNL     1     -11.014 -11.309   6.202  1.00  0.00     0.000 C 
ENDROOT
BRANCH   1   2
ATOM      2  C   UNL     1      -9.595 -11.112   6.758  1.00  0.00     0.000 C 
BRANCH   2   3
ATOM      3  C   UNL     1      -9.217  -9.630   6.901  1.00  0.00     0.000 C 
BRANCH   3   4
ATOM      4  C   UNL     1      -8.812  -9.304   8.344  1.00  0.00     0.006 C 
BRANCH   4   5
ATOM      5  C   UNL     1     -10.027  -8.875   9.172  1.00  0.00     0.053 C 
BRANCH   5   6
ATOM      6  C   UNL     1     -10.182  -9.758  10.370  1.00  0.00     0.041 C 
ATOM      7  O   UNL     1      -9.931  -9.314  11.521  1.00  0.00    -0.550 OA
ATOM      8  O   UNL     1     -10.557 -11.086  10.210  1.00  0.00    -0.550 OA
ENDBRANCH   5   6
ENDBRANCH   4   5
ENDBRANCH   3   4
ENDBRANCH   2   3
ENDBRANCH   1   2
BRANCH   1   9
ATOM      9  C   UNL     1     -11.778  -9.983   6.047  1.00  0.00     0.000 C 
BRANCH   9  10
ATOM     10  C   UNL     1     -13.200 -10.049   6.626  1.00  0.00    -0.000 C 
BRANCH  10  11
ATOM     11  C   UNL     1     -13.212 -10.374   8.128  1.00  0.00    -0.000 C 
BRANCH  11  12
ATOM     12  C   UNL     1     -13.656  -9.158   8.949  1.00  0.00    -0.000 C 
BRANCH  12  13
ATOM     13  C   UNL     1     -14.929  -9.468   9.746  1.00  0.00    -0.003 C 
ATOM     14  C   UNL     1     -16.136  -9.612   8.823  1.00  0.00     0.004 C 
ENDBRANCH  12  13
ENDBRANCH  11  12
ENDBRANCH  10  11
ENDBRANCH   9  10
ENDBRANCH   1   9
TORSDOF 10
ENDMDL
