MODEL 1
REMARK VINA RESULT:    -3.580      0.000      0.000
REMARK INTER + INTRA:          -9.339
REMARK INTER:                  -6.928
REMARK INTRA:                  -2.411
REMARK UNBOUND:                -2.411
REMARK SMILES CCCCCCCCCCCCCCCCCC(=O)[O-]
REMARK SMILES IDX 10 1 11 2 12 3 13 4 14 5 15 6 16 7 17 8 18 9 19 10 20 11
REMARK SMILES IDX 9 12 8 13 7 14 6 15 5 16 4 17 3 18 2 19 1 20
REMARK H PARENT
REMARK Flexibility Score: inf
ROOT
ATOM      1  C   UNL     1      28.858   7.887  44.463  1.00  0.00     0.000 C 
ENDROOT
BRANCH   1   2
ATOM      2  C   UNL     1      29.832   8.827  45.193  1.00  0.00     0.000 C 
BRANCH   2   3
ATOM      3  C   UNL     1      31.266   8.735  44.643  1.00  0.00     0.000 C 
BRANCH   3   4
ATOM      4  C   UNL     1      32.253   8.150  45.668  1.00  0.00     0.000 C 
BRANCH   4   5
ATOM      5  C   UNL     1      31.542   7.439  46.831  1.00  0.00     0.000 C 
BRANCH   5   6
ATOM      6  C   UNL     1      31.900   5.946  46.920  1.00  0.00     0.000 C 
BRANCH   6   7
ATOM      7  C   UNL     1      31.082   5.201  47.986  1.00  0.00     0.006 C 
BRANCH   7   8
ATOM      8  C   UNL     1      31.719   5.355  49.370  1.00  0.00     0.053 C 
BRANCH   8   9
ATOM      9  C   UNL     1      32.181   4.027  49.883  1.00  0.00     0.041 C 
ATOM     10  O   UNL     1      32.591   3.913  51.069  1.00  0.00    -0.550 OA
ATOM     11  O   UNL     1      32.208   2.925  49.037  1.00  0.00    -0.550 OA
ENDBRANCH   8   9
ENDBRANCH   7   8
ENDBRANCH   6   7
ENDBRANCH   5   6
ENDBRANCH   4   5
ENDBRANCH   3   4
ENDBRANCH   2   3
ENDBRANCH   1   2
BRANCH   1  12
ATOM     12  C   UNL     1      29.571   6.921  43.506  1.00  0.00     0.000 C 
BRANCH  12  13
ATOM     13  C   UNL     1      29.520   5.481  44.038  1.00  0.00    -0.000 C 
BRANCH  13  14
ATOM     14  C   UNL     1      30.728   4.633  43.600  1.00  0.00    -0.000 C 
BRANCH  14  15
ATOM     15  C   UNL     1      31.983   5.432  43.203  1.00  0.00    -0.000 C 
BRANCH  15  16
ATOM     16  C   UNL     1      32.412   5.191  41.746  1.00  0.00    -0.000 C 
BRANCH  16  17
ATOM     17  C   UNL     1      31.903   6.278  40.781  1.00  0.00    -0.000 C 
BRANCH  17  18
ATOM     18  C   UNL     1      31.500   5.778  39.382  1.00  0.00    -0.000 C 
BRANCH  18  19
ATOM     19  C   UNL     1      30.441   4.668  39.422  1.00  0.00    -0.003 C 
ATOM     20  C   UNL     1      29.229   5.093  40.248  1.00  0.00     0.004 C 
ENDBRANCH  18  19
ENDBRANCH  17  18
ENDBRANCH  16  17
ENDBRANCH  15  16
ENDBRANCH  14  15
ENDBRANCH  13  14
ENDBRANCH  12  13
ENDBRANCH   1  12
TORSDOF 16
ENDMDL
MODEL 2
REMARK VINA RESULT:    -3.578     14.974     17.610
REMARK INTER + INTRA:          -9.335
REMARK INTER:                  -6.433
REMARK INTRA:                  -2.903
REMARK UNBOUND:                -2.411
REMARK SMILES CCCCCCCCCCCCCCCCCC(=O)[O-]
REMARK SMILES IDX 10 1 11 2 12 3 13 4 14 5 15 6 16 7 17 8 18 9 19 10 20 11
REMARK SMILES IDX 9 12 8 13 7 14 6 15 5 16 4 17 3 18 2 19 1 20
REMARK H PARENT
REMARK Flexibility Score: inf
ROOT
ATOM      1  C   UNL     1      20.031  -1.306  56.282  1.00  0.00     0.000 C 
ENDROOT
BRANCH   1   2
ATOM      2  C   UNL     1      19.908  -1.069  54.768  1.00  0.00     0.000 C 
BRANCH   2   3
ATOM      3  C   UNL     1      19.233  -2.244  54.039  1.00  0.00     0.000 C 
BRANCH   3   4
ATOM      4  C   UNL     1      18.813  -3.370  54.999  1.00  0.00     0.000 C 
BRANCH   4   5
ATOM      5  C   UNL     1      19.322  -4.749  54.548  1.00  0.00     0.000 C 
BRANCH   5   6
ATOM      6  C   UNL     1      20.855  -4.860  54.597  1.00  0.00     0.000 C 
BRANCH   6   7
ATOM      7  C   UNL     1      21.344  -6.316  54.642  1.00  0.00     0.006 C 
BRANCH   7   8
ATOM      8  C   UNL     1      21.593  -6.853  53.229  1.00  0.00     0.053 C 
BRANCH   8   9
ATOM      9  C   UNL     1      22.917  -6.380  52.716  1.00  0.00     0.041 C 
ATOM     10  O   UNL     1      23.940  -6.448  53.446  1.00  0.00    -0.550 OA
ATOM     11  O   UNL     1      23.010  -5.816  51.449  1.00  0.00    -0.550 OA
ENDBRANCH   8   9
ENDBRANCH   7   8
ENDBRANCH   6   7
ENDBRANCH   5   6
ENDBRANCH   4   5
ENDBRANCH   3   4
ENDBRANCH   2   3
ENDBRANCH   1   2
BRANCH   1  12
ATOM     12  C   UNL     1      21.325  -0.725  56.870  1.00  0.00     0.000 C 
BRANCH  12  13
ATOM     13  C   UNL     1      21.756  -1.499  58.125  1.00  0.00    -0.000 C 
BRANCH  13  14
ATOM     14  C   UNL     1      21.399  -2.996  58.063  1.00  0.00    -0.000 C 
BRANCH  14  15
ATOM     15  C   UNL     1      22.533  -3.923  57.588  1.00  0.00    -0.000 C 
BRANCH  15  16
ATOM     16  C   UNL     1      23.932  -3.333  57.830  1.00  0.00    -0.000 C 
BRANCH  16  17
ATOM     17  C   UNL     1      24.653  -2.941  56.527  1.00  0.00    -0.000 C 
BRANCH  17  18
ATOM     18  C   UNL     1      23.906  -3.297  55.230  1.00  0.00    -0.000 C 
BRANCH  18  19
ATOM     19  C   UNL     1      23.605  -2.072  54.355  1.00  0.00    -0.003 C 
ATOM     20  C   UNL     1      22.888  -2.477  53.069  1.00  0.00     0.004 C 
ENDBRANCH  18  19
ENDBRANCH  17  18
ENDBRANCH  16  17
ENDBRANCH  15  16
ENDBRANCH  14  15
ENDBRANCH  13  14
ENDBRANCH  12  13
ENDBRANCH   1  12
TORSDOF 16
ENDMDL
MODEL 3
REMARK VINA RESULT:    -3.566      5.158      8.820
REMARK INTER + INTRA:          -9.312
REMARK INTER:                  -8.297
REMARK INTRA:                  -1.015
REMARK UNBOUND:                -2.411
REMARK SMILES CCCCCCCCCCCCCCCCCC(=O)[O-]
REMARK SMILES IDX 10 1 11 2 12 3 13 4 14 5 15 6 16 7 17 8 18 9 19 10 20 11
REMARK SMILES IDX 9 12 8 13 7 14 6 15 5 16 4 17 3 18 2 19 1 20
REMARK H PARENT
REMARK Flexibility Score: inf
ROOT
ATOM      1  C   UNL     1      30.595   5.784  43.173  1.00  0.00     0.000 C 
ENDROOT
BRANCH   1   2
ATOM      2  C   UNL     1      29.571   5.359  42.108  1.00  0.00     0.000 C 
BRANCH   2   3
ATOM      3  C   UNL     1      28.511   4.390  42.660  1.00  0.00     0.000 C 
BRANCH   3   4
ATOM      4  C   UNL     1      27.081   4.936  42.514  1.00  0.00     0.000 C 
BRANCH   4   5
ATOM      5  C   UNL     1      26.057   3.831  42.203  1.00  0.00     0.000 C 
BRANCH   5   6
ATOM      6  C   UNL     1      25.882   3.594  40.694  1.00  0.00     0.000 C 
BRANCH   6   7
ATOM      7  C   UNL     1      24.421   3.326  40.300  1.00  0.00     0.006 C 
BRANCH   7   8
ATOM      8  C   UNL     1      23.965   1.951  40.798  1.00  0.00     0.053 C 
BRANCH   8   9
ATOM      9  C   UNL     1      23.606   1.070  39.643  1.00  0.00     0.041 C 
ATOM     10  O   UNL     1      22.993   1.545  38.650  1.00  0.00    -0.550 OA
ATOM     11  O   UNL     1      23.902  -0.287  39.685  1.00  0.00    -0.550 OA
ENDBRANCH   8   9
ENDBRANCH   7   8
ENDBRANCH   6   7
ENDBRANCH   5   6
ENDBRANCH   4   5
ENDBRANCH   3   4
ENDBRANCH   2   3
ENDBRANCH   1   2
BRANCH   1  12
ATOM     12  C   UNL     1      31.183   4.591  43.939  1.00  0.00     0.000 C 
BRANCH  12  13
ATOM     13  C   UNL     1      31.412   4.943  45.417  1.00  0.00    -0.000 C 
BRANCH  13  14
ATOM     14  C   UNL     1      31.965   6.366  45.620  1.00  0.00    -0.000 C 
BRANCH  14  15
ATOM     15  C   UNL     1      31.416   7.116  46.847  1.00  0.00    -0.000 C 
BRANCH  15  16
ATOM     16  C   UNL     1      30.158   6.459  47.438  1.00  0.00    -0.000 C 
BRANCH  16  17
ATOM     17  C   UNL     1      30.453   5.613  48.691  1.00  0.00    -0.000 C 
BRANCH  17  18
ATOM     18  C   UNL     1      31.916   5.636  49.169  1.00  0.00    -0.000 C 
BRANCH  18  19
ATOM     19  C   UNL     1      32.312   4.376  49.951  1.00  0.00    -0.003 C 
ATOM     20  C   UNL     1      32.041   3.114  49.135  1.00  0.00     0.004 C 
ENDBRANCH  18  19
ENDBRANCH  17  18
ENDBRANCH  16  17
ENDBRANCH  15  16
ENDBRANCH  14  15
ENDBRANCH  13  14
ENDBRANCH  12  13
ENDBRANCH   1  12
TORSDOF 16
ENDMDL
MODEL 4
REMARK VINA RESULT:    -3.545      3.248      6.015
REMARK INTER + INTRA:          -9.271
REMARK INTER:                  -6.789
REMARK INTRA:                  -2.482
REMARK UNBOUND:                -2.411
REMARK SMILES CCCCCCCCCCCCCCCCCC(=O)[O-]
REMARK SMILES IDX 10 1 11 2 12 3 13 4 14 5 15 6 16 7 17 8 18 9 19 10 20 11
REMARK SMILES IDX 9 12 8 13 7 14 6 15 5 16 4 17 3 18 2 19 1 20
REMARK H PARENT
REMARK Flexibility Score: inf
ROOT
ATOM      1  C   UNL     1      28.405  10.064  46.167  1.00  0.00     0.000 C 
ENDROOT
BRANCH   1   2
ATOM      2  C   UNL     1      29.676   9.734  45.368  1.00  0.00     0.000 C 
BRANCH   2   3
ATOM      3  C   UNL     1      30.911   9.557  46.269  1.00  0.00     0.000 C 
BRANCH   3   4
ATOM      4  C   UNL     1      32.231   9.661  45.486  1.00  0.00     0.000 C 
BRANCH   4   5
ATOM      5  C   UNL     1      33.449   9.242  46.326  1.00  0.00     0.000 C 
BRANCH   5   6
ATOM      6  C   UNL     1      34.172   8.013  45.750  1.00  0.00     0.000 C 
BRANCH   6   7
ATOM      7  C   UNL     1      33.563   7.535  44.423  1.00  0.00     0.006 C 
BRANCH   7   8
ATOM      8  C   UNL     1      32.956   6.137  44.571  1.00  0.00     0.053 C 
BRANCH   8   9
ATOM      9  C   UNL     1      31.812   5.960  43.623  1.00  0.00     0.041 C 
ATOM     10  O   UNL     1      31.688   4.889  42.973  1.00  0.00    -0.550 OA
ATOM     11  O   UNL     1      30.911   6.998  43.419  1.00  0.00    -0.550 OA
ENDBRANCH   8   9
ENDBRANCH   7   8
ENDBRANCH   6   7
ENDBRANCH   5   6
ENDBRANCH   4   5
ENDBRANCH   3   4
ENDBRANCH   2   3
ENDBRANCH   1   2
BRANCH   1  12
ATOM     12  C   UNL     1      28.496   9.625  47.636  1.00  0.00     0.000 C 
BRANCH  12  13
ATOM     13  C   UNL     1      27.465   8.530  47.948  1.00  0.00    -0.000 C 
BRANCH  13  14
ATOM     14  C   UNL     1      28.104   7.151  48.195  1.00  0.00    -0.000 C 
BRANCH  14  15
ATOM     15  C   UNL     1      28.335   6.298  46.934  1.00  0.00    -0.000 C 
BRANCH  15  16
ATOM     16  C   UNL     1      29.821   5.993  46.680  1.00  0.00    -0.000 C 
BRANCH  16  17
ATOM     17  C   UNL     1      30.749   6.583  47.757  1.00  0.00    -0.000 C 
BRANCH  17  18
ATOM     18  C   UNL     1      31.760   5.595  48.367  1.00  0.00    -0.000 C 
BRANCH  18  19
ATOM     19  C   UNL     1      31.209   4.853  49.592  1.00  0.00    -0.003 C 
ATOM     20  C   UNL     1      31.771   3.435  49.676  1.00  0.00     0.004 C 
ENDBRANCH  18  19
ENDBRANCH  17  18
ENDBRANCH  16  17
ENDBRANCH  15  16
ENDBRANCH  14  15
ENDBRANCH  13  14
ENDBRANCH  12  13
ENDBRANCH   1  12
TORSDOF 16
ENDMDL
MODEL 5
REMARK VINA RESULT:    -3.541      4.850      8.712
REMARK INTER + INTRA:          -9.265
REMARK INTER:                  -8.238
REMARK INTRA:                  -1.028
REMARK UNBOUND:                -2.411
REMARK SMILES CCCCCCCCCCCCCCCCCC(=O)[O-]
REMARK SMILES IDX 10 1 11 2 12 3 13 4 14 5 15 6 16 7 17 8 18 9 19 10 20 11
REMARK SMILES IDX 9 12 8 13 7 14 6 15 5 16 4 17 3 18 2 19 1 20
REMARK H PARENT
REMARK Flexibility Score: inf
ROOT
ATOM      1  C   UNL     1      29.763   5.056  42.090  1.00  0.00     0.000 C 
ENDROOT
BRANCH   1   2
ATOM      2  C   UNL     1      28.258   5.159  42.385  1.00  0.00     0.000 C 
BRANCH   2   3
ATOM      3  C   UNL     1      27.477   3.920  41.913  1.00  0.00     0.000 C 
BRANCH   3   4
ATOM      4  C   UNL     1      26.268   4.286  41.034  1.00  0.00     0.000 C 
BRANCH   4   5
ATOM      5  C   UNL     1      26.218   3.469  39.732  1.00  0.00     0.000 C 
BRANCH   5   6
ATOM      6  C   UNL     1      24.780   3.182  39.269  1.00  0.00     0.000 C 
BRANCH   6   7
ATOM      7  C   UNL     1      24.167   1.953  39.958  1.00  0.00     0.006 C 
BRANCH   7   8
ATOM      8  C   UNL     1      22.764   2.265  40.488  1.00  0.00     0.053 C 
BRANCH   8   9
ATOM      9  C   UNL     1      22.849   3.028  41.773  1.00  0.00     0.041 C 
ATOM     10  O   UNL     1      22.194   4.094  41.921  1.00  0.00    -0.550 OA
ATOM     11  O   UNL     1      23.690   2.590  42.788  1.00  0.00    -0.550 OA
ENDBRANCH   8   9
ENDBRANCH   7   8
ENDBRANCH   6   7
ENDBRANCH   5   6
ENDBRANCH   4   5
ENDBRANCH   3   4
ENDBRANCH   2   3
ENDBRANCH   1   2
BRANCH   1  12
ATOM     12  C   UNL     1      30.503   6.383  42.311  1.00  0.00     0.000 C 
BRANCH  12  13
ATOM     13  C   UNL     1      31.097   6.454  43.726  1.00  0.00    -0.000 C 
BRANCH  13  14
ATOM     14  C   UNL     1      31.381   5.067  44.332  1.00  0.00    -0.000 C 
BRANCH  14  15
ATOM     15  C   UNL     1      31.811   5.071  45.810  1.00  0.00    -0.000 C 
BRANCH  15  16
ATOM     16  C   UNL     1      30.780   5.744  46.733  1.00  0.00    -0.000 C 
BRANCH  16  17
ATOM     17  C   UNL     1      31.345   6.071  48.127  1.00  0.00    -0.000 C 
BRANCH  17  18
ATOM     18  C   UNL     1      30.803   5.203  49.277  1.00  0.00    -0.000 C 
BRANCH  18  19
ATOM     19  C   UNL     1      31.901   4.411  50.001  1.00  0.00    -0.003 C 
ATOM     20  C   UNL     1      32.337   3.199  49.182  1.00  0.00     0.004 C 
ENDBRANCH  18  19
ENDBRANCH  17  18
ENDBRANCH  16  17
ENDBRANCH  15  16
ENDBRANCH  14  15
ENDBRANCH  13  14
ENDBRANCH  12  13
ENDBRANCH   1  12
TORSDOF 16
ENDMDL
MODEL 6
REMARK VINA RESULT:    -3.525     13.483     17.208
REMARK INTER + INTRA:          -9.233
REMARK INTER:                  -6.386
REMARK INTRA:                  -2.848
REMARK UNBOUND:                -2.411
REMARK SMILES CCCCCCCCCCCCCCCCCC(=O)[O-]
REMARK SMILES IDX 10 1 11 2 12 3 13 4 14 5 15 6 16 7 17 8 18 9 19 10 20 11
REMARK SMILES IDX 9 12 8 13 7 14 6 15 5 16 4 17 3 18 2 19 1 20
REMARK H PARENT
REMARK Flexibility Score: inf
ROOT
ATOM      1  C   UNL     1      20.309  -4.609  56.321  1.00  0.00     0.000 C 
ENDROOT
BRANCH   1   2
ATOM      2  C   UNL     1      21.205  -5.471  55.417  1.00  0.00     0.000 C 
BRANCH   2   3
ATOM      3  C   UNL     1      20.532  -5.821  54.078  1.00  0.00     0.000 C 
BRANCH   3   4
ATOM      4  C   UNL     1      21.522  -6.405  53.057  1.00  0.00     0.000 C 
BRANCH   4   5
ATOM      5  C   UNL     1      22.972  -6.397  53.571  1.00  0.00     0.000 C 
BRANCH   5   6
ATOM      6  C   UNL     1      23.950  -5.754  52.574  1.00  0.00     0.000 C 
BRANCH   6   7
ATOM      7  C   UNL     1      23.269  -5.332  51.263  1.00  0.00     0.006 C 
BRANCH   7   8
ATOM      8  C   UNL     1      23.466  -3.835  51.001  1.00  0.00     0.053 C 
BRANCH   8   9
ATOM      9  C   UNL     1      23.691  -3.584  49.544  1.00  0.00     0.041 C 
ATOM     10  O   UNL     1      24.294  -2.546  49.165  1.00  0.00    -0.550 OA
ATOM     11  O   UNL     1      23.189  -4.472  48.599  1.00  0.00    -0.550 OA
ENDBRANCH   8   9
ENDBRANCH   7   8
ENDBRANCH   6   7
ENDBRANCH   5   6
ENDBRANCH   4   5
ENDBRANCH   3   4
ENDBRANCH   2   3
ENDBRANCH   1   2
BRANCH   1  12
ATOM     12  C   UNL     1      21.049  -4.077  57.557  1.00  0.00     0.000 C 
BRANCH  12  13
ATOM     13  C   UNL     1      22.538  -4.451  57.510  1.00  0.00    -0.000 C 
BRANCH  13  14
ATOM     14  C   UNL     1      23.464  -3.296  57.934  1.00  0.00    -0.000 C 
BRANCH  14  15
ATOM     15  C   UNL     1      24.404  -2.769  56.834  1.00  0.00    -0.000 C 
BRANCH  15  16
ATOM     16  C   UNL     1      24.083  -3.345  55.444  1.00  0.00    -0.000 C 
BRANCH  16  17
ATOM     17  C   UNL     1      23.556  -2.284  54.460  1.00  0.00    -0.000 C 
BRANCH  17  18
ATOM     18  C   UNL     1      22.075  -1.902  54.638  1.00  0.00    -0.000 C 
BRANCH  18  19
ATOM     19  C   UNL     1      21.885  -0.525  55.290  1.00  0.00    -0.003 C 
ATOM     20  C   UNL     1      21.271  -0.656  56.682  1.00  0.00     0.004 C 
ENDBRANCH  18  19
ENDBRANCH  17  18
ENDBRANCH  16  17
ENDBRANCH  15  16
ENDBRANCH  14  15
ENDBRANCH  13  14
ENDBRANCH  12  13
ENDBRANCH   1  12
TORSDOF 16
ENDMDL
MODEL 7
REMARK VINA RESULT:    -3.521      2.370      4.767
REMARK INTER + INTRA:          -9.226
REMARK INTER:                  -7.171
REMARK INTRA:                  -2.055
REMARK UNBOUND:                -2.411
REMARK SMILES CCCCCCCCCCCCCCCCCC(=O)[O-]
REMARK SMILES IDX 10 1 11 2 12 3 13 4 14 5 15 6 16 7 17 8 18 9 19 10 20 11
REMARK SMILES IDX 9 12 8 13 7 14 6 15 5 16 4 17 3 18 2 19 1 20
REMARK H PARENT
REMARK Flexibility Score: inf
ROOT
ATOM      1  C   UNL     1      30.302   5.216  38.955  1.00  0.00     0.000 C 
ENDROOT
BRANCH   1   2
ATOM      2  C   UNL     1      30.817   5.364  40.396  1.00  0.00     0.000 C 
BRANCH   2   3
ATOM      3  C   UNL     1      29.684   5.321  41.436  1.00  0.00     0.000 C 
BRANCH   3   4
ATOM      4  C   UNL     1      30.176   4.885  42.826  1.00  0.00     0.000 C 
BRANCH   4   5
ATOM      5  C   UNL     1      31.696   5.058  42.994  1.00  0.00     0.000 C 
BRANCH   5   6
ATOM      6  C   UNL     1      32.060   6.258  43.884  1.00  0.00     0.000 C 
BRANCH   6   7
ATOM      7  C   UNL     1      31.294   6.262  45.216  1.00  0.00     0.006 C 
BRANCH   7   8
ATOM      8  C   UNL     1      31.842   5.193  46.166  1.00  0.00     0.053 C 
BRANCH   8   9
ATOM      9  C   UNL     1      31.273   5.371  47.539  1.00  0.00     0.041 C 
ATOM     10  O   UNL     1      31.520   4.529  48.441  1.00  0.00    -0.550 OA
ATOM     11  O   UNL     1      30.427   6.440  47.807  1.00  0.00    -0.550 OA
ENDBRANCH   8   9
ENDBRANCH   7   8
ENDBRANCH   6   7
ENDBRANCH   5   6
ENDBRANCH   4   5
ENDBRANCH   3   4
ENDBRANCH   2   3
ENDBRANCH   1   2
BRANCH   1  12
ATOM     12  C   UNL     1      30.731   6.379  38.049  1.00  0.00     0.000 C 
BRANCH  12  13
ATOM     13  C   UNL     1      31.651   7.353  38.802  1.00  0.00    -0.000 C 
BRANCH  13  14
ATOM     14  C   UNL     1      32.958   7.654  38.046  1.00  0.00    -0.000 C 
BRANCH  14  15
ATOM     15  C   UNL     1      34.231   7.661  38.912  1.00  0.00    -0.000 C 
BRANCH  15  16
ATOM     16  C   UNL     1      33.947   7.387  40.398  1.00  0.00    -0.000 C 
BRANCH  16  17
ATOM     17  C   UNL     1      34.681   6.143  40.932  1.00  0.00    -0.000 C 
BRANCH  17  18
ATOM     18  C   UNL     1      34.307   4.815  40.247  1.00  0.00    -0.000 C 
BRANCH  18  19
ATOM     19  C   UNL     1      35.531   3.974  39.860  1.00  0.00    -0.003 C 
ATOM     20  C   UNL     1      36.630   4.845  39.258  1.00  0.00     0.004 C 
ENDBRANCH  18  19
ENDBRANCH  17  18
ENDBRANCH  16  17
ENDBRANCH  15  16
ENDBRANCH  14  15
ENDBRANCH  13  14
ENDBRANCH  12  13
ENDBRANCH   1  12
TORSDOF 16
ENDMDL
MODEL 8
REMARK VINA RESULT:    -3.497      3.900      7.256
REMARK INTER + INTRA:          -9.180
REMARK INTER:                  -7.407
REMARK INTRA:                  -1.772
REMARK UNBOUND:                -2.411
REMARK SMILES CCCCCCCCCCCCCCCCCC(=O)[O-]
REMARK SMILES IDX 10 1 11 2 12 3 13 4 14 5 15 6 16 7 17 8 18 9 19 10 20 11
REMARK SMILES IDX 9 12 8 13 7 14 6 15 5 16 4 17 3 18 2 19 1 20
REMARK H PARENT
REMARK Flexibility Score: inf
ROOT
ATOM      1  C   UNL     1      34.181   8.166  45.181  1.00  0.00     0.000 C 
ENDROOT
BRANCH   1   2
ATOM      2  C   UNL     1      33.618   9.504  44.675  1.00  0.00     0.000 C 
BRANCH   2   3
ATOM      3  C   UNL     1      33.512   9.558  43.140  1.00  0.00     0.000 C 
BRANCH   3   4
ATOM      4  C   UNL     1      34.366   8.479  42.453  1.00  0.00     0.000 C 
BRANCH   4   5
ATOM      5  C   UNL     1      33.520   7.501  41.620  1.00  0.00     0.000 C 
BRANCH   5   6
ATOM      6  C   UNL     1      34.127   6.089  41.568  1.00  0.00     0.000 C 
BRANCH   6   7
ATOM      7  C   UNL     1      33.114   5.024  41.121  1.00  0.00     0.006 C 
BRANCH   7   8
ATOM      8  C   UNL     1      31.699   5.607  41.055  1.00  0.00     0.053 C 
BRANCH   8   9
ATOM      9  C   UNL     1      31.163   5.524  39.661  1.00  0.00     0.041 C 
ATOM     10  O   UNL     1      31.532   6.356  38.790  1.00  0.00    -0.550 OA
ATOM     11  O   UNL     1      30.217   4.560  39.335  1.00  0.00    -0.550 OA
ENDBRANCH   8   9
ENDBRANCH   7   8
ENDBRANCH   6   7
ENDBRANCH   5   6
ENDBRANCH   4   5
ENDBRANCH   3   4
ENDBRANCH   2   3
ENDBRANCH   1   2
BRANCH   1  12
ATOM     12  C   UNL     1      33.132   7.322  45.918  1.00  0.00     0.000 C 
BRANCH  12  13
ATOM     13  C   UNL     1      32.684   6.128  45.060  1.00  0.00    -0.000 C 
BRANCH  13  14
ATOM     14  C   UNL     1      31.631   5.246  45.756  1.00  0.00    -0.000 C 
BRANCH  14  15
ATOM     15  C   UNL     1      30.173   5.715  45.598  1.00  0.00    -0.000 C 
BRANCH  15  16
ATOM     16  C   UNL     1      29.484   5.994  46.944  1.00  0.00    -0.000 C 
BRANCH  16  17
ATOM     17  C   UNL     1      30.479   6.314  48.075  1.00  0.00    -0.000 C 
BRANCH  17  18
ATOM     18  C   UNL     1      30.578   5.251  49.184  1.00  0.00    -0.000 C 
BRANCH  18  19
ATOM     19  C   UNL     1      32.026   4.856  49.509  1.00  0.00    -0.003 C 
ATOM     20  C   UNL     1      32.212   3.342  49.440  1.00  0.00     0.004 C 
ENDBRANCH  18  19
ENDBRANCH  17  18
ENDBRANCH  16  17
ENDBRANCH  15  16
ENDBRANCH  14  15
ENDBRANCH  13  14
ENDBRANCH  12  13
ENDBRANCH   1  12
TORSDOF 16
ENDMDL
MODEL 9
REMARK VINA RESULT:    -3.460     14.684     16.517
REMARK INTER + INTRA:          -9.107
REMARK INTER:                  -6.494
REMARK INTRA:                  -2.613
REMARK UNBOUND:                -2.411
REMARK SMILES CCCCCCCCCCCCCCCCCC(=O)[O-]
REMARK SMILES IDX 10 1 11 2 12 3 13 4 14 5 15 6 16 7 17 8 18 9 19 10 20 11
REMARK SMILES IDX 9 12 8 13 7 14 6 15 5 16 4 17 3 18 2 19 1 20
REMARK H PARENT
REMARK Flexibility Score: inf
ROOT
ATOM      1  C   UNL     1      19.548  -7.472  46.325  1.00  0.00     0.000 C 
ENDROOT
BRANCH   1   2
ATOM      2  C   UNL     1      19.545  -7.733  47.840  1.00  0.00     0.000 C 
BRANCH   2   3
ATOM      3  C   UNL     1      18.342  -7.086  48.549  1.00  0.00     0.000 C 
BRANCH   3   4
ATOM      4  C   UNL     1      17.983  -5.711  47.962  1.00  0.00     0.000 C 
BRANCH   4   5
ATOM      5  C   UNL     1      18.745  -4.562  48.644  1.00  0.00     0.000 C 
BRANCH   5   6
ATOM      6  C   UNL     1      18.678  -3.250  47.845  1.00  0.00     0.000 C 
BRANCH   6   7
ATOM      7  C   UNL     1      18.025  -3.428  46.466  1.00  0.00     0.006 C 
BRANCH   7   8
ATOM      8  C   UNL     1      17.551  -2.083  45.907  1.00  0.00     0.053 C 
BRANCH   8   9
ATOM      9  C   UNL     1      18.314  -1.733  44.669  1.00  0.00     0.041 C 
ATOM     10  O   UNL     1      17.712  -1.279  43.660  1.00  0.00    -0.550 OA
ATOM     11  O   UNL     1      19.685  -1.955  44.610  1.00  0.00    -0.550 OA
ENDBRANCH   8   9
ENDBRANCH   7   8
ENDBRANCH   6   7
ENDBRANCH   5   6
ENDBRANCH   4   5
ENDBRANCH   3   4
ENDBRANCH   2   3
ENDBRANCH   1   2
BRANCH   1  12
ATOM     12  C   UNL     1      20.910  -7.758  45.676  1.00  0.00     0.000 C 
BRANCH  12  13
ATOM     13  C   UNL     1      21.462  -6.506  44.979  1.00  0.00    -0.000 C 
BRANCH  13  14
ATOM     14  C   UNL     1      21.055  -5.196  45.679  1.00  0.00    -0.000 C 
BRANCH  14  15
ATOM     15  C   UNL     1      22.141  -4.558  46.564  1.00  0.00    -0.000 C 
BRANCH  15  16
ATOM     16  C   UNL     1      22.318  -5.279  47.911  1.00  0.00    -0.000 C 
BRANCH  16  17
ATOM     17  C   UNL     1      23.628  -6.085  47.993  1.00  0.00    -0.000 C 
BRANCH  17  18
ATOM     18  C   UNL     1      24.598  -5.885  46.815  1.00  0.00    -0.000 C 
BRANCH  18  19
ATOM     19  C   UNL     1      24.922  -7.191  46.076  1.00  0.00    -0.003 C 
ATOM     20  C   UNL     1      26.237  -7.078  45.309  1.00  0.00     0.004 C 
ENDBRANCH  18  19
ENDBRANCH  17  18
ENDBRANCH  16  17
ENDBRANCH  15  16
ENDBRANCH  14  15
ENDBRANCH  13  14
ENDBRANCH  12  13
ENDBRANCH   1  12
TORSDOF 16
ENDMDL
