MODEL 1
REMARK VINA RESULT:    -4.269      0.000      0.000
REMARK INTER + INTRA:          -9.566
REMARK INTER:                  -7.764
REMARK INTRA:                  -1.802
REMARK UNBOUND:                -1.802
REMARK SMILES CCCCCCCCCCCCCCCC(=O)[O-]
REMARK SMILES IDX 9 1 10 2 11 3 12 4 13 5 14 6 15 7 16 8 17 9 18 10 8 11 7 12
REMARK SMILES IDX 6 13 5 14 4 15 3 16 2 17 1 18
REMARK H PARENT
REMARK Flexibility Score: inf
ROOT
ATOM      1  C   UNL     1      12.605 -11.317  12.984  1.00  0.00     0.000 C 
ENDROOT
BRANCH   1   2
ATOM      2  C   UNL     1      12.403  -9.804  12.782  1.00  0.00     0.000 C 
BRANCH   2   3
ATOM      3  C   UNL     1      13.599  -9.063  12.153  1.00  0.00     0.000 C 
BRANCH   3   4
ATOM      4  C   UNL     1      14.033  -7.776  12.886  1.00  0.00     0.000 C 
BRANCH   4   5
ATOM      5  C   UNL     1      14.754  -6.740  12.006  1.00  0.00     0.000 C 
BRANCH   5   6
ATOM      6  C   UNL     1      14.905  -5.374  12.694  1.00  0.00     0.006 C 
BRANCH   6   7
ATOM      7  C   UNL     1      14.593  -5.444  14.195  1.00  0.00     0.053 C 
BRANCH   7   8
ATOM      8  C   UNL     1      13.462  -4.535  14.568  1.00  0.00     0.041 C 
ATOM      9  O   UNL     1      13.285  -4.202  15.770  1.00  0.00    -0.550 OA
ATOM     10  O   UNL     1      12.623  -4.026  13.583  1.00  0.00    -0.550 OA
ENDBRANCH   7   8
ENDBRANCH   6   7
ENDBRANCH   5   6
ENDBRANCH   4   5
ENDBRANCH   3   4
ENDBRANCH   2   3
ENDBRANCH   1   2
BRANCH   1  11
ATOM     11  C   UNL     1      13.570 -11.931  11.955  1.00  0.00     0.000 C 
BRANCH  11  12
ATOM     12  C   UNL     1      14.335 -13.142  12.515  1.00  0.00    -0.000 C 
BRANCH  12  13
ATOM     13  C   UNL     1      15.861 -12.945  12.471  1.00  0.00    -0.000 C 
BRANCH  13  14
ATOM     14  C   UNL     1      16.262 -11.554  11.954  1.00  0.00    -0.000 C 
BRANCH  14  15
ATOM     15  C   UNL     1      16.966 -10.702  13.022  1.00  0.00    -0.000 C 
BRANCH  15  16
ATOM     16  C   UNL     1      17.345  -9.323  12.461  1.00  0.00    -0.000 C 
BRANCH  16  17
ATOM     17  C   UNL     1      18.318  -8.562  13.374  1.00  0.00    -0.003 C 
ATOM     18  C   UNL     1      17.613  -7.553  14.281  1.00  0.00     0.004 C 
ENDBRANCH  16  17
ENDBRANCH  15  16
ENDBRANCH  14  15
ENDBRANCH  13  14
ENDBRANCH  12  13
ENDBRANCH  11  12
ENDBRANCH   1  11
TORSDOF 14
ENDMDL
MODEL 2
REMARK VINA RESULT:    -4.019      2.465      5.240
REMARK INTER + INTRA:          -9.110
REMARK INTER:                  -7.505
REMARK INTRA:                  -1.605
REMARK UNBOUND:                -1.802
REMARK SMILES CCCCCCCCCCCCCCCC(=O)[O-]
REMARK SMILES IDX 9 1 10 2 11 3 12 4 13 5 14 6 15 7 16 8 17 9 18 10 8 11 7 12
REMARK SMILES IDX 6 13 5 14 4 15 3 16 2 17 1 18
REMARK H PARENT
REMARK Flexibility Score: inf
ROOT
ATOM      1  C   UNL     1      12.387 -11.797  12.307  1.00  0.00     0.000 C 
ENDROOT
BRANCH   1   2
ATOM      2  C   UNL     1      13.148 -12.809  13.185  1.00  0.00     0.000 C 
BRANCH   2   3
ATOM      3  C   UNL     1      14.212 -13.644  12.445  1.00  0.00     0.000 C 
BRANCH   3   4
ATOM      4  C   UNL     1      15.665 -13.158  12.621  1.00  0.00     0.000 C 
BRANCH   4   5
ATOM      5  C   UNL     1      16.003 -11.846  11.891  1.00  0.00     0.000 C 
BRANCH   5   6
ATOM      6  C   UNL     1      16.328 -10.694  12.855  1.00  0.00     0.006 C 
BRANCH   6   7
ATOM      7  C   UNL     1      17.406  -9.757  12.295  1.00  0.00     0.053 C 
BRANCH   7   8
ATOM      8  C   UNL     1      18.075  -8.971  13.382  1.00  0.00     0.041 C 
ATOM      9  O   UNL     1      18.204  -7.723  13.275  1.00  0.00    -0.550 OA
ATOM     10  O   UNL     1      18.524  -9.613  14.530  1.00  0.00    -0.550 OA
ENDBRANCH   7   8
ENDBRANCH   6   7
ENDBRANCH   5   6
ENDBRANCH   4   5
ENDBRANCH   3   4
ENDBRANCH   2   3
ENDBRANCH   1   2
BRANCH   1  11
ATOM     11  C   UNL     1      12.292 -10.403  12.951  1.00  0.00     0.000 C 
BRANCH  11  12
ATOM     12  C   UNL     1      12.990  -9.319  12.114  1.00  0.00    -0.000 C 
BRANCH  12  13
ATOM     13  C   UNL     1      13.622  -8.219  12.986  1.00  0.00    -0.000 C 
BRANCH  13  14
ATOM     14  C   UNL     1      14.544  -7.286  12.182  1.00  0.00    -0.000 C 
BRANCH  14  15
ATOM     15  C   UNL     1      15.033  -6.082  13.002  1.00  0.00    -0.000 C 
BRANCH  15  16
ATOM     16  C   UNL     1      14.260  -4.810  12.623  1.00  0.00    -0.000 C 
BRANCH  16  17
ATOM     17  C   UNL     1      13.517  -4.192  13.817  1.00  0.00    -0.003 C 
ATOM     18  C   UNL     1      13.693  -4.995  15.104  1.00  0.00     0.004 C 
ENDBRANCH  16  17
ENDBRANCH  15  16
ENDBRANCH  14  15
ENDBRANCH  13  14
ENDBRANCH  12  13
ENDBRANCH  11  12
ENDBRANCH   1  11
TORSDOF 14
ENDMDL
MODEL 3
REMARK VINA RESULT:    -3.756      3.715      5.980
REMARK INTER + INTRA:          -8.632
REMARK INTER:                  -7.490
REMARK INTRA:                  -1.142
REMARK UNBOUND:                -1.802
REMARK SMILES CCCCCCCCCCCCCCCC(=O)[O-]
REMARK SMILES IDX 9 1 10 2 11 3 12 4 13 5 14 6 15 7 16 8 17 9 18 10 8 11 7 12
REMARK SMILES IDX 6 13 5 14 4 15 3 16 2 17 1 18
REMARK H PARENT
REMARK Flexibility Score: inf
ROOT
ATOM      1  C   UNL     1      15.853  -9.758  12.742  1.00  0.00     0.000 C 
ENDROOT
BRANCH   1   2
ATOM      2  C   UNL     1      15.098  -8.588  12.087  1.00  0.00     0.000 C 
BRANCH   2   3
ATOM      3  C   UNL     1      13.607  -8.479  12.466  1.00  0.00     0.000 C 
BRANCH   3   4
ATOM      4  C   UNL     1      12.721  -9.645  11.982  1.00  0.00     0.000 C 
BRANCH   4   5
ATOM      5  C   UNL     1      12.152 -10.535  13.101  1.00  0.00     0.000 C 
BRANCH   5   6
ATOM      6  C   UNL     1      12.370 -12.035  12.839  1.00  0.00     0.006 C 
BRANCH   6   7
ATOM      7  C   UNL     1      13.586 -12.295  11.940  1.00  0.00     0.053 C 
BRANCH   7   8
ATOM      8  C   UNL     1      14.481 -13.352  12.513  1.00  0.00     0.041 C 
ATOM      9  O   UNL     1      13.990 -14.411  12.987  1.00  0.00    -0.550 OA
ATOM     10  O   UNL     1      15.860 -13.184  12.492  1.00  0.00    -0.550 OA
ENDBRANCH   7   8
ENDBRANCH   6   7
ENDBRANCH   5   6
ENDBRANCH   4   5
ENDBRANCH   3   4
ENDBRANCH   2   3
ENDBRANCH   1   2
BRANCH   1  11
ATOM     11  C   UNL     1      17.362  -9.735  12.445  1.00  0.00     0.000 C 
BRANCH  11  12
ATOM     12  C   UNL     1      18.131  -8.779  13.373  1.00  0.00    -0.000 C 
BRANCH  12  13
ATOM     13  C   UNL     1      18.564  -7.487  12.657  1.00  0.00    -0.000 C 
BRANCH  13  14
ATOM     14  C   UNL     1      17.531  -6.358  12.801  1.00  0.00    -0.000 C 
BRANCH  14  15
ATOM     15  C   UNL     1      17.660  -5.600  14.132  1.00  0.00    -0.000 C 
BRANCH  15  16
ATOM     16  C   UNL     1      16.659  -6.134  15.167  1.00  0.00    -0.000 C 
BRANCH  16  17
ATOM     17  C   UNL     1      17.272  -6.263  16.570  1.00  0.00    -0.003 C 
ATOM     18  C   UNL     1      16.227  -6.191  17.682  1.00  0.00     0.004 C 
ENDBRANCH  16  17
ENDBRANCH  15  16
ENDBRANCH  14  15
ENDBRANCH  13  14
ENDBRANCH  12  13
ENDBRANCH  11  12
ENDBRANCH   1  11
TORSDOF 14
ENDMDL
MODEL 4
REMARK VINA RESULT:    -3.638      2.721      6.394
REMARK INTER + INTRA:          -8.418
REMARK INTER:                  -6.855
REMARK INTRA:                  -1.563
REMARK UNBOUND:                -1.802
REMARK SMILES CCCCCCCCCCCCCCCC(=O)[O-]
REMARK SMILES IDX 9 1 10 2 11 3 12 4 13 5 14 6 15 7 16 8 17 9 18 10 8 11 7 12
REMARK SMILES IDX 6 13 5 14 4 15 3 16 2 17 1 18
REMARK H PARENT
REMARK Flexibility Score: inf
ROOT
ATOM      1  C   UNL     1      17.002  -7.225  14.308  1.00  0.00     0.000 C 
ENDROOT
BRANCH   1   2
ATOM      2  C   UNL     1      18.058  -8.127  14.972  1.00  0.00     0.000 C 
BRANCH   2   3
ATOM      3  C   UNL     1      18.436  -9.388  14.169  1.00  0.00     0.000 C 
BRANCH   3   4
ATOM      4  C   UNL     1      17.743  -9.525  12.798  1.00  0.00     0.000 C 
BRANCH   4   5
ATOM      5  C   UNL     1      16.763 -10.706  12.682  1.00  0.00     0.000 C 
BRANCH   5   6
ATOM      6  C   UNL     1      15.299 -10.255  12.546  1.00  0.00     0.006 C 
BRANCH   6   7
ATOM      7  C   UNL     1      14.376 -11.404  12.118  1.00  0.00     0.053 C 
BRANCH   7   8
ATOM      8  C   UNL     1      13.060 -11.352  12.833  1.00  0.00     0.041 C 
ATOM      9  O   UNL     1      12.487 -12.417  13.183  1.00  0.00    -0.550 OA
ATOM     10  O   UNL     1      12.484 -10.126  13.143  1.00  0.00    -0.550 OA
ENDBRANCH   7   8
ENDBRANCH   6   7
ENDBRANCH   5   6
ENDBRANCH   4   5
ENDBRANCH   3   4
ENDBRANCH   2   3
ENDBRANCH   1   2
BRANCH   1  11
ATOM     11  C   UNL     1      17.483  -5.774  14.132  1.00  0.00     0.000 C 
BRANCH  11  12
ATOM     12  C   UNL     1      17.225  -5.236  12.715  1.00  0.00    -0.000 C 
BRANCH  12  13
ATOM     13  C   UNL     1      16.351  -6.185  11.876  1.00  0.00    -0.000 C 
BRANCH  13  14
ATOM     14  C   UNL     1      14.856  -5.831  11.950  1.00  0.00    -0.000 C 
BRANCH  14  15
ATOM     15  C   UNL     1      14.611  -4.332  12.179  1.00  0.00    -0.000 C 
BRANCH  15  16
ATOM     16  C   UNL     1      13.317  -4.103  12.975  1.00  0.00    -0.000 C 
BRANCH  16  17
ATOM     17  C   UNL     1      13.577  -3.875  14.472  1.00  0.00    -0.003 C 
ATOM     18  C   UNL     1      13.692  -5.180  15.259  1.00  0.00     0.004 C 
ENDBRANCH  16  17
ENDBRANCH  15  16
ENDBRANCH  14  15
ENDBRANCH  13  14
ENDBRANCH  12  13
ENDBRANCH  11  12
ENDBRANCH   1  11
TORSDOF 14
ENDMDL
MODEL 5
REMARK VINA RESULT:    -3.496      2.139      4.120
REMARK INTER + INTRA:          -8.160
REMARK INTER:                  -6.424
REMARK INTRA:                  -1.736
REMARK UNBOUND:                -1.802
REMARK SMILES CCCCCCCCCCCCCCCC(=O)[O-]
REMARK SMILES IDX 9 1 10 2 11 3 12 4 13 5 14 6 15 7 16 8 17 9 18 10 8 11 7 12
REMARK SMILES IDX 6 13 5 14 4 15 3 16 2 17 1 18
REMARK H PARENT
REMARK Flexibility Score: inf
ROOT
ATOM      1  C   UNL     1      16.230 -12.728  12.922  1.00  0.00     0.000 C 
ENDROOT
BRANCH   1   2
ATOM      2  C   UNL     1      16.224 -11.598  11.876  1.00  0.00     0.000 C 
BRANCH   2   3
ATOM      3  C   UNL     1      17.228 -10.459  12.139  1.00  0.00     0.000 C 
BRANCH   3   4
ATOM      4  C   UNL     1      17.476 -10.133  13.627  1.00  0.00     0.000 C 
BRANCH   4   5
ATOM      5  C   UNL     1      18.066  -8.737  13.895  1.00  0.00     0.000 C 
BRANCH   5   6
ATOM      6  C   UNL     1      18.507  -8.019  12.610  1.00  0.00     0.006 C 
BRANCH   6   7
ATOM      7  C   UNL     1      17.644  -6.786  12.309  1.00  0.00     0.053 C 
BRANCH   7   8
ATOM      8  C   UNL     1      17.998  -5.633  13.198  1.00  0.00     0.041 C 
ATOM      9  O   UNL     1      17.399  -5.471  14.294  1.00  0.00    -0.550 OA
ATOM     10  O   UNL     1      19.014  -4.758  12.833  1.00  0.00    -0.550 OA
ENDBRANCH   7   8
ENDBRANCH   6   7
ENDBRANCH   5   6
ENDBRANCH   4   5
ENDBRANCH   3   4
ENDBRANCH   2   3
ENDBRANCH   1   2
BRANCH   1  11
ATOM     11  C   UNL     1      14.914 -13.524  12.949  1.00  0.00     0.000 C 
BRANCH  11  12
ATOM     12  C   UNL     1      13.809 -12.864  12.108  1.00  0.00    -0.000 C 
BRANCH  12  13
ATOM     13  C   UNL     1      12.563 -12.516  12.941  1.00  0.00    -0.000 C 
BRANCH  13  14
ATOM     14  C   UNL     1      12.012 -11.116  12.623  1.00  0.00    -0.000 C 
BRANCH  14  15
ATOM     15  C   UNL     1      13.031 -10.229  11.890  1.00  0.00    -0.000 C 
BRANCH  15  16
ATOM     16  C   UNL     1      13.726  -9.270  12.868  1.00  0.00    -0.000 C 
BRANCH  16  17
ATOM     17  C   UNL     1      14.363  -8.065  12.160  1.00  0.00    -0.003 C 
ATOM     18  C   UNL     1      14.012  -6.734  12.823  1.00  0.00     0.004 C 
ENDBRANCH  16  17
ENDBRANCH  15  16
ENDBRANCH  14  15
ENDBRANCH  13  14
ENDBRANCH  12  13
ENDBRANCH  11  12
ENDBRANCH   1  11
TORSDOF 14
ENDMDL
MODEL 6
REMARK VINA RESULT:    -3.438      3.115      6.768
REMARK INTER + INTRA:          -8.053
REMARK INTER:                  -6.621
REMARK INTRA:                  -1.432
REMARK UNBOUND:                -1.802
REMARK SMILES CCCCCCCCCCCCCCCC(=O)[O-]
REMARK SMILES IDX 9 1 10 2 11 3 12 4 13 5 14 6 15 7 16 8 17 9 18 10 8 11 7 12
REMARK SMILES IDX 6 13 5 14 4 15 3 16 2 17 1 18
REMARK H PARENT
REMARK Flexibility Score: inf
ROOT
ATOM      1  C   UNL     1      17.743  -7.189  15.695  1.00  0.00     0.000 C 
ENDROOT
BRANCH   1   2
ATOM      2  C   UNL     1      17.684  -7.495  14.187  1.00  0.00     0.000 C 
BRANCH   2   3
ATOM      3  C   UNL     1      18.168  -8.902  13.787  1.00  0.00     0.000 C 
BRANCH   3   4
ATOM      4  C   UNL     1      17.534  -9.474  12.501  1.00  0.00     0.000 C 
BRANCH   4   5
ATOM      5  C   UNL     1      17.008 -10.914  12.623  1.00  0.00     0.000 C 
BRANCH   5   6
ATOM      6  C   UNL     1      15.604 -11.090  12.020  1.00  0.00     0.006 C 
BRANCH   6   7
ATOM      7  C   UNL     1      15.126 -12.546  12.080  1.00  0.00     0.053 C 
BRANCH   7   8
ATOM      8  C   UNL     1      13.787 -12.663  12.742  1.00  0.00     0.041 C 
ATOM      9  O   UNL     1      13.114 -11.630  12.998  1.00  0.00    -0.550 OA
ATOM     10  O   UNL     1      13.267 -13.916  13.045  1.00  0.00    -0.550 OA
ENDBRANCH   7   8
ENDBRANCH   6   7
ENDBRANCH   5   6
ENDBRANCH   4   5
ENDBRANCH   3   4
ENDBRANCH   2   3
ENDBRANCH   1   2
BRANCH   1  11
ATOM     11  C   UNL     1      16.586  -6.291  16.167  1.00  0.00     0.000 C 
BRANCH  11  12
ATOM     12  C   UNL     1      15.771  -5.717  14.997  1.00  0.00    -0.000 C 
BRANCH  12  13
ATOM     13  C   UNL     1      14.330  -5.359  15.405  1.00  0.00    -0.000 C 
BRANCH  13  14
ATOM     14  C   UNL     1      13.543  -4.692  14.265  1.00  0.00    -0.000 C 
BRANCH  14  15
ATOM     15  C   UNL     1      14.407  -4.424  13.022  1.00  0.00    -0.000 C 
BRANCH  15  16
ATOM     16  C   UNL     1      14.026  -5.371  11.875  1.00  0.00    -0.000 C 
BRANCH  16  17
ATOM     17  C   UNL     1      14.857  -6.663  11.875  1.00  0.00    -0.003 C 
ATOM     18  C   UNL     1      14.087  -7.864  12.423  1.00  0.00     0.004 C 
ENDBRANCH  16  17
ENDBRANCH  15  16
ENDBRANCH  14  15
ENDBRANCH  13  14
ENDBRANCH  12  13
ENDBRANCH  11  12
ENDBRANCH   1  11
TORSDOF 14
ENDMDL
