MODEL 1
REMARK VINA RESULT:    -5.599      0.000      0.000
REMARK INTER + INTRA:          -6.870
REMARK INTER:                  -6.581
REMARK INTRA:                  -0.288
REMARK UNBOUND:                -0.288
REMARK SMILES O=c1c(O)c(-c2ccc(O)cc2)oc2cc(O)cc(O)c12
REMARK SMILES IDX 5 1 3 2 2 3 1 4 21 5 19 6 18 7 16 8 15 9 14 10 13 11 6 12
REMARK SMILES IDX 7 13 8 14 9 15 12 16 11 17 10 18 4 20 20 22 17 24
REMARK H PARENT 10 19 4 21 20 23 17 25
REMARK Flexibility Score: inf
ROOT
ATOM      1  C   UNL     1      68.318  46.953   7.925  1.00  0.00     0.180 A 
ATOM      2  C   UNL     1      68.636  45.584   7.871  1.00  0.00     0.208 A 
ATOM      3  C   UNL     1      67.595  44.643   7.866  1.00  0.00     0.238 A 
ATOM      4  O   UNL     1      67.885  43.422   7.764  1.00  0.00    -0.285 OA
ATOM      5  C   UNL     1      66.250  45.080   7.931  1.00  0.00     0.111 A 
ATOM      6  C   UNL     1      65.117  44.212   7.971  1.00  0.00     0.134 A 
ATOM      7  C   UNL     1      63.828  44.754   7.903  1.00  0.00     0.093 A 
ATOM      8  C   UNL     1      63.630  46.137   7.860  1.00  0.00     0.123 A 
ATOM      9  C   UNL     1      64.728  46.993   7.879  1.00  0.00     0.094 A 
ATOM     10  C   UNL     1      66.027  46.481   7.911  1.00  0.00     0.146 A 
ATOM     11  O   UNL     1      67.045  47.333   7.918  1.00  0.00    -0.452 OA
ENDROOT
BRANCH   1  12
ATOM     12  C   UNL     1      69.360  48.004   7.959  1.00  0.00     0.021 A 
ATOM     13  C   UNL     1      69.909  48.394   9.192  1.00  0.00     0.016 A 
ATOM     14  C   UNL     1      70.910  49.369   9.245  1.00  0.00     0.047 A 
ATOM     15  C   UNL     1      71.385  49.954   8.068  1.00  0.00     0.115 A 
ATOM     16  C   UNL     1      69.856  48.584   6.777  1.00  0.00     0.016 A 
ATOM     17  C   UNL     1      70.858  49.558   6.833  1.00  0.00     0.047 A 
BRANCH  15  18
ATOM     18  O   UNL     1      72.382  50.925   8.137  1.00  0.00    -0.508 OA
ATOM     19  H   UNL     1      73.363  50.674   8.170  1.00  0.00     0.293 HD
ENDBRANCH  15  18
ENDBRANCH   1  12
BRANCH   2  20
ATOM     20  O   UNL     1      69.970  45.176   7.786  1.00  0.00    -0.502 OA
ATOM     21  H   UNL     1      70.433  44.671   8.532  1.00  0.00     0.293 HD
ENDBRANCH   2  20
BRANCH   6  22
ATOM     22  O   UNL     1      65.204  42.823   8.107  1.00  0.00    -0.507 OA
ATOM     23  H   UNL     1      64.635  42.269   8.730  1.00  0.00     0.293 HD
ENDBRANCH   6  22
BRANCH   8  24
ATOM     24  O   UNL     1      62.344  46.669   7.807  1.00  0.00    -0.508 OA
ATOM     25  H   UNL     1      61.593  46.296   8.377  1.00  0.00     0.293 HD
ENDBRANCH   8  24
TORSDOF 5
ENDMDL
MODEL 2
REMARK VINA RESULT:    -5.594      2.264      7.506
REMARK INTER + INTRA:          -6.864
REMARK INTER:                  -7.357
REMARK INTRA:                   0.494
REMARK UNBOUND:                -0.288
REMARK SMILES O=c1c(O)c(-c2ccc(O)cc2)oc2cc(O)cc(O)c12
REMARK SMILES IDX 5 1 3 2 2 3 1 4 21 5 19 6 18 7 16 8 15 9 14 10 13 11 6 12
REMARK SMILES IDX 7 13 8 14 9 15 12 16 11 17 10 18 4 20 20 22 17 24
REMARK H PARENT 10 19 4 21 20 23 17 25
REMARK Flexibility Score: inf
ROOT
ATOM      1  C   UNL     1      64.618  46.027   8.834  1.00  0.00     0.180 A 
ATOM      2  C   UNL     1      64.384  47.237   9.511  1.00  0.00     0.208 A 
ATOM      3  C   UNL     1      65.392  48.215   9.526  1.00  0.00     0.238 A 
ATOM      4  O   UNL     1      65.156  49.317  10.087  1.00  0.00    -0.285 OA
ATOM      5  C   UNL     1      66.625  47.964   8.879  1.00  0.00     0.111 A 
ATOM      6  C   UNL     1      67.731  48.868   8.864  1.00  0.00     0.134 A 
ATOM      7  C   UNL     1      68.855  48.572   8.083  1.00  0.00     0.093 A 
ATOM      8  C   UNL     1      68.939  47.375   7.367  1.00  0.00     0.123 A 
ATOM      9  C   UNL     1      67.890  46.461   7.423  1.00  0.00     0.094 A 
ATOM     10  C   UNL     1      66.741  46.744   8.164  1.00  0.00     0.146 A 
ATOM     11  O   UNL     1      65.761  45.849   8.182  1.00  0.00    -0.452 OA
ENDROOT
BRANCH   1  12
ATOM     12  C   UNL     1      63.614  44.938   8.795  1.00  0.00     0.021 A 
ATOM     13  C   UNL     1      63.910  43.750   8.108  1.00  0.00     0.016 A 
ATOM     14  C   UNL     1      62.986  42.701   8.078  1.00  0.00     0.047 A 
ATOM     15  C   UNL     1      61.763  42.821   8.745  1.00  0.00     0.115 A 
ATOM     16  C   UNL     1      62.390  45.046   9.480  1.00  0.00     0.016 A 
ATOM     17  C   UNL     1      61.468  43.995   9.449  1.00  0.00     0.047 A 
BRANCH  15  18
ATOM     18  O   UNL     1      60.852  41.768   8.705  1.00  0.00    -0.508 OA
ATOM     19  H   UNL     1      60.840  41.051   9.421  1.00  0.00     0.293 HD
ENDBRANCH  15  18
ENDBRANCH   1  12
BRANCH   2  20
ATOM     20  O   UNL     1      63.151  47.472  10.125  1.00  0.00    -0.502 OA
ATOM     21  H   UNL     1      62.282  47.502   9.605  1.00  0.00     0.293 HD
ENDBRANCH   2  20
BRANCH   6  22
ATOM     22  O   UNL     1      67.786  50.045   9.616  1.00  0.00    -0.507 OA
ATOM     23  H   UNL     1      68.525  50.283  10.259  1.00  0.00     0.293 HD
ENDBRANCH   6  22
BRANCH   8  24
ATOM     24  O   UNL     1      70.068  47.081   6.604  1.00  0.00    -0.508 OA
ATOM     25  H   UNL     1      70.726  47.803   6.334  1.00  0.00     0.293 HD
ENDBRANCH   8  24
TORSDOF 5
ENDMDL
MODEL 3
REMARK VINA RESULT:    -5.540      2.135      7.166
REMARK INTER + INTRA:          -6.800
REMARK INTER:                  -6.556
REMARK INTRA:                  -0.245
REMARK UNBOUND:                -0.288
REMARK SMILES O=c1c(O)c(-c2ccc(O)cc2)oc2cc(O)cc(O)c12
REMARK SMILES IDX 5 1 3 2 2 3 1 4 21 5 19 6 18 7 16 8 15 9 14 10 13 11 6 12
REMARK SMILES IDX 7 13 8 14 9 15 12 16 11 17 10 18 4 20 20 22 17 24
REMARK H PARENT 10 19 4 21 20 23 17 25
REMARK Flexibility Score: inf
ROOT
ATOM      1  C   UNL     1      68.935  47.499   8.100  1.00  0.00     0.180 A 
ATOM      2  C   UNL     1      69.364  48.352   9.133  1.00  0.00     0.208 A 
ATOM      3  C   UNL     1      70.690  48.816   9.127  1.00  0.00     0.238 A 
ATOM      4  O   UNL     1      71.052  49.622  10.023  1.00  0.00    -0.285 OA
ATOM      5  C   UNL     1      71.574  48.407   8.099  1.00  0.00     0.111 A 
ATOM      6  C   UNL     1      72.948  48.783   8.016  1.00  0.00     0.134 A 
ATOM      7  C   UNL     1      73.695  48.428   6.886  1.00  0.00     0.093 A 
ATOM      8  C   UNL     1      73.134  47.654   5.866  1.00  0.00     0.123 A 
ATOM      9  C   UNL     1      71.810  47.233   5.967  1.00  0.00     0.094 A 
ATOM     10  C   UNL     1      71.030  47.602   7.065  1.00  0.00     0.146 A 
ATOM     11  O   UNL     1      69.770  47.187   7.116  1.00  0.00    -0.452 OA
ENDROOT
BRANCH   1  12
ATOM     12  C   UNL     1      67.561  46.949   8.052  1.00  0.00     0.021 A 
ATOM     13  C   UNL     1      66.510  47.755   7.583  1.00  0.00     0.016 A 
ATOM     14  C   UNL     1      65.209  47.249   7.508  1.00  0.00     0.047 A 
ATOM     15  C   UNL     1      64.944  45.929   7.885  1.00  0.00     0.115 A 
ATOM     16  C   UNL     1      67.292  45.616   8.411  1.00  0.00     0.016 A 
ATOM     17  C   UNL     1      65.990  45.112   8.334  1.00  0.00     0.047 A 
BRANCH  15  18
ATOM     18  O   UNL     1      63.643  45.439   7.806  1.00  0.00    -0.508 OA
ATOM     19  H   UNL     1      62.913  45.774   8.423  1.00  0.00     0.293 HD
ENDBRANCH  15  18
ENDBRANCH   1  12
BRANCH   2  20
ATOM     20  O   UNL     1      68.468  48.760  10.125  1.00  0.00    -0.502 OA
ATOM     21  H   UNL     1      67.774  49.480   9.968  1.00  0.00     0.293 HD
ENDBRANCH   2  20
BRANCH   6  22
ATOM     22  O   UNL     1      73.629  49.476   9.022  1.00  0.00    -0.507 OA
ATOM     23  H   UNL     1      73.513  49.315  10.011  1.00  0.00     0.293 HD
ENDBRANCH   6  22
BRANCH   8  24
ATOM     24  O   UNL     1      73.888  47.292   4.753  1.00  0.00    -0.508 OA
ATOM     25  H   UNL     1      74.858  47.011   4.839  1.00  0.00     0.293 HD
ENDBRANCH   8  24
TORSDOF 5
ENDMDL
MODEL 4
REMARK VINA RESULT:    -5.536      2.016      6.763
REMARK INTER + INTRA:          -6.796
REMARK INTER:                  -6.506
REMARK INTRA:                  -0.289
REMARK UNBOUND:                -0.288
REMARK SMILES O=c1c(O)c(-c2ccc(O)cc2)oc2cc(O)cc(O)c12
REMARK SMILES IDX 5 1 3 2 2 3 1 4 21 5 19 6 18 7 16 8 15 9 14 10 13 11 6 12
REMARK SMILES IDX 7 13 8 14 9 15 12 16 11 17 10 18 4 20 20 22 17 24
REMARK H PARENT 10 19 4 21 20 23 17 25
REMARK Flexibility Score: inf
ROOT
ATOM      1  C   UNL     1      66.026  45.318   8.563  1.00  0.00     0.180 A 
ATOM      2  C   UNL     1      67.196  44.851   7.936  1.00  0.00     0.208 A 
ATOM      3  C   UNL     1      68.294  45.716   7.811  1.00  0.00     0.238 A 
ATOM      4  O   UNL     1      69.355  45.276   7.297  1.00  0.00    -0.285 OA
ATOM      5  C   UNL     1      68.205  47.042   8.299  1.00  0.00     0.111 A 
ATOM      6  C   UNL     1      69.242  48.017   8.190  1.00  0.00     0.134 A 
ATOM      7  C   UNL     1      69.094  49.257   8.825  1.00  0.00     0.093 A 
ATOM      8  C   UNL     1      67.920  49.580   9.509  1.00  0.00     0.123 A 
ATOM      9  C   UNL     1      66.879  48.657   9.570  1.00  0.00     0.094 A 
ATOM     10  C   UNL     1      67.011  47.399   8.978  1.00  0.00     0.146 A 
ATOM     11  O   UNL     1      65.998  46.545   9.069  1.00  0.00    -0.452 OA
ENDROOT
BRANCH   1  12
ATOM     12  C   UNL     1      64.819  44.473   8.710  1.00  0.00     0.021 A 
ATOM     13  C   UNL     1      63.874  44.433   7.672  1.00  0.00     0.016 A 
ATOM     14  C   UNL     1      62.737  43.625   7.781  1.00  0.00     0.047 A 
ATOM     15  C   UNL     1      62.540  42.837   8.919  1.00  0.00     0.115 A 
ATOM     16  C   UNL     1      64.624  43.664   9.845  1.00  0.00     0.016 A 
ATOM     17  C   UNL     1      63.488  42.856   9.950  1.00  0.00     0.047 A 
BRANCH  15  18
ATOM     18  O   UNL     1      61.403  42.038   9.014  1.00  0.00    -0.508 OA
ATOM     19  H   UNL     1      60.807  41.869   8.212  1.00  0.00     0.293 HD
ENDBRANCH  15  18
ENDBRANCH   1  12
BRANCH   2  20
ATOM     20  O   UNL     1      67.269  43.532   7.480  1.00  0.00    -0.502 OA
ATOM     21  H   UNL     1      67.891  43.248   6.733  1.00  0.00     0.293 HD
ENDBRANCH   2  20
BRANCH   6  22
ATOM     22  O   UNL     1      70.415  47.829   7.452  1.00  0.00    -0.507 OA
ATOM     23  H   UNL     1      71.348  47.920   7.823  1.00  0.00     0.293 HD
ENDBRANCH   6  22
BRANCH   8  24
ATOM     24  O   UNL     1      67.775  50.821  10.125  1.00  0.00    -0.508 OA
ATOM     25  H   UNL     1      68.239  51.036  11.000  1.00  0.00     0.293 HD
ENDBRANCH   8  24
TORSDOF 5
ENDMDL
MODEL 5
REMARK VINA RESULT:    -5.505      2.027      3.292
REMARK INTER + INTRA:          -6.759
REMARK INTER:                  -6.628
REMARK INTRA:                  -0.131
REMARK UNBOUND:                -0.288
REMARK SMILES O=c1c(O)c(-c2ccc(O)cc2)oc2cc(O)cc(O)c12
REMARK SMILES IDX 5 1 3 2 2 3 1 4 21 5 19 6 18 7 16 8 15 9 14 10 13 11 6 12
REMARK SMILES IDX 7 13 8 14 9 15 12 16 11 17 10 18 4 20 20 22 17 24
REMARK H PARENT 10 19 4 21 20 23 17 25
REMARK Flexibility Score: inf
ROOT
ATOM      1  C   UNL     1      67.753  47.502   7.920  1.00  0.00     0.180 A 
ATOM      2  C   UNL     1      67.219  48.492   8.765  1.00  0.00     0.208 A 
ATOM      3  C   UNL     1      65.934  48.310   9.299  1.00  0.00     0.238 A 
ATOM      4  O   UNL     1      65.483  49.173  10.097  1.00  0.00    -0.285 OA
ATOM      5  C   UNL     1      65.191  47.150   8.970  1.00  0.00     0.111 A 
ATOM      6  C   UNL     1      63.864  46.882   9.423  1.00  0.00     0.134 A 
ATOM      7  C   UNL     1      63.275  45.643   9.142  1.00  0.00     0.093 A 
ATOM      8  C   UNL     1      63.942  44.688   8.370  1.00  0.00     0.123 A 
ATOM      9  C   UNL     1      65.214  44.964   7.874  1.00  0.00     0.094 A 
ATOM     10  C   UNL     1      65.841  46.177   8.167  1.00  0.00     0.146 A 
ATOM     11  O   UNL     1      67.058  46.395   7.683  1.00  0.00    -0.452 OA
ENDROOT
BRANCH   1  12
ATOM     12  C   UNL     1      69.090  47.633   7.298  1.00  0.00     0.021 A 
ATOM     13  C   UNL     1      69.327  48.670   6.381  1.00  0.00     0.016 A 
ATOM     14  C   UNL     1      70.589  48.826   5.799  1.00  0.00     0.047 A 
ATOM     15  C   UNL     1      71.632  47.959   6.137  1.00  0.00     0.115 A 
ATOM     16  C   UNL     1      70.149  46.775   7.648  1.00  0.00     0.016 A 
ATOM     17  C   UNL     1      71.410  46.934   7.066  1.00  0.00     0.047 A 
BRANCH  15  18
ATOM     18  O   UNL     1      72.883  48.126   5.548  1.00  0.00    -0.508 OA
ATOM     19  H   UNL     1      72.997  48.137   4.542  1.00  0.00     0.293 HD
ENDBRANCH  15  18
ENDBRANCH   1  12
BRANCH   2  20
ATOM     20  O   UNL     1      67.978  49.618   9.094  1.00  0.00    -0.502 OA
ATOM     21  H   UNL     1      68.576  50.085   8.423  1.00  0.00     0.293 HD
ENDBRANCH   2  20
BRANCH   6  22
ATOM     22  O   UNL     1      63.078  47.803  10.122  1.00  0.00    -0.507 OA
ATOM     23  H   UNL     1      62.916  47.782  11.117  1.00  0.00     0.293 HD
ENDBRANCH   6  22
BRANCH   8  24
ATOM     24  O   UNL     1      63.343  43.463   8.082  1.00  0.00    -0.508 OA
ATOM     25  H   UNL     1      63.337  43.085   7.141  1.00  0.00     0.293 HD
ENDBRANCH   8  24
TORSDOF 5
ENDMDL
MODEL 6
REMARK VINA RESULT:    -5.475      1.504      3.070
REMARK INTER + INTRA:          -6.724
REMARK INTER:                  -6.476
REMARK INTRA:                  -0.248
REMARK UNBOUND:                -0.288
REMARK SMILES O=c1c(O)c(-c2ccc(O)cc2)oc2cc(O)cc(O)c12
REMARK SMILES IDX 5 1 3 2 2 3 1 4 21 5 19 6 18 7 16 8 15 9 14 10 13 11 6 12
REMARK SMILES IDX 7 13 8 14 9 15 12 16 11 17 10 18 4 20 20 22 17 24
REMARK H PARENT 10 19 4 21 20 23 17 25
REMARK Flexibility Score: inf
ROOT
ATOM      1  C   UNL     1      67.352  46.849   8.295  1.00  0.00     0.180 A 
ATOM      2  C   UNL     1      66.042  47.202   7.921  1.00  0.00     0.208 A 
ATOM      3  C   UNL     1      65.028  46.234   7.996  1.00  0.00     0.238 A 
ATOM      4  O   UNL     1      63.849  46.571   7.712  1.00  0.00    -0.285 OA
ATOM      5  C   UNL     1      65.338  44.922   8.426  1.00  0.00     0.111 A 
ATOM      6  C   UNL     1      64.397  43.850   8.502  1.00  0.00     0.134 A 
ATOM      7  C   UNL     1      64.785  42.628   9.066  1.00  0.00     0.093 A 
ATOM      8  C   UNL     1      66.097  42.419   9.497  1.00  0.00     0.123 A 
ATOM      9  C   UNL     1      67.037  43.439   9.372  1.00  0.00     0.094 A 
ATOM     10  C   UNL     1      66.671  44.680   8.847  1.00  0.00     0.146 A 
ATOM     11  O   UNL     1      67.596  45.628   8.756  1.00  0.00    -0.452 OA
ENDROOT
BRANCH   1  12
ATOM     12  C   UNL     1      68.478  47.807   8.219  1.00  0.00     0.021 A 
ATOM     13  C   UNL     1      69.012  48.340   9.404  1.00  0.00     0.016 A 
ATOM     14  C   UNL     1      70.091  49.229   9.356  1.00  0.00     0.047 A 
ATOM     15  C   UNL     1      70.658  49.583   8.129  1.00  0.00     0.115 A 
ATOM     16  C   UNL     1      69.066  48.152   6.988  1.00  0.00     0.016 A 
ATOM     17  C   UNL     1      70.145  49.040   6.944  1.00  0.00     0.047 A 
BRANCH  15  18
ATOM     18  O   UNL     1      71.731  50.470   8.097  1.00  0.00    -0.508 OA
ATOM     19  H   UNL     1      71.832  51.204   8.789  1.00  0.00     0.293 HD
ENDBRANCH  15  18
ENDBRANCH   1  12
BRANCH   2  20
ATOM     20  O   UNL     1      65.755  48.510   7.520  1.00  0.00    -0.502 OA
ATOM     21  H   UNL     1      66.137  49.320   7.993  1.00  0.00     0.293 HD
ENDBRANCH   2  20
BRANCH   6  22
ATOM     22  O   UNL     1      63.088  43.926   8.015  1.00  0.00    -0.507 OA
ATOM     23  H   UNL     1      62.834  43.873   7.041  1.00  0.00     0.293 HD
ENDBRANCH   6  22
BRANCH   8  24
ATOM     24  O   UNL     1      66.479  41.195  10.043  1.00  0.00    -0.508 OA
ATOM     25  H   UNL     1      67.366  41.082  10.519  1.00  0.00     0.293 HD
ENDBRANCH   8  24
TORSDOF 5
ENDMDL
MODEL 7
REMARK VINA RESULT:    -5.469      2.871      4.351
REMARK INTER + INTRA:          -6.717
REMARK INTER:                  -6.416
REMARK INTRA:                  -0.301
REMARK UNBOUND:                -0.288
REMARK SMILES O=c1c(O)c(-c2ccc(O)cc2)oc2cc(O)cc(O)c12
REMARK SMILES IDX 5 1 3 2 2 3 1 4 21 5 19 6 18 7 16 8 15 9 14 10 13 11 6 12
REMARK SMILES IDX 7 13 8 14 9 15 12 16 11 17 10 18 4 20 20 22 17 24
REMARK H PARENT 10 19 4 21 20 23 17 25
REMARK Flexibility Score: inf
ROOT
ATOM      1  C   UNL     1      70.339  47.750   7.255  1.00  0.00     0.180 A 
ATOM      2  C   UNL     1      70.394  48.756   8.236  1.00  0.00     0.208 A 
ATOM      3  C   UNL     1      69.203  49.170   8.854  1.00  0.00     0.238 A 
ATOM      4  O   UNL     1      69.265  50.032   9.769  1.00  0.00    -0.285 OA
ATOM      5  C   UNL     1      67.972  48.586   8.472  1.00  0.00     0.111 A 
ATOM      6  C   UNL     1      66.700  48.956   9.004  1.00  0.00     0.134 A 
ATOM      7  C   UNL     1      65.562  48.221   8.650  1.00  0.00     0.093 A 
ATOM      8  C   UNL     1      65.640  47.170   7.733  1.00  0.00     0.123 A 
ATOM      9  C   UNL     1      66.868  46.839   7.164  1.00  0.00     0.094 A 
ATOM     10  C   UNL     1      68.026  47.530   7.525  1.00  0.00     0.146 A 
ATOM     11  O   UNL     1      69.177  47.176   6.966  1.00  0.00    -0.452 OA
ENDROOT
BRANCH   1  12
ATOM     12  C   UNL     1      71.548  47.278   6.541  1.00  0.00     0.021 A 
ATOM     13  C   UNL     1      72.245  46.160   7.026  1.00  0.00     0.016 A 
ATOM     14  C   UNL     1      73.376  45.684   6.354  1.00  0.00     0.047 A 
ATOM     15  C   UNL     1      73.814  46.310   5.184  1.00  0.00     0.115 A 
ATOM     16  C   UNL     1      71.983  47.892   5.351  1.00  0.00     0.016 A 
ATOM     17  C   UNL     1      73.113  47.414   4.682  1.00  0.00     0.047 A 
BRANCH  15  18
ATOM     18  O   UNL     1      74.943  45.826   4.526  1.00  0.00    -0.508 OA
ATOM     19  H   UNL     1      74.956  44.904   4.106  1.00  0.00     0.293 HD
ENDBRANCH  15  18
ENDBRANCH   1  12
BRANCH   2  20
ATOM     20  O   UNL     1      71.623  49.304   8.612  1.00  0.00    -0.502 OA
ATOM     21  H   UNL     1      71.714  49.960   9.378  1.00  0.00     0.293 HD
ENDBRANCH   2  20
BRANCH   6  22
ATOM     22  O   UNL     1      66.498  50.048   9.854  1.00  0.00    -0.507 OA
ATOM     23  H   UNL     1      65.744  50.127  10.519  1.00  0.00     0.293 HD
ENDBRANCH   6  22
BRANCH   8  24
ATOM     24  O   UNL     1      64.501  46.453   7.374  1.00  0.00    -0.508 OA
ATOM     25  H   UNL     1      63.601  46.640   7.803  1.00  0.00     0.293 HD
ENDBRANCH   8  24
TORSDOF 5
ENDMDL
MODEL 8
REMARK VINA RESULT:    -5.360      3.157      6.825
REMARK INTER + INTRA:          -6.589
REMARK INTER:                  -6.338
REMARK INTRA:                  -0.251
REMARK UNBOUND:                -0.288
REMARK SMILES O=c1c(O)c(-c2ccc(O)cc2)oc2cc(O)cc(O)c12
REMARK SMILES IDX 5 1 3 2 2 3 1 4 21 5 19 6 18 7 16 8 15 9 14 10 13 11 6 12
REMARK SMILES IDX 7 13 8 14 9 15 12 16 11 17 10 18 4 20 20 22 17 24
REMARK H PARENT 10 19 4 21 20 23 17 25
REMARK Flexibility Score: inf
ROOT
ATOM      1  C   UNL     1      69.549  48.039   7.634  1.00  0.00     0.180 A 
ATOM      2  C   UNL     1      69.907  48.543   6.370  1.00  0.00     0.208 A 
ATOM      3  C   UNL     1      71.156  48.200   5.829  1.00  0.00     0.238 A 
ATOM      4  O   UNL     1      71.449  48.610   4.675  1.00  0.00    -0.285 OA
ATOM      5  C   UNL     1      72.038  47.371   6.564  1.00  0.00     0.111 A 
ATOM      6  C   UNL     1      73.344  46.992   6.130  1.00  0.00     0.134 A 
ATOM      7  C   UNL     1      74.079  46.062   6.877  1.00  0.00     0.093 A 
ATOM      8  C   UNL     1      73.579  45.548   8.077  1.00  0.00     0.123 A 
ATOM      9  C   UNL     1      72.331  45.958   8.538  1.00  0.00     0.094 A 
ATOM     10  C   UNL     1      71.560  46.856   7.797  1.00  0.00     0.146 A 
ATOM     11  O   UNL     1      70.371  47.211   8.268  1.00  0.00    -0.452 OA
ENDROOT
BRANCH   1  12
ATOM     12  C   UNL     1      68.261  48.376   8.280  1.00  0.00     0.021 A 
ATOM     13  C   UNL     1      67.093  47.700   7.891  1.00  0.00     0.016 A 
ATOM     14  C   UNL     1      65.870  47.987   8.505  1.00  0.00     0.047 A 
ATOM     15  C   UNL     1      65.801  48.942   9.524  1.00  0.00     0.115 A 
ATOM     16  C   UNL     1      68.188  49.322   9.320  1.00  0.00     0.016 A 
ATOM     17  C   UNL     1      66.964  49.607   9.932  1.00  0.00     0.047 A 
BRANCH  15  18
ATOM     18  O   UNL     1      64.575  49.218  10.125  1.00  0.00    -0.508 OA
ATOM     19  H   UNL     1      64.074  48.514  10.653  1.00  0.00     0.293 HD
ENDBRANCH  15  18
ENDBRANCH   1  12
BRANCH   2  20
ATOM     20  O   UNL     1      69.012  49.342   5.653  1.00  0.00    -0.502 OA
ATOM     21  H   UNL     1      68.777  50.285   5.938  1.00  0.00     0.293 HD
ENDBRANCH   2  20
BRANCH   6  22
ATOM     22  O   UNL     1      73.972  47.517   4.996  1.00  0.00    -0.507 OA
ATOM     23  H   UNL     1      73.829  48.449   4.639  1.00  0.00     0.293 HD
ENDBRANCH   6  22
BRANCH   8  24
ATOM     24  O   UNL     1      74.322  44.636   8.823  1.00  0.00    -0.508 OA
ATOM     25  H   UNL     1      74.425  44.731   9.826  1.00  0.00     0.293 HD
ENDBRANCH   8  24
TORSDOF 5
ENDMDL
