MODEL 1
REMARK VINA RESULT:    -7.807      0.000      0.000
REMARK INTER + INTRA:          -9.650
REMARK INTER:                  -9.405
REMARK INTRA:                  -0.245
REMARK UNBOUND:                -0.245
REMARK SMILES O=c1c(O)c(-c2ccc(O)c(O)c2)oc2cc(O)cc(O)c12
REMARK SMILES IDX 5 1 3 2 2 3 1 4 22 5 20 6 19 7 17 8 16 9 15 10 14 11 6 12
REMARK SMILES IDX 7 13 8 14 9 15 13 16 11 17 10 18 12 20 4 22 21 24 18 26
REMARK H PARENT 10 19 12 21 4 23 21 25 18 27
REMARK Flexibility Score: inf
ROOT
ATOM      1  C   UNL     1      38.432  -0.424  -3.234  1.00  0.00     0.180 A 
ATOM      2  C   UNL     1      39.423  -1.281  -2.723  1.00  0.00     0.208 A 
ATOM      3  C   UNL     1      40.396  -1.794  -3.594  1.00  0.00     0.238 A 
ATOM      4  O   UNL     1      41.248  -2.602  -3.141  1.00  0.00    -0.285 OA
ATOM      5  C   UNL     1      40.377  -1.431  -4.962  1.00  0.00     0.111 A 
ATOM      6  C   UNL     1      41.338  -1.860  -5.928  1.00  0.00     0.134 A 
ATOM      7  C   UNL     1      41.147  -1.546  -7.279  1.00  0.00     0.093 A 
ATOM      8  C   UNL     1      40.064  -0.765  -7.691  1.00  0.00     0.123 A 
ATOM      9  C   UNL     1      39.154  -0.292  -6.749  1.00  0.00     0.094 A 
ATOM     10  C   UNL     1      39.297  -0.619  -5.398  1.00  0.00     0.146 A 
ATOM     11  O   UNL     1      38.402  -0.157  -4.534  1.00  0.00    -0.452 OA
ENDROOT
BRANCH   1  12
ATOM     12  C   UNL     1      37.388   0.176  -2.372  1.00  0.00     0.025 A 
ATOM     13  C   UNL     1      36.049  -0.216  -2.535  1.00  0.00     0.016 A 
ATOM     14  C   UNL     1      35.045   0.352  -1.747  1.00  0.00     0.051 A 
ATOM     15  C   UNL     1      35.362   1.330  -0.796  1.00  0.00     0.157 A 
ATOM     16  C   UNL     1      37.699   1.173  -1.431  1.00  0.00     0.062 A 
ATOM     17  C   UNL     1      36.690   1.745  -0.641  1.00  0.00     0.158 A 
BRANCH  15  18
ATOM     18  O   UNL     1      34.363   1.898  -0.008  1.00  0.00    -0.504 OA
ATOM     19  H   UNL     1      33.697   1.325   0.497  1.00  0.00     0.293 HD
ENDBRANCH  15  18
BRANCH  17  20
ATOM     20  O   UNL     1      37.001   2.729   0.296  1.00  0.00    -0.504 OA
ATOM     21  H   UNL     1      36.299   3.370   0.646  1.00  0.00     0.293 HD
ENDBRANCH  17  20
ENDBRANCH   1  12
BRANCH   2  22
ATOM     22  O   UNL     1      39.410  -1.642  -1.372  1.00  0.00    -0.502 OA
ATOM     23  H   UNL     1      40.245  -1.632  -0.799  1.00  0.00     0.293 HD
ENDBRANCH   2  22
BRANCH   6  24
ATOM     24  O   UNL     1      42.502  -2.565  -5.610  1.00  0.00    -0.507 OA
ATOM     25  H   UNL     1      42.662  -3.049  -4.739  1.00  0.00     0.293 HD
ENDBRANCH   6  24
BRANCH   8  26
ATOM     26  O   UNL     1      39.890  -0.444  -9.035  1.00  0.00    -0.508 OA
ATOM     27  H   UNL     1      40.666  -0.444  -9.685  1.00  0.00     0.293 HD
ENDBRANCH   8  26
TORSDOF 6
ENDMDL
MODEL 2
REMARK VINA RESULT:    -7.377      1.634      6.790
REMARK INTER + INTRA:          -9.132
REMARK INTER:                  -8.944
REMARK INTRA:                  -0.187
REMARK UNBOUND:                -0.245
REMARK SMILES O=c1c(O)c(-c2ccc(O)c(O)c2)oc2cc(O)cc(O)c12
REMARK SMILES IDX 5 1 3 2 2 3 1 4 22 5 20 6 19 7 17 8 16 9 15 10 14 11 6 12
REMARK SMILES IDX 7 13 8 14 9 15 13 16 11 17 10 18 12 20 4 22 21 24 18 26
REMARK H PARENT 10 19 12 21 4 23 21 25 18 27
REMARK Flexibility Score: inf
ROOT
ATOM      1  C   UNL     1      39.481  -1.522  -3.297  1.00  0.00     0.180 A 
ATOM      2  C   UNL     1      39.604  -2.521  -2.314  1.00  0.00     0.208 A 
ATOM      3  C   UNL     1      39.011  -2.316  -1.058  1.00  0.00     0.238 A 
ATOM      4  O   UNL     1      39.170  -3.189  -0.166  1.00  0.00    -0.285 OA
ATOM      5  C   UNL     1      38.290  -1.125  -0.805  1.00  0.00     0.111 A 
ATOM      6  C   UNL     1      37.615  -0.830   0.418  1.00  0.00     0.134 A 
ATOM      7  C   UNL     1      37.044   0.435   0.604  1.00  0.00     0.093 A 
ATOM      8  C   UNL     1      37.067   1.393  -0.413  1.00  0.00     0.123 A 
ATOM      9  C   UNL     1      37.671   1.093  -1.632  1.00  0.00     0.094 A 
ATOM     10  C   UNL     1      38.282  -0.147  -1.834  1.00  0.00     0.146 A 
ATOM     11  O   UNL     1      38.855  -0.388  -3.007  1.00  0.00    -0.452 OA
ENDROOT
BRANCH   1  12
ATOM     12  C   UNL     1      40.057  -1.677  -4.652  1.00  0.00     0.025 A 
ATOM     13  C   UNL     1      39.199  -1.853  -5.751  1.00  0.00     0.016 A 
ATOM     14  C   UNL     1      39.722  -2.022  -7.036  1.00  0.00     0.051 A 
ATOM     15  C   UNL     1      41.107  -2.032  -7.239  1.00  0.00     0.157 A 
ATOM     16  C   UNL     1      41.447  -1.709  -4.858  1.00  0.00     0.062 A 
ATOM     17  C   UNL     1      41.972  -1.880  -6.148  1.00  0.00     0.158 A 
BRANCH  15  18
ATOM     18  O   UNL     1      41.632  -2.199  -8.519  1.00  0.00    -0.504 OA
ATOM     19  H   UNL     1      42.255  -2.967  -8.740  1.00  0.00     0.293 HD
ENDBRANCH  15  18
BRANCH  17  20
ATOM     20  O   UNL     1      43.351  -1.905  -6.351  1.00  0.00    -0.504 OA
ATOM     21  H   UNL     1      43.845  -2.770  -6.537  1.00  0.00     0.293 HD
ENDBRANCH  17  20
ENDBRANCH   1  12
BRANCH   2  22
ATOM     22  O   UNL     1      40.338  -3.680  -2.578  1.00  0.00    -0.502 OA
ATOM     23  H   UNL     1      40.908  -4.135  -1.875  1.00  0.00     0.293 HD
ENDBRANCH   2  22
BRANCH   6  24
ATOM     24  O   UNL     1      37.455  -1.747   1.461  1.00  0.00    -0.507 OA
ATOM     25  H   UNL     1      38.210  -2.142   2.000  1.00  0.00     0.293 HD
ENDBRANCH   6  24
BRANCH   8  26
ATOM     26  O   UNL     1      36.483   2.643  -0.225  1.00  0.00    -0.508 OA
ATOM     27  H   UNL     1      36.132   2.934   0.680  1.00  0.00     0.293 HD
ENDBRANCH   8  26
TORSDOF 6
ENDMDL
MODEL 3
REMARK VINA RESULT:    -7.322      3.109      4.767
REMARK INTER + INTRA:          -9.066
REMARK INTER:                  -8.783
REMARK INTRA:                  -0.282
REMARK UNBOUND:                -0.245
REMARK SMILES O=c1c(O)c(-c2ccc(O)c(O)c2)oc2cc(O)cc(O)c12
REMARK SMILES IDX 5 1 3 2 2 3 1 4 22 5 20 6 19 7 17 8 16 9 15 10 14 11 6 12
REMARK SMILES IDX 7 13 8 14 9 15 13 16 11 17 10 18 12 20 4 22 21 24 18 26
REMARK H PARENT 10 19 12 21 4 23 21 25 18 27
REMARK Flexibility Score: inf
ROOT
ATOM      1  C   UNL     1      39.862  -1.555  -1.629  1.00  0.00     0.180 A 
ATOM      2  C   UNL     1      40.319  -2.263  -2.755  1.00  0.00     0.208 A 
ATOM      3  C   UNL     1      40.305  -1.631  -4.008  1.00  0.00     0.238 A 
ATOM      4  O   UNL     1      40.665  -2.288  -5.020  1.00  0.00    -0.285 OA
ATOM      5  C   UNL     1      39.851  -0.295  -4.118  1.00  0.00     0.111 A 
ATOM      6  C   UNL     1      39.831   0.457  -5.332  1.00  0.00     0.134 A 
ATOM      7  C   UNL     1      39.238   1.725  -5.349  1.00  0.00     0.093 A 
ATOM      8  C   UNL     1      38.723   2.295  -4.182  1.00  0.00     0.123 A 
ATOM      9  C   UNL     1      38.791   1.594  -2.981  1.00  0.00     0.094 A 
ATOM     10  C   UNL     1      39.343   0.311  -2.939  1.00  0.00     0.146 A 
ATOM     11  O   UNL     1      39.379  -0.327  -1.776  1.00  0.00    -0.452 OA
ENDROOT
BRANCH   1  12
ATOM     12  C   UNL     1      39.869  -2.146  -0.271  1.00  0.00     0.025 A 
ATOM     13  C   UNL     1      41.080  -2.240   0.434  1.00  0.00     0.016 A 
ATOM     14  C   UNL     1      41.114  -2.813   1.709  1.00  0.00     0.051 A 
ATOM     15  C   UNL     1      39.941  -3.313   2.289  1.00  0.00     0.157 A 
ATOM     16  C   UNL     1      38.699  -2.668   0.307  1.00  0.00     0.062 A 
ATOM     17  C   UNL     1      38.732  -3.245   1.585  1.00  0.00     0.158 A 
BRANCH  15  18
ATOM     18  O   UNL     1      39.971  -3.884   3.560  1.00  0.00    -0.504 OA
ATOM     19  H   UNL     1      39.975  -4.889   3.689  1.00  0.00     0.293 HD
ENDBRANCH  15  18
BRANCH  17  20
ATOM     20  O   UNL     1      37.570  -3.757   2.159  1.00  0.00    -0.504 OA
ATOM     21  H   UNL     1      37.159  -3.340   2.986  1.00  0.00     0.293 HD
ENDBRANCH  17  20
ENDBRANCH   1  12
BRANCH   2  22
ATOM     22  O   UNL     1      40.743  -3.588  -2.626  1.00  0.00    -0.502 OA
ATOM     23  H   UNL     1      40.698  -4.251  -3.392  1.00  0.00     0.293 HD
ENDBRANCH   2  22
BRANCH   6  24
ATOM     24  O   UNL     1      40.400   0.018  -6.531  1.00  0.00    -0.507 OA
ATOM     25  H   UNL     1      40.985   0.581  -7.130  1.00  0.00     0.293 HD
ENDBRANCH   6  24
BRANCH   8  26
ATOM     26  O   UNL     1      38.149   3.565  -4.205  1.00  0.00    -0.508 OA
ATOM     27  H   UNL     1      38.550   4.337  -3.687  1.00  0.00     0.293 HD
ENDBRANCH   8  26
TORSDOF 6
ENDMDL
MODEL 4
REMARK VINA RESULT:    -7.229      2.921      4.420
REMARK INTER + INTRA:          -8.954
REMARK INTER:                  -8.639
REMARK INTRA:                  -0.314
REMARK UNBOUND:                -0.245
REMARK SMILES O=c1c(O)c(-c2ccc(O)c(O)c2)oc2cc(O)cc(O)c12
REMARK SMILES IDX 5 1 3 2 2 3 1 4 22 5 20 6 19 7 17 8 16 9 15 10 14 11 6 12
REMARK SMILES IDX 7 13 8 14 9 15 13 16 11 17 10 18 12 20 4 22 21 24 18 26
REMARK H PARENT 10 19 12 21 4 23 21 25 18 27
REMARK Flexibility Score: inf
ROOT
ATOM      1  C   UNL     1      39.832  -1.595  -1.637  1.00  0.00     0.180 A 
ATOM      2  C   UNL     1      39.164  -0.409  -1.989  1.00  0.00     0.208 A 
ATOM      3  C   UNL     1      39.395   0.153  -3.254  1.00  0.00     0.238 A 
ATOM      4  O   UNL     1      38.836   1.243  -3.543  1.00  0.00    -0.285 OA
ATOM      5  C   UNL     1      40.278  -0.485  -4.158  1.00  0.00     0.111 A 
ATOM      6  C   UNL     1      40.557  -0.026  -5.480  1.00  0.00     0.134 A 
ATOM      7  C   UNL     1      41.547  -0.663  -6.239  1.00  0.00     0.093 A 
ATOM      8  C   UNL     1      42.223  -1.782  -5.746  1.00  0.00     0.123 A 
ATOM      9  C   UNL     1      41.916  -2.274  -4.480  1.00  0.00     0.094 A 
ATOM     10  C   UNL     1      40.959  -1.638  -3.685  1.00  0.00     0.146 A 
ATOM     11  O   UNL     1      40.705  -2.133  -2.480  1.00  0.00    -0.452 OA
ENDROOT
BRANCH   1  12
ATOM     12  C   UNL     1      39.620  -2.260  -0.331  1.00  0.00     0.025 A 
ATOM     13  C   UNL     1      38.522  -3.118  -0.163  1.00  0.00     0.016 A 
ATOM     14  C   UNL     1      38.290  -3.740   1.067  1.00  0.00     0.051 A 
ATOM     15  C   UNL     1      39.145  -3.501   2.151  1.00  0.00     0.157 A 
ATOM     16  C   UNL     1      40.463  -2.006   0.766  1.00  0.00     0.062 A 
ATOM     17  C   UNL     1      40.230  -2.628   2.002  1.00  0.00     0.158 A 
BRANCH  15  18
ATOM     18  O   UNL     1      38.918  -4.120   3.378  1.00  0.00    -0.504 OA
ATOM     19  H   UNL     1      39.685  -4.426   3.966  1.00  0.00     0.293 HD
ENDBRANCH  15  18
BRANCH  17  20
ATOM     20  O   UNL     1      41.070  -2.380   3.086  1.00  0.00    -0.504 OA
ATOM     21  H   UNL     1      40.928  -2.832   3.981  1.00  0.00     0.293 HD
ENDBRANCH  17  20
ENDBRANCH   1  12
BRANCH   2  22
ATOM     22  O   UNL     1      38.312   0.216  -1.074  1.00  0.00    -0.502 OA
ATOM     23  H   UNL     1      38.585   0.400  -0.115  1.00  0.00     0.293 HD
ENDBRANCH   2  22
BRANCH   6  24
ATOM     24  O   UNL     1      39.875   1.025  -6.101  1.00  0.00    -0.507 OA
ATOM     25  H   UNL     1      38.892   1.017  -6.330  1.00  0.00     0.293 HD
ENDBRANCH   6  24
BRANCH   8  26
ATOM     26  O   UNL     1      43.195  -2.419  -6.514  1.00  0.00    -0.508 OA
ATOM     27  H   UNL     1      44.181  -2.337  -6.295  1.00  0.00     0.293 HD
ENDBRANCH   8  26
TORSDOF 6
ENDMDL
MODEL 5
REMARK VINA RESULT:    -7.165      1.772      7.153
REMARK INTER + INTRA:          -8.877
REMARK INTER:                  -8.867
REMARK INTRA:                  -0.010
REMARK UNBOUND:                -0.245
REMARK SMILES O=c1c(O)c(-c2ccc(O)c(O)c2)oc2cc(O)cc(O)c12
REMARK SMILES IDX 5 1 3 2 2 3 1 4 22 5 20 6 19 7 17 8 16 9 15 10 14 11 6 12
REMARK SMILES IDX 7 13 8 14 9 15 13 16 11 17 10 18 12 20 4 22 21 24 18 26
REMARK H PARENT 10 19 12 21 4 23 21 25 18 27
REMARK Flexibility Score: inf
ROOT
ATOM      1  C   UNL     1      39.251  -0.322  -4.074  1.00  0.00     0.180 A 
ATOM      2  C   UNL     1      38.611   0.930  -4.078  1.00  0.00     0.208 A 
ATOM      3  C   UNL     1      37.965   1.369  -2.911  1.00  0.00     0.238 A 
ATOM      4  O   UNL     1      37.349   2.466  -2.937  1.00  0.00    -0.285 OA
ATOM      5  C   UNL     1      37.981   0.558  -1.751  1.00  0.00     0.111 A 
ATOM      6  C   UNL     1      37.394   0.920  -0.501  1.00  0.00     0.134 A 
ATOM      7  C   UNL     1      37.355  -0.015   0.541  1.00  0.00     0.093 A 
ATOM      8  C   UNL     1      37.940  -1.276   0.399  1.00  0.00     0.123 A 
ATOM      9  C   UNL     1      38.569  -1.617  -0.796  1.00  0.00     0.094 A 
ATOM     10  C   UNL     1      38.591  -0.719  -1.867  1.00  0.00     0.146 A 
ATOM     11  O   UNL     1      39.190  -1.088  -2.992  1.00  0.00    -0.452 OA
ENDROOT
BRANCH   1  12
ATOM     12  C   UNL     1      39.973  -0.841  -5.258  1.00  0.00     0.025 A 
ATOM     13  C   UNL     1      39.306  -0.929  -6.491  1.00  0.00     0.016 A 
ATOM     14  C   UNL     1      39.962  -1.435  -7.616  1.00  0.00     0.051 A 
ATOM     15  C   UNL     1      41.288  -1.874  -7.522  1.00  0.00     0.157 A 
ATOM     16  C   UNL     1      41.298  -1.302  -5.164  1.00  0.00     0.062 A 
ATOM     17  C   UNL     1      41.956  -1.812  -6.293  1.00  0.00     0.158 A 
BRANCH  15  18
ATOM     18  O   UNL     1      41.946  -2.378  -8.643  1.00  0.00    -0.504 OA
ATOM     19  H   UNL     1      42.792  -1.946  -8.999  1.00  0.00     0.293 HD
ENDBRANCH  15  18
BRANCH  17  20
ATOM     20  O   UNL     1      43.272  -2.263  -6.199  1.00  0.00    -0.504 OA
ATOM     21  H   UNL     1      43.560  -3.148  -6.599  1.00  0.00     0.293 HD
ENDBRANCH  17  20
ENDBRANCH   1  12
BRANCH   2  22
ATOM     22  O   UNL     1      38.590   1.705  -5.241  1.00  0.00    -0.502 OA
ATOM     23  H   UNL     1      37.999   2.522  -5.340  1.00  0.00     0.293 HD
ENDBRANCH   2  22
BRANCH   6  24
ATOM     24  O   UNL     1      36.864   2.184  -0.225  1.00  0.00    -0.507 OA
ATOM     25  H   UNL     1      36.229   2.389   0.531  1.00  0.00     0.293 HD
ENDBRANCH   6  24
BRANCH   8  26
ATOM     26  O   UNL     1      37.911  -2.194   1.446  1.00  0.00    -0.508 OA
ATOM     27  H   UNL     1      37.287  -2.992   1.435  1.00  0.00     0.293 HD
ENDBRANCH   8  26
TORSDOF 6
ENDMDL
MODEL 6
REMARK VINA RESULT:    -7.101      3.479      6.808
REMARK INTER + INTRA:          -8.799
REMARK INTER:                  -8.511
REMARK INTRA:                  -0.289
REMARK UNBOUND:                -0.245
REMARK SMILES O=c1c(O)c(-c2ccc(O)c(O)c2)oc2cc(O)cc(O)c12
REMARK SMILES IDX 5 1 3 2 2 3 1 4 22 5 20 6 19 7 17 8 16 9 15 10 14 11 6 12
REMARK SMILES IDX 7 13 8 14 9 15 13 16 11 17 10 18 12 20 4 22 21 24 18 26
REMARK H PARENT 10 19 12 21 4 23 21 25 18 27
REMARK Flexibility Score: inf
ROOT
ATOM      1  C   UNL     1      39.808  -2.112  -3.685  1.00  0.00     0.180 A 
ATOM      2  C   UNL     1      38.718  -2.909  -3.291  1.00  0.00     0.208 A 
ATOM      3  C   UNL     1      38.653  -3.367  -1.966  1.00  0.00     0.238 A 
ATOM      4  O   UNL     1      37.704  -4.124  -1.634  1.00  0.00    -0.285 OA
ATOM      5  C   UNL     1      39.669  -3.011  -1.047  1.00  0.00     0.111 A 
ATOM      6  C   UNL     1      39.685  -3.387   0.330  1.00  0.00     0.134 A 
ATOM      7  C   UNL     1      40.806  -3.089   1.115  1.00  0.00     0.093 A 
ATOM      8  C   UNL     1      41.884  -2.373   0.589  1.00  0.00     0.123 A 
ATOM      9  C   UNL     1      41.852  -1.950  -0.738  1.00  0.00     0.094 A 
ATOM     10  C   UNL     1      40.764  -2.264  -1.556  1.00  0.00     0.146 A 
ATOM     11  O   UNL     1      40.778  -1.851  -2.817  1.00  0.00    -0.452 OA
ENDROOT
BRANCH   1  12
ATOM     12  C   UNL     1      39.932  -1.571  -5.057  1.00  0.00     0.025 A 
ATOM     13  C   UNL     1      39.173  -0.448  -5.428  1.00  0.00     0.016 A 
ATOM     14  C   UNL     1      39.259   0.067  -6.725  1.00  0.00     0.051 A 
ATOM     15  C   UNL     1      40.091  -0.542  -7.672  1.00  0.00     0.157 A 
ATOM     16  C   UNL     1      40.750  -2.191  -6.018  1.00  0.00     0.062 A 
ATOM     17  C   UNL     1      40.835  -1.675  -7.320  1.00  0.00     0.158 A 
BRANCH  15  18
ATOM     18  O   UNL     1      40.181  -0.030  -8.966  1.00  0.00    -0.504 OA
ATOM     19  H   UNL     1      39.596   0.739  -9.272  1.00  0.00     0.293 HD
ENDBRANCH  15  18
BRANCH  17  20
ATOM     20  O   UNL     1      41.652  -2.287  -8.270  1.00  0.00    -0.504 OA
ATOM     21  H   UNL     1      42.511  -1.855  -8.588  1.00  0.00     0.293 HD
ENDBRANCH  17  20
ENDBRANCH   1  12
BRANCH   2  22
ATOM     22  O   UNL     1      37.737  -3.265  -4.220  1.00  0.00    -0.502 OA
ATOM     23  H   UNL     1      37.654  -4.205  -4.590  1.00  0.00     0.293 HD
ENDBRANCH   2  22
BRANCH   6  24
ATOM     24  O   UNL     1      38.621  -4.023   0.977  1.00  0.00    -0.507 OA
ATOM     25  H   UNL     1      38.317  -4.966   0.791  1.00  0.00     0.293 HD
ENDBRANCH   6  24
BRANCH   8  26
ATOM     26  O   UNL     1      42.989  -2.067   1.380  1.00  0.00    -0.508 OA
ATOM     27  H   UNL     1      42.897  -1.895   2.374  1.00  0.00     0.293 HD
ENDBRANCH   8  26
TORSDOF 6
ENDMDL
MODEL 7
REMARK VINA RESULT:    -7.065      2.767      6.784
REMARK INTER + INTRA:          -8.756
REMARK INTER:                  -8.474
REMARK INTRA:                  -0.282
REMARK UNBOUND:                -0.245
REMARK SMILES O=c1c(O)c(-c2ccc(O)c(O)c2)oc2cc(O)cc(O)c12
REMARK SMILES IDX 5 1 3 2 2 3 1 4 22 5 20 6 19 7 17 8 16 9 15 10 14 11 6 12
REMARK SMILES IDX 7 13 8 14 9 15 13 16 11 17 10 18 12 20 4 22 21 24 18 26
REMARK H PARENT 10 19 12 21 4 23 21 25 18 27
REMARK Flexibility Score: inf
ROOT
ATOM      1  C   UNL     1      40.428  -1.404  -3.418  1.00  0.00     0.180 A 
ATOM      2  C   UNL     1      39.300  -1.375  -2.580  1.00  0.00     0.208 A 
ATOM      3  C   UNL     1      39.466  -1.611  -1.206  1.00  0.00     0.238 A 
ATOM      4  O   UNL     1      38.445  -1.638  -0.470  1.00  0.00    -0.285 OA
ATOM      5  C   UNL     1      40.759  -1.855  -0.685  1.00  0.00     0.111 A 
ATOM      6  C   UNL     1      41.049  -2.067   0.696  1.00  0.00     0.134 A 
ATOM      7  C   UNL     1      42.346  -2.430   1.082  1.00  0.00     0.093 A 
ATOM      8  C   UNL     1      43.376  -2.526   0.144  1.00  0.00     0.123 A 
ATOM      9  C   UNL     1      43.116  -2.263  -1.199  1.00  0.00     0.094 A 
ATOM     10  C   UNL     1      41.825  -1.934  -1.620  1.00  0.00     0.146 A 
ATOM     11  O   UNL     1      41.617  -1.702  -2.910  1.00  0.00    -0.452 OA
ENDROOT
BRANCH   1  12
ATOM     12  C   UNL     1      40.335  -1.140  -4.872  1.00  0.00     0.025 A 
ATOM     13  C   UNL     1      40.187   0.181  -5.327  1.00  0.00     0.016 A 
ATOM     14  C   UNL     1      40.076   0.451  -6.694  1.00  0.00     0.051 A 
ATOM     15  C   UNL     1      40.097  -0.596  -7.624  1.00  0.00     0.157 A 
ATOM     16  C   UNL     1      40.335  -2.189  -5.809  1.00  0.00     0.062 A 
ATOM     17  C   UNL     1      40.222  -1.919  -7.181  1.00  0.00     0.158 A 
BRANCH  15  18
ATOM     18  O   UNL     1      39.989  -0.331  -8.988  1.00  0.00    -0.504 OA
ATOM     19  H   UNL     1      40.559  -0.818  -9.669  1.00  0.00     0.293 HD
ENDBRANCH  15  18
BRANCH  17  20
ATOM     20  O   UNL     1      40.228  -2.960  -8.108  1.00  0.00    -0.504 OA
ATOM     21  H   UNL     1      39.517  -3.682  -8.100  1.00  0.00     0.293 HD
ENDBRANCH  17  20
ENDBRANCH   1  12
BRANCH   2  22
ATOM     22  O   UNL     1      38.030  -1.153  -3.119  1.00  0.00    -0.502 OA
ATOM     23  H   UNL     1      37.202  -1.061  -2.542  1.00  0.00     0.293 HD
ENDBRANCH   2  22
BRANCH   6  24
ATOM     24  O   UNL     1      40.114  -1.907   1.724  1.00  0.00    -0.507 OA
ATOM     25  H   UNL     1      40.157  -2.372   2.618  1.00  0.00     0.293 HD
ENDBRANCH   6  24
BRANCH   8  26
ATOM     26  O   UNL     1      44.667  -2.873   0.538  1.00  0.00    -0.508 OA
ATOM     27  H   UNL     1      45.457  -2.264   0.361  1.00  0.00     0.293 HD
ENDBRANCH   8  26
TORSDOF 6
ENDMDL
MODEL 8
REMARK VINA RESULT:    -7.055      3.210      6.816
REMARK INTER + INTRA:          -8.744
REMARK INTER:                  -8.418
REMARK INTRA:                  -0.325
REMARK UNBOUND:                -0.245
REMARK SMILES O=c1c(O)c(-c2ccc(O)c(O)c2)oc2cc(O)cc(O)c12
REMARK SMILES IDX 5 1 3 2 2 3 1 4 22 5 20 6 19 7 17 8 16 9 15 10 14 11 6 12
REMARK SMILES IDX 7 13 8 14 9 15 13 16 11 17 10 18 12 20 4 22 21 24 18 26
REMARK H PARENT 10 19 12 21 4 23 21 25 18 27
REMARK Flexibility Score: inf
ROOT
ATOM      1  C   UNL     1      40.965  -1.542  -3.062  1.00  0.00     0.180 A 
ATOM      2  C   UNL     1      42.256  -1.604  -2.508  1.00  0.00     0.208 A 
ATOM      3  C   UNL     1      42.403  -1.990  -1.166  1.00  0.00     0.238 A 
ATOM      4  O   UNL     1      43.556  -1.991  -0.661  1.00  0.00    -0.285 OA
ATOM      5  C   UNL     1      41.261  -2.325  -0.401  1.00  0.00     0.111 A 
ATOM      6  C   UNL     1      41.296  -2.768   0.956  1.00  0.00     0.134 A 
ATOM      7  C   UNL     1      40.096  -2.946   1.655  1.00  0.00     0.093 A 
ATOM      8  C   UNL     1      38.862  -2.759   1.028  1.00  0.00     0.123 A 
ATOM      9  C   UNL     1      38.816  -2.385  -0.313  1.00  0.00     0.094 A 
ATOM     10  C   UNL     1      39.997  -2.164  -1.027  1.00  0.00     0.146 A 
ATOM     11  O   UNL     1      39.910  -1.797  -2.299  1.00  0.00    -0.452 OA
ENDROOT
BRANCH   1  12
ATOM     12  C   UNL     1      40.733  -1.167  -4.476  1.00  0.00     0.025 A 
ATOM     13  C   UNL     1      40.356   0.149  -4.789  1.00  0.00     0.016 A 
ATOM     14  C   UNL     1      40.112   0.520  -6.114  1.00  0.00     0.051 A 
ATOM     15  C   UNL     1      40.224  -0.424  -7.143  1.00  0.00     0.157 A 
ATOM     16  C   UNL     1      40.824  -2.116  -5.510  1.00  0.00     0.062 A 
ATOM     17  C   UNL     1      40.576  -1.746  -6.840  1.00  0.00     0.158 A 
BRANCH  15  18
ATOM     18  O   UNL     1      39.982  -0.059  -8.466  1.00  0.00    -0.504 OA
ATOM     19  H   UNL     1      40.665   0.461  -9.005  1.00  0.00     0.293 HD
ENDBRANCH  15  18
BRANCH  17  20
ATOM     20  O   UNL     1      40.674  -2.686  -7.864  1.00  0.00    -0.504 OA
ATOM     21  H   UNL     1      40.007  -2.712  -8.626  1.00  0.00     0.293 HD
ENDBRANCH  17  20
ENDBRANCH   1  12
BRANCH   2  22
ATOM     22  O   UNL     1      43.368  -1.248  -3.276  1.00  0.00    -0.502 OA
ATOM     23  H   UNL     1      44.116  -1.899  -3.484  1.00  0.00     0.293 HD
ENDBRANCH   2  22
BRANCH   6  24
ATOM     24  O   UNL     1      42.472  -3.072   1.647  1.00  0.00    -0.507 OA
ATOM     25  H   UNL     1      43.326  -3.393   1.216  1.00  0.00     0.293 HD
ENDBRANCH   6  24
BRANCH   8  26
ATOM     26  O   UNL     1      37.672  -2.953   1.727  1.00  0.00    -0.508 OA
ATOM     27  H   UNL     1      37.210  -3.854   1.747  1.00  0.00     0.293 HD
ENDBRANCH   8  26
TORSDOF 6
ENDMDL
MODEL 9
REMARK VINA RESULT:    -7.053      1.681      6.813
REMARK INTER + INTRA:          -8.742
REMARK INTER:                  -8.450
REMARK INTRA:                  -0.292
REMARK UNBOUND:                -0.245
REMARK SMILES O=c1c(O)c(-c2ccc(O)c(O)c2)oc2cc(O)cc(O)c12
REMARK SMILES IDX 5 1 3 2 2 3 1 4 22 5 20 6 19 7 17 8 16 9 15 10 14 11 6 12
REMARK SMILES IDX 7 13 8 14 9 15 13 16 11 17 10 18 12 20 4 22 21 24 18 26
REMARK H PARENT 10 19 12 21 4 23 21 25 18 27
REMARK Flexibility Score: inf
ROOT
ATOM      1  C   UNL     1      39.000  -0.885  -3.064  1.00  0.00     0.180 A 
ATOM      2  C   UNL     1      39.231  -1.577  -1.862  1.00  0.00     0.208 A 
ATOM      3  C   UNL     1      38.527  -1.194  -0.709  1.00  0.00     0.238 A 
ATOM      4  O   UNL     1      38.777  -1.781   0.375  1.00  0.00    -0.285 OA
ATOM      5  C   UNL     1      37.588  -0.136  -0.777  1.00  0.00     0.111 A 
ATOM      6  C   UNL     1      36.789   0.309   0.319  1.00  0.00     0.134 A 
ATOM      7  C   UNL     1      35.990   1.449   0.173  1.00  0.00     0.093 A 
ATOM      8  C   UNL     1      35.911   2.122  -1.049  1.00  0.00     0.123 A 
ATOM      9  C   UNL     1      36.641   1.660  -2.142  1.00  0.00     0.094 A 
ATOM     10  C   UNL     1      37.477   0.547  -2.016  1.00  0.00     0.146 A 
ATOM     11  O   UNL     1      38.164   0.146  -3.079  1.00  0.00    -0.452 OA
ENDROOT
BRANCH   1  12
ATOM     12  C   UNL     1      39.686  -1.247  -4.325  1.00  0.00     0.025 A 
ATOM     13  C   UNL     1      40.994  -0.788  -4.556  1.00  0.00     0.016 A 
ATOM     14  C   UNL     1      41.653  -1.100  -5.748  1.00  0.00     0.051 A 
ATOM     15  C   UNL     1      41.010  -1.861  -6.732  1.00  0.00     0.157 A 
ATOM     16  C   UNL     1      39.037  -1.993  -5.325  1.00  0.00     0.062 A 
ATOM     17  C   UNL     1      39.698  -2.304  -6.522  1.00  0.00     0.158 A 
BRANCH  15  18
ATOM     18  O   UNL     1      41.664  -2.175  -7.922  1.00  0.00    -0.504 OA
ATOM     19  H   UNL     1      41.696  -1.523  -8.697  1.00  0.00     0.293 HD
ENDBRANCH  15  18
BRANCH  17  20
ATOM     20  O   UNL     1      39.055  -3.050  -7.509  1.00  0.00    -0.504 OA
ATOM     21  H   UNL     1      38.094  -2.864  -7.774  1.00  0.00     0.293 HD
ENDBRANCH  17  20
ENDBRANCH   1  12
BRANCH   2  22
ATOM     22  O   UNL     1      40.178  -2.604  -1.813  1.00  0.00    -0.502 OA
ATOM     23  H   UNL     1      40.191  -3.297  -1.074  1.00  0.00     0.293 HD
ENDBRANCH   2  22
BRANCH   6  24
ATOM     24  O   UNL     1      36.724  -0.345   1.553  1.00  0.00    -0.507 OA
ATOM     25  H   UNL     1      37.496  -0.821   1.993  1.00  0.00     0.293 HD
ENDBRANCH   6  24
BRANCH   8  26
ATOM     26  O   UNL     1      35.101   3.246  -1.191  1.00  0.00    -0.508 OA
ATOM     27  H   UNL     1      34.114   3.220  -0.967  1.00  0.00     0.293 HD
ENDBRANCH   8  26
TORSDOF 6
ENDMDL
