MODEL 1
REMARK VINA RESULT:    -5.882      0.000      0.000
REMARK INTER + INTRA:          -7.189
REMARK INTER:                  -6.913
REMARK INTRA:                  -0.276
REMARK UNBOUND:                -0.276
REMARK SMILES O=c1cc(-c2ccc(O)c(O)c2)oc2cc(O)cc(O)c12
REMARK SMILES IDX 4 1 3 2 2 3 1 4 21 5 19 6 18 7 16 8 15 9 14 10 13 11 5 12
REMARK SMILES IDX 6 13 7 14 8 15 12 16 10 17 9 18 11 20 20 22 17 24
REMARK H PARENT 9 19 11 21 20 23 17 25
REMARK Flexibility Score: inf
ROOT
ATOM      1  C   UNL     1      20.832  39.531   4.838  1.00  0.00     0.138 A 
ATOM      2  C   UNL     1      20.567  40.409   5.899  1.00  0.00     0.100 A 
ATOM      3  C   UNL     1      20.566  39.929   7.209  1.00  0.00     0.197 A 
ATOM      4  O   UNL     1      20.271  40.731   8.132  1.00  0.00    -0.289 OA
ATOM      5  C   UNL     1      20.868  38.570   7.461  1.00  0.00     0.107 A 
ATOM      6  C   UNL     1      20.932  37.977   8.759  1.00  0.00     0.134 A 
ATOM      7  C   UNL     1      21.143  36.598   8.878  1.00  0.00     0.093 A 
ATOM      8  C   UNL     1      21.353  35.801   7.749  1.00  0.00     0.123 A 
ATOM      9  C   UNL     1      21.344  36.378   6.483  1.00  0.00     0.094 A 
ATOM     10  C   UNL     1      21.101  37.745   6.328  1.00  0.00     0.146 A 
ATOM     11  O   UNL     1      21.083  38.252   5.100  1.00  0.00    -0.456 OA
ENDROOT
BRANCH   1  12
ATOM     12  C   UNL     1      20.849  39.987   3.426  1.00  0.00     0.021 A 
ATOM     13  C   UNL     1      21.796  40.943   3.020  1.00  0.00     0.016 A 
ATOM     14  C   UNL     1      21.838  41.384   1.695  1.00  0.00     0.051 A 
ATOM     15  C   UNL     1      20.942  40.869   0.751  1.00  0.00     0.157 A 
ATOM     16  C   UNL     1      19.959  39.463   2.466  1.00  0.00     0.062 A 
ATOM     17  C   UNL     1      20.003  39.905   1.136  1.00  0.00     0.158 A 
BRANCH  15  18
ATOM     18  O   UNL     1      20.981  41.307  -0.572  1.00  0.00    -0.504 OA
ATOM     19  H   UNL     1      21.406  40.748  -1.303  1.00  0.00     0.293 HD
ENDBRANCH  15  18
BRANCH  17  20
ATOM     20  O   UNL     1      19.121  39.387   0.191  1.00  0.00    -0.504 OA
ATOM     21  H   UNL     1      18.267  39.871  -0.061  1.00  0.00     0.293 HD
ENDBRANCH  17  20
ENDBRANCH   1  12
BRANCH   6  22
ATOM     22  O   UNL     1      20.815  38.693   9.954  1.00  0.00    -0.507 OA
ATOM     23  H   UNL     1      19.950  39.032  10.345  1.00  0.00     0.293 HD
ENDBRANCH   6  22
BRANCH   8  24
ATOM     24  O   UNL     1      21.578  34.432   7.879  1.00  0.00    -0.508 OA
ATOM     25  H   UNL     1      21.454  33.799   7.097  1.00  0.00     0.293 HD
ENDBRANCH   8  24
TORSDOF 5
ENDMDL
MODEL 2
REMARK VINA RESULT:    -5.676      1.708      6.848
REMARK INTER + INTRA:          -6.947
REMARK INTER:                  -6.669
REMARK INTRA:                  -0.278
REMARK UNBOUND:                -0.276
REMARK SMILES O=c1cc(-c2ccc(O)c(O)c2)oc2cc(O)cc(O)c12
REMARK SMILES IDX 4 1 3 2 2 3 1 4 21 5 19 6 18 7 16 8 15 9 14 10 13 11 5 12
REMARK SMILES IDX 6 13 7 14 8 15 12 16 10 17 9 18 11 20 20 22 17 24
REMARK H PARENT 9 19 11 21 20 23 17 25
REMARK Flexibility Score: inf
ROOT
ATOM      1  C   UNL     1      20.469  39.260   5.398  1.00  0.00     0.138 A 
ATOM      2  C   UNL     1      19.348  40.101   5.444  1.00  0.00     0.100 A 
ATOM      3  C   UNL     1      19.087  40.962   4.377  1.00  0.00     0.197 A 
ATOM      4  O   UNL     1      18.105  41.742   4.473  1.00  0.00    -0.289 OA
ATOM      5  C   UNL     1      19.934  40.956   3.244  1.00  0.00     0.107 A 
ATOM      6  C   UNL     1      19.747  41.765   2.082  1.00  0.00     0.134 A 
ATOM      7  C   UNL     1      20.707  41.744   1.064  1.00  0.00     0.093 A 
ATOM      8  C   UNL     1      21.818  40.898   1.137  1.00  0.00     0.123 A 
ATOM      9  C   UNL     1      21.983  40.068   2.242  1.00  0.00     0.094 A 
ATOM     10  C   UNL     1      21.061  40.091   3.291  1.00  0.00     0.146 A 
ATOM     11  O   UNL     1      21.266  39.295   4.335  1.00  0.00    -0.456 OA
ENDROOT
BRANCH   1  12
ATOM     12  C   UNL     1      20.793  38.322   6.502  1.00  0.00     0.021 A 
ATOM     13  C   UNL     1      20.995  38.824   7.799  1.00  0.00     0.016 A 
ATOM     14  C   UNL     1      21.293  37.963   8.857  1.00  0.00     0.051 A 
ATOM     15  C   UNL     1      21.384  36.583   8.639  1.00  0.00     0.157 A 
ATOM     16  C   UNL     1      20.872  36.930   6.293  1.00  0.00     0.062 A 
ATOM     17  C   UNL     1      21.171  36.065   7.356  1.00  0.00     0.158 A 
BRANCH  15  18
ATOM     18  O   UNL     1      21.683  35.719   9.692  1.00  0.00    -0.504 OA
ATOM     19  H   UNL     1      21.233  35.810  10.596  1.00  0.00     0.293 HD
ENDBRANCH  15  18
BRANCH  17  20
ATOM     20  O   UNL     1      21.251  34.690   7.146  1.00  0.00    -0.504 OA
ATOM     21  H   UNL     1      21.306  34.298   6.213  1.00  0.00     0.293 HD
ENDBRANCH  17  20
ENDBRANCH   1  12
BRANCH   6  22
ATOM     22  O   UNL     1      18.635  42.586   1.870  1.00  0.00    -0.507 OA
ATOM     23  H   UNL     1      18.049  42.968   2.596  1.00  0.00     0.293 HD
ENDBRANCH   6  22
BRANCH   8  24
ATOM     24  O   UNL     1      22.760  40.873   0.112  1.00  0.00    -0.508 OA
ATOM     25  H   UNL     1      23.669  41.308   0.217  1.00  0.00     0.293 HD
ENDBRANCH   8  24
TORSDOF 5
ENDMDL
MODEL 3
REMARK VINA RESULT:    -5.474      3.844      6.368
REMARK INTER + INTRA:          -6.710
REMARK INTER:                  -6.401
REMARK INTRA:                  -0.309
REMARK UNBOUND:                -0.276
REMARK SMILES O=c1cc(-c2ccc(O)c(O)c2)oc2cc(O)cc(O)c12
REMARK SMILES IDX 4 1 3 2 2 3 1 4 21 5 19 6 18 7 16 8 15 9 14 10 13 11 5 12
REMARK SMILES IDX 6 13 7 14 8 15 12 16 10 17 9 18 11 20 20 22 17 24
REMARK H PARENT 9 19 11 21 20 23 17 25
REMARK Flexibility Score: inf
ROOT
ATOM      1  C   UNL     1      17.899  40.725   5.894  1.00  0.00     0.138 A 
ATOM      2  C   UNL     1      18.180  41.299   4.647  1.00  0.00     0.100 A 
ATOM      3  C   UNL     1      19.195  40.765   3.853  1.00  0.00     0.197 A 
ATOM      4  O   UNL     1      19.459  41.337   2.764  1.00  0.00    -0.289 OA
ATOM      5  C   UNL     1      19.909  39.626   4.295  1.00  0.00     0.107 A 
ATOM      6  C   UNL     1      20.941  38.973   3.555  1.00  0.00     0.134 A 
ATOM      7  C   UNL     1      21.644  37.912   4.140  1.00  0.00     0.093 A 
ATOM      8  C   UNL     1      21.313  37.443   5.413  1.00  0.00     0.123 A 
ATOM      9  C   UNL     1      20.275  38.040   6.123  1.00  0.00     0.094 A 
ATOM     10  C   UNL     1      19.577  39.122   5.582  1.00  0.00     0.146 A 
ATOM     11  O   UNL     1      18.605  39.674   6.300  1.00  0.00    -0.456 OA
ENDROOT
BRANCH   1  12
ATOM     12  C   UNL     1      16.829  41.249   6.778  1.00  0.00     0.021 A 
ATOM     13  C   UNL     1      16.433  42.593   6.661  1.00  0.00     0.016 A 
ATOM     14  C   UNL     1      15.423  43.111   7.476  1.00  0.00     0.051 A 
ATOM     15  C   UNL     1      14.783  42.291   8.413  1.00  0.00     0.157 A 
ATOM     16  C   UNL     1      16.170  40.427   7.715  1.00  0.00     0.062 A 
ATOM     17  C   UNL     1      15.155  40.947   8.531  1.00  0.00     0.158 A 
BRANCH  15  18
ATOM     18  O   UNL     1      13.775  42.804   9.229  1.00  0.00    -0.504 OA
ATOM     19  H   UNL     1      13.286  43.660   8.992  1.00  0.00     0.293 HD
ENDBRANCH  15  18
BRANCH  17  20
ATOM     20  O   UNL     1      14.508  40.132   9.457  1.00  0.00    -0.504 OA
ATOM     21  H   UNL     1      13.621  40.397   9.870  1.00  0.00     0.293 HD
ENDBRANCH  17  20
ENDBRANCH   1  12
BRANCH   6  22
ATOM     22  O   UNL     1      21.299  39.309   2.246  1.00  0.00    -0.507 OA
ATOM     23  H   UNL     1      20.660  39.621   1.532  1.00  0.00     0.293 HD
ENDBRANCH   6  22
BRANCH   8  24
ATOM     24  O   UNL     1      22.009  36.377   5.980  1.00  0.00    -0.508 OA
ATOM     25  H   UNL     1      21.546  35.506   6.214  1.00  0.00     0.293 HD
ENDBRANCH   8  24
TORSDOF 5
ENDMDL
MODEL 4
REMARK VINA RESULT:    -5.309      1.722      3.148
REMARK INTER + INTRA:          -6.515
REMARK INTER:                  -6.232
REMARK INTRA:                  -0.283
REMARK UNBOUND:                -0.276
REMARK SMILES O=c1cc(-c2ccc(O)c(O)c2)oc2cc(O)cc(O)c12
REMARK SMILES IDX 4 1 3 2 2 3 1 4 21 5 19 6 18 7 16 8 15 9 14 10 13 11 5 12
REMARK SMILES IDX 6 13 7 14 8 15 12 16 10 17 9 18 11 20 20 22 17 24
REMARK H PARENT 9 19 11 21 20 23 17 25
REMARK Flexibility Score: inf
ROOT
ATOM      1  C   UNL     1      20.381  39.899   3.187  1.00  0.00     0.138 A 
ATOM      2  C   UNL     1      21.257  38.807   3.097  1.00  0.00     0.100 A 
ATOM      3  C   UNL     1      21.554  38.065   4.241  1.00  0.00     0.197 A 
ATOM      4  O   UNL     1      22.385  37.126   4.138  1.00  0.00    -0.289 OA
ATOM      5  C   UNL     1      20.943  38.395   5.474  1.00  0.00     0.107 A 
ATOM      6  C   UNL     1      21.143  37.688   6.698  1.00  0.00     0.134 A 
ATOM      7  C   UNL     1      20.560  38.169   7.876  1.00  0.00     0.093 A 
ATOM      8  C   UNL     1      19.736  39.298   7.865  1.00  0.00     0.123 A 
ATOM      9  C   UNL     1      19.494  39.965   6.667  1.00  0.00     0.094 A 
ATOM     10  C   UNL     1      20.089  39.531   5.480  1.00  0.00     0.146 A 
ATOM     11  O   UNL     1      19.845  40.207   4.363  1.00  0.00    -0.456 OA
ENDROOT
BRANCH   1  12
ATOM     12  C   UNL     1      20.028  40.721   2.003  1.00  0.00     0.021 A 
ATOM     13  C   UNL     1      19.861  42.108   2.150  1.00  0.00     0.016 A 
ATOM     14  C   UNL     1      19.535  42.906   1.051  1.00  0.00     0.051 A 
ATOM     15  C   UNL     1      19.380  42.332  -0.217  1.00  0.00     0.157 A 
ATOM     16  C   UNL     1      19.884  40.152   0.721  1.00  0.00     0.062 A 
ATOM     17  C   UNL     1      19.558  40.954  -0.383  1.00  0.00     0.158 A 
BRANCH  15  18
ATOM     18  O   UNL     1      19.054  43.125  -1.316  1.00  0.00    -0.504 OA
ATOM     19  H   UNL     1      18.883  44.120  -1.221  1.00  0.00     0.293 HD
ENDBRANCH  15  18
BRANCH  17  20
ATOM     20  O   UNL     1      19.415  40.388  -1.648  1.00  0.00    -0.504 OA
ATOM     21  H   UNL     1      19.655  39.420  -1.827  1.00  0.00     0.293 HD
ENDBRANCH  17  20
ENDBRANCH   1  12
BRANCH   6  22
ATOM     22  O   UNL     1      21.881  36.506   6.808  1.00  0.00    -0.507 OA
ATOM     23  H   UNL     1      21.663  35.741   7.427  1.00  0.00     0.293 HD
ENDBRANCH   6  22
BRANCH   8  24
ATOM     24  O   UNL     1      19.148  39.761   9.040  1.00  0.00    -0.508 OA
ATOM     25  H   UNL     1      19.163  40.743   9.288  1.00  0.00     0.293 HD
ENDBRANCH   8  24
TORSDOF 5
ENDMDL
MODEL 5
REMARK VINA RESULT:    -5.270      2.219      3.396
REMARK INTER + INTRA:          -6.470
REMARK INTER:                  -6.193
REMARK INTRA:                  -0.277
REMARK UNBOUND:                -0.276
REMARK SMILES O=c1cc(-c2ccc(O)c(O)c2)oc2cc(O)cc(O)c12
REMARK SMILES IDX 4 1 3 2 2 3 1 4 21 5 19 6 18 7 16 8 15 9 14 10 13 11 5 12
REMARK SMILES IDX 6 13 7 14 8 15 12 16 10 17 9 18 11 20 20 22 17 24
REMARK H PARENT 9 19 11 21 20 23 17 25
REMARK Flexibility Score: inf
ROOT
ATOM      1  C   UNL     1      20.785  40.806   1.924  1.00  0.00     0.138 A 
ATOM      2  C   UNL     1      19.767  41.473   2.621  1.00  0.00     0.100 A 
ATOM      3  C   UNL     1      19.356  40.998   3.867  1.00  0.00     0.197 A 
ATOM      4  O   UNL     1      18.404  41.586   4.440  1.00  0.00    -0.289 OA
ATOM      5  C   UNL     1      19.994  39.869   4.435  1.00  0.00     0.107 A 
ATOM      6  C   UNL     1      19.683  39.316   5.714  1.00  0.00     0.134 A 
ATOM      7  C   UNL     1      20.314  38.137   6.128  1.00  0.00     0.093 A 
ATOM      8  C   UNL     1      21.288  37.523   5.335  1.00  0.00     0.123 A 
ATOM      9  C   UNL     1      21.634  38.083   4.108  1.00  0.00     0.094 A 
ATOM     10  C   UNL     1      20.998  39.240   3.651  1.00  0.00     0.146 A 
ATOM     11  O   UNL     1      21.346  39.730   2.466  1.00  0.00    -0.456 OA
ENDROOT
BRANCH   1  12
ATOM     12  C   UNL     1      21.263  41.269   0.598  1.00  0.00     0.021 A 
ATOM     13  C   UNL     1      22.644  41.346   0.350  1.00  0.00     0.016 A 
ATOM     14  C   UNL     1      23.121  41.772  -0.892  1.00  0.00     0.051 A 
ATOM     15  C   UNL     1      22.226  42.118  -1.911  1.00  0.00     0.157 A 
ATOM     16  C   UNL     1      20.368  41.607  -0.437  1.00  0.00     0.062 A 
ATOM     17  C   UNL     1      20.847  42.033  -1.684  1.00  0.00     0.158 A 
BRANCH  15  18
ATOM     18  O   UNL     1      22.698  42.544  -3.152  1.00  0.00    -0.504 OA
ATOM     19  H   UNL     1      23.028  41.886  -3.848  1.00  0.00     0.293 HD
ENDBRANCH  15  18
BRANCH  17  20
ATOM     20  O   UNL     1      19.959  42.368  -2.704  1.00  0.00    -0.504 OA
ATOM     21  H   UNL     1      20.187  42.210  -3.679  1.00  0.00     0.293 HD
ENDBRANCH  17  20
ENDBRANCH   1  12
BRANCH   6  22
ATOM     22  O   UNL     1      18.786  39.891   6.619  1.00  0.00    -0.507 OA
ATOM     23  H   UNL     1      18.654  40.881   6.756  1.00  0.00     0.293 HD
ENDBRANCH   6  22
BRANCH   8  24
ATOM     24  O   UNL     1      21.921  36.358   5.761  1.00  0.00    -0.508 OA
ATOM     25  H   UNL     1      22.827  36.084   5.399  1.00  0.00     0.293 HD
ENDBRANCH   8  24
TORSDOF 5
ENDMDL
MODEL 6
REMARK VINA RESULT:    -5.035      1.221      2.791
REMARK INTER + INTRA:          -6.194
REMARK INTER:                  -5.924
REMARK INTRA:                  -0.270
REMARK UNBOUND:                -0.276
REMARK SMILES O=c1cc(-c2ccc(O)c(O)c2)oc2cc(O)cc(O)c12
REMARK SMILES IDX 4 1 3 2 2 3 1 4 21 5 19 6 18 7 16 8 15 9 14 10 13 11 5 12
REMARK SMILES IDX 6 13 7 14 8 15 12 16 10 17 9 18 11 20 20 22 17 24
REMARK H PARENT 9 19 11 21 20 23 17 25
REMARK Flexibility Score: inf
ROOT
ATOM      1  C   UNL     1      20.869  39.385   4.573  1.00  0.00     0.138 A 
ATOM      2  C   UNL     1      21.035  38.023   4.863  1.00  0.00     0.100 A 
ATOM      3  C   UNL     1      21.064  37.598   6.192  1.00  0.00     0.197 A 
ATOM      4  O   UNL     1      21.269  36.378   6.418  1.00  0.00    -0.289 OA
ATOM      5  C   UNL     1      20.889  38.537   7.235  1.00  0.00     0.107 A 
ATOM      6  C   UNL     1      20.866  38.215   8.626  1.00  0.00     0.134 A 
ATOM      7  C   UNL     1      20.785  39.244   9.572  1.00  0.00     0.093 A 
ATOM      8  C   UNL     1      20.668  40.579   9.177  1.00  0.00     0.123 A 
ATOM      9  C   UNL     1      20.639  40.900   7.822  1.00  0.00     0.094 A 
ATOM     10  C   UNL     1      20.752  39.899   6.854  1.00  0.00     0.146 A 
ATOM     11  O   UNL     1      20.738  40.251   5.573  1.00  0.00    -0.456 OA
ENDROOT
BRANCH   1  12
ATOM     12  C   UNL     1      20.827  39.892   3.179  1.00  0.00     0.021 A 
ATOM     13  C   UNL     1      21.746  40.875   2.774  1.00  0.00     0.016 A 
ATOM     14  C   UNL     1      21.733  41.365   1.466  1.00  0.00     0.051 A 
ATOM     15  C   UNL     1      20.809  40.872   0.537  1.00  0.00     0.157 A 
ATOM     16  C   UNL     1      19.909  39.391   2.234  1.00  0.00     0.062 A 
ATOM     17  C   UNL     1      19.897  39.882   0.921  1.00  0.00     0.158 A 
BRANCH  15  18
ATOM     18  O   UNL     1      20.792  41.358  -0.769  1.00  0.00    -0.504 OA
ATOM     19  H   UNL     1      20.652  42.343  -0.967  1.00  0.00     0.293 HD
ENDBRANCH  15  18
BRANCH  17  20
ATOM     20  O   UNL     1      18.986  39.386  -0.010  1.00  0.00    -0.504 OA
ATOM     21  H   UNL     1      18.977  39.711  -0.969  1.00  0.00     0.293 HD
ENDBRANCH  17  20
ENDBRANCH   1  12
BRANCH   6  22
ATOM     22  O   UNL     1      20.897  36.911   9.129  1.00  0.00    -0.507 OA
ATOM     23  H   UNL     1      20.855  36.664  10.105  1.00  0.00     0.293 HD
ENDBRANCH   6  22
BRANCH   8  24
ATOM     24  O   UNL     1      20.573  41.595  10.125  1.00  0.00    -0.508 OA
ATOM     25  H   UNL     1      21.110  41.570  10.984  1.00  0.00     0.293 HD
ENDBRANCH   8  24
TORSDOF 5
ENDMDL
MODEL 7
REMARK VINA RESULT:    -4.900      3.563      6.608
REMARK INTER + INTRA:          -6.035
REMARK INTER:                  -5.750
REMARK INTRA:                  -0.285
REMARK UNBOUND:                -0.276
REMARK SMILES O=c1cc(-c2ccc(O)c(O)c2)oc2cc(O)cc(O)c12
REMARK SMILES IDX 4 1 3 2 2 3 1 4 21 5 19 6 18 7 16 8 15 9 14 10 13 11 5 12
REMARK SMILES IDX 6 13 7 14 8 15 12 16 10 17 9 18 11 20 20 22 17 24
REMARK H PARENT 9 19 11 21 20 23 17 25
REMARK Flexibility Score: inf
ROOT
ATOM      1  C   UNL     1      18.288  40.365   6.114  1.00  0.00     0.138 A 
ATOM      2  C   UNL     1      19.038  39.363   6.746  1.00  0.00     0.100 A 
ATOM      3  C   UNL     1      20.074  38.735   6.052  1.00  0.00     0.197 A 
ATOM      4  O   UNL     1      20.691  37.803   6.628  1.00  0.00    -0.289 OA
ATOM      5  C   UNL     1      20.382  39.138   4.731  1.00  0.00     0.107 A 
ATOM      6  C   UNL     1      21.439  38.594   3.939  1.00  0.00     0.134 A 
ATOM      7  C   UNL     1      21.586  39.004   2.609  1.00  0.00     0.093 A 
ATOM      8  C   UNL     1      20.752  39.981   2.059  1.00  0.00     0.123 A 
ATOM      9  C   UNL     1      19.751  40.555   2.838  1.00  0.00     0.094 A 
ATOM     10  C   UNL     1      19.557  40.143   4.159  1.00  0.00     0.146 A 
ATOM     11  O   UNL     1      18.578  40.704   4.862  1.00  0.00    -0.456 OA
ENDROOT
BRANCH   1  12
ATOM     12  C   UNL     1      17.178  41.068   6.804  1.00  0.00     0.021 A 
ATOM     13  C   UNL     1      16.920  42.416   6.501  1.00  0.00     0.016 A 
ATOM     14  C   UNL     1      15.877  43.100   7.130  1.00  0.00     0.051 A 
ATOM     15  C   UNL     1      15.068  42.445   8.067  1.00  0.00     0.157 A 
ATOM     16  C   UNL     1      16.350  40.412   7.737  1.00  0.00     0.062 A 
ATOM     17  C   UNL     1      15.303  41.099   8.369  1.00  0.00     0.158 A 
BRANCH  15  18
ATOM     18  O   UNL     1      14.027  43.124   8.698  1.00  0.00    -0.504 OA
ATOM     19  H   UNL     1      13.068  42.798   8.638  1.00  0.00     0.293 HD
ENDBRANCH  15  18
BRANCH  17  20
ATOM     20  O   UNL     1      14.488  40.447   9.292  1.00  0.00    -0.504 OA
ATOM     21  H   UNL     1      13.646  40.879   9.655  1.00  0.00     0.293 HD
ENDBRANCH  17  20
ENDBRANCH   1  12
BRANCH   6  22
ATOM     22  O   UNL     1      22.377  37.671   4.412  1.00  0.00    -0.507 OA
ATOM     23  H   UNL     1      22.913  37.042   3.835  1.00  0.00     0.293 HD
ENDBRANCH   6  22
BRANCH   8  24
ATOM     24  O   UNL     1      20.915  40.394   0.739  1.00  0.00    -0.508 OA
ATOM     25  H   UNL     1      20.181  40.885   0.242  1.00  0.00     0.293 HD
ENDBRANCH   8  24
TORSDOF 5
ENDMDL
MODEL 8
REMARK VINA RESULT:    -4.585      1.834      3.332
REMARK INTER + INTRA:          -5.665
REMARK INTER:                  -5.400
REMARK INTRA:                  -0.264
REMARK UNBOUND:                -0.276
REMARK SMILES O=c1cc(-c2ccc(O)c(O)c2)oc2cc(O)cc(O)c12
REMARK SMILES IDX 4 1 3 2 2 3 1 4 21 5 19 6 18 7 16 8 15 9 14 10 13 11 5 12
REMARK SMILES IDX 6 13 7 14 8 15 12 16 10 17 9 18 11 20 20 22 17 24
REMARK H PARENT 9 19 11 21 20 23 17 25
REMARK Flexibility Score: inf
ROOT
ATOM      1  C   UNL     1      20.376  39.920   5.245  1.00  0.00     0.138 A 
ATOM      2  C   UNL     1      20.984  38.858   5.931  1.00  0.00     0.100 A 
ATOM      3  C   UNL     1      20.690  38.648   7.279  1.00  0.00     0.197 A 
ATOM      4  O   UNL     1      21.293  37.722   7.879  1.00  0.00    -0.289 OA
ATOM      5  C   UNL     1      19.754  39.484   7.934  1.00  0.00     0.107 A 
ATOM      6  C   UNL     1      19.350  39.343   9.296  1.00  0.00     0.134 A 
ATOM      7  C   UNL     1      18.491  40.292   9.863  1.00  0.00     0.093 A 
ATOM      8  C   UNL     1      17.974  41.343   9.101  1.00  0.00     0.123 A 
ATOM      9  C   UNL     1      18.322  41.461   7.758  1.00  0.00     0.094 A 
ATOM     10  C   UNL     1      19.205  40.550   7.172  1.00  0.00     0.146 A 
ATOM     11  O   UNL     1      19.524  40.709   5.892  1.00  0.00    -0.456 OA
ENDROOT
BRANCH   1  12
ATOM     12  C   UNL     1      20.649  40.187   3.812  1.00  0.00     0.021 A 
ATOM     13  C   UNL     1      21.750  40.985   3.455  1.00  0.00     0.016 A 
ATOM     14  C   UNL     1      22.033  41.246   2.112  1.00  0.00     0.051 A 
ATOM     15  C   UNL     1      21.228  40.706   1.103  1.00  0.00     0.157 A 
ATOM     16  C   UNL     1      19.850  39.635   2.789  1.00  0.00     0.062 A 
ATOM     17  C   UNL     1      20.136  39.898   1.441  1.00  0.00     0.158 A 
BRANCH  15  18
ATOM     18  O   UNL     1      21.507  40.965  -0.239  1.00  0.00    -0.504 OA
ATOM     19  H   UNL     1      21.803  40.230  -0.870  1.00  0.00     0.293 HD
ENDBRANCH  15  18
BRANCH  17  20
ATOM     20  O   UNL     1      19.344  39.352   0.433  1.00  0.00    -0.504 OA
ATOM     21  H   UNL     1      18.873  39.938  -0.247  1.00  0.00     0.293 HD
ENDBRANCH  17  20
ENDBRANCH   1  12
BRANCH   6  22
ATOM     22  O   UNL     1      19.743  38.288  10.125  1.00  0.00    -0.507 OA
ATOM     23  H   UNL     1      19.274  38.010  10.973  1.00  0.00     0.293 HD
ENDBRANCH   6  22
BRANCH   8  24
ATOM     24  O   UNL     1      17.107  42.274   9.669  1.00  0.00    -0.508 OA
ATOM     25  H   UNL     1      16.214  42.495   9.245  1.00  0.00     0.293 HD
ENDBRANCH   8  24
TORSDOF 5
ENDMDL
