MODEL 1
REMARK VINA RESULT:    -5.654      0.000      0.000
REMARK INTER + INTRA:          -6.922
REMARK INTER:                  -6.645
REMARK INTRA:                  -0.277
REMARK UNBOUND:                -0.277
REMARK SMILES O=c1cc(-c2ccc(O)c(O)c2)oc2cc(O)cc(O)c12
REMARK SMILES IDX 4 1 3 2 2 3 1 4 21 5 19 6 18 7 16 8 15 9 14 10 13 11 5 12
REMARK SMILES IDX 6 13 7 14 8 15 12 16 10 17 9 18 11 20 20 22 17 24
REMARK H PARENT 9 19 11 21 20 23 17 25
REMARK Flexibility Score: inf
ROOT
ATOM      1  C   UNL     1      -8.244  90.838 -14.019  1.00  0.00     0.138 A 
ATOM      2  C   UNL     1      -7.480  89.831 -13.411  1.00  0.00     0.100 A 
ATOM      3  C   UNL     1      -6.103  89.785 -13.626  1.00  0.00     0.197 A 
ATOM      4  O   UNL     1      -5.438  88.904 -13.022  1.00  0.00    -0.289 OA
ATOM      5  C   UNL     1      -5.491  90.731 -14.485  1.00  0.00     0.107 A 
ATOM      6  C   UNL     1      -4.100  90.760 -14.805  1.00  0.00     0.134 A 
ATOM      7  C   UNL     1      -3.595  91.804 -15.589  1.00  0.00     0.093 A 
ATOM      8  C   UNL     1      -4.436  92.786 -16.112  1.00  0.00     0.123 A 
ATOM      9  C   UNL     1      -5.805  92.739 -15.846  1.00  0.00     0.094 A 
ATOM     10  C   UNL     1      -6.335  91.730 -15.038  1.00  0.00     0.146 A 
ATOM     11  O   UNL     1      -7.642  91.732 -14.795  1.00  0.00    -0.456 OA
ENDROOT
BRANCH   1  12
ATOM     12  C   UNL     1      -9.713  90.933 -13.828  1.00  0.00     0.021 A 
ATOM     13  C   UNL     1     -10.292  92.182 -13.543  1.00  0.00     0.016 A 
ATOM     14  C   UNL     1     -11.671  92.299 -13.352  1.00  0.00     0.051 A 
ATOM     15  C   UNL     1     -12.493  91.168 -13.431  1.00  0.00     0.157 A 
ATOM     16  C   UNL     1     -10.545  89.798 -13.893  1.00  0.00     0.062 A 
ATOM     17  C   UNL     1     -11.929  89.915 -13.699  1.00  0.00     0.158 A 
BRANCH  15  18
ATOM     18  O   UNL     1     -13.870  91.281 -13.242  1.00  0.00    -0.504 OA
ATOM     19  H   UNL     1     -14.511  91.322 -14.026  1.00  0.00     0.293 HD
ENDBRANCH  15  18
BRANCH  17  20
ATOM     20  O   UNL     1     -12.749  88.791 -13.765  1.00  0.00    -0.504 OA
ATOM     21  H   UNL     1     -12.364  87.853 -13.778  1.00  0.00     0.293 HD
ENDBRANCH  17  20
ENDBRANCH   1  12
BRANCH   6  22
ATOM     22  O   UNL     1      -3.183  89.783 -14.403  1.00  0.00    -0.507 OA
ATOM     23  H   UNL     1      -2.947  89.569 -13.447  1.00  0.00     0.293 HD
ENDBRANCH   6  22
BRANCH   8  24
ATOM     24  O   UNL     1      -3.899  93.802 -16.901  1.00  0.00    -0.508 OA
ATOM     25  H   UNL     1      -3.248  93.601 -17.651  1.00  0.00     0.293 HD
ENDBRANCH   8  24
TORSDOF 5
ENDMDL
MODEL 2
REMARK VINA RESULT:    -5.613      8.782     11.830
REMARK INTER + INTRA:          -6.875
REMARK INTER:                  -6.605
REMARK INTRA:                  -0.270
REMARK UNBOUND:                -0.277
REMARK SMILES O=c1cc(-c2ccc(O)c(O)c2)oc2cc(O)cc(O)c12
REMARK SMILES IDX 4 1 3 2 2 3 1 4 21 5 19 6 18 7 16 8 15 9 14 10 13 11 5 12
REMARK SMILES IDX 6 13 7 14 8 15 12 16 10 17 9 18 11 20 20 22 17 24
REMARK H PARENT 9 19 11 21 20 23 17 25
REMARK Flexibility Score: inf
ROOT
ATOM      1  C   UNL     1      -7.563  83.577  -8.763  1.00  0.00     0.138 A 
ATOM      2  C   UNL     1      -8.015  84.882  -8.522  1.00  0.00     0.100 A 
ATOM      3  C   UNL     1      -9.380  85.163  -8.585  1.00  0.00     0.197 A 
ATOM      4  O   UNL     1      -9.759  86.330  -8.310  1.00  0.00    -0.289 OA
ATOM      5  C   UNL     1     -10.295  84.137  -8.927  1.00  0.00     0.107 A 
ATOM      6  C   UNL     1     -11.707  84.315  -9.056  1.00  0.00     0.134 A 
ATOM      7  C   UNL     1     -12.521  83.203  -9.302  1.00  0.00     0.093 A 
ATOM      8  C   UNL     1     -11.974  81.933  -9.483  1.00  0.00     0.123 A 
ATOM      9  C   UNL     1     -10.592  81.757  -9.410  1.00  0.00     0.094 A 
ATOM     10  C   UNL     1      -9.754  82.840  -9.130  1.00  0.00     0.146 A 
ATOM     11  O   UNL     1      -8.445  82.626  -9.051  1.00  0.00    -0.456 OA
ENDROOT
BRANCH   1  12
ATOM     12  C   UNL     1      -6.123  83.222  -8.712  1.00  0.00     0.021 A 
ATOM     13  C   UNL     1      -5.445  83.264  -7.481  1.00  0.00     0.016 A 
ATOM     14  C   UNL     1      -4.088  82.942  -7.405  1.00  0.00     0.051 A 
ATOM     15  C   UNL     1      -3.382  82.582  -8.561  1.00  0.00     0.157 A 
ATOM     16  C   UNL     1      -5.403  82.872  -9.872  1.00  0.00     0.062 A 
ATOM     17  C   UNL     1      -4.040  82.551  -9.796  1.00  0.00     0.158 A 
BRANCH  15  18
ATOM     18  O   UNL     1      -2.028  82.259  -8.489  1.00  0.00    -0.504 OA
ATOM     19  H   UNL     1      -1.490  82.044  -9.321  1.00  0.00     0.293 HD
ENDBRANCH  15  18
BRANCH  17  20
ATOM     20  O   UNL     1      -3.332  82.204 -10.945  1.00  0.00    -0.504 OA
ATOM     21  H   UNL     1      -2.364  81.909 -10.903  1.00  0.00     0.293 HD
ENDBRANCH  17  20
ENDBRANCH   1  12
BRANCH   6  22
ATOM     22  O   UNL     1     -12.351  85.553  -8.974  1.00  0.00    -0.507 OA
ATOM     23  H   UNL     1     -11.962  86.382  -8.553  1.00  0.00     0.293 HD
ENDBRANCH   6  22
BRANCH   8  24
ATOM     24  O   UNL     1     -12.815  80.853  -9.742  1.00  0.00    -0.508 OA
ATOM     25  H   UNL     1     -12.826  80.035  -9.143  1.00  0.00     0.293 HD
ENDBRANCH   8  24
TORSDOF 5
ENDMDL
MODEL 3
REMARK VINA RESULT:    -5.586      2.925      4.229
REMARK INTER + INTRA:          -6.843
REMARK INTER:                  -6.531
REMARK INTRA:                  -0.312
REMARK UNBOUND:                -0.277
REMARK SMILES O=c1cc(-c2ccc(O)c(O)c2)oc2cc(O)cc(O)c12
REMARK SMILES IDX 4 1 3 2 2 3 1 4 21 5 19 6 18 7 16 8 15 9 14 10 13 11 5 12
REMARK SMILES IDX 6 13 7 14 8 15 12 16 10 17 9 18 11 20 20 22 17 24
REMARK H PARENT 9 19 11 21 20 23 17 25
REMARK Flexibility Score: inf
ROOT
ATOM      1  C   UNL     1      -5.354  90.395 -15.140  1.00  0.00     0.138 A 
ATOM      2  C   UNL     1      -3.954  90.429 -15.071  1.00  0.00     0.100 A 
ATOM      3  C   UNL     1      -3.225  91.000 -16.115  1.00  0.00     0.197 A 
ATOM      4  O   UNL     1      -1.975  91.064 -15.998  1.00  0.00    -0.289 OA
ATOM      5  C   UNL     1      -3.901  91.508 -17.251  1.00  0.00     0.107 A 
ATOM      6  C   UNL     1      -3.261  92.082 -18.391  1.00  0.00     0.134 A 
ATOM      7  C   UNL     1      -4.040  92.641 -19.411  1.00  0.00     0.093 A 
ATOM      8  C   UNL     1      -5.433  92.595 -19.362  1.00  0.00     0.123 A 
ATOM      9  C   UNL     1      -6.069  91.992 -18.277  1.00  0.00     0.094 A 
ATOM     10  C   UNL     1      -5.321  91.457 -17.226  1.00  0.00     0.146 A 
ATOM     11  O   UNL     1      -5.966  90.907 -16.202  1.00  0.00    -0.456 OA
ENDROOT
BRANCH   1  12
ATOM     12  C   UNL     1      -6.180  89.798 -14.060  1.00  0.00     0.021 A 
ATOM     13  C   UNL     1      -5.623  89.626 -12.781  1.00  0.00     0.016 A 
ATOM     14  C   UNL     1      -6.375  89.060 -11.749  1.00  0.00     0.051 A 
ATOM     15  C   UNL     1      -7.693  88.647 -11.980  1.00  0.00     0.157 A 
ATOM     16  C   UNL     1      -7.502  89.368 -14.289  1.00  0.00     0.062 A 
ATOM     17  C   UNL     1      -8.256  88.798 -13.253  1.00  0.00     0.158 A 
BRANCH  15  18
ATOM     18  O   UNL     1      -8.447  88.084 -10.952  1.00  0.00    -0.504 OA
ATOM     19  H   UNL     1      -8.196  87.194 -10.537  1.00  0.00     0.293 HD
ENDBRANCH  15  18
BRANCH  17  20
ATOM     20  O   UNL     1      -9.564  88.376 -13.482  1.00  0.00    -0.504 OA
ATOM     21  H   UNL     1     -10.288  88.488 -12.783  1.00  0.00     0.293 HD
ENDBRANCH  17  20
ENDBRANCH   1  12
BRANCH   6  22
ATOM     22  O   UNL     1      -1.875  92.108 -18.581  1.00  0.00    -0.507 OA
ATOM     23  H   UNL     1      -1.272  91.301 -18.562  1.00  0.00     0.293 HD
ENDBRANCH   6  22
BRANCH   8  24
ATOM     24  O   UNL     1      -6.175  93.149 -20.404  1.00  0.00    -0.508 OA
ATOM     25  H   UNL     1      -6.793  93.938 -20.252  1.00  0.00     0.293 HD
ENDBRANCH   8  24
TORSDOF 5
ENDMDL
MODEL 4
REMARK VINA RESULT:    -5.522      9.208      9.750
REMARK INTER + INTRA:          -6.768
REMARK INTER:                  -6.484
REMARK INTRA:                  -0.284
REMARK UNBOUND:                -0.277
REMARK SMILES O=c1cc(-c2ccc(O)c(O)c2)oc2cc(O)cc(O)c12
REMARK SMILES IDX 4 1 3 2 2 3 1 4 21 5 19 6 18 7 16 8 15 9 14 10 13 11 5 12
REMARK SMILES IDX 6 13 7 14 8 15 12 16 10 17 9 18 11 20 20 22 17 24
REMARK H PARENT 9 19 11 21 20 23 17 25
REMARK Flexibility Score: inf
ROOT
ATOM      1  C   UNL     1      -8.771  83.607  -8.487  1.00  0.00     0.138 A 
ATOM      2  C   UNL     1      -8.398  84.208  -7.276  1.00  0.00     0.100 A 
ATOM      3  C   UNL     1      -7.047  84.307  -6.942  1.00  0.00     0.197 A 
ATOM      4  O   UNL     1      -6.742  84.900  -5.876  1.00  0.00    -0.289 OA
ATOM      5  C   UNL     1      -6.065  83.769  -7.810  1.00  0.00     0.107 A 
ATOM      6  C   UNL     1      -4.660  83.781  -7.557  1.00  0.00     0.134 A 
ATOM      7  C   UNL     1      -3.779  83.306  -8.537  1.00  0.00     0.093 A 
ATOM      8  C   UNL     1      -4.253  82.767  -9.732  1.00  0.00     0.123 A 
ATOM      9  C   UNL     1      -5.626  82.703  -9.968  1.00  0.00     0.094 A 
ATOM     10  C   UNL     1      -6.530  83.201  -9.026  1.00  0.00     0.146 A 
ATOM     11  O   UNL     1      -7.829  83.138  -9.297  1.00  0.00    -0.456 OA
ENDROOT
BRANCH   1  12
ATOM     12  C   UNL     1     -10.193  83.472  -8.891  1.00  0.00     0.021 A 
ATOM     13  C   UNL     1     -11.020  84.609  -8.898  1.00  0.00     0.016 A 
ATOM     14  C   UNL     1     -12.363  84.509  -9.267  1.00  0.00     0.051 A 
ATOM     15  C   UNL     1     -12.906  83.269  -9.627  1.00  0.00     0.157 A 
ATOM     16  C   UNL     1     -10.750  82.226  -9.242  1.00  0.00     0.062 A 
ATOM     17  C   UNL     1     -12.099  82.126  -9.611  1.00  0.00     0.158 A 
BRANCH  15  18
ATOM     18  O   UNL     1     -14.246  83.166  -9.998  1.00  0.00    -0.504 OA
ATOM     19  H   UNL     1     -14.881  83.951  -9.914  1.00  0.00     0.293 HD
ENDBRANCH  15  18
BRANCH  17  20
ATOM     20  O   UNL     1     -12.645  80.892  -9.958  1.00  0.00    -0.504 OA
ATOM     21  H   UNL     1     -13.622  80.678  -9.790  1.00  0.00     0.293 HD
ENDBRANCH  17  20
ENDBRANCH   1  12
BRANCH   6  22
ATOM     22  O   UNL     1      -4.082  84.224  -6.362  1.00  0.00    -0.507 OA
ATOM     23  H   UNL     1      -4.419  84.994  -5.807  1.00  0.00     0.293 HD
ENDBRANCH   6  22
BRANCH   8  24
ATOM     24  O   UNL     1      -3.346  82.290 -10.677  1.00  0.00    -0.508 OA
ATOM     25  H   UNL     1      -3.183  81.297 -10.800  1.00  0.00     0.293 HD
ENDBRANCH   8  24
TORSDOF 5
ENDMDL
MODEL 5
REMARK VINA RESULT:    -5.498      4.052      6.666
REMARK INTER + INTRA:          -6.740
REMARK INTER:                  -6.439
REMARK INTRA:                  -0.301
REMARK UNBOUND:                -0.277
REMARK SMILES O=c1cc(-c2ccc(O)c(O)c2)oc2cc(O)cc(O)c12
REMARK SMILES IDX 4 1 3 2 2 3 1 4 21 5 19 6 18 7 16 8 15 9 14 10 13 11 5 12
REMARK SMILES IDX 6 13 7 14 8 15 12 16 10 17 9 18 11 20 20 22 17 24
REMARK H PARENT 9 19 11 21 20 23 17 25
REMARK Flexibility Score: inf
ROOT
ATOM      1  C   UNL     1      -4.729  91.569 -15.042  1.00  0.00     0.138 A 
ATOM      2  C   UNL     1      -4.200  92.527 -14.166  1.00  0.00     0.100 A 
ATOM      3  C   UNL     1      -4.346  92.358 -12.788  1.00  0.00     0.197 A 
ATOM      4  O   UNL     1      -3.813  93.206 -12.028  1.00  0.00    -0.289 OA
ATOM      5  C   UNL     1      -5.056  91.240 -12.287  1.00  0.00     0.107 A 
ATOM      6  C   UNL     1      -5.296  90.982 -10.903  1.00  0.00     0.134 A 
ATOM      7  C   UNL     1      -5.927  89.790 -10.524  1.00  0.00     0.093 A 
ATOM      8  C   UNL     1      -6.377  88.877 -11.476  1.00  0.00     0.123 A 
ATOM      9  C   UNL     1      -6.192  89.143 -12.834  1.00  0.00     0.094 A 
ATOM     10  C   UNL     1      -5.535  90.306 -13.244  1.00  0.00     0.146 A 
ATOM     11  O   UNL     1      -5.363  90.513 -14.545  1.00  0.00    -0.456 OA
ENDROOT
BRANCH   1  12
ATOM     12  C   UNL     1      -4.606  91.699 -16.516  1.00  0.00     0.021 A 
ATOM     13  C   UNL     1      -3.446  92.275 -17.064  1.00  0.00     0.016 A 
ATOM     14  C   UNL     1      -3.308  92.416 -18.446  1.00  0.00     0.051 A 
ATOM     15  C   UNL     1      -4.331  91.993 -19.305  1.00  0.00     0.157 A 
ATOM     16  C   UNL     1      -5.636  91.288 -17.385  1.00  0.00     0.062 A 
ATOM     17  C   UNL     1      -5.498  91.432 -18.773  1.00  0.00     0.158 A 
BRANCH  15  18
ATOM     18  O   UNL     1      -4.196  92.131 -20.685  1.00  0.00    -0.504 OA
ATOM     19  H   UNL     1      -4.148  91.324 -21.296  1.00  0.00     0.293 HD
ENDBRANCH  15  18
BRANCH  17  20
ATOM     20  O   UNL     1      -6.518  91.023 -19.630  1.00  0.00    -0.504 OA
ATOM     21  H   UNL     1      -6.519  90.103 -20.053  1.00  0.00     0.293 HD
ENDBRANCH  17  20
ENDBRANCH   1  12
BRANCH   6  22
ATOM     22  O   UNL     1      -4.961  91.865  -9.872  1.00  0.00    -0.507 OA
ATOM     23  H   UNL     1      -4.151  92.465  -9.863  1.00  0.00     0.293 HD
ENDBRANCH   6  22
BRANCH   8  24
ATOM     24  O   UNL     1      -7.014  87.709 -11.061  1.00  0.00    -0.508 OA
ATOM     25  H   UNL     1      -6.493  86.860 -10.876  1.00  0.00     0.293 HD
ENDBRANCH   8  24
TORSDOF 5
ENDMDL
MODEL 6
REMARK VINA RESULT:    -5.443      4.279      6.389
REMARK INTER + INTRA:          -6.675
REMARK INTER:                  -6.397
REMARK INTRA:                  -0.278
REMARK UNBOUND:                -0.277
REMARK SMILES O=c1cc(-c2ccc(O)c(O)c2)oc2cc(O)cc(O)c12
REMARK SMILES IDX 4 1 3 2 2 3 1 4 21 5 19 6 18 7 16 8 15 9 14 10 13 11 5 12
REMARK SMILES IDX 6 13 7 14 8 15 12 16 10 17 9 18 11 20 20 22 17 24
REMARK H PARENT 9 19 11 21 20 23 17 25
REMARK Flexibility Score: inf
ROOT
ATOM      1  C   UNL     1      -4.744  91.518 -14.733  1.00  0.00     0.138 A 
ATOM      2  C   UNL     1      -5.285  90.346 -14.185  1.00  0.00     0.100 A 
ATOM      3  C   UNL     1      -5.443  90.240 -12.803  1.00  0.00     0.197 A 
ATOM      4  O   UNL     1      -5.982  89.199 -12.347  1.00  0.00    -0.289 OA
ATOM      5  C   UNL     1      -5.023  91.299 -11.962  1.00  0.00     0.107 A 
ATOM      6  C   UNL     1      -5.104  91.288 -10.536  1.00  0.00     0.134 A 
ATOM      7  C   UNL     1      -4.748  92.435  -9.816  1.00  0.00     0.093 A 
ATOM      8  C   UNL     1      -4.261  93.570 -10.463  1.00  0.00     0.123 A 
ATOM      9  C   UNL     1      -4.131  93.575 -11.853  1.00  0.00     0.094 A 
ATOM     10  C   UNL     1      -4.510  92.458 -12.602  1.00  0.00     0.146 A 
ATOM     11  O   UNL     1      -4.387  92.510 -13.924  1.00  0.00    -0.456 OA
ENDROOT
BRANCH   1  12
ATOM     12  C   UNL     1      -4.551  91.685 -16.195  1.00  0.00     0.021 A 
ATOM     13  C   UNL     1      -3.349  92.235 -16.675  1.00  0.00     0.016 A 
ATOM     14  C   UNL     1      -3.144  92.410 -18.045  1.00  0.00     0.051 A 
ATOM     15  C   UNL     1      -4.140  92.046 -18.960  1.00  0.00     0.157 A 
ATOM     16  C   UNL     1      -5.553  91.334 -17.121  1.00  0.00     0.062 A 
ATOM     17  C   UNL     1      -5.348  91.511 -18.497  1.00  0.00     0.158 A 
BRANCH  15  18
ATOM     18  O   UNL     1      -3.938  92.217 -20.328  1.00  0.00    -0.504 OA
ATOM     19  H   UNL     1      -3.812  93.137 -20.735  1.00  0.00     0.293 HD
ENDBRANCH  15  18
BRANCH  17  20
ATOM     20  O   UNL     1      -6.341  91.161 -19.409  1.00  0.00    -0.504 OA
ATOM     21  H   UNL     1      -6.805  91.857 -19.982  1.00  0.00     0.293 HD
ENDBRANCH  17  20
ENDBRANCH   1  12
BRANCH   6  22
ATOM     22  O   UNL     1      -5.501  90.178  -9.782  1.00  0.00    -0.507 OA
ATOM     23  H   UNL     1      -6.448  89.846  -9.695  1.00  0.00     0.293 HD
ENDBRANCH   6  22
BRANCH   8  24
ATOM     24  O   UNL     1      -3.903  94.688  -9.712  1.00  0.00    -0.508 OA
ATOM     25  H   UNL     1      -4.589  95.207  -9.176  1.00  0.00     0.293 HD
ENDBRANCH   8  24
TORSDOF 5
ENDMDL
MODEL 7
REMARK VINA RESULT:    -5.312      7.654      9.376
REMARK INTER + INTRA:          -6.521
REMARK INTER:                  -6.239
REMARK INTRA:                  -0.282
REMARK UNBOUND:                -0.277
REMARK SMILES O=c1cc(-c2ccc(O)c(O)c2)oc2cc(O)cc(O)c12
REMARK SMILES IDX 4 1 3 2 2 3 1 4 21 5 19 6 18 7 16 8 15 9 14 10 13 11 5 12
REMARK SMILES IDX 6 13 7 14 8 15 12 16 10 17 9 18 11 20 20 22 17 24
REMARK H PARENT 9 19 11 21 20 23 17 25
REMARK Flexibility Score: inf
ROOT
ATOM      1  C   UNL     1      -9.724  84.024  -8.899  1.00  0.00     0.138 A 
ATOM      2  C   UNL     1      -9.680  85.420  -8.774  1.00  0.00     0.100 A 
ATOM      3  C   UNL     1      -8.460  86.086  -8.902  1.00  0.00     0.197 A 
ATOM      4  O   UNL     1      -8.462  87.342  -8.840  1.00  0.00    -0.289 OA
ATOM      5  C   UNL     1      -7.273  85.346  -9.121  1.00  0.00     0.107 A 
ATOM      6  C   UNL     1      -5.968  85.914  -9.234  1.00  0.00     0.134 A 
ATOM      7  C   UNL     1      -4.881  85.089  -9.550  1.00  0.00     0.093 A 
ATOM      8  C   UNL     1      -5.040  83.712  -9.698  1.00  0.00     0.123 A 
ATOM      9  C   UNL     1      -6.303  83.139  -9.540  1.00  0.00     0.094 A 
ATOM     10  C   UNL     1      -7.413  83.939  -9.260  1.00  0.00     0.146 A 
ATOM     11  O   UNL     1      -8.601  83.356  -9.136  1.00  0.00    -0.456 OA
ENDROOT
BRANCH   1  12
ATOM     12  C   UNL     1     -10.993  83.264  -8.769  1.00  0.00     0.021 A 
ATOM     13  C   UNL     1     -10.989  82.022  -8.109  1.00  0.00     0.016 A 
ATOM     14  C   UNL     1     -12.167  81.283  -7.979  1.00  0.00     0.051 A 
ATOM     15  C   UNL     1     -13.367  81.767  -8.514  1.00  0.00     0.157 A 
ATOM     16  C   UNL     1     -12.202  83.739  -9.315  1.00  0.00     0.062 A 
ATOM     17  C   UNL     1     -13.384  82.996  -9.186  1.00  0.00     0.158 A 
BRANCH  15  18
ATOM     18  O   UNL     1     -14.545  81.034  -8.384  1.00  0.00    -0.504 OA
ATOM     19  H   UNL     1     -14.569  80.155  -7.880  1.00  0.00     0.293 HD
ENDBRANCH  15  18
BRANCH  17  20
ATOM     20  O   UNL     1     -14.577  83.469  -9.726  1.00  0.00    -0.504 OA
ATOM     21  H   UNL     1     -15.289  82.838 -10.077  1.00  0.00     0.293 HD
ENDBRANCH  17  20
ENDBRANCH   1  12
BRANCH   6  22
ATOM     22  O   UNL     1      -5.682  87.268  -9.026  1.00  0.00    -0.507 OA
ATOM     23  H   UNL     1      -5.748  87.988  -9.727  1.00  0.00     0.293 HD
ENDBRANCH   6  22
BRANCH   8  24
ATOM     24  O   UNL     1      -3.933  82.921  -9.997  1.00  0.00    -0.508 OA
ATOM     25  H   UNL     1      -3.273  82.642  -9.280  1.00  0.00     0.293 HD
ENDBRANCH   8  24
TORSDOF 5
ENDMDL
MODEL 8
REMARK VINA RESULT:    -5.277      8.328      9.626
REMARK INTER + INTRA:          -6.479
REMARK INTER:                  -6.215
REMARK INTRA:                  -0.264
REMARK UNBOUND:                -0.277
REMARK SMILES O=c1cc(-c2ccc(O)c(O)c2)oc2cc(O)cc(O)c12
REMARK SMILES IDX 4 1 3 2 2 3 1 4 21 5 19 6 18 7 16 8 15 9 14 10 13 11 5 12
REMARK SMILES IDX 6 13 7 14 8 15 12 16 10 17 9 18 11 20 20 22 17 24
REMARK H PARENT 9 19 11 21 20 23 17 25
REMARK Flexibility Score: inf
ROOT
ATOM      1  C   UNL     1      -6.686  83.822  -7.896  1.00  0.00     0.138 A 
ATOM      2  C   UNL     1      -5.448  83.173  -7.796  1.00  0.00     0.100 A 
ATOM      3  C   UNL     1      -4.277  83.927  -7.718  1.00  0.00     0.197 A 
ATOM      4  O   UNL     1      -3.187  83.316  -7.574  1.00  0.00    -0.289 OA
ATOM      5  C   UNL     1      -4.344  85.340  -7.775  1.00  0.00     0.107 A 
ATOM      6  C   UNL     1      -3.213  86.212  -7.738  1.00  0.00     0.134 A 
ATOM      7  C   UNL     1      -3.412  87.597  -7.703  1.00  0.00     0.093 A 
ATOM      8  C   UNL     1      -4.693  88.144  -7.761  1.00  0.00     0.123 A 
ATOM      9  C   UNL     1      -5.803  87.303  -7.848  1.00  0.00     0.094 A 
ATOM     10  C   UNL     1      -5.640  85.916  -7.850  1.00  0.00     0.146 A 
ATOM     11  O   UNL     1      -6.724  85.150  -7.916  1.00  0.00    -0.456 OA
ENDROOT
BRANCH   1  12
ATOM     12  C   UNL     1      -7.963  83.070  -7.985  1.00  0.00     0.021 A 
ATOM     13  C   UNL     1      -8.619  82.681  -6.804  1.00  0.00     0.016 A 
ATOM     14  C   UNL     1      -9.818  81.967  -6.860  1.00  0.00     0.051 A 
ATOM     15  C   UNL     1     -10.377  81.620  -8.096  1.00  0.00     0.157 A 
ATOM     16  C   UNL     1      -8.524  82.706  -9.225  1.00  0.00     0.062 A 
ATOM     17  C   UNL     1      -9.727  81.987  -9.281  1.00  0.00     0.158 A 
BRANCH  15  18
ATOM     18  O   UNL     1     -11.574  80.908  -8.156  1.00  0.00    -0.504 OA
ATOM     19  H   UNL     1     -11.593  79.897  -8.083  1.00  0.00     0.293 HD
ENDBRANCH  15  18
BRANCH  17  20
ATOM     20  O   UNL     1     -10.279  81.630 -10.509  1.00  0.00    -0.504 OA
ATOM     21  H   UNL     1      -9.893  80.877 -11.066  1.00  0.00     0.293 HD
ENDBRANCH  17  20
ENDBRANCH   1  12
BRANCH   6  22
ATOM     22  O   UNL     1      -1.885  85.773  -7.759  1.00  0.00    -0.507 OA
ATOM     23  H   UNL     1      -1.459  85.252  -8.509  1.00  0.00     0.293 HD
ENDBRANCH   6  22
BRANCH   8  24
ATOM     24  O   UNL     1      -4.850  89.529  -7.739  1.00  0.00    -0.508 OA
ATOM     25  H   UNL     1      -4.390  90.125  -8.417  1.00  0.00     0.293 HD
ENDBRANCH   8  24
TORSDOF 5
ENDMDL
MODEL 9
REMARK VINA RESULT:    -5.259      1.535      2.966
REMARK INTER + INTRA:          -6.459
REMARK INTER:                  -6.185
REMARK INTRA:                  -0.274
REMARK UNBOUND:                -0.277
REMARK SMILES O=c1cc(-c2ccc(O)c(O)c2)oc2cc(O)cc(O)c12
REMARK SMILES IDX 4 1 3 2 2 3 1 4 21 5 19 6 18 7 16 8 15 9 14 10 13 11 5 12
REMARK SMILES IDX 6 13 7 14 8 15 12 16 10 17 9 18 11 20 20 22 17 24
REMARK H PARENT 9 19 11 21 20 23 17 25
REMARK Flexibility Score: inf
ROOT
ATOM      1  C   UNL     1      -8.467  90.745 -13.558  1.00  0.00     0.138 A 
ATOM      2  C   UNL     1      -8.580  91.984 -14.205  1.00  0.00     0.100 A 
ATOM      3  C   UNL     1      -7.448  92.573 -14.770  1.00  0.00     0.197 A 
ATOM      4  O   UNL     1      -7.592  93.657 -15.391  1.00  0.00    -0.289 OA
ATOM      5  C   UNL     1      -6.190  91.933 -14.656  1.00  0.00     0.107 A 
ATOM      6  C   UNL     1      -4.961  92.456 -15.164  1.00  0.00     0.134 A 
ATOM      7  C   UNL     1      -3.796  91.684 -15.077  1.00  0.00     0.093 A 
ATOM      8  C   UNL     1      -3.800  90.439 -14.451  1.00  0.00     0.123 A 
ATOM      9  C   UNL     1      -4.984  89.940 -13.907  1.00  0.00     0.094 A 
ATOM     10  C   UNL     1      -6.172  90.669 -14.008  1.00  0.00     0.146 A 
ATOM     11  O   UNL     1      -7.281  90.151 -13.492  1.00  0.00    -0.456 OA
ENDROOT
BRANCH   1  12
ATOM     12  C   UNL     1      -9.637  90.075 -12.936  1.00  0.00     0.021 A 
ATOM     13  C   UNL     1      -9.541  89.604 -11.615  1.00  0.00     0.016 A 
ATOM     14  C   UNL     1     -10.624  88.963 -11.008  1.00  0.00     0.051 A 
ATOM     15  C   UNL     1     -11.818  88.774 -11.715  1.00  0.00     0.157 A 
ATOM     16  C   UNL     1     -10.837  89.869 -13.645  1.00  0.00     0.062 A 
ATOM     17  C   UNL     1     -11.924  89.225 -13.036  1.00  0.00     0.158 A 
BRANCH  15  18
ATOM     18  O   UNL     1     -12.902  88.137 -11.112  1.00  0.00    -0.504 OA
ATOM     19  H   UNL     1     -13.304  88.479 -10.247  1.00  0.00     0.293 HD
ENDBRANCH  15  18
BRANCH  17  20
ATOM     20  O   UNL     1     -13.110  89.024 -13.740  1.00  0.00    -0.504 OA
ATOM     21  H   UNL     1     -14.007  89.295 -13.355  1.00  0.00     0.293 HD
ENDBRANCH  17  20
ENDBRANCH   1  12
BRANCH   6  22
ATOM     22  O   UNL     1      -4.827  93.725 -15.737  1.00  0.00    -0.507 OA
ATOM     23  H   UNL     1      -4.448  93.910 -16.652  1.00  0.00     0.293 HD
ENDBRANCH   6  22
BRANCH   8  24
ATOM     24  O   UNL     1      -2.617  89.706 -14.370  1.00  0.00    -0.508 OA
ATOM     25  H   UNL     1      -2.504  88.828 -14.863  1.00  0.00     0.293 HD
ENDBRANCH   8  24
TORSDOF 5
ENDMDL
