MODEL 1
REMARK VINA RESULT:    -0.645      0.000      0.000
REMARK INTER + INTRA:          -0.167
REMARK INTER:                  -1.248
REMARK INTRA:                   1.081
REMARK UNBOUND:                 1.081
REMARK SMILES CCCCCCCCCCCCCCCCCC(=O)[O-]
REMARK SMILES IDX 10 1 11 2 12 3 13 4 14 5 15 6 16 7 17 8 18 9 19 10 20 11
REMARK SMILES IDX 9 12 8 13 7 14 6 15 5 16 4 17 3 18 2 19 1 20
REMARK H PARENT
REMARK Flexibility Score: inf
ROOT
ATOM      1  C   UNL     1      -1.167   6.844   8.932  1.00  0.00     0.000 C 
ENDROOT
BRANCH   1   2
ATOM      2  C   UNL     1      -1.273   7.971   9.971  1.00  0.00     0.000 C 
BRANCH   2   3
ATOM      3  C   UNL     1      -0.340   9.137   9.612  1.00  0.00     0.000 C 
BRANCH   3   4
ATOM      4  C   UNL     1       1.110   8.894  10.063  1.00  0.00     0.000 C 
BRANCH   4   5
ATOM      5  C   UNL     1       1.753   7.689   9.360  1.00  0.00     0.000 C 
BRANCH   5   6
ATOM      6  C   UNL     1       3.032   7.249  10.086  1.00  0.00     0.000 C 
BRANCH   6   7
ATOM      7  C   UNL     1       4.074   8.378  10.094  1.00  0.00     0.006 C 
BRANCH   7   8
ATOM      8  C   UNL     1       5.511   7.839  10.075  1.00  0.00     0.053 C 
BRANCH   8   9
ATOM      9  C   UNL     1       6.427   8.729   9.294  1.00  0.00     0.041 C 
ATOM     10  O   UNL     1       7.618   8.381   9.078  1.00  0.00    -0.550 OA
ATOM     11  O   UNL     1       5.974   9.958   8.833  1.00  0.00    -0.550 OA
ENDBRANCH   8   9
ENDBRANCH   7   8
ENDBRANCH   6   7
ENDBRANCH   5   6
ENDBRANCH   4   5
ENDBRANCH   3   4
ENDBRANCH   2   3
ENDBRANCH   1   2
BRANCH   1  12
ATOM     12  C   UNL     1      -2.290   5.801   9.062  1.00  0.00     0.000 C 
BRANCH  12  13
ATOM     13  C   UNL     1      -3.423   6.178  10.038  1.00  0.00    -0.000 C 
BRANCH  13  14
ATOM     14  C   UNL     1      -4.834   5.750   9.596  1.00  0.00    -0.000 C 
BRANCH  14  15
ATOM     15  C   UNL     1      -5.217   4.349  10.097  1.00  0.00    -0.000 C 
BRANCH  15  16
ATOM     16  C   UNL     1      -6.230   3.686   9.152  1.00  0.00    -0.000 C 
BRANCH  16  17
ATOM     17  C   UNL     1      -5.681   2.416   8.477  1.00  0.00    -0.000 C 
BRANCH  17  18
ATOM     18  C   UNL     1      -4.750   2.669   7.278  1.00  0.00    -0.000 C 
BRANCH  18  19
ATOM     19  C   UNL     1      -3.790   3.847   7.505  1.00  0.00    -0.003 C 
ATOM     20  C   UNL     1      -3.339   4.451   6.179  1.00  0.00     0.004 C 
ENDBRANCH  18  19
ENDBRANCH  17  18
ENDBRANCH  16  17
ENDBRANCH  15  16
ENDBRANCH  14  15
ENDBRANCH  13  14
ENDBRANCH  12  13
ENDBRANCH   1  12
TORSDOF 16
ENDMDL
MODEL 2
REMARK VINA RESULT:    -0.225      3.444      8.137
REMARK INTER + INTRA:           0.645
REMARK INTER:                   1.529
REMARK INTRA:                  -0.884
REMARK UNBOUND:                 1.081
REMARK SMILES CCCCCCCCCCCCCCCCCC(=O)[O-]
REMARK SMILES IDX 10 1 11 2 12 3 13 4 14 5 15 6 16 7 17 8 18 9 19 10 20 11
REMARK SMILES IDX 9 12 8 13 7 14 6 15 5 16 4 17 3 18 2 19 1 20
REMARK H PARENT
REMARK Flexibility Score: inf
ROOT
ATOM      1  C   UNL     1      -5.127   5.387   9.630  1.00  0.00     0.000 C 
ENDROOT
BRANCH   1   2
ATOM      2  C   UNL     1      -6.494   4.748   9.921  1.00  0.00     0.000 C 
BRANCH   2   3
ATOM      3  C   UNL     1      -6.566   3.326   9.346  1.00  0.00     0.000 C 
BRANCH   3   4
ATOM      4  C   UNL     1      -5.193   2.798   8.898  1.00  0.00     0.000 C 
BRANCH   4   5
ATOM      5  C   UNL     1      -5.248   2.088   7.537  1.00  0.00     0.000 C 
BRANCH   5   6
ATOM      6  C   UNL     1      -3.978   2.367   6.723  1.00  0.00     0.000 C 
BRANCH   6   7
ATOM      7  C   UNL     1      -3.312   3.675   7.174  1.00  0.00     0.006 C 
BRANCH   7   8
ATOM      8  C   UNL     1      -3.053   4.629   6.000  1.00  0.00     0.053 C 
BRANCH   8   9
ATOM      9  C   UNL     1      -3.437   6.037   6.334  1.00  0.00     0.041 C 
ATOM     10  O   UNL     1      -2.705   6.733   7.086  1.00  0.00    -0.550 OA
ATOM     11  O   UNL     1      -4.621   6.570   5.841  1.00  0.00    -0.550 OA
ENDBRANCH   8   9
ENDBRANCH   7   8
ENDBRANCH   6   7
ENDBRANCH   5   6
ENDBRANCH   4   5
ENDBRANCH   3   4
ENDBRANCH   2   3
ENDBRANCH   1   2
BRANCH   1  12
ATOM     12  C   UNL     1      -5.046   6.857  10.076  1.00  0.00     0.000 C 
BRANCH  12  13
ATOM     13  C   UNL     1      -3.623   7.449  10.123  1.00  0.00    -0.000 C 
BRANCH  13  14
ATOM     14  C   UNL     1      -2.484   6.416  10.065  1.00  0.00    -0.000 C 
BRANCH  14  15
ATOM     15  C   UNL     1      -1.136   7.036   9.667  1.00  0.00    -0.000 C 
BRANCH  15  16
ATOM     16  C   UNL     1      -1.123   8.547   9.942  1.00  0.00    -0.000 C 
BRANCH  16  17
ATOM     17  C   UNL     1       0.237   9.201   9.643  1.00  0.00    -0.000 C 
BRANCH  17  18
ATOM     18  C   UNL     1       1.441   8.242   9.680  1.00  0.00    -0.000 C 
BRANCH  18  19
ATOM     19  C   UNL     1       2.740   8.930  10.124  1.00  0.00    -0.003 C 
ATOM     20  C   UNL     1       3.944   8.017   9.914  1.00  0.00     0.004 C 
ENDBRANCH  18  19
ENDBRANCH  17  18
ENDBRANCH  16  17
ENDBRANCH  15  16
ENDBRANCH  14  15
ENDBRANCH  13  14
ENDBRANCH  12  13
ENDBRANCH   1  12
TORSDOF 16
ENDMDL
MODEL 3
REMARK VINA RESULT:     1.940      4.792      9.251
REMARK INTER + INTRA:           4.836
REMARK INTER:                   2.881
REMARK INTRA:                   1.954
REMARK UNBOUND:                 1.081
REMARK SMILES CCCCCCCCCCCCCCCCCC(=O)[O-]
REMARK SMILES IDX 10 1 11 2 12 3 13 4 14 5 15 6 16 7 17 8 18 9 19 10 20 11
REMARK SMILES IDX 9 12 8 13 7 14 6 15 5 16 4 17 3 18 2 19 1 20
REMARK H PARENT
REMARK Flexibility Score: inf
ROOT
ATOM      1  C   UNL     1      -2.557   6.118   8.482  1.00  0.00     0.000 C 
ENDROOT
BRANCH   1   2
ATOM      2  C   UNL     1      -2.610   6.091   6.947  1.00  0.00     0.000 C 
BRANCH   2   3
ATOM      3  C   UNL     1      -3.257   4.792   6.444  1.00  0.00     0.000 C 
BRANCH   3   4
ATOM      4  C   UNL     1      -3.346   3.714   7.537  1.00  0.00     0.000 C 
BRANCH   4   5
ATOM      5  C   UNL     1      -4.346   2.601   7.190  1.00  0.00     0.000 C 
BRANCH   5   6
ATOM      6  C   UNL     1      -5.200   2.231   8.410  1.00  0.00     0.000 C 
BRANCH   6   7
ATOM      7  C   UNL     1      -4.687   2.937   9.674  1.00  0.00     0.006 C 
BRANCH   7   8
ATOM      8  C   UNL     1      -5.303   4.331   9.850  1.00  0.00     0.053 C 
BRANCH   8   9
ATOM      9  C   UNL     1      -6.794   4.300   9.709  1.00  0.00     0.041 C 
ATOM     10  O   UNL     1      -7.490   5.265  10.120  1.00  0.00    -0.550 OA
ATOM     11  O   UNL     1      -7.416   3.191   9.151  1.00  0.00    -0.550 OA
ENDBRANCH   8   9
ENDBRANCH   7   8
ENDBRANCH   6   7
ENDBRANCH   5   6
ENDBRANCH   4   5
ENDBRANCH   3   4
ENDBRANCH   2   3
ENDBRANCH   1   2
BRANCH   1  12
ATOM     12  C   UNL     1      -1.488   7.079   9.028  1.00  0.00     0.000 C 
BRANCH  12  13
ATOM     13  C   UNL     1      -1.801   8.578   8.848  1.00  0.00    -0.000 C 
BRANCH  13  14
ATOM     14  C   UNL     1      -1.114   9.514   9.857  1.00  0.00    -0.000 C 
BRANCH  14  15
ATOM     15  C   UNL     1       0.357   9.147  10.107  1.00  0.00    -0.000 C 
BRANCH  15  16
ATOM     16  C   UNL     1       0.602   7.654   9.840  1.00  0.00    -0.000 C 
BRANCH  16  17
ATOM     17  C   UNL     1       2.059   7.346   9.451  1.00  0.00    -0.000 C 
BRANCH  17  18
ATOM     18  C   UNL     1       3.114   8.250  10.115  1.00  0.00    -0.000 C 
BRANCH  18  19
ATOM     19  C   UNL     1       4.538   7.685  10.007  1.00  0.00    -0.003 C 
ATOM     20  C   UNL     1       5.565   8.807   9.882  1.00  0.00     0.004 C 
ENDBRANCH  18  19
ENDBRANCH  17  18
ENDBRANCH  16  17
ENDBRANCH  15  16
ENDBRANCH  14  15
ENDBRANCH  13  14
ENDBRANCH  12  13
ENDBRANCH   1  12
TORSDOF 16
ENDMDL
