MODEL 1
REMARK VINA RESULT:    -4.960      0.000      0.000
REMARK INTER + INTRA:         -11.212
REMARK INTER:                  -9.599
REMARK INTRA:                  -1.614
REMARK UNBOUND:                -1.614
REMARK SMILES CCCCCCCCCCCCCCCCCC(=O)[O-]
REMARK SMILES IDX 10 1 11 2 12 3 13 4 14 5 15 6 16 7 17 8 18 9 19 10 20 11
REMARK SMILES IDX 9 12 8 13 7 14 6 15 5 16 4 17 3 18 2 19 1 20
REMARK H PARENT
REMARK Flexibility Score: inf
ROOT
ATOM      1  C   UNL     1       3.875  10.438  19.345  1.00  0.00     0.000 C 
ENDROOT
BRANCH   1   2
ATOM      2  C   UNL     1       4.795  11.659  19.187  1.00  0.00     0.000 C 
BRANCH   2   3
ATOM      3  C   UNL     1       6.047  11.299  18.374  1.00  0.00     0.000 C 
BRANCH   3   4
ATOM      4  C   UNL     1       5.813  11.363  16.853  1.00  0.00     0.000 C 
BRANCH   4   5
ATOM      5  C   UNL     1       5.336  12.730  16.326  1.00  0.00     0.000 C 
BRANCH   5   6
ATOM      6  C   UNL     1       3.915  12.742  15.726  1.00  0.00     0.000 C 
BRANCH   6   7
ATOM      7  C   UNL     1       3.828  12.305  14.253  1.00  0.00     0.006 C 
BRANCH   7   8
ATOM      8  C   UNL     1       2.895  11.106  14.042  1.00  0.00     0.053 C 
BRANCH   8   9
ATOM      9  C   UNL     1       3.675   9.907  13.606  1.00  0.00     0.041 C 
ATOM     10  O   UNL     1       4.933   9.939  13.595  1.00  0.00    -0.550 OA
ATOM     11  O   UNL     1       3.013   8.735  13.259  1.00  0.00    -0.550 OA
ENDBRANCH   8   9
ENDBRANCH   7   8
ENDBRANCH   6   7
ENDBRANCH   5   6
ENDBRANCH   4   5
ENDBRANCH   3   4
ENDBRANCH   2   3
ENDBRANCH   1   2
BRANCH   1  12
ATOM     12  C   UNL     1       2.733  10.414  18.316  1.00  0.00     0.000 C 
BRANCH  12  13
ATOM     13  C   UNL     1       3.020   9.469  17.136  1.00  0.00    -0.000 C 
BRANCH  13  14
ATOM     14  C   UNL     1       1.977   8.344  17.017  1.00  0.00    -0.000 C 
BRANCH  14  15
ATOM     15  C   UNL     1       0.775   8.553  17.955  1.00  0.00    -0.000 C 
BRANCH  15  16
ATOM     16  C   UNL     1       0.127   7.229  18.391  1.00  0.00    -0.000 C 
BRANCH  16  17
ATOM     17  C   UNL     1       0.781   6.004  17.728  1.00  0.00    -0.000 C 
BRANCH  17  18
ATOM     18  C   UNL     1       0.556   4.703  18.521  1.00  0.00    -0.000 C 
BRANCH  18  19
ATOM     19  C   UNL     1       1.242   4.655  19.899  1.00  0.00    -0.003 C 
ATOM     20  C   UNL     1       2.490   3.773  19.916  1.00  0.00     0.004 C 
ENDBRANCH  18  19
ENDBRANCH  17  18
ENDBRANCH  16  17
ENDBRANCH  15  16
ENDBRANCH  14  15
ENDBRANCH  13  14
ENDBRANCH  12  13
ENDBRANCH   1  12
TORSDOF 16
ENDMDL
MODEL 2
REMARK VINA RESULT:    -4.947      2.695      6.750
REMARK INTER + INTRA:         -11.187
REMARK INTER:                  -9.608
REMARK INTRA:                  -1.579
REMARK UNBOUND:                -1.614
REMARK SMILES CCCCCCCCCCCCCCCCCC(=O)[O-]
REMARK SMILES IDX 10 1 11 2 12 3 13 4 14 5 15 6 16 7 17 8 18 9 19 10 20 11
REMARK SMILES IDX 9 12 8 13 7 14 6 15 5 16 4 17 3 18 2 19 1 20
REMARK H PARENT
REMARK Flexibility Score: inf
ROOT
ATOM      1  C   UNL     1       4.048  10.398  19.296  1.00  0.00     0.000 C 
ENDROOT
BRANCH   1   2
ATOM      2  C   UNL     1       2.742  10.471  18.491  1.00  0.00     0.000 C 
BRANCH   2   3
ATOM      3  C   UNL     1       2.856   9.662  17.190  1.00  0.00     0.000 C 
BRANCH   3   4
ATOM      4  C   UNL     1       2.025   8.366  17.216  1.00  0.00     0.000 C 
BRANCH   4   5
ATOM      5  C   UNL     1       0.606   8.514  17.799  1.00  0.00     0.000 C 
BRANCH   5   6
ATOM      6  C   UNL     1       0.057   7.262  18.512  1.00  0.00     0.000 C 
BRANCH   6   7
ATOM      7  C   UNL     1       0.754   5.942  18.137  1.00  0.00     0.006 C 
BRANCH   7   8
ATOM      8  C   UNL     1       0.448   4.807  19.123  1.00  0.00     0.053 C 
BRANCH   8   9
ATOM      9  C   UNL     1       1.647   3.930  19.297  1.00  0.00     0.041 C 
ATOM     10  O   UNL     1       2.383   4.056  20.310  1.00  0.00    -0.550 OA
ATOM     11  O   UNL     1       1.922   2.935  18.365  1.00  0.00    -0.550 OA
ENDBRANCH   8   9
ENDBRANCH   7   8
ENDBRANCH   6   7
ENDBRANCH   5   6
ENDBRANCH   4   5
ENDBRANCH   3   4
ENDBRANCH   2   3
ENDBRANCH   1   2
BRANCH   1  12
ATOM     12  C   UNL     1       4.875  11.691  19.209  1.00  0.00     0.000 C 
BRANCH  12  13
ATOM     13  C   UNL     1       6.142  11.524  18.351  1.00  0.00    -0.000 C 
BRANCH  13  14
ATOM     14  C   UNL     1       5.824  11.396  16.851  1.00  0.00    -0.000 C 
BRANCH  14  15
ATOM     15  C   UNL     1       5.411  12.738  16.220  1.00  0.00    -0.000 C 
BRANCH  15  16
ATOM     16  C   UNL     1       3.915  12.791  15.868  1.00  0.00    -0.000 C 
BRANCH  16  17
ATOM     17  C   UNL     1       3.656  12.636  14.360  1.00  0.00    -0.000 C 
BRANCH  17  18
ATOM     18  C   UNL     1       3.011  11.284  14.000  1.00  0.00    -0.000 C 
BRANCH  18  19
ATOM     19  C   UNL     1       3.991  10.100  13.909  1.00  0.00    -0.003 C 
ATOM     20  C   UNL     1       3.353   8.837  13.332  1.00  0.00     0.004 C 
ENDBRANCH  18  19
ENDBRANCH  17  18
ENDBRANCH  16  17
ENDBRANCH  15  16
ENDBRANCH  14  15
ENDBRANCH  13  14
ENDBRANCH  12  13
ENDBRANCH   1  12
TORSDOF 16
ENDMDL
MODEL 3
REMARK VINA RESULT:    -4.944      0.694      1.657
REMARK INTER + INTRA:         -11.183
REMARK INTER:                  -9.936
REMARK INTRA:                  -1.247
REMARK UNBOUND:                -1.614
REMARK SMILES CCCCCCCCCCCCCCCCCC(=O)[O-]
REMARK SMILES IDX 10 1 11 2 12 3 13 4 14 5 15 6 16 7 17 8 18 9 19 10 20 11
REMARK SMILES IDX 9 12 8 13 7 14 6 15 5 16 4 17 3 18 2 19 1 20
REMARK H PARENT
REMARK Flexibility Score: inf
ROOT
ATOM      1  C   UNL     1       5.928  11.160  18.884  1.00  0.00     0.000 C 
ENDROOT
BRANCH   1   2
ATOM      2  C   UNL     1       6.110  11.104  17.360  1.00  0.00     0.000 C 
BRANCH   2   3
ATOM      3  C   UNL     1       6.169  12.518  16.764  1.00  0.00     0.000 C 
BRANCH   3   4
ATOM      4  C   UNL     1       5.279  12.680  15.517  1.00  0.00     0.000 C 
BRANCH   4   5
ATOM      5  C   UNL     1       3.780  12.887  15.811  1.00  0.00     0.000 C 
BRANCH   5   6
ATOM      6  C   UNL     1       2.883  13.037  14.565  1.00  0.00     0.000 C 
BRANCH   6   7
ATOM      7  C   UNL     1       2.546  11.720  13.844  1.00  0.00     0.006 C 
BRANCH   7   8
ATOM      8  C   UNL     1       3.102  10.487  14.567  1.00  0.00     0.053 C 
BRANCH   8   9
ATOM      9  C   UNL     1       3.770   9.568  13.595  1.00  0.00     0.041 C 
ATOM     10  O   UNL     1       4.932   9.819  13.180  1.00  0.00    -0.550 OA
ATOM     11  O   UNL     1       3.129   8.404  13.185  1.00  0.00    -0.550 OA
ENDBRANCH   8   9
ENDBRANCH   7   8
ENDBRANCH   6   7
ENDBRANCH   5   6
ENDBRANCH   4   5
ENDBRANCH   3   4
ENDBRANCH   2   3
ENDBRANCH   1   2
BRANCH   1  12
ATOM     12  C   UNL     1       4.500  11.546  19.301  1.00  0.00     0.000 C 
BRANCH  12  13
ATOM     13  C   UNL     1       3.537  10.346  19.289  1.00  0.00    -0.000 C 
BRANCH  13  14
ATOM     14  C   UNL     1       2.551  10.394  18.109  1.00  0.00    -0.000 C 
BRANCH  14  15
ATOM     15  C   UNL     1       2.258   8.999  17.529  1.00  0.00    -0.000 C 
BRANCH  15  16
ATOM     16  C   UNL     1       0.832   8.515  17.844  1.00  0.00    -0.000 C 
BRANCH  16  17
ATOM     17  C   UNL     1       0.670   6.996  17.665  1.00  0.00    -0.000 C 
BRANCH  17  18
ATOM     18  C   UNL     1       0.267   6.280  18.968  1.00  0.00    -0.000 C 
BRANCH  18  19
ATOM     19  C   UNL     1       0.559   4.768  18.997  1.00  0.00    -0.003 C 
ATOM     20  C   UNL     1       1.520   4.365  20.116  1.00  0.00     0.004 C 
ENDBRANCH  18  19
ENDBRANCH  17  18
ENDBRANCH  16  17
ENDBRANCH  15  16
ENDBRANCH  14  15
ENDBRANCH  13  14
ENDBRANCH  12  13
ENDBRANCH   1  12
TORSDOF 16
ENDMDL
MODEL 4
REMARK VINA RESULT:    -4.934      2.558      6.482
REMARK INTER + INTRA:         -11.163
REMARK INTER:                 -10.024
REMARK INTRA:                  -1.139
REMARK UNBOUND:                -1.614
REMARK SMILES CCCCCCCCCCCCCCCCCC(=O)[O-]
REMARK SMILES IDX 10 1 11 2 12 3 13 4 14 5 15 6 16 7 17 8 18 9 19 10 20 11
REMARK SMILES IDX 9 12 8 13 7 14 6 15 5 16 4 17 3 18 2 19 1 20
REMARK H PARENT
REMARK Flexibility Score: inf
ROOT
ATOM      1  C   UNL     1       4.799  11.076  19.730  1.00  0.00     0.000 C 
ENDROOT
BRANCH   1   2
ATOM      2  C   UNL     1       3.596  11.571  18.913  1.00  0.00     0.000 C 
BRANCH   2   3
ATOM      3  C   UNL     1       2.668  10.405  18.545  1.00  0.00     0.000 C 
BRANCH   3   4
ATOM      4  C   UNL     1       3.095   9.684  17.252  1.00  0.00     0.000 C 
BRANCH   4   5
ATOM      5  C   UNL     1       2.213   8.485  16.854  1.00  0.00     0.000 C 
BRANCH   5   6
ATOM      6  C   UNL     1       0.967   8.266  17.736  1.00  0.00     0.000 C 
BRANCH   6   7
ATOM      7  C   UNL     1       0.419   6.828  17.741  1.00  0.00     0.006 C 
BRANCH   7   8
ATOM      8  C   UNL     1       0.275   6.250  19.155  1.00  0.00     0.053 C 
BRANCH   8   9
ATOM      9  C   UNL     1       0.988   4.940  19.259  1.00  0.00     0.041 C 
ATOM     10  O   UNL     1       1.268   4.286  18.220  1.00  0.00    -0.550 OA
ATOM     11  O   UNL     1       1.391   4.464  20.501  1.00  0.00    -0.550 OA
ENDBRANCH   8   9
ENDBRANCH   7   8
ENDBRANCH   6   7
ENDBRANCH   5   6
ENDBRANCH   4   5
ENDBRANCH   3   4
ENDBRANCH   2   3
ENDBRANCH   1   2
BRANCH   1  12
ATOM     12  C   UNL     1       6.136  11.253  18.992  1.00  0.00     0.000 C 
BRANCH  12  13
ATOM     13  C   UNL     1       5.977  11.205  17.462  1.00  0.00    -0.000 C 
BRANCH  13  14
ATOM     14  C   UNL     1       6.067  12.599  16.817  1.00  0.00    -0.000 C 
BRANCH  14  15
ATOM     15  C   UNL     1       5.288  12.687  15.493  1.00  0.00    -0.000 C 
BRANCH  15  16
ATOM     16  C   UNL     1       3.799  13.008  15.703  1.00  0.00    -0.000 C 
BRANCH  16  17
ATOM     17  C   UNL     1       2.978  12.883  14.407  1.00  0.00    -0.000 C 
BRANCH  17  18
ATOM     18  C   UNL     1       2.657  11.422  14.042  1.00  0.00    -0.000 C 
BRANCH  18  19
ATOM     19  C   UNL     1       3.886  10.511  13.866  1.00  0.00    -0.003 C 
ATOM     20  C   UNL     1       3.526   9.106  13.383  1.00  0.00     0.004 C 
ENDBRANCH  18  19
ENDBRANCH  17  18
ENDBRANCH  16  17
ENDBRANCH  15  16
ENDBRANCH  14  15
ENDBRANCH  13  14
ENDBRANCH  12  13
ENDBRANCH   1  12
TORSDOF 16
ENDMDL
MODEL 5
REMARK VINA RESULT:    -4.881      2.723      6.566
REMARK INTER + INTRA:         -11.061
REMARK INTER:                  -9.712
REMARK INTRA:                  -1.348
REMARK UNBOUND:                -1.614
REMARK SMILES CCCCCCCCCCCCCCCCCC(=O)[O-]
REMARK SMILES IDX 10 1 11 2 12 3 13 4 14 5 15 6 16 7 17 8 18 9 19 10 20 11
REMARK SMILES IDX 9 12 8 13 7 14 6 15 5 16 4 17 3 18 2 19 1 20
REMARK H PARENT
REMARK Flexibility Score: inf
ROOT
ATOM      1  C   UNL     1       3.861  11.088  14.201  1.00  0.00     0.000 C 
ENDROOT
BRANCH   1   2
ATOM      2  C   UNL     1       3.468   9.666  14.627  1.00  0.00     0.000 C 
BRANCH   2   3
ATOM      3  C   UNL     1       3.476   9.532  16.157  1.00  0.00     0.000 C 
BRANCH   3   4
ATOM      4  C   UNL     1       2.502   8.455  16.669  1.00  0.00     0.000 C 
BRANCH   4   5
ATOM      5  C   UNL     1       1.509   8.935  17.746  1.00  0.00     0.000 C 
BRANCH   5   6
ATOM      6  C   UNL     1       0.235   8.078  17.891  1.00  0.00     0.000 C 
BRANCH   6   7
ATOM      7  C   UNL     1       0.463   6.558  17.828  1.00  0.00     0.006 C 
BRANCH   7   8
ATOM      8  C   UNL     1       0.225   5.864  19.175  1.00  0.00     0.053 C 
BRANCH   8   9
ATOM      9  C   UNL     1       1.150   4.700  19.335  1.00  0.00     0.041 C 
ATOM     10  O   UNL     1       1.334   4.188  20.470  1.00  0.00    -0.550 OA
ATOM     11  O   UNL     1       1.771   4.147  18.221  1.00  0.00    -0.550 OA
ENDBRANCH   8   9
ENDBRANCH   7   8
ENDBRANCH   6   7
ENDBRANCH   5   6
ENDBRANCH   4   5
ENDBRANCH   3   4
ENDBRANCH   2   3
ENDBRANCH   1   2
BRANCH   1  12
ATOM     12  C   UNL     1       2.645  12.003  13.982  1.00  0.00     0.000 C 
BRANCH  12  13
ATOM     13  C   UNL     1       2.745  13.318  14.776  1.00  0.00    -0.000 C 
BRANCH  13  14
ATOM     14  C   UNL     1       3.452  13.135  16.130  1.00  0.00    -0.000 C 
BRANCH  14  15
ATOM     15  C   UNL     1       2.638  13.712  17.302  1.00  0.00    -0.000 C 
BRANCH  15  16
ATOM     16  C   UNL     1       3.006  13.071  18.650  1.00  0.00    -0.000 C 
BRANCH  16  17
ATOM     17  C   UNL     1       3.430  11.598  18.509  1.00  0.00    -0.000 C 
BRANCH  17  18
ATOM     18  C   UNL     1       4.466  11.171  19.565  1.00  0.00    -0.000 C 
BRANCH  18  19
ATOM     19  C   UNL     1       5.935  11.278  19.115  1.00  0.00    -0.003 C 
ATOM     20  C   UNL     1       6.099  11.264  17.596  1.00  0.00     0.004 C 
ENDBRANCH  18  19
ENDBRANCH  17  18
ENDBRANCH  16  17
ENDBRANCH  15  16
ENDBRANCH  14  15
ENDBRANCH  13  14
ENDBRANCH  12  13
ENDBRANCH   1  12
TORSDOF 16
ENDMDL
MODEL 6
REMARK VINA RESULT:    -4.599      2.369      3.985
REMARK INTER + INTRA:         -10.513
REMARK INTER:                  -8.987
REMARK INTRA:                  -1.527
REMARK UNBOUND:                -1.614
REMARK SMILES CCCCCCCCCCCCCCCCCC(=O)[O-]
REMARK SMILES IDX 10 1 11 2 12 3 13 4 14 5 15 6 16 7 17 8 18 9 19 10 20 11
REMARK SMILES IDX 9 12 8 13 7 14 6 15 5 16 4 17 3 18 2 19 1 20
REMARK H PARENT
REMARK Flexibility Score: inf
ROOT
ATOM      1  C   UNL     1       4.404  11.593  15.071  1.00  0.00     0.000 C 
ENDROOT
BRANCH   1   2
ATOM      2  C   UNL     1       3.143  12.022  14.306  1.00  0.00     0.000 C 
BRANCH   2   3
ATOM      3  C   UNL     1       2.472  13.223  14.988  1.00  0.00     0.000 C 
BRANCH   3   4
ATOM      4  C   UNL     1       3.258  13.734  16.210  1.00  0.00     0.000 C 
BRANCH   4   5
ATOM      5  C   UNL     1       2.437  13.851  17.509  1.00  0.00     0.000 C 
BRANCH   5   6
ATOM      6  C   UNL     1       3.032  13.117  18.728  1.00  0.00     0.000 C 
BRANCH   6   7
ATOM      7  C   UNL     1       3.373  11.636  18.491  1.00  0.00     0.006 C 
BRANCH   7   8
ATOM      8  C   UNL     1       4.206  11.028  19.628  1.00  0.00     0.053 C 
BRANCH   8   9
ATOM      9  C   UNL     1       5.663  11.273  19.397  1.00  0.00     0.041 C 
ATOM     10  O   UNL     1       6.079  11.586  18.251  1.00  0.00    -0.550 OA
ATOM     11  O   UNL     1       6.557  11.208  20.460  1.00  0.00    -0.550 OA
ENDBRANCH   8   9
ENDBRANCH   7   8
ENDBRANCH   6   7
ENDBRANCH   5   6
ENDBRANCH   4   5
ENDBRANCH   3   4
ENDBRANCH   2   3
ENDBRANCH   1   2
BRANCH   1  12
ATOM     12  C   UNL     1       4.381  10.110  15.477  1.00  0.00     0.000 C 
BRANCH  12  13
ATOM     13  C   UNL     1       2.957   9.525  15.492  1.00  0.00    -0.000 C 
BRANCH  13  14
ATOM     14  C   UNL     1       2.745   8.526  16.644  1.00  0.00    -0.000 C 
BRANCH  14  15
ATOM     15  C   UNL     1       1.728   9.033  17.682  1.00  0.00    -0.000 C 
BRANCH  15  16
ATOM     16  C   UNL     1       0.460   8.165  17.740  1.00  0.00    -0.000 C 
BRANCH  16  17
ATOM     17  C   UNL     1       0.775   6.663  17.845  1.00  0.00    -0.000 C 
BRANCH  17  18
ATOM     18  C   UNL     1       0.155   6.008  19.093  1.00  0.00    -0.000 C 
BRANCH  18  19
ATOM     19  C   UNL     1       0.910   4.774  19.623  1.00  0.00    -0.003 C 
ATOM     20  C   UNL     1       1.671   4.023  18.530  1.00  0.00     0.004 C 
ENDBRANCH  18  19
ENDBRANCH  17  18
ENDBRANCH  16  17
ENDBRANCH  15  16
ENDBRANCH  14  15
ENDBRANCH  13  14
ENDBRANCH  12  13
ENDBRANCH   1  12
TORSDOF 16
ENDMDL
MODEL 7
REMARK VINA RESULT:    -4.250      2.880      6.823
REMARK INTER + INTRA:          -9.839
REMARK INTER:                  -8.184
REMARK INTRA:                  -1.655
REMARK UNBOUND:                -1.614
REMARK SMILES CCCCCCCCCCCCCCCCCC(=O)[O-]
REMARK SMILES IDX 10 1 11 2 12 3 13 4 14 5 15 6 16 7 17 8 18 9 19 10 20 11
REMARK SMILES IDX 9 12 8 13 7 14 6 15 5 16 4 17 3 18 2 19 1 20
REMARK H PARENT
REMARK Flexibility Score: inf
ROOT
ATOM      1  C   UNL     1       5.760  11.502  18.904  1.00  0.00     0.000 C 
ENDROOT
BRANCH   1   2
ATOM      2  C   UNL     1       4.252  11.577  19.188  1.00  0.00     0.000 C 
BRANCH   2   3
ATOM      3  C   UNL     1       3.587  10.209  18.979  1.00  0.00     0.000 C 
BRANCH   3   4
ATOM      4  C   UNL     1       2.461  10.244  17.929  1.00  0.00     0.000 C 
BRANCH   4   5
ATOM      5  C   UNL     1       2.061   8.870  17.357  1.00  0.00     0.000 C 
BRANCH   5   6
ATOM      6  C   UNL     1       0.696   8.334  17.833  1.00  0.00     0.000 C 
BRANCH   6   7
ATOM      7  C   UNL     1       0.544   6.804  17.779  1.00  0.00     0.006 C 
BRANCH   7   8
ATOM      8  C   UNL     1       0.338   6.177  19.164  1.00  0.00     0.053 C 
BRANCH   8   9
ATOM      9  C   UNL     1       0.868   4.778  19.189  1.00  0.00     0.041 C 
ATOM     10  O   UNL     1       0.460   3.961  20.056  1.00  0.00    -0.550 OA
ATOM     11  O   UNL     1       1.776   4.361  18.223  1.00  0.00    -0.550 OA
ENDBRANCH   8   9
ENDBRANCH   7   8
ENDBRANCH   6   7
ENDBRANCH   5   6
ENDBRANCH   4   5
ENDBRANCH   3   4
ENDBRANCH   2   3
ENDBRANCH   1   2
BRANCH   1  12
ATOM     12  C   UNL     1       6.099  11.711  17.419  1.00  0.00     0.000 C 
BRANCH  12  13
ATOM     13  C   UNL     1       5.813  10.462  16.567  1.00  0.00    -0.000 C 
BRANCH  13  14
ATOM     14  C   UNL     1       4.738  10.715  15.495  1.00  0.00    -0.000 C 
BRANCH  14  15
ATOM     15  C   UNL     1       4.504  12.214  15.238  1.00  0.00    -0.000 C 
BRANCH  15  16
ATOM     16  C   UNL     1       3.190  12.489  14.487  1.00  0.00    -0.000 C 
BRANCH  16  17
ATOM     17  C   UNL     1       2.326  13.558  15.178  1.00  0.00    -0.000 C 
BRANCH  17  18
ATOM     18  C   UNL     1       2.998  14.153  16.429  1.00  0.00    -0.000 C 
BRANCH  18  19
ATOM     19  C   UNL     1       2.145  14.102  17.711  1.00  0.00    -0.003 C 
ATOM     20  C   UNL     1       1.233  15.318  17.872  1.00  0.00     0.004 C 
ENDBRANCH  18  19
ENDBRANCH  17  18
ENDBRANCH  16  17
ENDBRANCH  15  16
ENDBRANCH  14  15
ENDBRANCH  13  14
ENDBRANCH  12  13
ENDBRANCH   1  12
TORSDOF 16
ENDMDL
MODEL 8
REMARK VINA RESULT:    -4.249      3.729      7.564
REMARK INTER + INTRA:          -9.837
REMARK INTER:                  -8.749
REMARK INTRA:                  -1.088
REMARK UNBOUND:                -1.614
REMARK SMILES CCCCCCCCCCCCCCCCCC(=O)[O-]
REMARK SMILES IDX 10 1 11 2 12 3 13 4 14 5 15 6 16 7 17 8 18 9 19 10 20 11
REMARK SMILES IDX 9 12 8 13 7 14 6 15 5 16 4 17 3 18 2 19 1 20
REMARK H PARENT
REMARK Flexibility Score: inf
ROOT
ATOM      1  C   UNL     1       5.315  10.855  16.953  1.00  0.00     0.000 C 
ENDROOT
BRANCH   1   2
ATOM      2  C   UNL     1       5.133  11.049  18.466  1.00  0.00     0.000 C 
BRANCH   2   3
ATOM      3  C   UNL     1       3.821  10.410  18.945  1.00  0.00     0.000 C 
BRANCH   3   4
ATOM      4  C   UNL     1       2.754  10.331  17.838  1.00  0.00     0.000 C 
BRANCH   4   5
ATOM      5  C   UNL     1       2.355   8.903  17.419  1.00  0.00     0.000 C 
BRANCH   5   6
ATOM      6  C   UNL     1       0.954   8.452  17.880  1.00  0.00     0.000 C 
BRANCH   6   7
ATOM      7  C   UNL     1       0.664   6.951  17.703  1.00  0.00     0.006 C 
BRANCH   7   8
ATOM      8  C   UNL     1       0.246   6.268  19.011  1.00  0.00     0.053 C 
BRANCH   8   9
ATOM      9  C   UNL     1       0.985   4.979  19.188  1.00  0.00     0.041 C 
ATOM     10  O   UNL     1       1.008   4.411  20.311  1.00  0.00    -0.550 OA
ATOM     11  O   UNL     1       1.606   4.379  18.099  1.00  0.00    -0.550 OA
ENDBRANCH   8   9
ENDBRANCH   7   8
ENDBRANCH   6   7
ENDBRANCH   5   6
ENDBRANCH   4   5
ENDBRANCH   3   4
ENDBRANCH   2   3
ENDBRANCH   1   2
BRANCH   1  12
ATOM     12  C   UNL     1       5.230  12.174  16.168  1.00  0.00     0.000 C 
BRANCH  12  13
ATOM     13  C   UNL     1       4.304  12.073  14.942  1.00  0.00    -0.000 C 
BRANCH  13  14
ATOM     14  C   UNL     1       3.080  12.998  15.052  1.00  0.00    -0.000 C 
BRANCH  14  15
ATOM     15  C   UNL     1       3.018  13.736  16.402  1.00  0.00    -0.000 C 
BRANCH  15  16
ATOM     16  C   UNL     1       1.782  14.642  16.526  1.00  0.00    -0.000 C 
BRANCH  16  17
ATOM     17  C   UNL     1       1.470  15.021  17.984  1.00  0.00    -0.000 C 
BRANCH  17  18
ATOM     18  C   UNL     1       0.356  16.079  18.101  1.00  0.00    -0.000 C 
BRANCH  18  19
ATOM     19  C   UNL     1       0.844  17.502  18.431  1.00  0.00    -0.003 C 
ATOM     20  C   UNL     1      -0.235  18.566  18.231  1.00  0.00     0.004 C 
ENDBRANCH  18  19
ENDBRANCH  17  18
ENDBRANCH  16  17
ENDBRANCH  15  16
ENDBRANCH  14  15
ENDBRANCH  13  14
ENDBRANCH  12  13
ENDBRANCH   1  12
TORSDOF 16
ENDMDL
MODEL 9
REMARK VINA RESULT:    -3.781      4.578      8.294
REMARK INTER + INTRA:          -8.931
REMARK INTER:                  -7.489
REMARK INTRA:                  -1.442
REMARK UNBOUND:                -1.614
REMARK SMILES CCCCCCCCCCCCCCCCCC(=O)[O-]
REMARK SMILES IDX 10 1 11 2 12 3 13 4 14 5 15 6 16 7 17 8 18 9 19 10 20 11
REMARK SMILES IDX 9 12 8 13 7 14 6 15 5 16 4 17 3 18 2 19 1 20
REMARK H PARENT
REMARK Flexibility Score: inf
ROOT
ATOM      1  C   UNL     1       3.377  12.938  14.693  1.00  0.00     0.000 C 
ENDROOT
BRANCH   1   2
ATOM      2  C   UNL     1       2.760  11.735  13.964  1.00  0.00     0.000 C 
BRANCH   2   3
ATOM      3  C   UNL     1       3.551  10.453  14.259  1.00  0.00     0.000 C 
BRANCH   3   4
ATOM      4  C   UNL     1       4.057  10.381  15.712  1.00  0.00     0.000 C 
BRANCH   4   5
ATOM      5  C   UNL     1       3.330   9.355  16.604  1.00  0.00     0.000 C 
BRANCH   5   6
ATOM      6  C   UNL     1       2.561   9.954  17.799  1.00  0.00     0.000 C 
BRANCH   6   7
ATOM      7  C   UNL     1       3.274  11.115  18.514  1.00  0.00     0.006 C 
BRANCH   7   8
ATOM      8  C   UNL     1       4.248  10.637  19.599  1.00  0.00     0.053 C 
BRANCH   8   9
ATOM      9  C   UNL     1       5.606  11.222  19.377  1.00  0.00     0.041 C 
ATOM     10  O   UNL     1       5.925  11.673  18.246  1.00  0.00    -0.550 OA
ATOM     11  O   UNL     1       6.504  11.318  20.434  1.00  0.00    -0.550 OA
ENDBRANCH   8   9
ENDBRANCH   7   8
ENDBRANCH   6   7
ENDBRANCH   5   6
ENDBRANCH   4   5
ENDBRANCH   3   4
ENDBRANCH   2   3
ENDBRANCH   1   2
BRANCH   1  12
ATOM     12  C   UNL     1       2.338  13.765  15.467  1.00  0.00     0.000 C 
BRANCH  12  13
ATOM     13  C   UNL     1       2.813  14.135  16.883  1.00  0.00    -0.000 C 
BRANCH  13  14
ATOM     14  C   UNL     1       1.643  14.414  17.843  1.00  0.00    -0.000 C 
BRANCH  14  15
ATOM     15  C   UNL     1       1.262  15.904  17.890  1.00  0.00    -0.000 C 
BRANCH  15  16
ATOM     16  C   UNL     1      -0.209  16.127  18.281  1.00  0.00    -0.000 C 
BRANCH  16  17
ATOM     17  C   UNL     1      -0.492  17.574  18.719  1.00  0.00    -0.000 C 
BRANCH  17  18
ATOM     18  C   UNL     1       0.584  18.566  18.237  1.00  0.00    -0.000 C 
BRANCH  18  19
ATOM     19  C   UNL     1       0.092  20.011  18.035  1.00  0.00    -0.003 C 
ATOM     20  C   UNL     1      -1.037  20.122  17.010  1.00  0.00     0.004 C 
ENDBRANCH  18  19
ENDBRANCH  17  18
ENDBRANCH  16  17
ENDBRANCH  15  16
ENDBRANCH  14  15
ENDBRANCH  13  14
ENDBRANCH  12  13
ENDBRANCH   1  12
TORSDOF 16
ENDMDL
