MODEL 1
REMARK VINA RESULT:    -2.982      0.000      0.000
REMARK INTER + INTRA:         -10.903
REMARK INTER:                  -6.817
REMARK INTRA:                  -4.087
REMARK UNBOUND:                -4.087
REMARK SMILES CCCCCCCCCCCCCCCCCCCCCCCC(=O)[O-]
REMARK SMILES IDX 13 1 14 2 15 3 16 4 17 5 18 6 19 7 20 8 21 9 22 10 23 11
REMARK SMILES IDX 24 12 25 13 26 14 12 15 11 16 10 17 9 18 8 19 7 20 6 21 5 22
REMARK SMILES IDX 4 23 3 24 2 25 1 26
REMARK H PARENT
REMARK Flexibility Score: inf
ROOT
ATOM      1  C   UNL     1      30.902   8.124  22.152  1.00  0.00     0.000 C 
ENDROOT
BRANCH   1   2
ATOM      2  C   UNL     1      31.258   9.428  22.884  1.00  0.00     0.000 C 
BRANCH   2   3
ATOM      3  C   UNL     1      32.353  10.228  22.162  1.00  0.00     0.000 C 
BRANCH   3   4
ATOM      4  C   UNL     1      32.585  11.583  22.843  1.00  0.00     0.000 C 
BRANCH   4   5
ATOM      5  C   UNL     1      34.055  12.009  22.724  1.00  0.00     0.000 C 
BRANCH   5   6
ATOM      6  C   UNL     1      35.033  10.937  23.233  1.00  0.00     0.000 C 
BRANCH   6   7
ATOM      7  C   UNL     1      36.481  11.200  22.787  1.00  0.00     0.000 C 
BRANCH   7   8
ATOM      8  C   UNL     1      37.464  10.115  23.263  1.00  0.00     0.000 C 
BRANCH   8   9
ATOM      9  C   UNL     1      38.425   9.581  22.183  1.00  0.00     0.000 C 
BRANCH   9  10
ATOM     10  C   UNL     1      38.690   8.070  22.308  1.00  0.00     0.006 C 
BRANCH  10  11
ATOM     11  C   UNL     1      38.139   7.491  23.618  1.00  0.00     0.053 C 
BRANCH  11  12
ATOM     12  C   UNL     1      39.236   6.969  24.496  1.00  0.00     0.041 C 
ATOM     13  O   UNL     1      40.296   7.631  24.649  1.00  0.00    -0.550 OA
ATOM     14  O   UNL     1      39.099   5.734  25.120  1.00  0.00    -0.550 OA
ENDBRANCH  11  12
ENDBRANCH  10  11
ENDBRANCH   9  10
ENDBRANCH   8   9
ENDBRANCH   7   8
ENDBRANCH   6   7
ENDBRANCH   5   6
ENDBRANCH   4   5
ENDBRANCH   3   4
ENDBRANCH   2   3
ENDBRANCH   1   2
BRANCH   1  15
ATOM     15  C   UNL     1      31.809   7.862  20.936  1.00  0.00     0.000 C 
BRANCH  15  16
ATOM     16  C   UNL     1      31.617   6.458  20.342  1.00  0.00     0.000 C 
BRANCH  16  17
ATOM     17  C   UNL     1      32.013   5.343  21.325  1.00  0.00     0.000 C 
BRANCH  17  18
ATOM     18  C   UNL     1      33.477   4.899  21.169  1.00  0.00    -0.000 C 
BRANCH  18  19
ATOM     19  C   UNL     1      34.080   5.099  19.763  1.00  0.00    -0.000 C 
BRANCH  19  20
ATOM     20  C   UNL     1      35.221   6.129  19.680  1.00  0.00    -0.000 C 
BRANCH  20  21
ATOM     21  C   UNL     1      35.466   6.933  20.972  1.00  0.00    -0.000 C 
BRANCH  21  22
ATOM     22  C   UNL     1      35.152   8.439  20.837  1.00  0.00    -0.000 C 
BRANCH  22  23
ATOM     23  C   UNL     1      35.753   9.054  19.560  1.00  0.00    -0.000 C 
BRANCH  23  24
ATOM     24  C   UNL     1      35.282  10.497  19.324  1.00  0.00    -0.000 C 
BRANCH  24  25
ATOM     25  C   UNL     1      33.784  10.579  18.990  1.00  0.00    -0.003 C 
ATOM     26  C   UNL     1      33.290  12.022  19.026  1.00  0.00     0.004 C 
ENDBRANCH  24  25
ENDBRANCH  23  24
ENDBRANCH  22  23
ENDBRANCH  21  22
ENDBRANCH  20  21
ENDBRANCH  19  20
ENDBRANCH  18  19
ENDBRANCH  17  18
ENDBRANCH  16  17
ENDBRANCH  15  16
ENDBRANCH   1  15
TORSDOF 22
ENDMDL
MODEL 2
REMARK VINA RESULT:    -2.883      2.903      6.265
REMARK INTER + INTRA:         -10.677
REMARK INTER:                  -6.841
REMARK INTRA:                  -3.836
REMARK UNBOUND:                -4.087
REMARK SMILES CCCCCCCCCCCCCCCCCCCCCCCC(=O)[O-]
REMARK SMILES IDX 13 1 14 2 15 3 16 4 17 5 18 6 19 7 20 8 21 9 22 10 23 11
REMARK SMILES IDX 24 12 25 13 26 14 12 15 11 16 10 17 9 18 8 19 7 20 6 21 5 22
REMARK SMILES IDX 4 23 3 24 2 25 1 26
REMARK H PARENT
REMARK Flexibility Score: inf
ROOT
ATOM      1  C   UNL     1      31.323   7.474  21.328  1.00  0.00     0.000 C 
ENDROOT
BRANCH   1   2
ATOM      2  C   UNL     1      31.865   6.926  19.998  1.00  0.00     0.000 C 
BRANCH   2   3
ATOM      3  C   UNL     1      31.948   5.392  19.984  1.00  0.00     0.000 C 
BRANCH   3   4
ATOM      4  C   UNL     1      31.987   4.828  21.410  1.00  0.00     0.000 C 
BRANCH   4   5
ATOM      5  C   UNL     1      33.435   4.620  21.875  1.00  0.00     0.000 C 
BRANCH   5   6
ATOM      6  C   UNL     1      34.412   4.393  20.710  1.00  0.00     0.000 C 
BRANCH   6   7
ATOM      7  C   UNL     1      35.682   5.253  20.829  1.00  0.00     0.000 C 
BRANCH   7   8
ATOM      8  C   UNL     1      35.589   6.575  20.044  1.00  0.00     0.000 C 
BRANCH   8   9
ATOM      9  C   UNL     1      35.324   7.828  20.900  1.00  0.00     0.000 C 
BRANCH   9  10
ATOM     10  C   UNL     1      35.257   9.121  20.067  1.00  0.00     0.006 C 
BRANCH  10  11
ATOM     11  C   UNL     1      34.729   8.871  18.648  1.00  0.00     0.053 C 
BRANCH  11  12
ATOM     12  C   UNL     1      34.032  10.077  18.097  1.00  0.00     0.041 C 
ATOM     13  O   UNL     1      33.961  10.256  16.853  1.00  0.00    -0.550 OA
ATOM     14  O   UNL     1      33.487  11.022  18.960  1.00  0.00    -0.550 OA
ENDBRANCH  11  12
ENDBRANCH  10  11
ENDBRANCH   9  10
ENDBRANCH   8   9
ENDBRANCH   7   8
ENDBRANCH   6   7
ENDBRANCH   5   6
ENDBRANCH   4   5
ENDBRANCH   3   4
ENDBRANCH   2   3
ENDBRANCH   1   2
BRANCH   1  15
ATOM     15  C   UNL     1      31.986   8.803  21.733  1.00  0.00     0.000 C 
BRANCH  15  16
ATOM     16  C   UNL     1      31.249   9.509  22.882  1.00  0.00     0.000 C 
BRANCH  16  17
ATOM     17  C   UNL     1      31.871  10.872  23.232  1.00  0.00     0.000 C 
BRANCH  17  18
ATOM     18  C   UNL     1      33.113  11.200  22.386  1.00  0.00    -0.000 C 
BRANCH  18  19
ATOM     19  C   UNL     1      34.281  11.853  23.154  1.00  0.00    -0.000 C 
BRANCH  19  20
ATOM     20  C   UNL     1      35.583  11.034  23.187  1.00  0.00    -0.000 C 
BRANCH  20  21
ATOM     21  C   UNL     1      36.784  11.694  22.479  1.00  0.00    -0.000 C 
BRANCH  21  22
ATOM     22  C   UNL     1      38.139  11.028  22.802  1.00  0.00    -0.000 C 
BRANCH  22  23
ATOM     23  C   UNL     1      38.225   9.583  22.280  1.00  0.00    -0.000 C 
BRANCH  23  24
ATOM     24  C   UNL     1      38.193   8.544  23.412  1.00  0.00    -0.000 C 
BRANCH  24  25
ATOM     25  C   UNL     1      38.410   7.111  22.900  1.00  0.00    -0.003 C 
ATOM     26  C   UNL     1      37.783   6.089  23.844  1.00  0.00     0.004 C 
ENDBRANCH  24  25
ENDBRANCH  23  24
ENDBRANCH  22  23
ENDBRANCH  21  22
ENDBRANCH  20  21
ENDBRANCH  19  20
ENDBRANCH  18  19
ENDBRANCH  17  18
ENDBRANCH  16  17
ENDBRANCH  15  16
ENDBRANCH   1  15
TORSDOF 22
ENDMDL
MODEL 3
REMARK VINA RESULT:    -2.829      2.964      5.788
REMARK INTER + INTRA:         -10.554
REMARK INTER:                  -7.003
REMARK INTRA:                  -3.552
REMARK UNBOUND:                -4.087
REMARK SMILES CCCCCCCCCCCCCCCCCCCCCCCC(=O)[O-]
REMARK SMILES IDX 13 1 14 2 15 3 16 4 17 5 18 6 19 7 20 8 21 9 22 10 23 11
REMARK SMILES IDX 24 12 25 13 26 14 12 15 11 16 10 17 9 18 8 19 7 20 6 21 5 22
REMARK SMILES IDX 4 23 3 24 2 25 1 26
REMARK H PARENT
REMARK Flexibility Score: inf
ROOT
ATOM      1  C   UNL     1      34.976  11.273  23.356  1.00  0.00     0.000 C 
ENDROOT
BRANCH   1   2
ATOM      2  C   UNL     1      34.034  12.105  22.470  1.00  0.00     0.000 C 
BRANCH   2   3
ATOM      3  C   UNL     1      32.618  11.514  22.399  1.00  0.00     0.000 C 
BRANCH   3   4
ATOM      4  C   UNL     1      32.607  10.051  22.859  1.00  0.00     0.000 C 
BRANCH   4   5
ATOM      5  C   UNL     1      31.188   9.468  22.791  1.00  0.00     0.000 C 
BRANCH   5   6
ATOM      6  C   UNL     1      31.125   8.129  22.040  1.00  0.00     0.000 C 
BRANCH   6   7
ATOM      7  C   UNL     1      32.232   7.994  20.981  1.00  0.00     0.000 C 
BRANCH   7   8
ATOM      8  C   UNL     1      32.704   6.541  20.786  1.00  0.00     0.000 C 
BRANCH   8   9
ATOM      9  C   UNL     1      31.857   5.474  21.505  1.00  0.00     0.000 C 
BRANCH   9  10
ATOM     10  C   UNL     1      32.699   4.313  22.065  1.00  0.00     0.006 C 
BRANCH  10  11
ATOM     11  C   UNL     1      33.389   3.510  20.954  1.00  0.00     0.053 C 
BRANCH  11  12
ATOM     12  C   UNL     1      32.619   2.272  20.606  1.00  0.00     0.041 C 
ATOM     13  O   UNL     1      31.544   2.355  19.956  1.00  0.00    -0.550 OA
ATOM     14  O   UNL     1      33.073   1.028  21.030  1.00  0.00    -0.550 OA
ENDBRANCH  11  12
ENDBRANCH  10  11
ENDBRANCH   9  10
ENDBRANCH   8   9
ENDBRANCH   7   8
ENDBRANCH   6   7
ENDBRANCH   5   6
ENDBRANCH   4   5
ENDBRANCH   3   4
ENDBRANCH   2   3
ENDBRANCH   1   2
BRANCH   1  15
ATOM     15  C   UNL     1      36.390  11.147  22.759  1.00  0.00     0.000 C 
BRANCH  15  16
ATOM     16  C   UNL     1      37.113   9.869  23.211  1.00  0.00     0.000 C 
BRANCH  16  17
ATOM     17  C   UNL     1      37.260   8.841  22.075  1.00  0.00     0.000 C 
BRANCH  17  18
ATOM     18  C   UNL     1      35.907   8.370  21.515  1.00  0.00    -0.000 C 
BRANCH  18  19
ATOM     19  C   UNL     1      35.913   7.972  20.024  1.00  0.00    -0.000 C 
BRANCH  19  20
ATOM     20  C   UNL     1      35.627   9.119  19.038  1.00  0.00    -0.000 C 
BRANCH  20  21
ATOM     21  C   UNL     1      34.627  10.177  19.545  1.00  0.00    -0.000 C 
BRANCH  21  22
ATOM     22  C   UNL     1      33.614  10.637  18.474  1.00  0.00    -0.000 C 
BRANCH  22  23
ATOM     23  C   UNL     1      33.575   9.697  17.256  1.00  0.00    -0.000 C 
BRANCH  23  24
ATOM     24  C   UNL     1      32.527   8.583  17.405  1.00  0.00    -0.000 C 
BRANCH  24  25
ATOM     25  C   UNL     1      32.910   7.310  16.634  1.00  0.00    -0.003 C 
ATOM     26  C   UNL     1      32.272   6.074  17.261  1.00  0.00     0.004 C 
ENDBRANCH  24  25
ENDBRANCH  23  24
ENDBRANCH  22  23
ENDBRANCH  21  22
ENDBRANCH  20  21
ENDBRANCH  19  20
ENDBRANCH  18  19
ENDBRANCH  17  18
ENDBRANCH  16  17
ENDBRANCH  15  16
ENDBRANCH   1  15
TORSDOF 22
ENDMDL
MODEL 4
REMARK VINA RESULT:    -2.784      1.347      4.626
REMARK INTER + INTRA:         -10.452
REMARK INTER:                  -6.757
REMARK INTRA:                  -3.695
REMARK UNBOUND:                -4.087
REMARK SMILES CCCCCCCCCCCCCCCCCCCCCCCC(=O)[O-]
REMARK SMILES IDX 13 1 14 2 15 3 16 4 17 5 18 6 19 7 20 8 21 9 22 10 23 11
REMARK SMILES IDX 24 12 25 13 26 14 12 15 11 16 10 17 9 18 8 19 7 20 6 21 5 22
REMARK SMILES IDX 4 23 3 24 2 25 1 26
REMARK H PARENT
REMARK Flexibility Score: inf
ROOT
ATOM      1  C   UNL     1      31.107   7.478  21.601  1.00  0.00     0.000 C 
ENDROOT
BRANCH   1   2
ATOM      2  C   UNL     1      31.778   6.627  20.511  1.00  0.00     0.000 C 
BRANCH   2   3
ATOM      3  C   UNL     1      31.676   5.121  20.793  1.00  0.00     0.000 C 
BRANCH   3   4
ATOM      4  C   UNL     1      32.739   4.676  21.806  1.00  0.00     0.000 C 
BRANCH   4   5
ATOM      5  C   UNL     1      33.987   4.144  21.089  1.00  0.00     0.000 C 
BRANCH   5   6
ATOM      6  C   UNL     1      33.860   4.180  19.557  1.00  0.00     0.000 C 
BRANCH   6   7
ATOM      7  C   UNL     1      34.936   5.059  18.897  1.00  0.00     0.000 C 
BRANCH   7   8
ATOM      8  C   UNL     1      35.470   6.160  19.832  1.00  0.00     0.000 C 
BRANCH   8   9
ATOM      9  C   UNL     1      37.006   6.271  19.903  1.00  0.00     0.000 C 
BRANCH   9  10
ATOM     10  C   UNL     1      37.591   5.688  21.202  1.00  0.00     0.006 C 
BRANCH  10  11
ATOM     11  C   UNL     1      36.881   6.228  22.451  1.00  0.00     0.053 C 
BRANCH  11  12
ATOM     12  C   UNL     1      37.846   6.484  23.568  1.00  0.00     0.041 C 
ATOM     13  O   UNL     1      38.409   5.523  24.155  1.00  0.00    -0.550 OA
ATOM     14  O   UNL     1      38.098   7.787  23.984  1.00  0.00    -0.550 OA
ENDBRANCH  11  12
ENDBRANCH  10  11
ENDBRANCH   9  10
ENDBRANCH   8   9
ENDBRANCH   7   8
ENDBRANCH   6   7
ENDBRANCH   5   6
ENDBRANCH   4   5
ENDBRANCH   3   4
ENDBRANCH   2   3
ENDBRANCH   1   2
BRANCH   1  15
ATOM     15  C   UNL     1      31.905   8.754  21.930  1.00  0.00     0.000 C 
BRANCH  15  16
ATOM     16  C   UNL     1      31.200   9.645  22.965  1.00  0.00     0.000 C 
BRANCH  16  17
ATOM     17  C   UNL     1      32.064  10.842  23.397  1.00  0.00     0.000 C 
BRANCH  17  18
ATOM     18  C   UNL     1      33.377  10.952  22.603  1.00  0.00    -0.000 C 
BRANCH  18  19
ATOM     19  C   UNL     1      34.616  11.353  23.430  1.00  0.00    -0.000 C 
BRANCH  19  20
ATOM     20  C   UNL     1      35.917  10.618  23.059  1.00  0.00    -0.000 C 
BRANCH  20  21
ATOM     21  C   UNL     1      35.760   9.517  21.992  1.00  0.00    -0.000 C 
BRANCH  21  22
ATOM     22  C   UNL     1      36.638   9.733  20.741  1.00  0.00    -0.000 C 
BRANCH  22  23
ATOM     23  C   UNL     1      36.398  11.104  20.082  1.00  0.00    -0.000 C 
BRANCH  23  24
ATOM     24  C   UNL     1      35.129  11.127  19.217  1.00  0.00    -0.000 C 
BRANCH  24  25
ATOM     25  C   UNL     1      34.946   9.834  18.406  1.00  0.00    -0.003 C 
ATOM     26  C   UNL     1      33.553   9.248  18.612  1.00  0.00     0.004 C 
ENDBRANCH  24  25
ENDBRANCH  23  24
ENDBRANCH  22  23
ENDBRANCH  21  22
ENDBRANCH  20  21
ENDBRANCH  19  20
ENDBRANCH  18  19
ENDBRANCH  17  18
ENDBRANCH  16  17
ENDBRANCH  15  16
ENDBRANCH   1  15
TORSDOF 22
ENDMDL
MODEL 5
REMARK VINA RESULT:    -2.741      2.556      4.654
REMARK INTER + INTRA:         -10.352
REMARK INTER:                  -6.133
REMARK INTRA:                  -4.219
REMARK UNBOUND:                -4.087
REMARK SMILES CCCCCCCCCCCCCCCCCCCCCCCC(=O)[O-]
REMARK SMILES IDX 13 1 14 2 15 3 16 4 17 5 18 6 19 7 20 8 21 9 22 10 23 11
REMARK SMILES IDX 24 12 25 13 26 14 12 15 11 16 10 17 9 18 8 19 7 20 6 21 5 22
REMARK SMILES IDX 4 23 3 24 2 25 1 26
REMARK H PARENT
REMARK Flexibility Score: inf
ROOT
ATOM      1  C   UNL     1      33.404   6.591  18.615  1.00  0.00     0.000 C 
ENDROOT
BRANCH   1   2
ATOM      2  C   UNL     1      32.789   7.998  18.705  1.00  0.00     0.000 C 
BRANCH   2   3
ATOM      3  C   UNL     1      33.334   8.805  19.893  1.00  0.00     0.000 C 
BRANCH   3   4
ATOM      4  C   UNL     1      32.980   8.133  21.226  1.00  0.00     0.000 C 
BRANCH   4   5
ATOM      5  C   UNL     1      31.478   8.261  21.519  1.00  0.00     0.000 C 
BRANCH   5   6
ATOM      6  C   UNL     1      31.183   9.094  22.777  1.00  0.00     0.000 C 
BRANCH   6   7
ATOM      7  C   UNL     1      31.570  10.573  22.610  1.00  0.00     0.000 C 
BRANCH   7   8
ATOM      8  C   UNL     1      32.736  10.996  23.522  1.00  0.00     0.000 C 
BRANCH   8   9
ATOM      9  C   UNL     1      33.957  11.591  22.793  1.00  0.00     0.000 C 
BRANCH   9  10
ATOM     10  C   UNL     1      35.293  11.001  23.279  1.00  0.00     0.006 C 
BRANCH  10  11
ATOM     11  C   UNL     1      35.978  10.151  22.201  1.00  0.00     0.053 C 
BRANCH  11  12
ATOM     12  C   UNL     1      36.624  11.003  21.151  1.00  0.00     0.041 C 
ATOM     13  O   UNL     1      36.212  10.967  19.962  1.00  0.00    -0.550 OA
ATOM     14  O   UNL     1      37.705  11.813  21.481  1.00  0.00    -0.550 OA
ENDBRANCH  11  12
ENDBRANCH  10  11
ENDBRANCH   9  10
ENDBRANCH   8   9
ENDBRANCH   7   8
ENDBRANCH   6   7
ENDBRANCH   5   6
ENDBRANCH   4   5
ENDBRANCH   3   4
ENDBRANCH   2   3
ENDBRANCH   1   2
BRANCH   1  15
ATOM     15  C   UNL     1      32.364   5.513  18.258  1.00  0.00     0.000 C 
BRANCH  15  16
ATOM     16  C   UNL     1      31.199   5.457  19.259  1.00  0.00     0.000 C 
BRANCH  16  17
ATOM     17  C   UNL     1      31.319   4.278  20.239  1.00  0.00     0.000 C 
BRANCH  17  18
ATOM     18  C   UNL     1      32.001   4.665  21.562  1.00  0.00    -0.000 C 
BRANCH  18  19
ATOM     19  C   UNL     1      33.484   4.256  21.684  1.00  0.00    -0.000 C 
BRANCH  19  20
ATOM     20  C   UNL     1      33.919   3.090  20.778  1.00  0.00    -0.000 C 
BRANCH  20  21
ATOM     21  C   UNL     1      35.004   3.443  19.741  1.00  0.00    -0.000 C 
BRANCH  21  22
ATOM     22  C   UNL     1      36.430   3.033  20.168  1.00  0.00    -0.000 C 
BRANCH  22  23
ATOM     23  C   UNL     1      37.302   4.242  20.550  1.00  0.00    -0.000 C 
BRANCH  23  24
ATOM     24  C   UNL     1      37.031   5.467  19.663  1.00  0.00    -0.000 C 
BRANCH  24  25
ATOM     25  C   UNL     1      36.516   6.672  20.467  1.00  0.00    -0.003 C 
ATOM     26  C   UNL     1      36.645   6.429  21.967  1.00  0.00     0.004 C 
ENDBRANCH  24  25
ENDBRANCH  23  24
ENDBRANCH  22  23
ENDBRANCH  21  22
ENDBRANCH  20  21
ENDBRANCH  19  20
ENDBRANCH  18  19
ENDBRANCH  17  18
ENDBRANCH  16  17
ENDBRANCH  15  16
ENDBRANCH   1  15
TORSDOF 22
ENDMDL
MODEL 6
REMARK VINA RESULT:    -2.718      2.925      4.615
REMARK INTER + INTRA:         -10.300
REMARK INTER:                  -6.581
REMARK INTRA:                  -3.719
REMARK UNBOUND:                -4.087
REMARK SMILES CCCCCCCCCCCCCCCCCCCCCCCC(=O)[O-]
REMARK SMILES IDX 13 1 14 2 15 3 16 4 17 5 18 6 19 7 20 8 21 9 22 10 23 11
REMARK SMILES IDX 24 12 25 13 26 14 12 15 11 16 10 17 9 18 8 19 7 20 6 21 5 22
REMARK SMILES IDX 4 23 3 24 2 25 1 26
REMARK H PARENT
REMARK Flexibility Score: inf
ROOT
ATOM      1  C   UNL     1      31.887   8.698  21.808  1.00  0.00     0.000 C 
ENDROOT
BRANCH   1   2
ATOM      2  C   UNL     1      31.250   9.470  22.975  1.00  0.00     0.000 C 
BRANCH   2   3
ATOM      3  C   UNL     1      32.099  10.671  23.420  1.00  0.00     0.000 C 
BRANCH   3   4
ATOM      4  C   UNL     1      32.551  11.504  22.213  1.00  0.00     0.000 C 
BRANCH   4   5
ATOM      5  C   UNL     1      33.964  12.062  22.435  1.00  0.00     0.000 C 
BRANCH   5   6
ATOM      6  C   UNL     1      34.845  11.141  23.294  1.00  0.00     0.000 C 
BRANCH   6   7
ATOM      7  C   UNL     1      36.321  11.165  22.861  1.00  0.00     0.000 C 
BRANCH   7   8
ATOM      8  C   UNL     1      36.712   9.958  21.988  1.00  0.00     0.000 C 
BRANCH   8   9
ATOM      9  C   UNL     1      35.592   8.925  21.758  1.00  0.00     0.000 C 
BRANCH   9  10
ATOM     10  C   UNL     1      35.474   8.484  20.288  1.00  0.00     0.006 C 
BRANCH  10  11
ATOM     11  C   UNL     1      34.513   9.375  19.490  1.00  0.00     0.053 C 
BRANCH  11  12
ATOM     12  C   UNL     1      34.168   8.768  18.164  1.00  0.00     0.041 C 
ATOM     13  O   UNL     1      34.206   7.520  18.007  1.00  0.00    -0.550 OA
ATOM     14  O   UNL     1      33.837   9.587  17.089  1.00  0.00    -0.550 OA
ENDBRANCH  11  12
ENDBRANCH  10  11
ENDBRANCH   9  10
ENDBRANCH   8   9
ENDBRANCH   7   8
ENDBRANCH   6   7
ENDBRANCH   5   6
ENDBRANCH   4   5
ENDBRANCH   3   4
ENDBRANCH   2   3
ENDBRANCH   1   2
BRANCH   1  15
ATOM     15  C   UNL     1      31.047   7.483  21.375  1.00  0.00     0.000 C 
BRANCH  15  16
ATOM     16  C   UNL     1      31.844   6.482  20.523  1.00  0.00     0.000 C 
BRANCH  16  17
ATOM     17  C   UNL     1      32.466   5.354  21.364  1.00  0.00     0.000 C 
BRANCH  17  18
ATOM     18  C   UNL     1      33.969   5.167  21.097  1.00  0.00    -0.000 C 
BRANCH  18  19
ATOM     19  C   UNL     1      34.318   4.417  19.794  1.00  0.00    -0.000 C 
BRANCH  19  20
ATOM     20  C   UNL     1      35.779   3.947  19.680  1.00  0.00    -0.000 C 
BRANCH  20  21
ATOM     21  C   UNL     1      36.822   5.079  19.599  1.00  0.00    -0.000 C 
BRANCH  21  22
ATOM     22  C   UNL     1      37.914   4.998  20.688  1.00  0.00    -0.000 C 
BRANCH  22  23
ATOM     23  C   UNL     1      37.535   5.775  21.962  1.00  0.00    -0.000 C 
BRANCH  23  24
ATOM     24  C   UNL     1      38.584   6.832  22.341  1.00  0.00    -0.000 C 
BRANCH  24  25
ATOM     25  C   UNL     1      39.126   6.637  23.766  1.00  0.00    -0.003 C 
ATOM     26  C   UNL     1      38.271   7.381  24.786  1.00  0.00     0.004 C 
ENDBRANCH  24  25
ENDBRANCH  23  24
ENDBRANCH  22  23
ENDBRANCH  21  22
ENDBRANCH  20  21
ENDBRANCH  19  20
ENDBRANCH  18  19
ENDBRANCH  17  18
ENDBRANCH  16  17
ENDBRANCH  15  16
ENDBRANCH   1  15
TORSDOF 22
ENDMDL
MODEL 7
REMARK VINA RESULT:    -2.714      1.400      5.296
REMARK INTER + INTRA:         -10.291
REMARK INTER:                  -6.723
REMARK INTRA:                  -3.568
REMARK UNBOUND:                -4.087
REMARK SMILES CCCCCCCCCCCCCCCCCCCCCCCC(=O)[O-]
REMARK SMILES IDX 13 1 14 2 15 3 16 4 17 5 18 6 19 7 20 8 21 9 22 10 23 11
REMARK SMILES IDX 24 12 25 13 26 14 12 15 11 16 10 17 9 18 8 19 7 20 6 21 5 22
REMARK SMILES IDX 4 23 3 24 2 25 1 26
REMARK H PARENT
REMARK Flexibility Score: inf
ROOT
ATOM      1  C   UNL     1      37.152  11.515  22.677  1.00  0.00     0.000 C 
ENDROOT
BRANCH   1   2
ATOM      2  C   UNL     1      36.989  12.072  21.253  1.00  0.00     0.000 C 
BRANCH   2   3
ATOM      3  C   UNL     1      37.300  11.025  20.173  1.00  0.00     0.000 C 
BRANCH   3   4
ATOM      4  C   UNL     1      36.056  10.716  19.329  1.00  0.00     0.000 C 
BRANCH   4   5
ATOM      5  C   UNL     1      35.928   9.207  19.080  1.00  0.00     0.000 C 
BRANCH   5   6
ATOM      6  C   UNL     1      34.781   8.563  19.876  1.00  0.00     0.000 C 
BRANCH   6   7
ATOM      7  C   UNL     1      35.288   7.648  21.004  1.00  0.00     0.000 C 
BRANCH   7   8
ATOM      8  C   UNL     1      36.347   6.637  20.528  1.00  0.00     0.000 C 
BRANCH   8   9
ATOM      9  C   UNL     1      37.337   6.165  21.611  1.00  0.00     0.000 C 
BRANCH   9  10
ATOM     10  C   UNL     1      37.300   7.037  22.879  1.00  0.00     0.006 C 
BRANCH  10  11
ATOM     11  C   UNL     1      38.490   8.002  22.954  1.00  0.00     0.053 C 
BRANCH  11  12
ATOM     12  C   UNL     1      39.771   7.334  22.557  1.00  0.00     0.041 C 
ATOM     13  O   UNL     1      40.365   6.569  23.362  1.00  0.00    -0.550 OA
ATOM     14  O   UNL     1      40.327   7.583  21.307  1.00  0.00    -0.550 OA
ENDBRANCH  11  12
ENDBRANCH  10  11
ENDBRANCH   9  10
ENDBRANCH   8   9
ENDBRANCH   7   8
ENDBRANCH   6   7
ENDBRANCH   5   6
ENDBRANCH   4   5
ENDBRANCH   3   4
ENDBRANCH   2   3
ENDBRANCH   1   2
BRANCH   1  15
ATOM     15  C   UNL     1      35.997  10.581  23.082  1.00  0.00     0.000 C 
BRANCH  15  16
ATOM     16  C   UNL     1      34.700  11.342  23.397  1.00  0.00     0.000 C 
BRANCH  16  17
ATOM     17  C   UNL     1      33.504  10.836  22.573  1.00  0.00     0.000 C 
BRANCH  17  18
ATOM     18  C   UNL     1      32.236  10.633  23.419  1.00  0.00    -0.000 C 
BRANCH  18  19
ATOM     19  C   UNL     1      31.260   9.558  22.897  1.00  0.00    -0.000 C 
BRANCH  19  20
ATOM     20  C   UNL     1      31.804   8.676  21.759  1.00  0.00    -0.000 C 
BRANCH  20  21
ATOM     21  C   UNL     1      31.136   7.293  21.632  1.00  0.00    -0.000 C 
BRANCH  21  22
ATOM     22  C   UNL     1      31.753   6.402  20.532  1.00  0.00    -0.000 C 
BRANCH  22  23
ATOM     23  C   UNL     1      31.227   4.956  20.580  1.00  0.00    -0.000 C 
BRANCH  23  24
ATOM     24  C   UNL     1      31.890   4.125  21.690  1.00  0.00    -0.000 C 
BRANCH  24  25
ATOM     25  C   UNL     1      33.405   4.371  21.782  1.00  0.00    -0.003 C 
ATOM     26  C   UNL     1      34.156   3.583  20.715  1.00  0.00     0.004 C 
ENDBRANCH  24  25
ENDBRANCH  23  24
ENDBRANCH  22  23
ENDBRANCH  21  22
ENDBRANCH  20  21
ENDBRANCH  19  20
ENDBRANCH  18  19
ENDBRANCH  17  18
ENDBRANCH  16  17
ENDBRANCH  15  16
ENDBRANCH   1  15
TORSDOF 22
ENDMDL
MODEL 8
REMARK VINA RESULT:    -2.705      1.271      2.685
REMARK INTER + INTRA:         -10.272
REMARK INTER:                  -6.051
REMARK INTRA:                  -4.221
REMARK UNBOUND:                -4.087
REMARK SMILES CCCCCCCCCCCCCCCCCCCCCCCC(=O)[O-]
REMARK SMILES IDX 13 1 14 2 15 3 16 4 17 5 18 6 19 7 20 8 21 9 22 10 23 11
REMARK SMILES IDX 24 12 25 13 26 14 12 15 11 16 10 17 9 18 8 19 7 20 6 21 5 22
REMARK SMILES IDX 4 23 3 24 2 25 1 26
REMARK H PARENT
REMARK Flexibility Score: inf
ROOT
ATOM      1  C   UNL     1      32.004   5.866  21.207  1.00  0.00     0.000 C 
ENDROOT
BRANCH   1   2
ATOM      2  C   UNL     1      31.144   7.131  21.362  1.00  0.00     0.000 C 
BRANCH   2   3
ATOM      3  C   UNL     1      31.978   8.371  21.719  1.00  0.00     0.000 C 
BRANCH   3   4
ATOM      4  C   UNL     1      31.231   9.271  22.711  1.00  0.00     0.000 C 
BRANCH   4   5
ATOM      5  C   UNL     1      31.736  10.718  22.622  1.00  0.00     0.000 C 
BRANCH   5   6
ATOM      6  C   UNL     1      32.885  11.013  23.600  1.00  0.00     0.000 C 
BRANCH   6   7
ATOM      7  C   UNL     1      34.151  11.519  22.888  1.00  0.00     0.000 C 
BRANCH   7   8
ATOM      8  C   UNL     1      35.116  10.385  22.497  1.00  0.00     0.000 C 
BRANCH   8   9
ATOM      9  C   UNL     1      36.608  10.676  22.750  1.00  0.00     0.000 C 
BRANCH   9  10
ATOM     10  C   UNL     1      37.342   9.506  23.429  1.00  0.00     0.006 C 
BRANCH  10  11
ATOM     11  C   UNL     1      38.860   9.569  23.211  1.00  0.00     0.053 C 
BRANCH  11  12
ATOM     12  C   UNL     1      39.448   8.204  23.016  1.00  0.00     0.041 C 
ATOM     13  O   UNL     1      38.715   7.183  23.073  1.00  0.00    -0.550 OA
ATOM     14  O   UNL     1      40.815   8.060  22.805  1.00  0.00    -0.550 OA
ENDBRANCH  11  12
ENDBRANCH  10  11
ENDBRANCH   9  10
ENDBRANCH   8   9
ENDBRANCH   7   8
ENDBRANCH   6   7
ENDBRANCH   5   6
ENDBRANCH   4   5
ENDBRANCH   3   4
ENDBRANCH   2   3
ENDBRANCH   1   2
BRANCH   1  15
ATOM     15  C   UNL     1      32.455   5.634  19.753  1.00  0.00     0.000 C 
BRANCH  15  16
ATOM     16  C   UNL     1      33.972   5.796  19.569  1.00  0.00     0.000 C 
BRANCH  16  17
ATOM     17  C   UNL     1      34.721   5.900  20.909  1.00  0.00     0.000 C 
BRANCH  17  18
ATOM     18  C   UNL     1      35.647   7.126  20.984  1.00  0.00    -0.000 C 
BRANCH  18  19
ATOM     19  C   UNL     1      36.752   7.185  19.909  1.00  0.00    -0.000 C 
BRANCH  19  20
ATOM     20  C   UNL     1      37.558   8.495  19.869  1.00  0.00    -0.000 C 
BRANCH  20  21
ATOM     21  C   UNL     1      37.408   9.312  18.570  1.00  0.00    -0.000 C 
BRANCH  21  22
ATOM     22  C   UNL     1      36.915  10.757  18.797  1.00  0.00    -0.000 C 
BRANCH  22  23
ATOM     23  C   UNL     1      35.581  11.044  18.086  1.00  0.00    -0.000 C 
BRANCH  23  24
ATOM     24  C   UNL     1      34.391  11.077  19.058  1.00  0.00    -0.000 C 
BRANCH  24  25
ATOM     25  C   UNL     1      33.616   9.750  19.082  1.00  0.00    -0.003 C 
ATOM     26  C   UNL     1      33.796   8.983  17.776  1.00  0.00     0.004 C 
ENDBRANCH  24  25
ENDBRANCH  23  24
ENDBRANCH  22  23
ENDBRANCH  21  22
ENDBRANCH  20  21
ENDBRANCH  19  20
ENDBRANCH  18  19
ENDBRANCH  17  18
ENDBRANCH  16  17
ENDBRANCH  15  16
ENDBRANCH   1  15
TORSDOF 22
ENDMDL
MODEL 9
REMARK VINA RESULT:    -2.030      2.598      5.611
REMARK INTER + INTRA:          -8.728
REMARK INTER:                  -4.950
REMARK INTRA:                  -3.778
REMARK UNBOUND:                -4.087
REMARK SMILES CCCCCCCCCCCCCCCCCCCCCCCC(=O)[O-]
REMARK SMILES IDX 13 1 14 2 15 3 16 4 17 5 18 6 19 7 20 8 21 9 22 10 23 11
REMARK SMILES IDX 24 12 25 13 26 14 12 15 11 16 10 17 9 18 8 19 7 20 6 21 5 22
REMARK SMILES IDX 4 23 3 24 2 25 1 26
REMARK H PARENT
REMARK Flexibility Score: inf
ROOT
ATOM      1  C   UNL     1      36.479  10.302  23.265  1.00  0.00     0.000 C 
ENDROOT
BRANCH   1   2
ATOM      2  C   UNL     1      36.253  11.576  22.436  1.00  0.00     0.000 C 
BRANCH   2   3
ATOM      3  C   UNL     1      34.781  12.016  22.420  1.00  0.00     0.000 C 
BRANCH   3   4
ATOM      4  C   UNL     1      33.909  11.054  23.237  1.00  0.00     0.000 C 
BRANCH   4   5
ATOM      5  C   UNL     1      32.755  10.507  22.386  1.00  0.00     0.000 C 
BRANCH   5   6
ATOM      6  C   UNL     1      31.564  10.025  23.230  1.00  0.00     0.000 C 
BRANCH   6   7
ATOM      7  C   UNL     1      30.875   8.789  22.626  1.00  0.00     0.000 C 
BRANCH   7   8
ATOM      8  C   UNL     1      31.755   8.051  21.600  1.00  0.00     0.000 C 
BRANCH   8   9
ATOM      9  C   UNL     1      31.058   6.903  20.845  1.00  0.00     0.000 C 
BRANCH   9  10
ATOM     10  C   UNL     1      31.870   6.397  19.639  1.00  0.00     0.006 C 
BRANCH  10  11
ATOM     11  C   UNL     1      32.855   5.287  20.028  1.00  0.00     0.053 C 
BRANCH  11  12
ATOM     12  C   UNL     1      32.182   4.195  20.802  1.00  0.00     0.041 C 
ATOM     13  O   UNL     1      32.442   4.028  22.022  1.00  0.00    -0.550 OA
ATOM     14  O   UNL     1      31.291   3.338  20.164  1.00  0.00    -0.550 OA
ENDBRANCH  11  12
ENDBRANCH  10  11
ENDBRANCH   9  10
ENDBRANCH   8   9
ENDBRANCH   7   8
ENDBRANCH   6   7
ENDBRANCH   5   6
ENDBRANCH   4   5
ENDBRANCH   3   4
ENDBRANCH   2   3
ENDBRANCH   1   2
BRANCH   1  15
ATOM     15  C   UNL     1      37.922   9.776  23.159  1.00  0.00     0.000 C 
BRANCH  15  16
ATOM     16  C   UNL     1      38.097   8.389  23.797  1.00  0.00     0.000 C 
BRANCH  16  17
ATOM     17  C   UNL     1      39.129   7.523  23.053  1.00  0.00     0.000 C 
BRANCH  17  18
ATOM     18  C   UNL     1      39.052   7.680  21.525  1.00  0.00    -0.000 C 
BRANCH  18  19
ATOM     19  C   UNL     1      38.431   6.485  20.771  1.00  0.00    -0.000 C 
BRANCH  19  20
ATOM     20  C   UNL     1      37.231   5.821  21.469  1.00  0.00    -0.000 C 
BRANCH  20  21
ATOM     21  C   UNL     1      35.900   6.589  21.343  1.00  0.00    -0.000 C 
BRANCH  21  22
ATOM     22  C   UNL     1      35.777   7.411  20.042  1.00  0.00    -0.000 C 
BRANCH  22  23
ATOM     23  C   UNL     1      35.151   8.798  20.278  1.00  0.00    -0.000 C 
BRANCH  23  24
ATOM     24  C   UNL     1      34.279   9.258  19.100  1.00  0.00    -0.000 C 
BRANCH  24  25
ATOM     25  C   UNL     1      34.635  10.676  18.625  1.00  0.00    -0.003 C 
ATOM     26  C   UNL     1      33.519  11.663  18.954  1.00  0.00     0.004 C 
ENDBRANCH  24  25
ENDBRANCH  23  24
ENDBRANCH  22  23
ENDBRANCH  21  22
ENDBRANCH  20  21
ENDBRANCH  19  20
ENDBRANCH  18  19
ENDBRANCH  17  18
ENDBRANCH  16  17
ENDBRANCH  15  16
ENDBRANCH   1  15
TORSDOF 22
ENDMDL
