MODEL 1
REMARK VINA RESULT:    26.041      0.000      0.000
REMARK INTER + INTRA:          39.091
REMARK INTER:                  38.219
REMARK INTRA:                   0.871
REMARK UNBOUND:                 0.871
REMARK SMILES O=c1c(O[C@@H]2O[C@H](CO)[C@H](O)[C@H](O)[C@H]2O)c(-c2ccc(O)c(O)c2)oc2cc(O)cc(O)c12
REMARK SMILES IDX 4 1 3 2 16 3 25 4 2 5 26 6 1 7 33 8 27 9 31 10 28 11 30 12
REMARK SMILES IDX 17 13 18 14 19 15 20 16 24 17 22 18 21 19 23 21 32 23 29 25
REMARK SMILES IDX 5 27 14 28 6 29 12 30 7 31 10 32 15 33 13 35 8 37 9 38 11 40
REMARK H PARENT 21 20 23 22 32 24 29 26 15 34 13 36 9 39 11 41
REMARK Flexibility Score: inf
ROOT
ATOM      1  O   UNL     1      26.985   6.781   0.658  1.00  0.00    -0.454 OA
ENDROOT
BRANCH   1   2
ATOM      2  C   UNL     1      27.334   7.928  -0.084  1.00  0.00     0.214 A 
ATOM      3  C   UNL     1      28.149   8.947   0.542  1.00  0.00     0.180 A 
ATOM      4  O   UNL     1      28.590   9.968  -0.168  1.00  0.00    -0.452 OA
ATOM      5  C   UNL     1      26.816   8.220  -1.369  1.00  0.00     0.239 A 
ATOM      6  C   UNL     1      28.199  10.207  -1.405  1.00  0.00     0.146 A 
ATOM      7  O   UNL     1      25.873   7.524  -1.822  1.00  0.00    -0.285 OA
ATOM      8  C   UNL     1      27.216   9.425  -2.001  1.00  0.00     0.111 A 
ATOM      9  C   UNL     1      28.801  11.266  -2.071  1.00  0.00     0.094 A 
ATOM     10  C   UNL     1      26.840   9.738  -3.348  1.00  0.00     0.134 A 
ATOM     11  C   UNL     1      28.453  11.545  -3.403  1.00  0.00     0.123 A 
ATOM     12  C   UNL     1      27.413  10.821  -3.999  1.00  0.00     0.093 A 
BRANCH   3  13
ATOM     13  C   UNL     1      28.583   8.802   1.944  1.00  0.00     0.025 A 
ATOM     14  C   UNL     1      29.113   7.578   2.373  1.00  0.00     0.016 A 
ATOM     15  C   UNL     1      28.848   7.202   3.684  1.00  0.00     0.051 A 
ATOM     16  C   UNL     1      28.586   8.177   4.654  1.00  0.00     0.157 A 
ATOM     17  C   UNL     1      28.481   9.870   2.868  1.00  0.00     0.062 A 
ATOM     18  C   UNL     1      28.591   9.546   4.268  1.00  0.00     0.158 A 
BRANCH  16  19
ATOM     19  O   UNL     1      28.159   7.807   5.941  1.00  0.00    -0.504 OA
ATOM     20  H   UNL     1      27.202   7.497   6.107  1.00  0.00     0.293 HD
ENDBRANCH  16  19
BRANCH  18  21
ATOM     21  O   UNL     1      29.090  10.475   5.240  1.00  0.00    -0.504 OA
ATOM     22  H   UNL     1      28.543  11.329   5.440  1.00  0.00     0.293 HD
ENDBRANCH  18  21
ENDBRANCH   3  13
BRANCH  10  23
ATOM     23  O   UNL     1      25.968   8.909  -4.084  1.00  0.00    -0.507 OA
ATOM     24  H   UNL     1      25.298   9.345  -4.736  1.00  0.00     0.293 HD
ENDBRANCH  10  23
BRANCH  11  25
ATOM     25  O   UNL     1      29.122  12.509  -4.122  1.00  0.00    -0.508 OA
ATOM     26  H   UNL     1      29.131  12.502  -5.129  1.00  0.00     0.293 HD
ENDBRANCH  11  25
ENDBRANCH   1   2
BRANCH   1  27
ATOM     27  C   UNL     1      27.211   5.396   0.271  1.00  0.00     0.339 C 
ATOM     28  C   UNL     1      26.323   4.873  -0.984  1.00  0.00     0.214 C 
ATOM     29  O   UNL     1      28.642   5.199   0.160  1.00  0.00    -0.332 OA
ATOM     30  C   UNL     1      26.685   3.386  -1.368  1.00  0.00     0.180 C 
ATOM     31  C   UNL     1      28.980   4.355  -0.906  1.00  0.00     0.179 C 
ATOM     32  C   UNL     1      28.047   3.082  -0.792  1.00  0.00     0.177 C 
BRANCH  28  33
ATOM     33  O   UNL     1      24.956   4.959  -0.712  1.00  0.00    -0.384 OA
ATOM     34  H   UNL     1      24.509   4.989  -1.636  1.00  0.00     0.211 HD
ENDBRANCH  28  33
BRANCH  30  35
ATOM     35  O   UNL     1      26.632   3.146  -2.777  1.00  0.00    -0.387 OA
ATOM     36  H   UNL     1      25.980   3.756  -3.199  1.00  0.00     0.211 HD
ENDBRANCH  30  35
BRANCH  31  37
ATOM     37  C   UNL     1      29.125   5.222  -2.219  1.00  0.00     0.191 C 
BRANCH  37  38
ATOM     38  O   UNL     1      28.814   6.621  -2.099  1.00  0.00    -0.394 OA
ATOM     39  H   UNL     1      27.907   6.796  -2.459  1.00  0.00     0.210 HD
ENDBRANCH  37  38
ENDBRANCH  31  37
BRANCH  32  40
ATOM     40  O   UNL     1      28.672   1.873  -1.223  1.00  0.00    -0.387 OA
ATOM     41  H   UNL     1      28.008   1.136  -1.099  1.00  0.00     0.211 HD
ENDBRANCH  32  40
ENDBRANCH   1  27
TORSDOF 12
ENDMDL
