MODEL 1
REMARK VINA RESULT:    -7.372      0.000      0.000
REMARK INTER + INTRA:         -16.159
REMARK INTER:                 -12.975
REMARK INTRA:                  -3.184
REMARK UNBOUND:                -3.184
REMARK SMILES COc1cc(-c2[o+]c3cc(O)cc(O[C@H]4O[C@@H](CO)[C@@H](O)[C@@H](O)[C@H]4O)c3cc2O[C@@H]2O[C@H](CO)[C@@H](O)[C@@H](O)[C@H]2O)ccc1O
REMARK SMILES IDX 6 1 28 2 27 3 26 4 13 5 12 6 10 7 9 8 8 9 7 10 5 11 3 12
REMARK SMILES IDX 43 13 4 14 42 15 41 16 2 17 1 18 44 19 29 21 30 22 39 23
REMARK SMILES IDX 31 24 37 25 32 26 35 27 40 28 38 30 33 32 34 33 36 35 14 37
REMARK SMILES IDX 15 38 24 39 16 40 22 41 17 42 20 43 25 44 23 46 18 48 19 49
REMARK SMILES IDX 21 51 11 53
REMARK H PARENT 44 20 40 29 38 31 34 34 36 36 25 45 23 47 19 50 21 52 11 54
REMARK Flexibility Score: inf
ROOT
ATOM      1  C   UNL     1      -0.183 -17.000  25.499  1.00  0.00     0.402 A 
ATOM      2  C   UNL     1      -1.344 -17.110  26.294  1.00  0.00     0.229 A 
ATOM      3  C   UNL     1      -1.947 -15.934  26.764  1.00  0.00     0.079 A 
ATOM      4  C   UNL     1      -1.415 -14.686  26.412  1.00  0.00     0.126 A 
ATOM      5  C   UNL     1      -1.967 -13.475  26.883  1.00  0.00     0.143 A 
ATOM      6  C   UNL     1      -1.444 -12.254  26.403  1.00  0.00     0.094 A 
ATOM      7  C   UNL     1      -0.352 -12.241  25.525  1.00  0.00     0.128 A 
ATOM      8  C   UNL     1       0.223 -13.444  25.112  1.00  0.00     0.162 A 
ATOM      9  C   UNL     1      -0.299 -14.664  25.550  1.00  0.00     0.368 A 
ATOM     10  O   UNL     1       0.264 -15.797  25.148  1.00  0.00    -0.202 OA
ENDROOT
BRANCH   1  11
ATOM     11  C   UNL     1       0.538 -18.189  24.988  1.00  0.00     0.087 A 
ATOM     12  C   UNL     1       2.383 -19.787  25.114  1.00  0.00     0.161 A 
ATOM     13  C   UNL     1       1.896 -20.426  23.947  1.00  0.00     0.157 A 
ATOM     14  C   UNL     1       1.703 -18.669  25.612  1.00  0.00     0.068 A 
ATOM     15  C   UNL     1       0.746 -19.935  23.315  1.00  0.00     0.051 A 
ATOM     16  C   UNL     1       0.076 -18.824  23.828  1.00  0.00     0.022 A 
BRANCH  12  17
ATOM     17  O   UNL     1       3.525 -20.204  25.820  1.00  0.00    -0.493 OA
ATOM     18  C   UNL     1       3.564 -21.205  26.835  1.00  0.00     0.278 C 
ENDBRANCH  12  17
BRANCH  13  19
ATOM     19  O   UNL     1       2.546 -21.533  23.404  1.00  0.00    -0.504 OA
ATOM     20  H   UNL     1       3.396 -21.438  22.859  1.00  0.00     0.293 HD
ENDBRANCH  13  19
ENDBRANCH   1  11
BRANCH   2  21
ATOM     21  O   UNL     1      -1.880 -18.378  26.571  1.00  0.00    -0.452 OA
BRANCH  21  22
ATOM     22  C   UNL     1      -1.645 -19.125  27.770  1.00  0.00     0.339 C 
ATOM     23  C   UNL     1      -0.950 -20.478  27.463  1.00  0.00     0.214 C 
ATOM     24  O   UNL     1      -0.885 -18.351  28.685  1.00  0.00    -0.332 OA
ATOM     25  C   UNL     1       0.110 -20.792  28.537  1.00  0.00     0.180 C 
ATOM     26  C   UNL     1      -0.909 -18.947  29.974  1.00  0.00     0.179 C 
ATOM     27  C   UNL     1      -0.399 -20.424  29.948  1.00  0.00     0.177 C 
BRANCH  23  28
ATOM     28  O   UNL     1      -1.907 -21.506  27.430  1.00  0.00    -0.384 OA
ATOM     29  H   UNL     1      -2.787 -21.071  27.285  1.00  0.00     0.211 HD
ENDBRANCH  23  28
BRANCH  25  30
ATOM     30  O   UNL     1       0.482 -22.145  28.465  1.00  0.00    -0.387 OA
ATOM     31  H   UNL     1      -0.261 -22.622  28.014  1.00  0.00     0.211 HD
ENDBRANCH  25  30
BRANCH  26  32
ATOM     32  C   UNL     1      -0.062 -18.088  30.925  1.00  0.00     0.191 C 
BRANCH  32  33
ATOM     33  O   UNL     1      -0.672 -16.841  31.130  1.00  0.00    -0.394 OA
ATOM     34  H   UNL     1      -0.021 -16.152  30.834  1.00  0.00     0.210 HD
ENDBRANCH  32  33
ENDBRANCH  26  32
BRANCH  27  35
ATOM     35  O   UNL     1      -1.446 -21.281  30.327  1.00  0.00    -0.387 OA
ATOM     36  H   UNL     1      -1.539 -21.212  31.312  1.00  0.00     0.211 HD
ENDBRANCH  27  35
ENDBRANCH  21  22
ENDBRANCH   2  21
BRANCH   5  37
ATOM     37  O   UNL     1      -3.002 -13.520  27.837  1.00  0.00    -0.461 OA
BRANCH  37  38
ATOM     38  C   UNL     1      -3.059 -12.740  29.035  1.00  0.00     0.339 C 
ATOM     39  C   UNL     1      -2.463 -13.494  30.244  1.00  0.00     0.214 C 
ATOM     40  O   UNL     1      -4.373 -12.264  29.286  1.00  0.00    -0.332 OA
ATOM     41  C   UNL     1      -3.386 -14.612  30.762  1.00  0.00     0.180 C 
ATOM     42  C   UNL     1      -5.301 -13.285  29.635  1.00  0.00     0.179 C 
ATOM     43  C   UNL     1      -4.844 -14.126  30.857  1.00  0.00     0.177 C 
BRANCH  39  44
ATOM     44  O   UNL     1      -1.203 -14.025  29.919  1.00  0.00    -0.384 OA
ATOM     45  H   UNL     1      -0.624 -13.255  29.675  1.00  0.00     0.211 HD
ENDBRANCH  39  44
BRANCH  41  46
ATOM     46  O   UNL     1      -3.271 -15.815  30.040  1.00  0.00    -0.387 OA
ATOM     47  H   UNL     1      -2.557 -16.366  30.445  1.00  0.00     0.211 HD
ENDBRANCH  41  46
BRANCH  42  48
ATOM     48  C   UNL     1      -5.778 -14.099  28.407  1.00  0.00     0.191 C 
BRANCH  48  49
ATOM     49  O   UNL     1      -6.083 -13.251  27.333  1.00  0.00    -0.394 OA
ATOM     50  H   UNL     1      -6.883 -13.630  26.884  1.00  0.00     0.210 HD
ENDBRANCH  48  49
ENDBRANCH  42  48
BRANCH  43  51
ATOM     51  O   UNL     1      -5.713 -15.212  31.064  1.00  0.00    -0.387 OA
ATOM     52  H   UNL     1      -6.245 -15.317  30.230  1.00  0.00     0.211 HD
ENDBRANCH  43  51
ENDBRANCH  37  38
ENDBRANCH   5  37
BRANCH   7  53
ATOM     53  O   UNL     1       0.166 -11.036  25.060  1.00  0.00    -0.507 OA
ATOM     54  H   UNL     1       0.226 -10.832  24.070  1.00  0.00     0.293 HD
ENDBRANCH   7  53
TORSDOF 18
ENDMDL
MODEL 2
REMARK VINA RESULT:    -7.260      2.084      4.853
REMARK INTER + INTRA:         -15.961
REMARK INTER:                 -13.223
REMARK INTRA:                  -2.738
REMARK UNBOUND:                -3.184
REMARK SMILES COc1cc(-c2[o+]c3cc(O)cc(O[C@H]4O[C@@H](CO)[C@@H](O)[C@@H](O)[C@H]4O)c3cc2O[C@@H]2O[C@H](CO)[C@@H](O)[C@@H](O)[C@H]2O)ccc1O
REMARK SMILES IDX 6 1 28 2 27 3 26 4 13 5 12 6 10 7 9 8 8 9 7 10 5 11 3 12
REMARK SMILES IDX 43 13 4 14 42 15 41 16 2 17 1 18 44 19 29 21 30 22 39 23
REMARK SMILES IDX 31 24 37 25 32 26 35 27 40 28 38 30 33 32 34 33 36 35 14 37
REMARK SMILES IDX 15 38 24 39 16 40 22 41 17 42 20 43 25 44 23 46 18 48 19 49
REMARK SMILES IDX 21 51 11 53
REMARK H PARENT 44 20 40 29 38 31 34 34 36 36 25 45 23 47 19 50 21 52 11 54
REMARK Flexibility Score: inf
ROOT
ATOM      1  C   UNL     1      -0.102 -17.669  29.372  1.00  0.00     0.402 A 
ATOM      2  C   UNL     1      -1.370 -17.422  28.805  1.00  0.00     0.229 A 
ATOM      3  C   UNL     1      -2.130 -16.355  29.306  1.00  0.00     0.079 A 
ATOM      4  C   UNL     1      -1.611 -15.543  30.324  1.00  0.00     0.126 A 
ATOM      5  C   UNL     1      -2.348 -14.477  30.883  1.00  0.00     0.143 A 
ATOM      6  C   UNL     1      -1.723 -13.637  31.830  1.00  0.00     0.094 A 
ATOM      7  C   UNL     1      -0.413 -13.895  32.259  1.00  0.00     0.128 A 
ATOM      8  C   UNL     1       0.285 -14.988  31.743  1.00  0.00     0.162 A 
ATOM      9  C   UNL     1      -0.305 -15.813  30.781  1.00  0.00     0.368 A 
ATOM     10  O   UNL     1       0.376 -16.849  30.305  1.00  0.00    -0.202 OA
ENDROOT
BRANCH   1  11
ATOM     11  C   UNL     1       0.755 -18.795  28.928  1.00  0.00     0.087 A 
ATOM     12  C   UNL     1       1.398 -21.151  29.007  1.00  0.00     0.161 A 
ATOM     13  C   UNL     1       2.441 -20.886  28.084  1.00  0.00     0.157 A 
ATOM     14  C   UNL     1       0.576 -20.098  29.425  1.00  0.00     0.068 A 
ATOM     15  C   UNL     1       2.630 -19.583  27.606  1.00  0.00     0.051 A 
ATOM     16  C   UNL     1       1.798 -18.546  28.028  1.00  0.00     0.022 A 
BRANCH  12  17
ATOM     17  O   UNL     1       1.126 -22.422  29.542  1.00  0.00    -0.493 OA
ATOM     18  C   UNL     1       0.168 -23.354  29.046  1.00  0.00     0.278 C 
ENDBRANCH  12  17
BRANCH  13  19
ATOM     19  O   UNL     1       3.296 -21.898  27.650  1.00  0.00    -0.504 OA
ATOM     20  H   UNL     1       3.172 -22.352  26.751  1.00  0.00     0.293 HD
ENDBRANCH  13  19
ENDBRANCH   1  11
BRANCH   2  21
ATOM     21  O   UNL     1      -1.826 -18.221  27.744  1.00  0.00    -0.452 OA
BRANCH  21  22
ATOM     22  C   UNL     1      -1.685 -17.901  26.355  1.00  0.00     0.339 C 
ATOM     23  C   UNL     1      -1.142 -16.460  26.163  1.00  0.00     0.214 C 
ATOM     24  O   UNL     1      -0.851 -18.856  25.718  1.00  0.00    -0.332 OA
ATOM     25  C   UNL     1      -0.132 -16.419  24.999  1.00  0.00     0.180 C 
ATOM     26  C   UNL     1      -0.952 -18.734  24.307  1.00  0.00     0.179 C 
ATOM     27  C   UNL     1      -0.608 -17.291  23.816  1.00  0.00     0.177 C 
BRANCH  23  28
ATOM     28  O   UNL     1      -2.207 -15.584  25.893  1.00  0.00    -0.384 OA
ATOM     29  H   UNL     1      -2.301 -14.998  26.689  1.00  0.00     0.211 HD
ENDBRANCH  23  28
BRANCH  25  30
ATOM     30  O   UNL     1       0.088 -15.090  24.598  1.00  0.00    -0.387 OA
ATOM     31  H   UNL     1      -0.778 -14.746  24.262  1.00  0.00     0.211 HD
ENDBRANCH  25  30
BRANCH  26  32
ATOM     32  C   UNL     1      -0.022 -19.772  23.660  1.00  0.00     0.191 C 
BRANCH  32  33
ATOM     33  O   UNL     1       0.971 -19.134  22.903  1.00  0.00    -0.394 OA
ATOM     34  H   UNL     1       1.846 -19.447  23.255  1.00  0.00     0.210 HD
ENDBRANCH  32  33
ENDBRANCH  26  32
BRANCH  27  35
ATOM     35  O   UNL     1      -1.747 -16.723  23.220  1.00  0.00    -0.387 OA
ATOM     36  H   UNL     1      -2.528 -17.264  23.504  1.00  0.00     0.211 HD
ENDBRANCH  27  35
ENDBRANCH  21  22
ENDBRANCH   2  21
BRANCH   5  37
ATOM     37  O   UNL     1      -3.692 -14.300  30.501  1.00  0.00    -0.461 OA
BRANCH  37  38
ATOM     38  C   UNL     1      -4.470 -13.120  30.729  1.00  0.00     0.339 C 
ATOM     39  C   UNL     1      -5.635 -13.377  31.707  1.00  0.00     0.214 C 
ATOM     40  O   UNL     1      -4.903 -12.538  29.508  1.00  0.00    -0.332 OA
ATOM     41  C   UNL     1      -6.784 -14.179  31.069  1.00  0.00     0.180 C 
ATOM     42  C   UNL     1      -5.868 -13.315  28.808  1.00  0.00     0.179 C 
ATOM     43  C   UNL     1      -7.120 -13.641  29.665  1.00  0.00     0.177 C 
BRANCH  39  44
ATOM     44  O   UNL     1      -5.173 -14.037  32.860  1.00  0.00    -0.384 OA
ATOM     45  H   UNL     1      -4.906 -13.329  33.504  1.00  0.00     0.211 HD
ENDBRANCH  39  44
BRANCH  41  46
ATOM     46  O   UNL     1      -6.566 -15.570  31.069  1.00  0.00    -0.387 OA
ATOM     47  H   UNL     1      -6.025 -15.811  30.276  1.00  0.00     0.211 HD
ENDBRANCH  41  46
BRANCH  42  48
ATOM     48  C   UNL     1      -5.237 -14.517  28.065  1.00  0.00     0.191 C 
BRANCH  48  49
ATOM     49  O   UNL     1      -4.103 -14.119  27.342  1.00  0.00    -0.394 OA
ATOM     50  H   UNL     1      -3.968 -13.152  27.526  1.00  0.00     0.210 HD
ENDBRANCH  48  49
ENDBRANCH  42  48
BRANCH  43  51
ATOM     51  O   UNL     1      -7.967 -14.535  28.985  1.00  0.00    -0.387 OA
ATOM     52  H   UNL     1      -8.400 -15.104  29.677  1.00  0.00     0.211 HD
ENDBRANCH  43  51
ENDBRANCH  37  38
ENDBRANCH   5  37
BRANCH   7  53
ATOM     53  O   UNL     1       0.198 -13.070  33.199  1.00  0.00    -0.507 OA
ATOM     54  H   UNL     1       0.260 -13.335  34.175  1.00  0.00     0.293 HD
ENDBRANCH   7  53
TORSDOF 18
ENDMDL
MODEL 3
REMARK VINA RESULT:    -7.238      2.466      6.292
REMARK INTER + INTRA:         -15.923
REMARK INTER:                 -12.696
REMARK INTRA:                  -3.227
REMARK UNBOUND:                -3.184
REMARK SMILES COc1cc(-c2[o+]c3cc(O)cc(O[C@H]4O[C@@H](CO)[C@@H](O)[C@@H](O)[C@H]4O)c3cc2O[C@@H]2O[C@H](CO)[C@@H](O)[C@@H](O)[C@H]2O)ccc1O
REMARK SMILES IDX 6 1 28 2 27 3 26 4 13 5 12 6 10 7 9 8 8 9 7 10 5 11 3 12
REMARK SMILES IDX 43 13 4 14 42 15 41 16 2 17 1 18 44 19 29 21 30 22 39 23
REMARK SMILES IDX 31 24 37 25 32 26 35 27 40 28 38 30 33 32 34 33 36 35 14 37
REMARK SMILES IDX 15 38 24 39 16 40 22 41 17 42 20 43 25 44 23 46 18 48 19 49
REMARK SMILES IDX 21 51 11 53
REMARK H PARENT 44 20 40 29 38 31 34 34 36 36 25 45 23 47 19 50 21 52 11 54
REMARK Flexibility Score: inf
ROOT
ATOM      1  C   UNL     1      -0.507 -20.913  29.447  1.00  0.00     0.402 A 
ATOM      2  C   UNL     1      -0.614 -20.291  28.185  1.00  0.00     0.229 A 
ATOM      3  C   UNL     1      -0.585 -18.889  28.125  1.00  0.00     0.079 A 
ATOM      4  C   UNL     1      -0.419 -18.142  29.299  1.00  0.00     0.126 A 
ATOM      5  C   UNL     1      -0.414 -16.730  29.297  1.00  0.00     0.143 A 
ATOM      6  C   UNL     1      -0.136 -16.047  30.500  1.00  0.00     0.094 A 
ATOM      7  C   UNL     1       0.066 -16.753  31.694  1.00  0.00     0.128 A 
ATOM      8  C   UNL     1      -0.001 -18.148  31.696  1.00  0.00     0.162 A 
ATOM      9  C   UNL     1      -0.243 -18.846  30.509  1.00  0.00     0.368 A 
ATOM     10  O   UNL     1      -0.304 -20.172  30.533  1.00  0.00    -0.202 OA
ENDROOT
BRANCH   1  11
ATOM     11  C   UNL     1      -0.562 -22.386  29.607  1.00  0.00     0.087 A 
ATOM     12  C   UNL     1       0.534 -24.568  29.694  1.00  0.00     0.161 A 
ATOM     13  C   UNL     1      -0.731 -25.184  29.871  1.00  0.00     0.157 A 
ATOM     14  C   UNL     1       0.599 -23.177  29.553  1.00  0.00     0.068 A 
ATOM     15  C   UNL     1      -1.888 -24.396  29.905  1.00  0.00     0.051 A 
ATOM     16  C   UNL     1      -1.805 -23.010  29.769  1.00  0.00     0.022 A 
BRANCH  12  17
ATOM     17  O   UNL     1       1.750 -25.270  29.648  1.00  0.00    -0.493 OA
ATOM     18  C   UNL     1       2.920 -24.876  28.936  1.00  0.00     0.278 C 
ENDBRANCH  12  17
BRANCH  13  19
ATOM     19  O   UNL     1      -0.849 -26.567  30.001  1.00  0.00    -0.504 OA
ATOM     20  H   UNL     1      -0.116 -27.197  29.692  1.00  0.00     0.293 HD
ENDBRANCH  13  19
ENDBRANCH   1  11
BRANCH   2  21
ATOM     21  O   UNL     1      -0.716 -21.078  27.027  1.00  0.00    -0.452 OA
BRANCH  21  22
ATOM     22  C   UNL     1       0.042 -20.879  25.829  1.00  0.00     0.339 C 
ATOM     23  C   UNL     1       0.474 -22.233  25.205  1.00  0.00     0.214 C 
ATOM     24  O   UNL     1      -0.703 -20.100  24.905  1.00  0.00    -0.332 OA
ATOM     25  C   UNL     1       0.366 -22.174  23.669  1.00  0.00     0.180 C 
ATOM     26  C   UNL     1       0.139 -19.640  23.858  1.00  0.00     0.179 C 
ATOM     27  C   UNL     1       0.862 -20.816  23.126  1.00  0.00     0.177 C 
BRANCH  23  28
ATOM     28  O   UNL     1       1.798 -22.524  25.573  1.00  0.00    -0.384 OA
ATOM     29  H   UNL     1       2.109 -21.769  26.136  1.00  0.00     0.211 HD
ENDBRANCH  23  28
BRANCH  25  30
ATOM     30  O   UNL     1       1.074 -23.243  23.094  1.00  0.00    -0.387 OA
ATOM     31  H   UNL     1       0.555 -24.065  23.286  1.00  0.00     0.211 HD
ENDBRANCH  25  30
BRANCH  26  32
ATOM     32  C   UNL     1      -0.710 -18.818  22.876  1.00  0.00     0.191 C 
BRANCH  32  33
ATOM     33  O   UNL     1      -0.372 -17.459  22.957  1.00  0.00    -0.394 OA
ATOM     34  H   UNL     1      -0.930 -17.068  23.681  1.00  0.00     0.210 HD
ENDBRANCH  32  33
ENDBRANCH  26  32
BRANCH  27  35
ATOM     35  O   UNL     1       2.250 -20.693  23.315  1.00  0.00    -0.387 OA
ATOM     36  H   UNL     1       2.678 -20.804  22.428  1.00  0.00     0.211 HD
ENDBRANCH  27  35
ENDBRANCH  21  22
ENDBRANCH   2  21
BRANCH   5  37
ATOM     37  O   UNL     1      -0.713 -16.048  28.102  1.00  0.00    -0.461 OA
BRANCH  37  38
ATOM     38  C   UNL     1      -0.792 -14.626  27.957  1.00  0.00     0.339 C 
ATOM     39  C   UNL     1      -1.886 -14.209  26.952  1.00  0.00     0.214 C 
ATOM     40  O   UNL     1       0.474 -14.063  27.648  1.00  0.00    -0.332 OA
ATOM     41  C   UNL     1      -1.485 -14.474  25.490  1.00  0.00     0.180 C 
ATOM     42  C   UNL     1       0.954 -14.397  26.351  1.00  0.00     0.179 C 
ATOM     43  C   UNL     1      -0.039 -14.016  25.221  1.00  0.00     0.177 C 
BRANCH  39  44
ATOM     44  O   UNL     1      -3.096 -14.862  27.243  1.00  0.00    -0.384 OA
ATOM     45  H   UNL     1      -3.150 -14.932  28.233  1.00  0.00     0.211 HD
ENDBRANCH  39  44
BRANCH  41  46
ATOM     46  O   UNL     1      -1.709 -15.802  25.078  1.00  0.00    -0.387 OA
ATOM     47  H   UNL     1      -1.045 -16.040  24.385  1.00  0.00     0.211 HD
ENDBRANCH  41  46
BRANCH  42  48
ATOM     48  C   UNL     1       1.524 -15.835  26.280  1.00  0.00     0.191 C 
BRANCH  48  49
ATOM     49  O   UNL     1       0.676 -16.673  25.544  1.00  0.00    -0.394 OA
ATOM     50  H   UNL     1       0.719 -17.571  25.967  1.00  0.00     0.210 HD
ENDBRANCH  48  49
ENDBRANCH  42  48
BRANCH  43  51
ATOM     51  O   UNL     1       0.409 -14.504  23.981  1.00  0.00    -0.387 OA
ATOM     52  H   UNL     1       1.317 -14.125  23.834  1.00  0.00     0.211 HD
ENDBRANCH  43  51
ENDBRANCH  37  38
ENDBRANCH   5  37
BRANCH   7  53
ATOM     53  O   UNL     1       0.331 -16.076  32.880  1.00  0.00    -0.507 OA
ATOM     54  H   UNL     1       1.236 -16.134  33.332  1.00  0.00     0.293 HD
ENDBRANCH   7  53
TORSDOF 18
ENDMDL
MODEL 4
REMARK VINA RESULT:    -7.216      2.225      5.281
REMARK INTER + INTRA:         -15.884
REMARK INTER:                 -13.523
REMARK INTRA:                  -2.361
REMARK UNBOUND:                -3.184
REMARK SMILES COc1cc(-c2[o+]c3cc(O)cc(O[C@H]4O[C@@H](CO)[C@@H](O)[C@@H](O)[C@H]4O)c3cc2O[C@@H]2O[C@H](CO)[C@@H](O)[C@@H](O)[C@H]2O)ccc1O
REMARK SMILES IDX 6 1 28 2 27 3 26 4 13 5 12 6 10 7 9 8 8 9 7 10 5 11 3 12
REMARK SMILES IDX 43 13 4 14 42 15 41 16 2 17 1 18 44 19 29 21 30 22 39 23
REMARK SMILES IDX 31 24 37 25 32 26 35 27 40 28 38 30 33 32 34 33 36 35 14 37
REMARK SMILES IDX 15 38 24 39 16 40 22 41 17 42 20 43 25 44 23 46 18 48 19 49
REMARK SMILES IDX 21 51 11 53
REMARK H PARENT 44 20 40 29 38 31 34 34 36 36 25 45 23 47 19 50 21 52 11 54
REMARK Flexibility Score: inf
ROOT
ATOM      1  C   UNL     1      -0.649 -18.512  29.827  1.00  0.00     0.402 A 
ATOM      2  C   UNL     1      -1.623 -17.734  29.166  1.00  0.00     0.229 A 
ATOM      3  C   UNL     1      -1.862 -16.430  29.627  1.00  0.00     0.079 A 
ATOM      4  C   UNL     1      -1.117 -15.919  30.698  1.00  0.00     0.126 A 
ATOM      5  C   UNL     1      -1.340 -14.625  31.218  1.00  0.00     0.143 A 
ATOM      6  C   UNL     1      -0.481 -14.138  32.227  1.00  0.00     0.094 A 
ATOM      7  C   UNL     1       0.535 -14.946  32.752  1.00  0.00     0.128 A 
ATOM      8  C   UNL     1       0.709 -16.246  32.272  1.00  0.00     0.162 A 
ATOM      9  C   UNL     1      -0.110 -16.737  31.251  1.00  0.00     0.368 A 
ATOM     10  O   UNL     1       0.070 -17.976  30.809  1.00  0.00    -0.202 OA
ENDROOT
BRANCH   1  11
ATOM     11  C   UNL     1      -0.355 -19.910  29.430  1.00  0.00     0.087 A 
ATOM     12  C   UNL     1      -0.942 -22.281  29.362  1.00  0.00     0.161 A 
ATOM     13  C   UNL     1       0.277 -22.553  28.692  1.00  0.00     0.157 A 
ATOM     14  C   UNL     1      -1.235 -20.963  29.732  1.00  0.00     0.068 A 
ATOM     15  C   UNL     1       1.163 -21.505  28.409  1.00  0.00     0.051 A 
ATOM     16  C   UNL     1       0.852 -20.196  28.779  1.00  0.00     0.022 A 
BRANCH  12  17
ATOM     17  O   UNL     1      -1.895 -23.262  29.688  1.00  0.00    -0.493 OA
ATOM     18  C   UNL     1      -1.857 -24.122  30.825  1.00  0.00     0.278 C 
ENDBRANCH  12  17
BRANCH  13  19
ATOM     19  O   UNL     1       0.621 -23.851  28.316  1.00  0.00    -0.504 OA
ATOM     20  H   UNL     1      -0.041 -24.617  28.376  1.00  0.00     0.293 HD
ENDBRANCH  13  19
ENDBRANCH   1  11
BRANCH   2  21
ATOM     21  O   UNL     1      -2.303 -18.263  28.058  1.00  0.00    -0.452 OA
BRANCH  21  22
ATOM     22  C   UNL     1      -1.942 -18.040  26.690  1.00  0.00     0.339 C 
ATOM     23  C   UNL     1      -1.073 -16.764  26.538  1.00  0.00     0.214 C 
ATOM     24  O   UNL     1      -1.278 -19.182  26.170  1.00  0.00    -0.332 OA
ATOM     25  C   UNL     1       0.042 -16.996  25.500  1.00  0.00     0.180 C 
ATOM     26  C   UNL     1      -1.193 -19.100  24.755  1.00  0.00     0.179 C 
ATOM     27  C   UNL     1      -0.483 -17.790  24.283  1.00  0.00     0.177 C 
BRANCH  23  28
ATOM     28  O   UNL     1      -1.878 -15.687  26.132  1.00  0.00    -0.384 OA
ATOM     29  H   UNL     1      -1.283 -15.053  25.653  1.00  0.00     0.211 HD
ENDBRANCH  23  28
BRANCH  25  30
ATOM     30  O   UNL     1       0.597 -15.766  25.106  1.00  0.00    -0.387 OA
ATOM     31  H   UNL     1       0.288 -15.597  24.180  1.00  0.00     0.211 HD
ENDBRANCH  25  30
BRANCH  26  32
ATOM     32  C   UNL     1      -0.454 -20.344  24.238  1.00  0.00     0.191 C 
BRANCH  32  33
ATOM     33  O   UNL     1      -1.063 -21.510  24.723  1.00  0.00    -0.394 OA
ATOM     34  H   UNL     1      -1.363 -21.313  25.649  1.00  0.00     0.210 HD
ENDBRANCH  32  33
ENDBRANCH  26  32
BRANCH  27  35
ATOM     35  O   UNL     1      -1.393 -17.010  23.549  1.00  0.00    -0.387 OA
ATOM     36  H   UNL     1      -1.090 -16.068  23.611  1.00  0.00     0.211 HD
ENDBRANCH  27  35
ENDBRANCH  21  22
ENDBRANCH   2  21
BRANCH   5  37
ATOM     37  O   UNL     1      -2.428 -13.872  30.735  1.00  0.00    -0.461 OA
BRANCH  37  38
ATOM     38  C   UNL     1      -3.487 -13.339  31.536  1.00  0.00     0.339 C 
ATOM     39  C   UNL     1      -4.871 -13.838  31.067  1.00  0.00     0.214 C 
ATOM     40  O   UNL     1      -3.418 -11.923  31.617  1.00  0.00    -0.332 OA
ATOM     41  C   UNL     1      -5.335 -13.169  29.761  1.00  0.00     0.180 C 
ATOM     42  C   UNL     1      -3.704 -11.260  30.390  1.00  0.00     0.179 C 
ATOM     43  C   UNL     1      -5.085 -11.649  29.799  1.00  0.00     0.177 C 
BRANCH  39  44
ATOM     44  O   UNL     1      -4.864 -15.235  30.913  1.00  0.00    -0.384 OA
ATOM     45  H   UNL     1      -5.750 -15.484  30.537  1.00  0.00     0.211 HD
ENDBRANCH  39  44
BRANCH  41  46
ATOM     46  O   UNL     1      -4.802 -13.767  28.603  1.00  0.00    -0.387 OA
ATOM     47  H   UNL     1      -4.015 -14.310  28.855  1.00  0.00     0.211 HD
ENDBRANCH  41  46
BRANCH  42  48
ATOM     48  C   UNL     1      -2.517 -11.309  29.398  1.00  0.00     0.191 C 
BRANCH  48  49
ATOM     49  O   UNL     1      -2.795 -12.170  28.327  1.00  0.00    -0.394 OA
ATOM     50  H   UNL     1      -3.373 -11.667  27.695  1.00  0.00     0.210 HD
ENDBRANCH  48  49
ENDBRANCH  42  48
BRANCH  43  51
ATOM     51  O   UNL     1      -5.252 -11.090  28.519  1.00  0.00    -0.387 OA
ATOM     52  H   UNL     1      -6.231 -11.045  28.350  1.00  0.00     0.211 HD
ENDBRANCH  43  51
ENDBRANCH  37  38
ENDBRANCH   5  37
BRANCH   7  53
ATOM     53  O   UNL     1       1.375 -14.466  33.753  1.00  0.00    -0.507 OA
ATOM     54  H   UNL     1       1.050 -13.795  34.439  1.00  0.00     0.293 HD
ENDBRANCH   7  53
TORSDOF 18
ENDMDL
MODEL 5
REMARK VINA RESULT:    -7.175      2.374      5.005
REMARK INTER + INTRA:         -15.811
REMARK INTER:                 -13.494
REMARK INTRA:                  -2.317
REMARK UNBOUND:                -3.184
REMARK SMILES COc1cc(-c2[o+]c3cc(O)cc(O[C@H]4O[C@@H](CO)[C@@H](O)[C@@H](O)[C@H]4O)c3cc2O[C@@H]2O[C@H](CO)[C@@H](O)[C@@H](O)[C@H]2O)ccc1O
REMARK SMILES IDX 6 1 28 2 27 3 26 4 13 5 12 6 10 7 9 8 8 9 7 10 5 11 3 12
REMARK SMILES IDX 43 13 4 14 42 15 41 16 2 17 1 18 44 19 29 21 30 22 39 23
REMARK SMILES IDX 31 24 37 25 32 26 35 27 40 28 38 30 33 32 34 33 36 35 14 37
REMARK SMILES IDX 15 38 24 39 16 40 22 41 17 42 20 43 25 44 23 46 18 48 19 49
REMARK SMILES IDX 21 51 11 53
REMARK H PARENT 44 20 40 29 38 31 34 34 36 36 25 45 23 47 19 50 21 52 11 54
REMARK Flexibility Score: inf
ROOT
ATOM      1  C   UNL     1       0.027 -17.310  30.690  1.00  0.00     0.402 A 
ATOM      2  C   UNL     1      -1.113 -17.183  29.869  1.00  0.00     0.229 A 
ATOM      3  C   UNL     1      -1.910 -16.036  30.005  1.00  0.00     0.079 A 
ATOM      4  C   UNL     1      -1.548 -15.035  30.916  1.00  0.00     0.126 A 
ATOM      5  C   UNL     1      -2.332 -13.878  31.112  1.00  0.00     0.143 A 
ATOM      6  C   UNL     1      -1.851 -12.864  31.968  1.00  0.00     0.094 A 
ATOM      7  C   UNL     1      -0.647 -13.029  32.665  1.00  0.00     0.128 A 
ATOM      8  C   UNL     1       0.091 -14.204  32.510  1.00  0.00     0.162 A 
ATOM      9  C   UNL     1      -0.351 -15.207  31.642  1.00  0.00     0.368 A 
ATOM     10  O   UNL     1       0.365 -16.318  31.510  1.00  0.00    -0.202 OA
ENDROOT
BRANCH   1  11
ATOM     11  C   UNL     1       0.907 -18.502  30.639  1.00  0.00     0.087 A 
ATOM     12  C   UNL     1       1.468 -20.776  31.335  1.00  0.00     0.161 A 
ATOM     13  C   UNL     1       2.639 -20.720  30.538  1.00  0.00     0.157 A 
ATOM     14  C   UNL     1       0.624 -19.660  31.383  1.00  0.00     0.068 A 
ATOM     15  C   UNL     1       2.930 -19.558  29.813  1.00  0.00     0.051 A 
ATOM     16  C   UNL     1       2.074 -18.457  29.866  1.00  0.00     0.022 A 
BRANCH  12  17
ATOM     17  O   UNL     1       1.089 -21.895  32.096  1.00  0.00    -0.493 OA
ATOM     18  C   UNL     1       0.026 -22.795  31.792  1.00  0.00     0.278 C 
ENDBRANCH  12  17
BRANCH  13  19
ATOM     19  O   UNL     1       3.519 -21.799  30.470  1.00  0.00    -0.504 OA
ATOM     20  H   UNL     1       3.857 -22.266  31.305  1.00  0.00     0.293 HD
ENDBRANCH  13  19
ENDBRANCH   1  11
BRANCH   2  21
ATOM     21  O   UNL     1      -1.405 -18.180  28.925  1.00  0.00    -0.452 OA
BRANCH  21  22
ATOM     22  C   UNL     1      -0.904 -18.214  27.584  1.00  0.00     0.339 C 
ATOM     23  C   UNL     1      -1.107 -19.612  26.944  1.00  0.00     0.214 C 
ATOM     24  O   UNL     1      -1.519 -17.197  26.809  1.00  0.00    -0.332 OA
ATOM     25  C   UNL     1      -1.518 -19.470  25.465  1.00  0.00     0.180 C 
ATOM     26  C   UNL     1      -0.819 -17.020  25.585  1.00  0.00     0.179 C 
ATOM     27  C   UNL     1      -0.718 -18.348  24.768  1.00  0.00     0.177 C 
BRANCH  23  28
ATOM     28  O   UNL     1       0.085 -20.352  27.031  1.00  0.00    -0.384 OA
ATOM     29  H   UNL     1       0.289 -20.448  27.998  1.00  0.00     0.211 HD
ENDBRANCH  23  28
BRANCH  25  30
ATOM     30  O   UNL     1      -1.360 -20.698  24.800  1.00  0.00    -0.387 OA
ATOM     31  H   UNL     1      -0.469 -20.676  24.367  1.00  0.00     0.211 HD
ENDBRANCH  25  30
BRANCH  26  32
ATOM     32  C   UNL     1      -1.528 -15.925  24.773  1.00  0.00     0.191 C 
BRANCH  32  33
ATOM     33  O   UNL     1      -1.849 -16.398  23.492  1.00  0.00    -0.394 OA
ATOM     34  H   UNL     1      -2.611 -15.849  23.166  1.00  0.00     0.210 HD
ENDBRANCH  32  33
ENDBRANCH  26  32
BRANCH  27  35
ATOM     35  O   UNL     1       0.634 -18.714  24.650  1.00  0.00    -0.387 OA
ATOM     36  H   UNL     1       1.167 -18.028  25.127  1.00  0.00     0.211 HD
ENDBRANCH  27  35
ENDBRANCH  21  22
ENDBRANCH   2  21
BRANCH   5  37
ATOM     37  O   UNL     1      -3.582 -13.783  30.469  1.00  0.00    -0.461 OA
BRANCH  37  38
ATOM     38  C   UNL     1      -4.531 -12.727  30.656  1.00  0.00     0.339 C 
ATOM     39  C   UNL     1      -5.639 -13.119  31.657  1.00  0.00     0.214 C 
ATOM     40  O   UNL     1      -5.053 -12.271  29.417  1.00  0.00    -0.332 OA
ATOM     41  C   UNL     1      -6.653 -14.114  31.065  1.00  0.00     0.180 C 
ATOM     42  C   UNL     1      -5.890 -13.216  28.760  1.00  0.00     0.179 C 
ATOM     43  C   UNL     1      -7.074 -13.694  29.643  1.00  0.00     0.177 C 
BRANCH  39  44
ATOM     44  O   UNL     1      -5.076 -13.650  32.831  1.00  0.00    -0.384 OA
ATOM     45  H   UNL     1      -5.140 -12.940  33.523  1.00  0.00     0.211 HD
ENDBRANCH  39  44
BRANCH  41  46
ATOM     46  O   UNL     1      -6.223 -15.454  31.120  1.00  0.00    -0.387 OA
ATOM     47  H   UNL     1      -5.461 -15.521  31.746  1.00  0.00     0.211 HD
ENDBRANCH  41  46
BRANCH  42  48
ATOM     48  C   UNL     1      -5.084 -14.338  28.061  1.00  0.00     0.191 C 
BRANCH  48  49
ATOM     49  O   UNL     1      -3.955 -13.814  27.415  1.00  0.00    -0.394 OA
ATOM     50  H   UNL     1      -4.223 -13.619  26.479  1.00  0.00     0.210 HD
ENDBRANCH  48  49
ENDBRANCH  42  48
BRANCH  43  51
ATOM     51  O   UNL     1      -7.776 -14.735  29.010  1.00  0.00    -0.387 OA
ATOM     52  H   UNL     1      -7.311 -14.914  28.149  1.00  0.00     0.211 HD
ENDBRANCH  43  51
ENDBRANCH  37  38
ENDBRANCH   5  37
BRANCH   7  53
ATOM     53  O   UNL     1      -0.179 -12.032  33.515  1.00  0.00    -0.507 OA
ATOM     54  H   UNL     1      -0.198 -11.055  33.246  1.00  0.00     0.293 HD
ENDBRANCH   7  53
TORSDOF 18
ENDMDL
MODEL 6
REMARK VINA RESULT:    -7.126      2.302      5.300
REMARK INTER + INTRA:         -15.726
REMARK INTER:                 -13.208
REMARK INTRA:                  -2.519
REMARK UNBOUND:                -3.184
REMARK SMILES COc1cc(-c2[o+]c3cc(O)cc(O[C@H]4O[C@@H](CO)[C@@H](O)[C@@H](O)[C@H]4O)c3cc2O[C@@H]2O[C@H](CO)[C@@H](O)[C@@H](O)[C@H]2O)ccc1O
REMARK SMILES IDX 6 1 28 2 27 3 26 4 13 5 12 6 10 7 9 8 8 9 7 10 5 11 3 12
REMARK SMILES IDX 43 13 4 14 42 15 41 16 2 17 1 18 44 19 29 21 30 22 39 23
REMARK SMILES IDX 31 24 37 25 32 26 35 27 40 28 38 30 33 32 34 33 36 35 14 37
REMARK SMILES IDX 15 38 24 39 16 40 22 41 17 42 20 43 25 44 23 46 18 48 19 49
REMARK SMILES IDX 21 51 11 53
REMARK H PARENT 44 20 40 29 38 31 34 34 36 36 25 45 23 47 19 50 21 52 11 54
REMARK Flexibility Score: inf
ROOT
ATOM      1  C   UNL     1      -0.080 -18.151  30.648  1.00  0.00     0.402 A 
ATOM      2  C   UNL     1      -1.089 -17.560  29.858  1.00  0.00     0.229 A 
ATOM      3  C   UNL     1      -1.498 -16.253  30.164  1.00  0.00     0.079 A 
ATOM      4  C   UNL     1      -0.884 -15.555  31.213  1.00  0.00     0.126 A 
ATOM      5  C   UNL     1      -1.281 -14.251  31.580  1.00  0.00     0.143 A 
ATOM      6  C   UNL     1      -0.548 -13.569  32.576  1.00  0.00     0.094 A 
ATOM      7  C   UNL     1       0.516 -14.199  33.238  1.00  0.00     0.128 A 
ATOM      8  C   UNL     1       0.860 -15.511  32.908  1.00  0.00     0.162 A 
ATOM      9  C   UNL     1       0.168 -16.192  31.902  1.00  0.00     0.368 A 
ATOM     10  O   UNL     1       0.511 -17.440  31.605  1.00  0.00    -0.202 OA
ENDROOT
BRANCH   1  11
ATOM     11  C   UNL     1       0.390 -19.538  30.417  1.00  0.00     0.087 A 
ATOM     12  C   UNL     1       0.024 -21.953  30.461  1.00  0.00     0.161 A 
ATOM     13  C   UNL     1       1.352 -22.152  30.006  1.00  0.00     0.157 A 
ATOM     14  C   UNL     1      -0.435 -20.647  30.672  1.00  0.00     0.068 A 
ATOM     15  C   UNL     1       2.178 -21.046  29.772  1.00  0.00     0.051 A 
ATOM     16  C   UNL     1       1.704 -19.750  29.981  1.00  0.00     0.022 A 
BRANCH  12  17
ATOM     17  O   UNL     1      -0.881 -22.996  30.721  1.00  0.00    -0.493 OA
ATOM     18  C   UNL     1      -1.254 -23.481  32.009  1.00  0.00     0.278 C 
ENDBRANCH  12  17
BRANCH  13  19
ATOM     19  O   UNL     1       1.859 -23.433  29.796  1.00  0.00    -0.504 OA
ATOM     20  H   UNL     1       2.126 -23.757  28.872  1.00  0.00     0.293 HD
ENDBRANCH  13  19
ENDBRANCH   1  11
BRANCH   2  21
ATOM     21  O   UNL     1      -1.633 -18.271  28.777  1.00  0.00    -0.452 OA
BRANCH  21  22
ATOM     22  C   UNL     1      -1.030 -18.390  27.484  1.00  0.00     0.339 C 
ATOM     23  C   UNL     1      -1.247 -19.807  26.891  1.00  0.00     0.214 C 
ATOM     24  O   UNL     1      -1.535 -17.385  26.618  1.00  0.00    -0.332 OA
ATOM     25  C   UNL     1      -1.534 -19.717  25.379  1.00  0.00     0.180 C 
ATOM     26  C   UNL     1      -0.733 -17.296  25.448  1.00  0.00     0.179 C 
ATOM     27  C   UNL     1      -0.630 -18.665  24.701  1.00  0.00     0.177 C 
BRANCH  23  28
ATOM     28  O   UNL     1      -0.102 -20.592  27.107  1.00  0.00    -0.384 OA
ATOM     29  H   UNL     1       0.150 -20.975  26.227  1.00  0.00     0.211 HD
ENDBRANCH  23  28
BRANCH  25  30
ATOM     30  O   UNL     1      -1.381 -20.981  24.784  1.00  0.00    -0.387 OA
ATOM     31  H   UNL     1      -2.199 -21.498  24.997  1.00  0.00     0.211 HD
ENDBRANCH  25  30
BRANCH  26  32
ATOM     32  C   UNL     1      -1.324 -16.212  24.534  1.00  0.00     0.191 C 
BRANCH  32  33
ATOM     33  O   UNL     1      -1.665 -16.757  23.288  1.00  0.00    -0.394 OA
ATOM     34  H   UNL     1      -2.611 -16.506  23.115  1.00  0.00     0.210 HD
ENDBRANCH  32  33
ENDBRANCH  26  32
BRANCH  27  35
ATOM     35  O   UNL     1       0.709 -19.094  24.708  1.00  0.00    -0.387 OA
ATOM     36  H   UNL     1       1.274 -18.293  24.561  1.00  0.00     0.211 HD
ENDBRANCH  27  35
ENDBRANCH  21  22
ENDBRANCH   2  21
BRANCH   5  37
ATOM     37  O   UNL     1      -2.411 -13.680  30.963  1.00  0.00    -0.461 OA
BRANCH  37  38
ATOM     38  C   UNL     1      -3.627 -13.324  31.629  1.00  0.00     0.339 C 
ATOM     39  C   UNL     1      -4.860 -13.971  30.963  1.00  0.00     0.214 C 
ATOM     40  O   UNL     1      -3.756 -11.916  31.759  1.00  0.00    -0.332 OA
ATOM     41  C   UNL     1      -5.233 -13.306  29.626  1.00  0.00     0.180 C 
ATOM     42  C   UNL     1      -3.964 -11.238  30.525  1.00  0.00     0.179 C 
ATOM     43  C   UNL     1      -5.194 -11.771  29.742  1.00  0.00     0.177 C 
BRANCH  39  44
ATOM     44  O   UNL     1      -4.649 -15.348  30.771  1.00  0.00    -0.384 OA
ATOM     45  H   UNL     1      -5.373 -15.817  31.263  1.00  0.00     0.211 HD
ENDBRANCH  39  44
BRANCH  41  46
ATOM     46  O   UNL     1      -4.480 -13.778  28.534  1.00  0.00    -0.387 OA
ATOM     47  H   UNL     1      -5.019 -13.691  27.710  1.00  0.00     0.211 HD
ENDBRANCH  41  46
BRANCH  42  48
ATOM     48  C   UNL     1      -2.662 -11.089  29.701  1.00  0.00     0.191 C 
BRANCH  48  49
ATOM     49  O   UNL     1      -1.578 -10.773  30.533  1.00  0.00    -0.394 OA
ATOM     50  H   UNL     1      -1.958 -10.459  31.395  1.00  0.00     0.210 HD
ENDBRANCH  48  49
ENDBRANCH  42  48
BRANCH  43  51
ATOM     51  O   UNL     1      -5.264 -11.179  28.468  1.00  0.00    -0.387 OA
ATOM     52  H   UNL     1      -4.659 -11.700  27.875  1.00  0.00     0.211 HD
ENDBRANCH  43  51
ENDBRANCH  37  38
ENDBRANCH   5  37
BRANCH   7  53
ATOM     53  O   UNL     1       1.231 -13.528  34.225  1.00  0.00    -0.507 OA
ATOM     54  H   UNL     1       1.707 -14.027  34.966  1.00  0.00     0.293 HD
ENDBRANCH   7  53
TORSDOF 18
ENDMDL
MODEL 7
REMARK VINA RESULT:    -7.064      1.004      2.252
REMARK INTER + INTRA:         -15.616
REMARK INTER:                 -12.895
REMARK INTRA:                  -2.721
REMARK UNBOUND:                -3.184
REMARK SMILES COc1cc(-c2[o+]c3cc(O)cc(O[C@H]4O[C@@H](CO)[C@@H](O)[C@@H](O)[C@H]4O)c3cc2O[C@@H]2O[C@H](CO)[C@@H](O)[C@@H](O)[C@H]2O)ccc1O
REMARK SMILES IDX 6 1 28 2 27 3 26 4 13 5 12 6 10 7 9 8 8 9 7 10 5 11 3 12
REMARK SMILES IDX 43 13 4 14 42 15 41 16 2 17 1 18 44 19 29 21 30 22 39 23
REMARK SMILES IDX 31 24 37 25 32 26 35 27 40 28 38 30 33 32 34 33 36 35 14 37
REMARK SMILES IDX 15 38 24 39 16 40 22 41 17 42 20 43 25 44 23 46 18 48 19 49
REMARK SMILES IDX 21 51 11 53
REMARK H PARENT 44 20 40 29 38 31 34 34 36 36 25 45 23 47 19 50 21 52 11 54
REMARK Flexibility Score: inf
ROOT
ATOM      1  C   UNL     1       0.267 -17.060  25.929  1.00  0.00     0.402 A 
ATOM      2  C   UNL     1      -0.937 -17.209  26.649  1.00  0.00     0.229 A 
ATOM      3  C   UNL     1      -1.673 -16.057  26.966  1.00  0.00     0.079 A 
ATOM      4  C   UNL     1      -1.224 -14.800  26.539  1.00  0.00     0.126 A 
ATOM      5  C   UNL     1      -1.911 -13.608  26.858  1.00  0.00     0.143 A 
ATOM      6  C   UNL     1      -1.459 -12.391  26.305  1.00  0.00     0.094 A 
ATOM      7  C   UNL     1      -0.308 -12.352  25.506  1.00  0.00     0.128 A 
ATOM      8  C   UNL     1       0.398 -13.528  25.246  1.00  0.00     0.162 A 
ATOM      9  C   UNL     1      -0.051 -14.749  25.757  1.00  0.00     0.368 A 
ATOM     10  O   UNL     1       0.636 -15.856  25.500  1.00  0.00    -0.202 OA
ENDROOT
BRANCH   1  11
ATOM     11  C   UNL     1       1.125 -18.218  25.580  1.00  0.00     0.087 A 
ATOM     12  C   UNL     1       1.593 -20.201  24.232  1.00  0.00     0.161 A 
ATOM     13  C   UNL     1       2.768 -20.428  24.992  1.00  0.00     0.157 A 
ATOM     14  C   UNL     1       0.781 -19.105  24.545  1.00  0.00     0.068 A 
ATOM     15  C   UNL     1       3.098 -19.555  26.036  1.00  0.00     0.051 A 
ATOM     16  C   UNL     1       2.281 -18.463  26.331  1.00  0.00     0.022 A 
BRANCH  12  17
ATOM     17  O   UNL     1       1.178 -21.018  23.165  1.00  0.00    -0.493 OA
ATOM     18  C   UNL     1       0.782 -22.384  23.260  1.00  0.00     0.278 C 
ENDBRANCH  12  17
BRANCH  13  19
ATOM     19  O   UNL     1       3.600 -21.515  24.729  1.00  0.00    -0.504 OA
ATOM     20  H   UNL     1       3.391 -22.182  23.993  1.00  0.00     0.293 HD
ENDBRANCH  13  19
ENDBRANCH   1  11
BRANCH   2  21
ATOM     21  O   UNL     1      -1.383 -18.492  27.004  1.00  0.00    -0.452 OA
BRANCH  21  22
ATOM     22  C   UNL     1      -0.910 -19.244  28.127  1.00  0.00     0.339 C 
ATOM     23  C   UNL     1      -1.949 -19.248  29.279  1.00  0.00     0.214 C 
ATOM     24  O   UNL     1      -0.582 -20.565  27.724  1.00  0.00    -0.332 OA
ATOM     25  C   UNL     1      -2.002 -20.635  29.948  1.00  0.00     0.180 C 
ATOM     26  C   UNL     1       0.167 -21.218  28.739  1.00  0.00     0.179 C 
ATOM     27  C   UNL     1      -0.587 -21.233  30.108  1.00  0.00     0.177 C 
BRANCH  23  28
ATOM     28  O   UNL     1      -1.603 -18.277  30.234  1.00  0.00    -0.384 OA
ATOM     29  H   UNL     1      -2.123 -18.486  31.053  1.00  0.00     0.211 HD
ENDBRANCH  23  28
BRANCH  25  30
ATOM     30  O   UNL     1      -2.662 -20.548  31.187  1.00  0.00    -0.387 OA
ATOM     31  H   UNL     1      -3.489 -20.025  31.033  1.00  0.00     0.211 HD
ENDBRANCH  25  30
BRANCH  26  32
ATOM     32  C   UNL     1       0.484 -22.646  28.269  1.00  0.00     0.191 C 
BRANCH  32  33
ATOM     33  O   UNL     1       0.726 -22.662  26.887  1.00  0.00    -0.394 OA
ATOM     34  H   UNL     1       1.674 -22.933  26.765  1.00  0.00     0.210 HD
ENDBRANCH  32  33
ENDBRANCH  26  32
BRANCH  27  35
ATOM     35  O   UNL     1       0.151 -20.494  31.049  1.00  0.00    -0.387 OA
ATOM     36  H   UNL     1      -0.414 -20.404  31.859  1.00  0.00     0.211 HD
ENDBRANCH  27  35
ENDBRANCH  21  22
ENDBRANCH   2  21
BRANCH   5  37
ATOM     37  O   UNL     1      -3.008 -13.667  27.738  1.00  0.00    -0.461 OA
BRANCH  37  38
ATOM     38  C   UNL     1      -3.223 -12.795  28.853  1.00  0.00     0.339 C 
ATOM     39  C   UNL     1      -2.665 -13.387  30.164  1.00  0.00     0.214 C 
ATOM     40  O   UNL     1      -4.588 -12.418  28.964  1.00  0.00    -0.332 OA
ATOM     41  C   UNL     1      -3.531 -14.535  30.717  1.00  0.00     0.180 C 
ATOM     42  C   UNL     1      -5.453 -13.484  29.338  1.00  0.00     0.179 C 
ATOM     43  C   UNL     1      -5.028 -14.173  30.662  1.00  0.00     0.177 C 
BRANCH  39  44
ATOM     44  O   UNL     1      -1.344 -13.830  29.981  1.00  0.00    -0.384 OA
ATOM     45  H   UNL     1      -0.819 -13.483  30.750  1.00  0.00     0.211 HD
ENDBRANCH  39  44
BRANCH  41  46
ATOM     46  O   UNL     1      -3.261 -15.780  30.118  1.00  0.00    -0.387 OA
ATOM     47  H   UNL     1      -3.245 -16.477  30.820  1.00  0.00     0.211 HD
ENDBRANCH  41  46
BRANCH  42  48
ATOM     48  C   UNL     1      -5.764 -14.439  28.160  1.00  0.00     0.191 C 
BRANCH  48  49
ATOM     49  O   UNL     1      -5.979 -13.719  26.976  1.00  0.00    -0.394 OA
ATOM     50  H   UNL     1      -5.113 -13.299  26.732  1.00  0.00     0.210 HD
ENDBRANCH  48  49
ENDBRANCH  42  48
BRANCH  43  51
ATOM     51  O   UNL     1      -5.818 -15.311  30.906  1.00  0.00    -0.387 OA
ATOM     52  H   UNL     1      -6.754 -14.993  31.016  1.00  0.00     0.211 HD
ENDBRANCH  43  51
ENDBRANCH  37  38
ENDBRANCH   5  37
BRANCH   7  53
ATOM     53  O   UNL     1       0.140 -11.149  24.969  1.00  0.00    -0.507 OA
ATOM     54  H   UNL     1       0.955 -10.675  25.339  1.00  0.00     0.293 HD
ENDBRANCH   7  53
TORSDOF 18
ENDMDL
MODEL 8
REMARK VINA RESULT:    -7.020      2.279      4.961
REMARK INTER + INTRA:         -15.539
REMARK INTER:                 -12.945
REMARK INTRA:                  -2.594
REMARK UNBOUND:                -3.184
REMARK SMILES COc1cc(-c2[o+]c3cc(O)cc(O[C@H]4O[C@@H](CO)[C@@H](O)[C@@H](O)[C@H]4O)c3cc2O[C@@H]2O[C@H](CO)[C@@H](O)[C@@H](O)[C@H]2O)ccc1O
REMARK SMILES IDX 6 1 28 2 27 3 26 4 13 5 12 6 10 7 9 8 8 9 7 10 5 11 3 12
REMARK SMILES IDX 43 13 4 14 42 15 41 16 2 17 1 18 44 19 29 21 30 22 39 23
REMARK SMILES IDX 31 24 37 25 32 26 35 27 40 28 38 30 33 32 34 33 36 35 14 37
REMARK SMILES IDX 15 38 24 39 16 40 22 41 17 42 20 43 25 44 23 46 18 48 19 49
REMARK SMILES IDX 21 51 11 53
REMARK H PARENT 44 20 40 29 38 31 34 34 36 36 25 45 23 47 19 50 21 52 11 54
REMARK Flexibility Score: inf
ROOT
ATOM      1  C   UNL     1       0.026 -16.518  29.585  1.00  0.00     0.402 A 
ATOM      2  C   UNL     1      -1.328 -16.629  29.203  1.00  0.00     0.229 A 
ATOM      3  C   UNL     1      -2.261 -15.758  29.786  1.00  0.00     0.079 A 
ATOM      4  C   UNL     1      -1.834 -14.785  30.700  1.00  0.00     0.126 A 
ATOM      5  C   UNL     1      -2.736 -13.905  31.337  1.00  0.00     0.143 A 
ATOM      6  C   UNL     1      -2.223 -12.883  32.164  1.00  0.00     0.094 A 
ATOM      7  C   UNL     1      -0.846 -12.780  32.404  1.00  0.00     0.128 A 
ATOM      8  C   UNL     1       0.032 -13.693  31.816  1.00  0.00     0.162 A 
ATOM      9  C   UNL     1      -0.452 -14.693  30.968  1.00  0.00     0.368 A 
ATOM     10  O   UNL     1       0.400 -15.552  30.420  1.00  0.00    -0.202 OA
ENDROOT
BRANCH   1  11
ATOM     11  C   UNL     1       1.073 -17.419  29.046  1.00  0.00     0.087 A 
ATOM     12  C   UNL     1       3.042 -17.813  27.654  1.00  0.00     0.161 A 
ATOM     13  C   UNL     1       3.011 -19.183  28.016  1.00  0.00     0.157 A 
ATOM     14  C   UNL     1       2.064 -16.951  28.165  1.00  0.00     0.068 A 
ATOM     15  C   UNL     1       2.010 -19.651  28.877  1.00  0.00     0.051 A 
ATOM     16  C   UNL     1       1.047 -18.777  29.384  1.00  0.00     0.022 A 
BRANCH  12  17
ATOM     17  O   UNL     1       4.004 -17.248  26.799  1.00  0.00    -0.493 OA
ATOM     18  C   UNL     1       3.997 -15.916  26.293  1.00  0.00     0.278 C 
ENDBRANCH  12  17
BRANCH  13  19
ATOM     19  O   UNL     1       3.953 -20.083  27.520  1.00  0.00    -0.504 OA
ATOM     20  H   UNL     1       4.147 -20.963  27.986  1.00  0.00     0.293 HD
ENDBRANCH  13  19
ENDBRANCH   1  11
BRANCH   2  21
ATOM     21  O   UNL     1      -1.704 -17.576  28.238  1.00  0.00    -0.452 OA
BRANCH  21  22
ATOM     22  C   UNL     1      -1.680 -17.361  26.822  1.00  0.00     0.339 C 
ATOM     23  C   UNL     1      -1.168 -15.937  26.479  1.00  0.00     0.214 C 
ATOM     24  O   UNL     1      -0.893 -18.359  26.191  1.00  0.00    -0.332 OA
ATOM     25  C   UNL     1      -0.257 -15.981  25.236  1.00  0.00     0.180 C 
ATOM     26  C   UNL     1      -1.110 -18.342  24.788  1.00  0.00     0.179 C 
ATOM     27  C   UNL     1      -0.821 -16.939  24.164  1.00  0.00     0.177 C 
BRANCH  23  28
ATOM     28  O   UNL     1      -2.258 -15.086  26.234  1.00  0.00    -0.384 OA
ATOM     29  H   UNL     1      -2.648 -14.861  27.118  1.00  0.00     0.211 HD
ENDBRANCH  23  28
BRANCH  25  30
ATOM     30  O   UNL     1      -0.082 -14.685  24.721  1.00  0.00    -0.387 OA
ATOM     31  H   UNL     1       0.782 -14.685  24.236  1.00  0.00     0.211 HD
ENDBRANCH  25  30
BRANCH  26  32
ATOM     32  C   UNL     1      -0.228 -19.424  24.145  1.00  0.00     0.191 C 
BRANCH  32  33
ATOM     33  O   UNL     1      -0.719 -19.765  22.876  1.00  0.00    -0.394 OA
ATOM     34  H   UNL     1       0.040 -20.162  22.373  1.00  0.00     0.210 HD
ENDBRANCH  32  33
ENDBRANCH  26  32
BRANCH  27  35
ATOM     35  O   UNL     1      -2.010 -16.420  23.623  1.00  0.00    -0.387 OA
ATOM     36  H   UNL     1      -2.304 -17.044  22.911  1.00  0.00     0.211 HD
ENDBRANCH  27  35
ENDBRANCH  21  22
ENDBRANCH   2  21
BRANCH   5  37
ATOM     37  O   UNL     1      -4.119 -14.092  31.150  1.00  0.00    -0.461 OA
BRANCH  37  38
ATOM     38  C   UNL     1      -5.128 -13.105  31.389  1.00  0.00     0.339 C 
ATOM     39  C   UNL     1      -6.288 -13.660  32.242  1.00  0.00     0.214 C 
ATOM     40  O   UNL     1      -5.577 -12.516  30.177  1.00  0.00    -0.332 OA
ATOM     41  C   UNL     1      -7.207 -14.610  31.453  1.00  0.00     0.180 C 
ATOM     42  C   UNL     1      -6.317 -13.401  29.344  1.00  0.00     0.179 C 
ATOM     43  C   UNL     1      -7.540 -14.030  30.064  1.00  0.00     0.177 C 
BRANCH  39  44
ATOM     44  O   UNL     1      -5.791 -14.314  33.383  1.00  0.00    -0.384 OA
ATOM     45  H   UNL     1      -6.063 -15.266  33.306  1.00  0.00     0.211 HD
ENDBRANCH  39  44
BRANCH  41  46
ATOM     46  O   UNL     1      -6.721 -15.929  31.377  1.00  0.00    -0.387 OA
ATOM     47  H   UNL     1      -5.732 -15.906  31.354  1.00  0.00     0.211 HD
ENDBRANCH  41  46
BRANCH  42  48
ATOM     48  C   UNL     1      -5.410 -14.395  28.579  1.00  0.00     0.191 C 
BRANCH  48  49
ATOM     49  O   UNL     1      -4.352 -13.724  27.950  1.00  0.00    -0.394 OA
ATOM     50  H   UNL     1      -3.816 -14.411  27.473  1.00  0.00     0.210 HD
ENDBRANCH  48  49
ENDBRANCH  42  48
BRANCH  43  51
ATOM     51  O   UNL     1      -8.143 -15.009  29.254  1.00  0.00    -0.387 OA
ATOM     52  H   UNL     1      -8.987 -15.277  29.707  1.00  0.00     0.211 HD
ENDBRANCH  43  51
ENDBRANCH  37  38
ENDBRANCH   5  37
BRANCH   7  53
ATOM     53  O   UNL     1      -0.345 -11.776  33.226  1.00  0.00    -0.507 OA
ATOM     54  H   UNL     1      -0.407 -11.838  34.235  1.00  0.00     0.293 HD
ENDBRANCH   7  53
TORSDOF 18
ENDMDL
MODEL 9
REMARK VINA RESULT:    -6.778      2.475      6.352
REMARK INTER + INTRA:         -15.113
REMARK INTER:                 -12.558
REMARK INTRA:                  -2.555
REMARK UNBOUND:                -3.184
REMARK SMILES COc1cc(-c2[o+]c3cc(O)cc(O[C@H]4O[C@@H](CO)[C@@H](O)[C@@H](O)[C@H]4O)c3cc2O[C@@H]2O[C@H](CO)[C@@H](O)[C@@H](O)[C@H]2O)ccc1O
REMARK SMILES IDX 6 1 28 2 27 3 26 4 13 5 12 6 10 7 9 8 8 9 7 10 5 11 3 12
REMARK SMILES IDX 43 13 4 14 42 15 41 16 2 17 1 18 44 19 29 21 30 22 39 23
REMARK SMILES IDX 31 24 37 25 32 26 35 27 40 28 38 30 33 32 34 33 36 35 14 37
REMARK SMILES IDX 15 38 24 39 16 40 22 41 17 42 20 43 25 44 23 46 18 48 19 49
REMARK SMILES IDX 21 51 11 53
REMARK H PARENT 44 20 40 29 38 31 34 34 36 36 25 45 23 47 19 50 21 52 11 54
REMARK Flexibility Score: inf
ROOT
ATOM      1  C   UNL     1      -0.646 -21.103  29.340  1.00  0.00     0.402 A 
ATOM      2  C   UNL     1      -0.971 -20.473  28.120  1.00  0.00     0.229 A 
ATOM      3  C   UNL     1      -0.913 -19.073  28.055  1.00  0.00     0.079 A 
ATOM      4  C   UNL     1      -0.507 -18.336  29.176  1.00  0.00     0.126 A 
ATOM      5  C   UNL     1      -0.462 -16.925  29.171  1.00  0.00     0.143 A 
ATOM      6  C   UNL     1       0.057 -16.254  30.300  1.00  0.00     0.094 A 
ATOM      7  C   UNL     1       0.460 -16.972  31.434  1.00  0.00     0.128 A 
ATOM      8  C   UNL     1       0.354 -18.364  31.451  1.00  0.00     0.162 A 
ATOM      9  C   UNL     1      -0.126 -19.049  30.331  1.00  0.00     0.368 A 
ATOM     10  O   UNL     1      -0.220 -20.373  30.368  1.00  0.00    -0.202 OA
ENDROOT
BRANCH   1  11
ATOM     11  C   UNL     1      -0.712 -22.575  29.509  1.00  0.00     0.087 A 
ATOM     12  C   UNL     1       0.316 -24.788  29.388  1.00  0.00     0.161 A 
ATOM     13  C   UNL     1      -0.909 -25.368  29.803  1.00  0.00     0.157 A 
ATOM     14  C   UNL     1       0.394 -23.398  29.236  1.00  0.00     0.068 A 
ATOM     15  C   UNL     1      -2.015 -24.547  30.056  1.00  0.00     0.051 A 
ATOM     16  C   UNL     1      -1.919 -23.163  29.906  1.00  0.00     0.022 A 
BRANCH  12  17
ATOM     17  O   UNL     1       1.481 -25.525  29.112  1.00  0.00    -0.493 OA
ATOM     18  C   UNL     1       2.587 -25.705  29.993  1.00  0.00     0.278 C 
ENDBRANCH  12  17
BRANCH  13  19
ATOM     19  O   UNL     1      -1.040 -26.748  29.955  1.00  0.00    -0.504 OA
ATOM     20  H   UNL     1      -1.297 -27.348  29.179  1.00  0.00     0.293 HD
ENDBRANCH  13  19
ENDBRANCH   1  11
BRANCH   2  21
ATOM     21  O   UNL     1      -1.312 -21.252  27.003  1.00  0.00    -0.452 OA
BRANCH  21  22
ATOM     22  C   UNL     1      -0.474 -21.460  25.860  1.00  0.00     0.339 C 
ATOM     23  C   UNL     1      -0.250 -20.138  25.080  1.00  0.00     0.214 C 
ATOM     24  O   UNL     1       0.758 -22.040  26.259  1.00  0.00    -0.332 OA
ATOM     25  C   UNL     1       1.206 -20.052  24.581  1.00  0.00     0.180 C 
ATOM     26  C   UNL     1       1.461 -22.531  25.127  1.00  0.00     0.179 C 
ATOM     27  C   UNL     1       1.699 -21.418  24.055  1.00  0.00     0.177 C 
BRANCH  23  28
ATOM     28  O   UNL     1      -1.127 -20.079  23.984  1.00  0.00    -0.384 OA
ATOM     29  H   UNL     1      -2.047 -20.103  24.355  1.00  0.00     0.211 HD
ENDBRANCH  23  28
BRANCH  25  30
ATOM     30  O   UNL     1       1.320 -19.055  23.596  1.00  0.00    -0.387 OA
ATOM     31  H   UNL     1       0.406 -18.890  23.250  1.00  0.00     0.211 HD
ENDBRANCH  25  30
BRANCH  26  32
ATOM     32  C   UNL     1       2.792 -23.132  25.602  1.00  0.00     0.191 C 
BRANCH  32  33
ATOM     33  O   UNL     1       2.625 -24.483  25.940  1.00  0.00    -0.394 OA
ATOM     34  H   UNL     1       3.519 -24.910  25.867  1.00  0.00     0.210 HD
ENDBRANCH  32  33
ENDBRANCH  26  32
BRANCH  27  35
ATOM     35  O   UNL     1       1.017 -21.761  22.875  1.00  0.00    -0.387 OA
ATOM     36  H   UNL     1       0.467 -20.978  22.616  1.00  0.00     0.211 HD
ENDBRANCH  27  35
ENDBRANCH  21  22
ENDBRANCH   2  21
BRANCH   5  37
ATOM     37  O   UNL     1      -0.961 -16.229  28.053  1.00  0.00    -0.461 OA
BRANCH  37  38
ATOM     38  C   UNL     1      -1.021 -14.805  27.923  1.00  0.00     0.339 C 
ATOM     39  C   UNL     1      -2.065 -14.365  26.874  1.00  0.00     0.214 C 
ATOM     40  O   UNL     1       0.262 -14.249  27.679  1.00  0.00    -0.332 OA
ATOM     41  C   UNL     1      -1.601 -14.617  25.428  1.00  0.00     0.180 C 
ATOM     42  C   UNL     1       0.798 -14.571  26.400  1.00  0.00     0.179 C 
ATOM     43  C   UNL     1      -0.140 -14.168  25.231  1.00  0.00     0.177 C 
BRANCH  39  44
ATOM     44  O   UNL     1      -3.293 -15.011  27.102  1.00  0.00    -0.384 OA
ATOM     45  H   UNL     1      -3.888 -14.764  26.345  1.00  0.00     0.211 HD
ENDBRANCH  39  44
BRANCH  41  46
ATOM     46  O   UNL     1      -1.816 -15.937  24.991  1.00  0.00    -0.387 OA
ATOM     47  H   UNL     1      -2.643 -15.965  24.449  1.00  0.00     0.211 HD
ENDBRANCH  41  46
BRANCH  42  48
ATOM     48  C   UNL     1       1.359 -16.013  26.338  1.00  0.00     0.191 C 
BRANCH  48  49
ATOM     49  O   UNL     1       0.619 -16.798  25.442  1.00  0.00    -0.394 OA
ATOM     50  H   UNL     1      -0.094 -16.217  25.069  1.00  0.00     0.210 HD
ENDBRANCH  48  49
ENDBRANCH  42  48
BRANCH  43  51
ATOM     51  O   UNL     1       0.361 -14.645  24.007  1.00  0.00    -0.387 OA
ATOM     52  H   UNL     1       0.831 -13.884  23.572  1.00  0.00     0.211 HD
ENDBRANCH  43  51
ENDBRANCH  37  38
ENDBRANCH   5  37
BRANCH   7  53
ATOM     53  O   UNL     1       0.963 -16.307  32.549  1.00  0.00    -0.507 OA
ATOM     54  H   UNL     1       1.777 -16.648  33.046  1.00  0.00     0.293 HD
ENDBRANCH   7  53
TORSDOF 18
ENDMDL
