MODEL 1
REMARK VINA RESULT:     0.000      0.000      0.000
REMARK INTER + INTRA:           0.197
REMARK INTER:                   0.000
REMARK INTRA:                   0.197
REMARK UNBOUND:                 0.197
REMARK SMILES CC1(C)CC[C@]2(C(=O)[O-])CC[C@]3(C)C(=CC[C@H]4[C@]5(C)CC[C@H](O)C(C)(C)[C@H]5CC[C@]43C)[C@H]2C1
REMARK SMILES IDX 6 1 5 2 10 3 32 4 4 5 11 6 14 7 33 8 2 9 12 10 15 11 1 12
REMARK SMILES IDX 3 13 13 14 30 15 16 16 17 17 29 18 31 19 18 20 28 21 27 22
REMARK SMILES IDX 20 23 19 24 24 25 21 26 22 27 25 28 26 29 7 30 8 31 9 32
REMARK SMILES IDX 23 33
REMARK H PARENT 23 34
REMARK Flexibility Score: inf
ROOT
ATOM      1  C   UNL     1      -3.768  -3.950 -10.800  1.00  0.00     0.017 C 
ATOM      2  C   UNL     1      -3.307  -4.453 -12.208  1.00  0.00     0.014 C 
ATOM      3  C   UNL     1      -2.559  -3.837  -9.842  1.00  0.00     0.014 C 
ATOM      4  C   UNL     1      -4.742  -4.957 -10.120  1.00  0.00     0.028 C 
ATOM      5  C   UNL     1      -3.561  -5.943 -12.440  1.00  0.00     0.007 C 
ATOM      6  C   UNL     1      -2.962  -3.222  -8.487  1.00  0.00     0.013 C 
ATOM      7  C   UNL     1      -5.244  -4.408  -8.778  1.00  0.00    -0.064 C 
ATOM      8  C   UNL     1      -5.769  -5.514 -11.137  1.00  0.00     0.015 C 
ATOM      9  C   UNL     1      -5.069  -6.319 -12.291  1.00  0.00    -0.035 C 
ATOM     10  C   UNL     1      -4.207  -3.884  -7.755  1.00  0.00    -0.006 C 
ATOM     11  C   UNL     1      -6.507  -4.651  -8.371  1.00  0.00    -0.027 C 
ATOM     12  C   UNL     1      -5.808  -6.051 -13.623  1.00  0.00     0.011 C 
ATOM     13  C   UNL     1      -5.153  -7.833 -11.993  1.00  0.00     0.011 C 
ATOM     14  C   UNL     1      -3.645  -5.135  -7.009  1.00  0.00     0.017 C 
ATOM     15  C   UNL     1      -4.917  -2.832  -6.731  1.00  0.00    -0.020 C 
ATOM     16  C   UNL     1      -6.877  -4.599  -6.926  1.00  0.00     0.032 C 
ATOM     17  C   UNL     1      -6.390  -3.290  -6.274  1.00  0.00     0.006 C 
ATOM     18  C   UNL     1      -3.993  -2.589  -5.495  1.00  0.00     0.008 C 
ATOM     19  C   UNL     1      -5.086  -1.436  -7.436  1.00  0.00     0.012 C 
ATOM     20  C   UNL     1      -6.727  -3.183  -4.720  1.00  0.00    -0.025 C 
ATOM     21  C   UNL     1      -4.586  -1.678  -4.411  1.00  0.00     0.005 C 
ATOM     22  C   UNL     1      -6.116  -1.837  -4.178  1.00  0.00     0.003 C 
ATOM     23  C   UNL     1      -8.284  -3.103  -4.556  1.00  0.00     0.010 C 
ATOM     24  C   UNL     1      -6.231  -4.448  -3.956  1.00  0.00     0.012 C 
ATOM     25  C   UNL     1      -6.600  -1.348  -2.750  1.00  0.00    -0.006 C 
ATOM     26  C   UNL     1      -8.742  -2.722  -3.146  1.00  0.00     0.033 C 
ATOM     27  C   UNL     1      -8.163  -1.370  -2.700  1.00  0.00     0.120 C 
ATOM     28  C   UNL     1      -6.033  -2.180  -1.558  1.00  0.00     0.014 C 
ATOM     29  C   UNL     1      -6.129   0.118  -2.536  1.00  0.00     0.014 C 
ENDROOT
BRANCH   1  30
ATOM     30  C   UNL     1      -4.388  -2.572 -11.008  1.00  0.00     0.048 C 
ATOM     31  O   UNL     1      -5.635  -2.421 -11.101  1.00  0.00    -0.550 OA
ATOM     32  O   UNL     1      -3.563  -1.465 -11.196  1.00  0.00    -0.550 OA
ENDBRANCH   1  30
BRANCH  27  33
ATOM     33  O   UNL     1      -8.701  -0.361  -3.523  1.00  0.00    -0.393 OA
ATOM     34  H   UNL     1      -8.632   0.499  -3.036  1.00  0.00     0.210 HD
ENDBRANCH  27  33
TORSDOF 2
ENDMDL
MODEL 2
REMARK VINA RESULT:     0.000      3.534      5.130
REMARK INTER + INTRA:           0.197
REMARK INTER:                   0.000
REMARK INTRA:                   0.197
REMARK UNBOUND:                 0.197
REMARK SMILES CC1(C)CC[C@]2(C(=O)[O-])CC[C@]3(C)C(=CC[C@H]4[C@]5(C)CC[C@H](O)C(C)(C)[C@H]5CC[C@]43C)[C@H]2C1
REMARK SMILES IDX 6 1 5 2 10 3 32 4 4 5 11 6 14 7 33 8 2 9 12 10 15 11 1 12
REMARK SMILES IDX 3 13 13 14 30 15 16 16 17 17 29 18 31 19 18 20 28 21 27 22
REMARK SMILES IDX 20 23 19 24 24 25 21 26 22 27 25 28 26 29 7 30 8 31 9 32
REMARK SMILES IDX 23 33
REMARK H PARENT 23 34
REMARK Flexibility Score: inf
ROOT
ATOM      1  C   UNL     1      -0.948  -4.576 -11.709  1.00  0.00     0.017 C 
ATOM      2  C   UNL     1      -0.553  -4.504 -13.222  1.00  0.00     0.014 C 
ATOM      3  C   UNL     1      -0.451  -3.319 -10.958  1.00  0.00     0.014 C 
ATOM      4  C   UNL     1      -0.268  -5.781 -10.994  1.00  0.00     0.028 C 
ATOM      5  C   UNL     1       0.681  -5.336 -13.573  1.00  0.00     0.007 C 
ATOM      6  C   UNL     1      -0.937  -3.302  -9.495  1.00  0.00     0.013 C 
ATOM      7  C   UNL     1      -0.732  -5.881  -9.535  1.00  0.00    -0.064 C 
ATOM      8  C   UNL     1      -0.303  -7.050 -11.883  1.00  0.00     0.015 C 
ATOM      9  C   UNL     1       0.499  -6.846 -13.220  1.00  0.00    -0.035 C 
ATOM     10  C   UNL     1      -0.664  -4.616  -8.645  1.00  0.00    -0.006 C 
ATOM     11  C   UNL     1      -0.904  -7.086  -8.954  1.00  0.00    -0.027 C 
ATOM     12  C   UNL     1      -0.237  -7.568 -14.373  1.00  0.00     0.011 C 
ATOM     13  C   UNL     1       1.904  -7.474 -13.082  1.00  0.00     0.011 C 
ATOM     14  C   UNL     1       0.811  -4.500  -8.147  1.00  0.00     0.017 C 
ATOM     15  C   UNL     1      -1.717  -4.748  -7.408  1.00  0.00    -0.020 C 
ATOM     16  C   UNL     1      -0.847  -7.245  -7.472  1.00  0.00     0.032 C 
ATOM     17  C   UNL     1      -1.760  -6.223  -6.767  1.00  0.00     0.006 C 
ATOM     18  C   UNL     1      -1.397  -3.670  -6.322  1.00  0.00     0.008 C 
ATOM     19  C   UNL     1      -3.174  -4.442  -7.915  1.00  0.00     0.012 C 
ATOM     20  C   UNL     1      -1.723  -6.318  -5.177  1.00  0.00    -0.025 C 
ATOM     21  C   UNL     1      -2.268  -3.743  -5.061  1.00  0.00     0.005 C 
ATOM     22  C   UNL     1      -2.643  -5.179  -4.596  1.00  0.00     0.003 C 
ATOM     23  C   UNL     1      -2.338  -7.695  -4.750  1.00  0.00     0.010 C 
ATOM     24  C   UNL     1      -0.256  -6.266  -4.651  1.00  0.00     0.012 C 
ATOM     25  C   UNL     1      -3.031  -5.276  -3.062  1.00  0.00    -0.006 C 
ATOM     26  C   UNL     1      -2.620  -7.812  -3.250  1.00  0.00     0.033 C 
ATOM     27  C   UNL     1      -3.573  -6.711  -2.757  1.00  0.00     0.120 C 
ATOM     28  C   UNL     1      -1.863  -4.945  -2.081  1.00  0.00     0.014 C 
ATOM     29  C   UNL     1      -4.166  -4.256  -2.767  1.00  0.00     0.014 C 
ENDROOT
BRANCH   1  30
ATOM     30  C   UNL     1      -2.471  -4.636 -11.657  1.00  0.00     0.048 C 
ATOM     31  O   UNL     1      -3.081  -5.731 -11.525  1.00  0.00    -0.550 OA
ATOM     32  O   UNL     1      -3.215  -3.475 -11.855  1.00  0.00    -0.550 OA
ENDBRANCH   1  30
BRANCH  27  33
ATOM     33  O   UNL     1      -4.831  -6.907  -3.363  1.00  0.00    -0.393 OA
ATOM     34  H   UNL     1      -5.306  -6.037  -3.364  1.00  0.00     0.210 HD
ENDBRANCH  27  33
TORSDOF 2
ENDMDL
MODEL 3
REMARK VINA RESULT:     0.000      5.809      9.149
REMARK INTER + INTRA:           0.197
REMARK INTER:                   0.000
REMARK INTRA:                   0.197
REMARK UNBOUND:                 0.197
REMARK SMILES CC1(C)CC[C@]2(C(=O)[O-])CC[C@]3(C)C(=CC[C@H]4[C@]5(C)CC[C@H](O)C(C)(C)[C@H]5CC[C@]43C)[C@H]2C1
REMARK SMILES IDX 6 1 5 2 10 3 32 4 4 5 11 6 14 7 33 8 2 9 12 10 15 11 1 12
REMARK SMILES IDX 3 13 13 14 30 15 16 16 17 17 29 18 31 19 18 20 28 21 27 22
REMARK SMILES IDX 20 23 19 24 24 25 21 26 22 27 25 28 26 29 7 30 8 31 9 32
REMARK SMILES IDX 23 33
REMARK H PARENT 23 34
REMARK Flexibility Score: inf
ROOT
ATOM      1  C   UNL     1      -2.505  -1.742  -5.180  1.00  0.00     0.017 C 
ATOM      2  C   UNL     1      -3.297  -2.839  -4.395  1.00  0.00     0.014 C 
ATOM      3  C   UNL     1      -1.229  -1.336  -4.406  1.00  0.00     0.014 C 
ATOM      4  C   UNL     1      -3.333  -0.431  -5.330  1.00  0.00     0.028 C 
ATOM      5  C   UNL     1      -4.492  -2.291  -3.613  1.00  0.00     0.007 C 
ATOM      6  C   UNL     1      -0.363  -0.351  -5.215  1.00  0.00     0.013 C 
ATOM      7  C   UNL     1      -2.571   0.601  -6.172  1.00  0.00    -0.064 C 
ATOM      8  C   UNL     1      -4.812  -0.741  -5.676  1.00  0.00     0.015 C 
ATOM      9  C   UNL     1      -5.518  -1.558  -4.534  1.00  0.00    -0.035 C 
ATOM     10  C   UNL     1      -1.105   0.928  -5.798  1.00  0.00    -0.006 C 
ATOM     11  C   UNL     1      -3.236   1.421  -7.011  1.00  0.00    -0.027 C 
ATOM     12  C   UNL     1      -6.484  -2.588  -5.165  1.00  0.00     0.011 C 
ATOM     13  C   UNL     1      -6.349  -0.600  -3.650  1.00  0.00     0.011 C 
ATOM     14  C   UNL     1      -1.162   1.956  -4.625  1.00  0.00     0.017 C 
ATOM     15  C   UNL     1      -0.320   1.526  -7.095  1.00  0.00    -0.020 C 
ATOM     16  C   UNL     1      -2.652   2.725  -7.441  1.00  0.00     0.032 C 
ATOM     17  C   UNL     1      -1.212   2.546  -7.961  1.00  0.00     0.006 C 
ATOM     18  C   UNL     1       1.020   2.191  -6.645  1.00  0.00     0.008 C 
ATOM     19  C   UNL     1       0.076   0.352  -8.064  1.00  0.00     0.012 C 
ATOM     20  C   UNL     1      -0.517   3.908  -8.410  1.00  0.00    -0.025 C 
ATOM     21  C   UNL     1       1.817   2.869  -7.767  1.00  0.00     0.005 C 
ATOM     22  C   UNL     1       0.959   3.583  -8.850  1.00  0.00     0.003 C 
ATOM     23  C   UNL     1      -1.280   4.464  -9.661  1.00  0.00     0.010 C 
ATOM     24  C   UNL     1      -0.611   4.978  -7.279  1.00  0.00     0.012 C 
ATOM     25  C   UNL     1       1.740   4.710  -9.647  1.00  0.00    -0.006 C 
ATOM     26  C   UNL     1      -0.561   5.617 -10.366  1.00  0.00     0.033 C 
ATOM     27  C   UNL     1       0.850   5.217 -10.828  1.00  0.00     0.120 C 
ATOM     28  C   UNL     1       2.182   5.926  -8.773  1.00  0.00     0.014 C 
ATOM     29  C   UNL     1       3.035   4.094 -10.245  1.00  0.00     0.014 C 
ENDROOT
BRANCH   1  30
ATOM     30  C   UNL     1      -2.118  -2.357  -6.521  1.00  0.00     0.048 C 
ATOM     31  O   UNL     1      -2.793  -2.141  -7.562  1.00  0.00    -0.550 OA
ATOM     32  O   UNL     1      -1.054  -3.254  -6.587  1.00  0.00    -0.550 OA
ENDBRANCH   1  30
BRANCH  27  33
ATOM     33  O   UNL     1       0.729   4.224 -11.821  1.00  0.00    -0.393 OA
ATOM     34  H   UNL     1      -0.117   3.735 -11.661  1.00  0.00     0.210 HD
ENDBRANCH  27  33
TORSDOF 2
ENDMDL
MODEL 4
REMARK VINA RESULT:     0.000      4.942      8.512
REMARK INTER + INTRA:           0.197
REMARK INTER:                   0.000
REMARK INTRA:                   0.197
REMARK UNBOUND:                 0.197
REMARK SMILES CC1(C)CC[C@]2(C(=O)[O-])CC[C@]3(C)C(=CC[C@H]4[C@]5(C)CC[C@H](O)C(C)(C)[C@H]5CC[C@]43C)[C@H]2C1
REMARK SMILES IDX 6 1 5 2 10 3 32 4 4 5 11 6 14 7 33 8 2 9 12 10 15 11 1 12
REMARK SMILES IDX 3 13 13 14 30 15 16 16 17 17 29 18 31 19 18 20 28 21 27 22
REMARK SMILES IDX 20 23 19 24 24 25 21 26 22 27 25 28 26 29 7 30 8 31 9 32
REMARK SMILES IDX 23 33
REMARK H PARENT 23 34
REMARK Flexibility Score: inf
ROOT
ATOM      1  C   UNL     1      -0.011  -8.257  -6.892  1.00  0.00     0.017 C 
ATOM      2  C   UNL     1       0.509  -9.041  -5.642  1.00  0.00     0.014 C 
ATOM      3  C   UNL     1       1.165  -7.583  -7.637  1.00  0.00     0.014 C 
ATOM      4  C   UNL     1      -0.964  -7.094  -6.486  1.00  0.00     0.028 C 
ATOM      5  C   UNL     1       0.320  -8.288  -4.324  1.00  0.00     0.007 C 
ATOM      6  C   UNL     1       0.699  -6.911  -8.944  1.00  0.00     0.013 C 
ATOM      7  C   UNL     1      -1.526  -6.390  -7.729  1.00  0.00    -0.064 C 
ATOM      8  C   UNL     1      -1.940  -7.537  -5.366  1.00  0.00     0.015 C 
ATOM      9  C   UNL     1      -1.175  -7.934  -4.052  1.00  0.00    -0.035 C 
ATOM     10  C   UNL     1      -0.540  -5.923  -8.827  1.00  0.00    -0.006 C 
ATOM     11  C   UNL     1      -2.789  -5.919  -7.733  1.00  0.00    -0.027 C 
ATOM     12  C   UNL     1      -1.886  -9.138  -3.391  1.00  0.00     0.011 C 
ATOM     13  C   UNL     1      -1.210  -6.753  -3.055  1.00  0.00     0.011 C 
ATOM     14  C   UNL     1       0.049  -4.559  -8.346  1.00  0.00     0.017 C 
ATOM     15  C   UNL     1      -1.320  -5.782 -10.252  1.00  0.00    -0.020 C 
ATOM     16  C   UNL     1      -3.203  -4.824  -8.659  1.00  0.00     0.032 C 
ATOM     17  C   UNL     1      -2.786  -5.136 -10.111  1.00  0.00     0.006 C 
ATOM     18  C   UNL     1      -0.441  -4.973 -11.259  1.00  0.00     0.008 C 
ATOM     19  C   UNL     1      -1.522  -7.206 -10.890  1.00  0.00     0.012 C 
ATOM     20  C   UNL     1      -3.171  -3.991 -11.150  1.00  0.00    -0.025 C 
ATOM     21  C   UNL     1      -1.100  -4.696 -12.618  1.00  0.00     0.005 C 
ATOM     22  C   UNL     1      -2.629  -4.412 -12.566  1.00  0.00     0.003 C 
ATOM     23  C   UNL     1      -4.734  -3.910 -11.239  1.00  0.00     0.010 C 
ATOM     24  C   UNL     1      -2.648  -2.604 -10.666  1.00  0.00     0.012 C 
ATOM     25  C   UNL     1      -3.173  -3.604 -13.817  1.00  0.00    -0.006 C 
ATOM     26  C   UNL     1      -5.247  -3.048 -12.395  1.00  0.00     0.033 C 
ATOM     27  C   UNL     1      -4.734  -3.548 -13.756  1.00  0.00     0.120 C 
ATOM     28  C   UNL     1      -2.608  -2.154 -13.942  1.00  0.00     0.014 C 
ATOM     29  C   UNL     1      -2.765  -4.356 -15.115  1.00  0.00     0.014 C 
ENDROOT
BRANCH   1  30
ATOM     30  C   UNL     1      -0.678  -9.281  -7.805  1.00  0.00     0.048 C 
ATOM     31  O   UNL     1      -1.927  -9.445  -7.805  1.00  0.00    -0.550 OA
ATOM     32  O   UNL     1       0.108 -10.122  -8.589  1.00  0.00    -0.550 OA
ENDBRANCH   1  30
BRANCH  27  33
ATOM     33  O   UNL     1      -5.287  -4.821 -14.000  1.00  0.00    -0.393 OA
ATOM     34  H   UNL     1      -4.647  -5.500 -13.668  1.00  0.00     0.210 HD
ENDBRANCH  27  33
TORSDOF 2
ENDMDL
MODEL 5
REMARK VINA RESULT:     0.000      6.987      8.810
REMARK INTER + INTRA:           0.197
REMARK INTER:                   0.000
REMARK INTRA:                   0.197
REMARK UNBOUND:                 0.197
REMARK SMILES CC1(C)CC[C@]2(C(=O)[O-])CC[C@]3(C)C(=CC[C@H]4[C@]5(C)CC[C@H](O)C(C)(C)[C@H]5CC[C@]43C)[C@H]2C1
REMARK SMILES IDX 6 1 5 2 10 3 32 4 4 5 11 6 14 7 33 8 2 9 12 10 15 11 1 12
REMARK SMILES IDX 3 13 13 14 30 15 16 16 17 17 29 18 31 19 18 20 28 21 27 22
REMARK SMILES IDX 20 23 19 24 24 25 21 26 22 27 25 28 26 29 7 30 8 31 9 32
REMARK SMILES IDX 23 33
REMARK H PARENT 23 34
REMARK Flexibility Score: inf
ROOT
ATOM      1  C   UNL     1      -2.286   0.551  -8.885  1.00  0.00     0.017 C 
ATOM      2  C   UNL     1      -3.448   0.007  -9.781  1.00  0.00     0.014 C 
ATOM      3  C   UNL     1      -1.412   1.550  -9.678  1.00  0.00     0.014 C 
ATOM      4  C   UNL     1      -1.318  -0.588  -8.444  1.00  0.00     0.028 C 
ATOM      5  C   UNL     1      -3.178  -1.384 -10.357  1.00  0.00     0.007 C 
ATOM      6  C   UNL     1      -0.337   2.199  -8.783  1.00  0.00     0.013 C 
ATOM      7  C   UNL     1      -0.235  -0.047  -7.502  1.00  0.00    -0.064 C 
ATOM      8  C   UNL     1      -2.102  -1.861  -8.038  1.00  0.00     0.015 C 
ATOM      9  C   UNL     1      -2.923  -2.448  -9.243  1.00  0.00    -0.035 C 
ATOM     10  C   UNL     1       0.565   1.207  -7.931  1.00  0.00    -0.006 C 
ATOM     11  C   UNL     1       0.222  -0.803  -6.483  1.00  0.00    -0.027 C 
ATOM     12  C   UNL     1      -4.273  -2.996  -8.723  1.00  0.00     0.011 C 
ATOM     13  C   UNL     1      -2.144  -3.622  -9.878  1.00  0.00     0.011 C 
ATOM     14  C   UNL     1       1.684   0.712  -8.901  1.00  0.00     0.017 C 
ATOM     15  C   UNL     1       1.181   1.951  -6.618  1.00  0.00    -0.020 C 
ATOM     16  C   UNL     1       1.567  -0.561  -5.883  1.00  0.00     0.032 C 
ATOM     17  C   UNL     1       1.755   0.925  -5.519  1.00  0.00     0.006 C 
ATOM     18  C   UNL     1       2.274   2.979  -7.054  1.00  0.00     0.008 C 
ATOM     19  C   UNL     1       0.055   2.783  -5.901  1.00  0.00     0.012 C 
ATOM     20  C   UNL     1       3.185   1.258  -4.901  1.00  0.00    -0.025 C 
ATOM     21  C   UNL     1       2.994   3.689  -5.900  1.00  0.00     0.005 C 
ATOM     22  C   UNL     1       3.258   2.810  -4.644  1.00  0.00     0.003 C 
ATOM     23  C   UNL     1       3.305   0.536  -3.514  1.00  0.00     0.010 C 
ATOM     24  C   UNL     1       4.326   0.722  -5.818  1.00  0.00     0.012 C 
ATOM     25  C   UNL     1       4.443   3.336  -3.731  1.00  0.00    -0.006 C 
ATOM     26  C   UNL     1       4.509   0.985  -2.682  1.00  0.00     0.033 C 
ATOM     27  C   UNL     1       4.488   2.498  -2.411  1.00  0.00     0.120 C 
ATOM     28  C   UNL     1       5.846   3.301  -4.414  1.00  0.00     0.014 C 
ATOM     29  C   UNL     1       4.165   4.818  -3.354  1.00  0.00     0.014 C 
ENDROOT
BRANCH   1  30
ATOM     30  C   UNL     1      -2.940   1.264  -7.706  1.00  0.00     0.048 C 
ATOM     31  O   UNL     1      -3.084   0.694  -6.591  1.00  0.00    -0.550 OA
ATOM     32  O   UNL     1      -3.477   2.538  -7.881  1.00  0.00    -0.550 OA
ENDBRANCH   1  30
BRANCH  27  33
ATOM     33  O   UNL     1       3.375   2.791  -1.598  1.00  0.00    -0.393 OA
ATOM     34  H   UNL     1       2.916   1.937  -1.391  1.00  0.00     0.210 HD
ENDBRANCH  27  33
TORSDOF 2
ENDMDL
MODEL 6
REMARK VINA RESULT:     0.000      3.584      6.252
REMARK INTER + INTRA:           0.197
REMARK INTER:                   0.000
REMARK INTRA:                   0.197
REMARK UNBOUND:                 0.197
REMARK SMILES CC1(C)CC[C@]2(C(=O)[O-])CC[C@]3(C)C(=CC[C@H]4[C@]5(C)CC[C@H](O)C(C)(C)[C@H]5CC[C@]43C)[C@H]2C1
REMARK SMILES IDX 6 1 5 2 10 3 32 4 4 5 11 6 14 7 33 8 2 9 12 10 15 11 1 12
REMARK SMILES IDX 3 13 13 14 30 15 16 16 17 17 29 18 31 19 18 20 28 21 27 22
REMARK SMILES IDX 20 23 19 24 24 25 21 26 22 27 25 28 26 29 7 30 8 31 9 32
REMARK SMILES IDX 23 33
REMARK H PARENT 23 34
REMARK Flexibility Score: inf
ROOT
ATOM      1  C   UNL     1      -2.115  -1.562  -6.691  1.00  0.00     0.017 C 
ATOM      2  C   UNL     1      -1.271  -0.308  -7.094  1.00  0.00     0.014 C 
ATOM      3  C   UNL     1      -2.115  -2.606  -7.832  1.00  0.00     0.014 C 
ATOM      4  C   UNL     1      -3.612  -1.199  -6.463  1.00  0.00     0.028 C 
ATOM      5  C   UNL     1      -2.118   0.875  -7.565  1.00  0.00     0.007 C 
ATOM      6  C   UNL     1      -2.832  -3.905  -7.415  1.00  0.00     0.013 C 
ATOM      7  C   UNL     1      -4.405  -2.425  -5.990  1.00  0.00    -0.064 C 
ATOM      8  C   UNL     1      -3.751   0.134  -5.683  1.00  0.00     0.015 C 
ATOM      9  C   UNL     1      -3.141   1.341  -6.482  1.00  0.00    -0.035 C 
ATOM     10  C   UNL     1      -4.285  -3.742  -6.795  1.00  0.00    -0.006 C 
ATOM     11  C   UNL     1      -5.405  -2.287  -5.096  1.00  0.00    -0.027 C 
ATOM     12  C   UNL     1      -2.450   2.311  -5.494  1.00  0.00     0.011 C 
ATOM     13  C   UNL     1      -4.271   2.114  -7.199  1.00  0.00     0.011 C 
ATOM     14  C   UNL     1      -5.253  -3.611  -8.012  1.00  0.00     0.017 C 
ATOM     15  C   UNL     1      -4.668  -5.011  -5.845  1.00  0.00    -0.020 C 
ATOM     16  C   UNL     1      -6.497  -3.299  -4.996  1.00  0.00     0.032 C 
ATOM     17  C   UNL     1      -5.926  -4.726  -4.884  1.00  0.00     0.006 C 
ATOM     18  C   UNL     1      -4.906  -6.279  -6.726  1.00  0.00     0.008 C 
ATOM     19  C   UNL     1      -3.457  -5.352  -4.901  1.00  0.00     0.012 C 
ATOM     20  C   UNL     1      -7.042  -5.860  -4.805  1.00  0.00    -0.025 C 
ATOM     21  C   UNL     1      -5.358  -7.528  -5.956  1.00  0.00     0.005 C 
ATOM     22  C   UNL     1      -6.319  -7.258  -4.763  1.00  0.00     0.003 C 
ATOM     23  C   UNL     1      -7.829  -5.687  -3.460  1.00  0.00     0.010 C 
ATOM     24  C   UNL     1      -8.062  -5.719  -5.976  1.00  0.00     0.012 C 
ATOM     25  C   UNL     1      -7.195  -8.513  -4.349  1.00  0.00    -0.006 C 
ATOM     26  C   UNL     1      -8.745  -6.864  -3.119  1.00  0.00     0.033 C 
ATOM     27  C   UNL     1      -7.970  -8.189  -3.030  1.00  0.00     0.120 C 
ATOM     28  C   UNL     1      -8.207  -8.979  -5.442  1.00  0.00     0.014 C 
ATOM     29  C   UNL     1      -6.249  -9.715  -4.073  1.00  0.00     0.014 C 
ENDROOT
BRANCH   1  30
ATOM     30  C   UNL     1      -1.452  -2.156  -5.453  1.00  0.00     0.048 C 
ATOM     31  O   UNL     1      -1.883  -1.909  -4.295  1.00  0.00    -0.550 OA
ATOM     32  O   UNL     1      -0.290  -2.912  -5.587  1.00  0.00    -0.550 OA
ENDBRANCH   1  30
BRANCH  27  33
ATOM     33  O   UNL     1      -7.082  -8.113  -1.938  1.00  0.00    -0.393 OA
ATOM     34  H   UNL     1      -6.850  -9.038  -1.670  1.00  0.00     0.210 HD
ENDBRANCH  27  33
TORSDOF 2
ENDMDL
MODEL 7
REMARK VINA RESULT:     0.000      6.767     11.784
REMARK INTER + INTRA:           0.197
REMARK INTER:                   0.000
REMARK INTRA:                   0.197
REMARK UNBOUND:                 0.197
REMARK SMILES CC1(C)CC[C@]2(C(=O)[O-])CC[C@]3(C)C(=CC[C@H]4[C@]5(C)CC[C@H](O)C(C)(C)[C@H]5CC[C@]43C)[C@H]2C1
REMARK SMILES IDX 6 1 5 2 10 3 32 4 4 5 11 6 14 7 33 8 2 9 12 10 15 11 1 12
REMARK SMILES IDX 3 13 13 14 30 15 16 16 17 17 29 18 31 19 18 20 28 21 27 22
REMARK SMILES IDX 20 23 19 24 24 25 21 26 22 27 25 28 26 29 7 30 8 31 9 32
REMARK SMILES IDX 23 33
REMARK H PARENT 23 34
REMARK Flexibility Score: inf
ROOT
ATOM      1  C   UNL     1       0.290  -7.056  -7.089  1.00  0.00     0.017 C 
ATOM      2  C   UNL     1       0.151  -6.694  -5.573  1.00  0.00     0.014 C 
ATOM      3  C   UNL     1      -0.992  -6.664  -7.860  1.00  0.00     0.014 C 
ATOM      4  C   UNL     1       0.449  -8.590  -7.302  1.00  0.00     0.028 C 
ATOM      5  C   UNL     1      -0.203  -7.890  -4.688  1.00  0.00     0.007 C 
ATOM      6  C   UNL     1      -0.835  -6.891  -9.376  1.00  0.00     0.013 C 
ATOM      7  C   UNL     1       0.665  -8.915  -8.786  1.00  0.00    -0.064 C 
ATOM      8  C   UNL     1       1.407  -9.204  -6.250  1.00  0.00     0.015 C 
ATOM      9  C   UNL     1       0.852  -9.037  -4.789  1.00  0.00    -0.035 C 
ATOM     10  C   UNL     1      -0.317  -8.324  -9.826  1.00  0.00    -0.006 C 
ATOM     11  C   UNL     1       1.486  -9.920  -9.152  1.00  0.00    -0.027 C 
ATOM     12  C   UNL     1       2.028  -8.752  -3.825  1.00  0.00     0.011 C 
ATOM     13  C   UNL     1       0.172 -10.349  -4.340  1.00  0.00     0.011 C 
ATOM     14  C   UNL     1      -1.575  -9.248  -9.829  1.00  0.00     0.017 C 
ATOM     15  C   UNL     1       0.396  -8.260 -11.291  1.00  0.00    -0.020 C 
ATOM     16  C   UNL     1       1.343 -10.592 -10.477  1.00  0.00     0.032 C 
ATOM     17  C   UNL     1       1.284  -9.560 -11.621  1.00  0.00     0.006 C 
ATOM     18  C   UNL     1      -0.683  -8.019 -12.396  1.00  0.00     0.008 C 
ATOM     19  C   UNL     1       1.372  -7.028 -11.355  1.00  0.00     0.012 C 
ATOM     20  C   UNL     1       1.100 -10.211 -13.064  1.00  0.00    -0.025 C 
ATOM     21  C   UNL     1      -0.150  -8.023 -13.835  1.00  0.00     0.005 C 
ATOM     22  C   UNL     1       0.989  -9.045 -14.116  1.00  0.00     0.003 C 
ATOM     23  C   UNL     1       2.388 -11.039 -13.400  1.00  0.00     0.010 C 
ATOM     24  C   UNL     1      -0.114 -11.188 -13.082  1.00  0.00     0.012 C 
ATOM     25  C   UNL     1       1.136  -9.437 -15.645  1.00  0.00    -0.006 C 
ATOM     26  C   UNL     1       2.471 -11.494 -14.859  1.00  0.00     0.033 C 
ATOM     27  C   UNL     1       2.422 -10.306 -15.834  1.00  0.00     0.120 C 
ATOM     28  C   UNL     1      -0.093 -10.196 -16.236  1.00  0.00     0.014 C 
ATOM     29  C   UNL     1       1.303  -8.137 -16.482  1.00  0.00     0.014 C 
ENDROOT
BRANCH   1  30
ATOM     30  C   UNL     1       1.474  -6.256  -7.623  1.00  0.00     0.048 C 
ATOM     31  O   UNL     1       2.617  -6.773  -7.738  1.00  0.00    -0.550 OA
ATOM     32  O   UNL     1       1.321  -4.899  -7.902  1.00  0.00    -0.550 OA
ENDBRANCH   1  30
BRANCH  27  33
ATOM     33  O   UNL     1       3.581  -9.526 -15.647  1.00  0.00    -0.393 OA
ATOM     34  H   UNL     1       4.352 -10.143 -15.561  1.00  0.00     0.210 HD
ENDBRANCH  27  33
TORSDOF 2
ENDMDL
MODEL 8
REMARK VINA RESULT:     0.000      2.443      3.029
REMARK INTER + INTRA:           0.197
REMARK INTER:                   0.000
REMARK INTRA:                   0.197
REMARK UNBOUND:                 0.197
REMARK SMILES CC1(C)CC[C@]2(C(=O)[O-])CC[C@]3(C)C(=CC[C@H]4[C@]5(C)CC[C@H](O)C(C)(C)[C@H]5CC[C@]43C)[C@H]2C1
REMARK SMILES IDX 6 1 5 2 10 3 32 4 4 5 11 6 14 7 33 8 2 9 12 10 15 11 1 12
REMARK SMILES IDX 3 13 13 14 30 15 16 16 17 17 29 18 31 19 18 20 28 21 27 22
REMARK SMILES IDX 20 23 19 24 24 25 21 26 22 27 25 28 26 29 7 30 8 31 9 32
REMARK SMILES IDX 23 33
REMARK H PARENT 23 34
REMARK Flexibility Score: inf
ROOT
ATOM      1  C   UNL     1      -1.805  -5.587  -9.214  1.00  0.00     0.017 C 
ATOM      2  C   UNL     1      -0.628  -6.201 -10.042  1.00  0.00     0.014 C 
ATOM      3  C   UNL     1      -1.261  -4.654  -8.107  1.00  0.00     0.014 C 
ATOM      4  C   UNL     1      -2.617  -6.686  -8.466  1.00  0.00     0.028 C 
ATOM      5  C   UNL     1      -0.276  -7.633  -9.637  1.00  0.00     0.007 C 
ATOM      6  C   UNL     1      -2.400  -3.935  -7.358  1.00  0.00     0.013 C 
ATOM      7  C   UNL     1      -3.813  -6.072  -7.727  1.00  0.00    -0.064 C 
ATOM      8  C   UNL     1      -2.845  -7.924  -9.370  1.00  0.00     0.015 C 
ATOM      9  C   UNL     1      -1.489  -8.605  -9.777  1.00  0.00    -0.035 C 
ATOM     10  C   UNL     1      -3.569  -4.856  -6.801  1.00  0.00    -0.006 C 
ATOM     11  C   UNL     1      -4.979  -6.744  -7.638  1.00  0.00    -0.027 C 
ATOM     12  C   UNL     1      -1.589  -9.110 -11.236  1.00  0.00     0.011 C 
ATOM     13  C   UNL     1      -1.227  -9.826  -8.866  1.00  0.00     0.011 C 
ATOM     14  C   UNL     1      -3.049  -5.425  -5.443  1.00  0.00     0.017 C 
ATOM     15  C   UNL     1      -4.950  -4.009  -6.618  1.00  0.00    -0.020 C 
ATOM     16  C   UNL     1      -5.957  -6.455  -6.550  1.00  0.00     0.032 C 
ATOM     17  C   UNL     1      -6.249  -4.944  -6.450  1.00  0.00     0.006 C 
ATOM     18  C   UNL     1      -4.811  -3.019  -5.418  1.00  0.00     0.008 C 
ATOM     19  C   UNL     1      -5.204  -3.123  -7.892  1.00  0.00     0.012 C 
ATOM     20  C   UNL     1      -7.266  -4.562  -5.284  1.00  0.00    -0.025 C 
ATOM     21  C   UNL     1      -6.078  -2.219  -5.086  1.00  0.00     0.005 C 
ATOM     22  C   UNL     1      -7.415  -2.995  -5.258  1.00  0.00     0.003 C 
ATOM     23  C   UNL     1      -8.668  -5.171  -5.632  1.00  0.00     0.010 C 
ATOM     24  C   UNL     1      -6.805  -5.169  -3.924  1.00  0.00     0.012 C 
ATOM     25  C   UNL     1      -8.616  -2.397  -4.415  1.00  0.00    -0.006 C 
ATOM     26  C   UNL     1      -9.805  -4.658  -4.746  1.00  0.00     0.033 C 
ATOM     27  C   UNL     1      -9.940  -3.128  -4.814  1.00  0.00     0.120 C 
ATOM     28  C   UNL     1      -8.423  -2.486  -2.869  1.00  0.00     0.014 C 
ATOM     29  C   UNL     1      -8.771  -0.890  -4.761  1.00  0.00     0.014 C 
ENDROOT
BRANCH   1  30
ATOM     30  C   UNL     1      -2.655  -4.783 -10.192  1.00  0.00     0.048 C 
ATOM     31  O   UNL     1      -3.704  -5.262 -10.699  1.00  0.00    -0.550 OA
ATOM     32  O   UNL     1      -2.221  -3.527 -10.612  1.00  0.00    -0.550 OA
ENDBRANCH   1  30
BRANCH  27  33
ATOM     33  O   UNL     1     -10.330  -2.772  -6.121  1.00  0.00    -0.393 OA
ATOM     34  H   UNL     1     -10.596  -3.600  -6.595  1.00  0.00     0.210 HD
ENDBRANCH  27  33
TORSDOF 2
ENDMDL
MODEL 9
REMARK VINA RESULT:     0.000     10.150     12.343
REMARK INTER + INTRA:           0.197
REMARK INTER:                   0.000
REMARK INTRA:                   0.197
REMARK UNBOUND:                 0.197
REMARK SMILES CC1(C)CC[C@]2(C(=O)[O-])CC[C@]3(C)C(=CC[C@H]4[C@]5(C)CC[C@H](O)C(C)(C)[C@H]5CC[C@]43C)[C@H]2C1
REMARK SMILES IDX 6 1 5 2 10 3 32 4 4 5 11 6 14 7 33 8 2 9 12 10 15 11 1 12
REMARK SMILES IDX 3 13 13 14 30 15 16 16 17 17 29 18 31 19 18 20 28 21 27 22
REMARK SMILES IDX 20 23 19 24 24 25 21 26 22 27 25 28 26 29 7 30 8 31 9 32
REMARK SMILES IDX 23 33
REMARK H PARENT 23 34
REMARK Flexibility Score: inf
ROOT
ATOM      1  C   UNL     1       4.876   2.596 -12.114  1.00  0.00     0.017 C 
ATOM      2  C   UNL     1       4.904   3.400 -13.456  1.00  0.00     0.014 C 
ATOM      3  C   UNL     1       5.026   3.550 -10.906  1.00  0.00     0.014 C 
ATOM      4  C   UNL     1       6.074   1.607 -12.010  1.00  0.00     0.028 C 
ATOM      5  C   UNL     1       6.258   3.357 -14.167  1.00  0.00     0.007 C 
ATOM      6  C   UNL     1       4.872   2.802  -9.567  1.00  0.00     0.013 C 
ATOM      7  C   UNL     1       5.983   0.771 -10.726  1.00  0.00    -0.064 C 
ATOM      8  C   UNL     1       6.322   0.886 -13.360  1.00  0.00     0.015 C 
ATOM      9  C   UNL     1       6.709   1.899 -14.497  1.00  0.00    -0.035 C 
ATOM     10  C   UNL     1       5.768   1.503  -9.379  1.00  0.00    -0.006 C 
ATOM     11  C   UNL     1       6.379  -0.517 -10.720  1.00  0.00    -0.027 C 
ATOM     12  C   UNL     1       6.067   1.442 -15.828  1.00  0.00     0.011 C 
ATOM     13  C   UNL     1       8.243   1.908 -14.685  1.00  0.00     0.011 C 
ATOM     14  C   UNL     1       7.169   2.016  -8.920  1.00  0.00     0.017 C 
ATOM     15  C   UNL     1       5.106   0.484  -8.292  1.00  0.00    -0.020 C 
ATOM     16  C   UNL     1       6.787  -1.195  -9.455  1.00  0.00     0.032 C 
ATOM     17  C   UNL     1       5.729  -0.998  -8.351  1.00  0.00     0.006 C 
ATOM     18  C   UNL     1       5.226   1.088  -6.856  1.00  0.00     0.008 C 
ATOM     19  C   UNL     1       3.567   0.329  -8.576  1.00  0.00     0.012 C 
ATOM     20  C   UNL     1       6.118  -1.673  -6.961  1.00  0.00    -0.025 C 
ATOM     21  C   UNL     1       4.714   0.184  -5.726  1.00  0.00     0.005 C 
ATOM     22  C   UNL     1       4.986  -1.335  -5.920  1.00  0.00     0.003 C 
ATOM     23  C   UNL     1       6.142  -3.228  -7.156  1.00  0.00     0.010 C 
ATOM     24  C   UNL     1       7.540  -1.226  -6.506  1.00  0.00     0.012 C 
ATOM     25  C   UNL     1       4.977  -2.165  -4.569  1.00  0.00    -0.006 C 
ATOM     26  C   UNL     1       6.230  -4.017  -5.847  1.00  0.00     0.033 C 
ATOM     27  C   UNL     1       5.064  -3.691  -4.900  1.00  0.00     0.120 C 
ATOM     28  C   UNL     1       6.119  -1.786  -3.574  1.00  0.00     0.014 C 
ATOM     29  C   UNL     1       3.634  -1.905  -3.830  1.00  0.00     0.014 C 
ENDROOT
BRANCH   1  30
ATOM     30  C   UNL     1       3.522   1.897 -12.051  1.00  0.00     0.048 C 
ATOM     31  O   UNL     1       3.388   0.691 -12.388  1.00  0.00    -0.550 OA
ATOM     32  O   UNL     1       2.385   2.625 -11.705  1.00  0.00    -0.550 OA
ENDBRANCH   1  30
BRANCH  27  33
ATOM     33  O   UNL     1       3.867  -4.139  -5.496  1.00  0.00    -0.393 OA
ATOM     34  H   UNL     1       3.928  -3.965  -6.469  1.00  0.00     0.210 HD
ENDBRANCH  27  33
TORSDOF 2
ENDMDL
