MODEL 1
REMARK VINA RESULT:    -3.120      0.000      0.000
REMARK INTER + INTRA:          -8.949
REMARK INTER:                  -5.855
REMARK INTRA:                  -3.093
REMARK UNBOUND:                -3.093
REMARK SMILES CCCCCCCCC=CCCCCCCCC(=O)[O-]
REMARK SMILES IDX 10 1 9 2 11 3 12 4 13 5 14 6 15 7 16 8 17 9 18 10 19 11
REMARK SMILES IDX 20 12 8 13 7 14 6 15 5 16 4 17 3 18 2 19 1 20
REMARK H PARENT
REMARK Flexibility Score: inf
ROOT
ATOM      1  C   UNL     1      57.081  27.952  52.641  1.00  0.00    -0.031 C 
ATOM      2  C   UNL     1      56.705  28.920  51.785  1.00  0.00    -0.031 C 
ENDROOT
BRANCH   1   3
ATOM      3  C   UNL     1      57.208  26.491  52.281  1.00  0.00     0.027 C 
BRANCH   3   4
ATOM      4  C   UNL     1      58.674  26.057  52.150  1.00  0.00     0.004 C 
BRANCH   4   5
ATOM      5  C   UNL     1      58.947  25.334  50.823  1.00  0.00     0.000 C 
BRANCH   5   6
ATOM      6  C   UNL     1      58.779  26.285  49.633  1.00  0.00     0.000 C 
BRANCH   6   7
ATOM      7  C   UNL     1      60.100  26.999  49.309  1.00  0.00     0.000 C 
BRANCH   7   8
ATOM      8  C   UNL     1      59.916  28.508  49.079  1.00  0.00     0.006 C 
BRANCH   8   9
ATOM      9  C   UNL     1      60.136  29.328  50.357  1.00  0.00     0.053 C 
BRANCH   9  10
ATOM     10  C   UNL     1      61.574  29.719  50.487  1.00  0.00     0.041 C 
ATOM     11  O   UNL     1      62.003  30.755  49.913  1.00  0.00    -0.550 OA
ATOM     12  O   UNL     1      62.430  28.971  51.287  1.00  0.00    -0.550 OA
ENDBRANCH   9  10
ENDBRANCH   8   9
ENDBRANCH   7   8
ENDBRANCH   6   7
ENDBRANCH   5   6
ENDBRANCH   4   5
ENDBRANCH   3   4
ENDBRANCH   1   3
BRANCH   2  13
ATOM     13  C   UNL     1      56.268  28.677  50.364  1.00  0.00     0.027 C 
BRANCH  13  14
ATOM     14  C   UNL     1      54.751  28.870  50.222  1.00  0.00     0.004 C 
BRANCH  14  15
ATOM     15  C   UNL     1      54.083  27.703  49.478  1.00  0.00     0.000 C 
BRANCH  15  16
ATOM     16  C   UNL     1      55.010  26.480  49.366  1.00  0.00     0.000 C 
BRANCH  16  17
ATOM     17  C   UNL     1      54.421  25.224  50.031  1.00  0.00    -0.000 C 
BRANCH  17  18
ATOM     18  C   UNL     1      53.265  25.489  51.017  1.00  0.00    -0.000 C 
BRANCH  18  19
ATOM     19  C   UNL     1      53.672  25.520  52.501  1.00  0.00    -0.003 C 
ATOM     20  C   UNL     1      53.488  26.896  53.140  1.00  0.00     0.004 C 
ENDBRANCH  18  19
ENDBRANCH  17  18
ENDBRANCH  16  17
ENDBRANCH  15  16
ENDBRANCH  14  15
ENDBRANCH  13  14
ENDBRANCH   2  13
TORSDOF 15
ENDMDL
MODEL 2
REMARK VINA RESULT:    -3.078      2.503      3.423
REMARK INTER + INTRA:          -8.871
REMARK INTER:                  -6.286
REMARK INTRA:                  -2.585
REMARK UNBOUND:                -3.093
REMARK SMILES CCCCCCCCC=CCCCCCCCC(=O)[O-]
REMARK SMILES IDX 10 1 9 2 11 3 12 4 13 5 14 6 15 7 16 8 17 9 18 10 19 11
REMARK SMILES IDX 20 12 8 13 7 14 6 15 5 16 4 17 3 18 2 19 1 20
REMARK H PARENT
REMARK Flexibility Score: inf
ROOT
ATOM      1  C   UNL     1      57.100  28.927  50.956  1.00  0.00    -0.031 C 
ATOM      2  C   UNL     1      56.324  28.138  50.189  1.00  0.00    -0.031 C 
ENDROOT
BRANCH   1   3
ATOM      3  C   UNL     1      58.411  28.500  51.573  1.00  0.00     0.027 C 
BRANCH   3   4
ATOM      4  C   UNL     1      59.594  29.309  51.024  1.00  0.00     0.004 C 
BRANCH   4   5
ATOM      5  C   UNL     1      59.563  29.412  49.492  1.00  0.00     0.000 C 
BRANCH   5   6
ATOM      6  C   UNL     1      60.050  28.112  48.843  1.00  0.00     0.000 C 
BRANCH   6   7
ATOM      7  C   UNL     1      61.482  27.779  49.287  1.00  0.00     0.000 C 
BRANCH   7   8
ATOM      8  C   UNL     1      61.662  26.295  49.644  1.00  0.00     0.006 C 
BRANCH   8   9
ATOM      9  C   UNL     1      60.353  25.637  50.099  1.00  0.00     0.053 C 
BRANCH   9  10
ATOM     10  C   UNL     1      60.552  24.171  50.319  1.00  0.00     0.041 C 
ATOM     11  O   UNL     1      61.329  23.519  49.573  1.00  0.00    -0.550 OA
ATOM     12  O   UNL     1      59.921  23.535  51.382  1.00  0.00    -0.550 OA
ENDBRANCH   9  10
ENDBRANCH   8   9
ENDBRANCH   7   8
ENDBRANCH   6   7
ENDBRANCH   5   6
ENDBRANCH   4   5
ENDBRANCH   3   4
ENDBRANCH   1   3
BRANCH   2  13
ATOM     13  C   UNL     1      56.603  26.684  49.908  1.00  0.00     0.027 C 
BRANCH  13  14
ATOM     14  C   UNL     1      55.349  25.986  49.361  1.00  0.00     0.004 C 
BRANCH  14  15
ATOM     15  C   UNL     1      54.129  26.920  49.333  1.00  0.00     0.000 C 
BRANCH  15  16
ATOM     16  C   UNL     1      52.891  26.276  49.981  1.00  0.00     0.000 C 
BRANCH  16  17
ATOM     17  C   UNL     1      52.964  26.259  51.518  1.00  0.00    -0.000 C 
BRANCH  17  18
ATOM     18  C   UNL     1      53.312  27.613  52.170  1.00  0.00    -0.000 C 
BRANCH  18  19
ATOM     19  C   UNL     1      54.424  27.556  53.232  1.00  0.00    -0.003 C 
ATOM     20  C   UNL     1      55.181  26.229  53.229  1.00  0.00     0.004 C 
ENDBRANCH  18  19
ENDBRANCH  17  18
ENDBRANCH  16  17
ENDBRANCH  15  16
ENDBRANCH  14  15
ENDBRANCH  13  14
ENDBRANCH   2  13
TORSDOF 15
ENDMDL
MODEL 3
REMARK VINA RESULT:    -3.043     10.745     12.936
REMARK INTER + INTRA:          -8.805
REMARK INTER:                  -6.614
REMARK INTRA:                  -2.191
REMARK UNBOUND:                -3.093
REMARK SMILES CCCCCCCCC=CCCCCCCCC(=O)[O-]
REMARK SMILES IDX 10 1 9 2 11 3 12 4 13 5 14 6 15 7 16 8 17 9 18 10 19 11
REMARK SMILES IDX 20 12 8 13 7 14 6 15 5 16 4 17 3 18 2 19 1 20
REMARK H PARENT
REMARK Flexibility Score: inf
ROOT
ATOM      1  C   UNL     1      61.340  31.686  59.018  1.00  0.00    -0.031 C 
ATOM      2  C   UNL     1      62.523  31.807  58.387  1.00  0.00    -0.031 C 
ENDROOT
BRANCH   1   3
ATOM      3  C   UNL     1      61.117  31.972  60.484  1.00  0.00     0.027 C 
BRANCH   3   4
ATOM      4  C   UNL     1      61.276  30.711  61.345  1.00  0.00     0.004 C 
BRANCH   4   5
ATOM      5  C   UNL     1      60.867  29.438  60.589  1.00  0.00     0.000 C 
BRANCH   5   6
ATOM      6  C   UNL     1      61.966  28.373  60.669  1.00  0.00     0.000 C 
BRANCH   6   7
ATOM      7  C   UNL     1      63.322  29.007  61.015  1.00  0.00     0.000 C 
BRANCH   7   8
ATOM      8  C   UNL     1      64.500  28.300  60.327  1.00  0.00     0.006 C 
BRANCH   8   9
ATOM      9  C   UNL     1      65.813  29.082  60.458  1.00  0.00     0.053 C 
BRANCH   9  10
ATOM     10  C   UNL     1      66.957  28.148  60.695  1.00  0.00     0.041 C 
ATOM     11  O   UNL     1      67.021  27.055  60.073  1.00  0.00    -0.550 OA
ATOM     12  O   UNL     1      67.982  28.509  61.562  1.00  0.00    -0.550 OA
ENDBRANCH   9  10
ENDBRANCH   8   9
ENDBRANCH   7   8
ENDBRANCH   6   7
ENDBRANCH   5   6
ENDBRANCH   4   5
ENDBRANCH   3   4
ENDBRANCH   1   3
BRANCH   2  13
ATOM     13  C   UNL     1      63.820  32.159  59.070  1.00  0.00     0.027 C 
BRANCH  13  14
ATOM     14  C   UNL     1      64.093  33.667  58.972  1.00  0.00     0.004 C 
BRANCH  14  15
ATOM     15  C   UNL     1      64.910  34.189  60.163  1.00  0.00     0.000 C 
BRANCH  15  16
ATOM     16  C   UNL     1      64.138  35.240  60.980  1.00  0.00     0.000 C 
BRANCH  16  17
ATOM     17  C   UNL     1      62.645  35.301  60.612  1.00  0.00    -0.000 C 
BRANCH  17  18
ATOM     18  C   UNL     1      62.050  36.723  60.534  1.00  0.00    -0.000 C 
BRANCH  18  19
ATOM     19  C   UNL     1      60.877  36.883  59.552  1.00  0.00    -0.003 C 
ATOM     20  C   UNL     1      60.429  35.557  58.939  1.00  0.00     0.004 C 
ENDBRANCH  18  19
ENDBRANCH  17  18
ENDBRANCH  16  17
ENDBRANCH  15  16
ENDBRANCH  14  15
ENDBRANCH  13  14
ENDBRANCH   2  13
TORSDOF 15
ENDMDL
MODEL 4
REMARK VINA RESULT:    -3.012      4.522      6.228
REMARK INTER + INTRA:          -8.747
REMARK INTER:                  -7.243
REMARK INTRA:                  -1.504
REMARK UNBOUND:                -3.093
REMARK SMILES CCCCCCCCC=CCCCCCCCC(=O)[O-]
REMARK SMILES IDX 10 1 9 2 11 3 12 4 13 5 14 6 15 7 16 8 17 9 18 10 19 11
REMARK SMILES IDX 20 12 8 13 7 14 6 15 5 16 4 17 3 18 2 19 1 20
REMARK H PARENT
REMARK Flexibility Score: inf
ROOT
ATOM      1  C   UNL     1      61.261  27.506  49.473  1.00  0.00    -0.031 C 
ATOM      2  C   UNL     1      60.768  28.756  49.404  1.00  0.00    -0.031 C 
ENDROOT
BRANCH   1   3
ATOM      3  C   UNL     1      60.426  26.250  49.392  1.00  0.00     0.027 C 
BRANCH   3   4
ATOM      4  C   UNL     1      60.335  25.533  50.746  1.00  0.00     0.004 C 
BRANCH   4   5
ATOM      5  C   UNL     1      60.229  24.008  50.588  1.00  0.00     0.000 C 
BRANCH   5   6
ATOM      6  C   UNL     1      61.549  23.414  50.082  1.00  0.00     0.000 C 
BRANCH   6   7
ATOM      7  C   UNL     1      61.292  22.291  49.067  1.00  0.00     0.000 C 
BRANCH   7   8
ATOM      8  C   UNL     1      61.411  20.891  49.689  1.00  0.00     0.006 C 
BRANCH   8   9
ATOM      9  C   UNL     1      60.164  20.031  49.446  1.00  0.00     0.053 C 
BRANCH   9  10
ATOM     10  C   UNL     1      60.378  18.641  49.955  1.00  0.00     0.041 C 
ATOM     11  O   UNL     1      59.858  17.661  49.357  1.00  0.00    -0.550 OA
ATOM     12  O   UNL     1      61.195  18.420  51.057  1.00  0.00    -0.550 OA
ENDBRANCH   9  10
ENDBRANCH   8   9
ENDBRANCH   7   8
ENDBRANCH   6   7
ENDBRANCH   5   6
ENDBRANCH   4   5
ENDBRANCH   3   4
ENDBRANCH   1   3
BRANCH   2  13
ATOM     13  C   UNL     1      59.300  29.090  49.327  1.00  0.00     0.027 C 
BRANCH  13  14
ATOM     14  C   UNL     1      58.736  29.385  50.725  1.00  0.00     0.004 C 
BRANCH  14  15
ATOM     15  C   UNL     1      57.791  28.279  51.217  1.00  0.00     0.000 C 
BRANCH  15  16
ATOM     16  C   UNL     1      56.753  27.886  50.151  1.00  0.00     0.000 C 
BRANCH  16  17
ATOM     17  C   UNL     1      56.738  26.375  49.863  1.00  0.00    -0.000 C 
BRANCH  17  18
ATOM     18  C   UNL     1      55.362  25.800  49.467  1.00  0.00    -0.000 C 
BRANCH  18  19
ATOM     19  C   UNL     1      54.249  26.847  49.285  1.00  0.00    -0.003 C 
ATOM     20  C   UNL     1      53.027  26.295  48.552  1.00  0.00     0.004 C 
ENDBRANCH  18  19
ENDBRANCH  17  18
ENDBRANCH  16  17
ENDBRANCH  15  16
ENDBRANCH  14  15
ENDBRANCH  13  14
ENDBRANCH   2  13
TORSDOF 15
ENDMDL
MODEL 5
REMARK VINA RESULT:    -3.011     10.020     12.523
REMARK INTER + INTRA:          -8.745
REMARK INTER:                  -6.125
REMARK INTRA:                  -2.620
REMARK UNBOUND:                -3.093
REMARK SMILES CCCCCCCCC=CCCCCCCCC(=O)[O-]
REMARK SMILES IDX 10 1 9 2 11 3 12 4 13 5 14 6 15 7 16 8 17 9 18 10 19 11
REMARK SMILES IDX 20 12 8 13 7 14 6 15 5 16 4 17 3 18 2 19 1 20
REMARK H PARENT
REMARK Flexibility Score: inf
ROOT
ATOM      1  C   UNL     1      59.744  32.209  57.744  1.00  0.00    -0.031 C 
ATOM      2  C   UNL     1      59.951  33.373  57.099  1.00  0.00    -0.031 C 
ENDROOT
BRANCH   1   3
ATOM      3  C   UNL     1      60.839  31.329  58.297  1.00  0.00     0.027 C 
BRANCH   3   4
ATOM      4  C   UNL     1      60.755  31.201  59.825  1.00  0.00     0.004 C 
BRANCH   4   5
ATOM      5  C   UNL     1      61.886  31.964  60.532  1.00  0.00     0.000 C 
BRANCH   5   6
ATOM      6  C   UNL     1      63.059  32.217  59.578  1.00  0.00     0.000 C 
BRANCH   6   7
ATOM      7  C   UNL     1      64.400  31.917  60.265  1.00  0.00     0.000 C 
BRANCH   7   8
ATOM      8  C   UNL     1      64.933  30.514  59.937  1.00  0.00     0.006 C 
BRANCH   8   9
ATOM      9  C   UNL     1      64.498  29.464  60.967  1.00  0.00     0.053 C 
BRANCH   9  10
ATOM     10  C   UNL     1      63.418  28.594  60.405  1.00  0.00     0.041 C 
ATOM     11  O   UNL     1      62.688  27.915  61.175  1.00  0.00    -0.550 OA
ATOM     12  O   UNL     1      63.181  28.575  59.037  1.00  0.00    -0.550 OA
ENDBRANCH   9  10
ENDBRANCH   8   9
ENDBRANCH   7   8
ENDBRANCH   6   7
ENDBRANCH   5   6
ENDBRANCH   4   5
ENDBRANCH   3   4
ENDBRANCH   1   3
BRANCH   2  13
ATOM     13  C   UNL     1      61.311  33.924  56.756  1.00  0.00     0.027 C 
BRANCH  13  14
ATOM     14  C   UNL     1      61.630  35.157  57.614  1.00  0.00     0.004 C 
BRANCH  14  15
ATOM     15  C   UNL     1      60.498  35.490  58.598  1.00  0.00     0.000 C 
BRANCH  15  16
ATOM     16  C   UNL     1      60.994  35.560  60.052  1.00  0.00     0.000 C 
BRANCH  16  17
ATOM     17  C   UNL     1      61.642  36.913  60.396  1.00  0.00    -0.000 C 
BRANCH  17  18
ATOM     18  C   UNL     1      63.027  36.821  61.069  1.00  0.00    -0.000 C 
BRANCH  18  19
ATOM     19  C   UNL     1      63.846  35.572  60.701  1.00  0.00    -0.003 C 
ATOM     20  C   UNL     1      65.128  35.438  61.521  1.00  0.00     0.004 C 
ENDBRANCH  18  19
ENDBRANCH  17  18
ENDBRANCH  16  17
ENDBRANCH  15  16
ENDBRANCH  14  15
ENDBRANCH  13  14
ENDBRANCH   2  13
TORSDOF 15
ENDMDL
MODEL 6
REMARK VINA RESULT:    -2.983      1.658      2.946
REMARK INTER + INTRA:          -8.693
REMARK INTER:                  -6.393
REMARK INTRA:                  -2.299
REMARK UNBOUND:                -3.093
REMARK SMILES CCCCCCCCC=CCCCCCCCC(=O)[O-]
REMARK SMILES IDX 10 1 9 2 11 3 12 4 13 5 14 6 15 7 16 8 17 9 18 10 19 11
REMARK SMILES IDX 20 12 8 13 7 14 6 15 5 16 4 17 3 18 2 19 1 20
REMARK H PARENT
REMARK Flexibility Score: inf
ROOT
ATOM      1  C   UNL     1      57.149  26.422  49.982  1.00  0.00    -0.031 C 
ATOM      2  C   UNL     1      55.892  26.219  49.546  1.00  0.00    -0.031 C 
ENDROOT
BRANCH   1   3
ATOM      3  C   UNL     1      57.504  27.042  51.313  1.00  0.00     0.027 C 
BRANCH   3   4
ATOM      4  C   UNL     1      58.481  28.215  51.157  1.00  0.00     0.004 C 
BRANCH   4   5
ATOM      5  C   UNL     1      58.238  29.002  49.860  1.00  0.00     0.000 C 
BRANCH   5   6
ATOM      6  C   UNL     1      59.554  29.262  49.119  1.00  0.00     0.000 C 
BRANCH   6   7
ATOM      7  C   UNL     1      60.362  27.964  48.961  1.00  0.00     0.000 C 
BRANCH   7   8
ATOM      8  C   UNL     1      61.807  28.101  49.465  1.00  0.00     0.006 C 
BRANCH   8   9
ATOM      9  C   UNL     1      62.009  29.344  50.341  1.00  0.00     0.053 C 
BRANCH   9  10
ATOM     10  C   UNL     1      63.220  30.104  49.901  1.00  0.00     0.041 C 
ATOM     11  O   UNL     1      63.468  31.238  50.392  1.00  0.00    -0.550 OA
ATOM     12  O   UNL     1      64.104  29.540  48.990  1.00  0.00    -0.550 OA
ENDBRANCH   9  10
ENDBRANCH   8   9
ENDBRANCH   7   8
ENDBRANCH   6   7
ENDBRANCH   5   6
ENDBRANCH   4   5
ENDBRANCH   3   4
ENDBRANCH   1   3
BRANCH   2  13
ATOM     13  C   UNL     1      54.653  26.662  50.281  1.00  0.00     0.027 C 
BRANCH  13  14
ATOM     14  C   UNL     1      53.686  27.384  49.330  1.00  0.00     0.004 C 
BRANCH  14  15
ATOM     15  C   UNL     1      53.438  28.841  49.749  1.00  0.00     0.000 C 
BRANCH  15  16
ATOM     16  C   UNL     1      54.721  29.527  50.249  1.00  0.00     0.000 C 
BRANCH  16  17
ATOM     17  C   UNL     1      54.454  30.542  51.375  1.00  0.00    -0.000 C 
BRANCH  17  18
ATOM     18  C   UNL     1      54.937  30.106  52.773  1.00  0.00    -0.000 C 
BRANCH  18  19
ATOM     19  C   UNL     1      54.241  28.857  53.341  1.00  0.00    -0.003 C 
ATOM     20  C   UNL     1      55.217  27.869  53.978  1.00  0.00     0.004 C 
ENDBRANCH  18  19
ENDBRANCH  17  18
ENDBRANCH  16  17
ENDBRANCH  15  16
ENDBRANCH  14  15
ENDBRANCH  13  14
ENDBRANCH   2  13
TORSDOF 15
ENDMDL
MODEL 7
REMARK VINA RESULT:    -2.979      3.442      5.161
REMARK INTER + INTRA:          -8.684
REMARK INTER:                  -6.045
REMARK INTRA:                  -2.639
REMARK UNBOUND:                -3.093
REMARK SMILES CCCCCCCCC=CCCCCCCCC(=O)[O-]
REMARK SMILES IDX 10 1 9 2 11 3 12 4 13 5 14 6 15 7 16 8 17 9 18 10 19 11
REMARK SMILES IDX 20 12 8 13 7 14 6 15 5 16 4 17 3 18 2 19 1 20
REMARK H PARENT
REMARK Flexibility Score: inf
ROOT
ATOM      1  C   UNL     1      58.938  29.555  50.223  1.00  0.00    -0.031 C 
ATOM      2  C   UNL     1      58.566  29.260  51.483  1.00  0.00    -0.031 C 
ENDROOT
BRANCH   1   3
ATOM      3  C   UNL     1      60.306  29.280  49.646  1.00  0.00     0.027 C 
BRANCH   3   4
ATOM      4  C   UNL     1      60.377  27.903  48.970  1.00  0.00     0.004 C 
BRANCH   4   5
ATOM      5  C   UNL     1      61.438  26.997  49.614  1.00  0.00     0.000 C 
BRANCH   5   6
ATOM      6  C   UNL     1      60.945  25.549  49.702  1.00  0.00     0.000 C 
BRANCH   6   7
ATOM      7  C   UNL     1      61.770  24.749  50.721  1.00  0.00     0.000 C 
BRANCH   7   8
ATOM      8  C   UNL     1      62.340  23.449  50.131  1.00  0.00     0.006 C 
BRANCH   8   9
ATOM      9  C   UNL     1      61.288  22.643  49.358  1.00  0.00     0.053 C 
BRANCH   9  10
ATOM     10  C   UNL     1      61.272  21.221  49.822  1.00  0.00     0.041 C 
ATOM     11  O   UNL     1      60.479  20.394  49.300  1.00  0.00    -0.550 OA
ATOM     12  O   UNL     1      62.170  20.795  50.793  1.00  0.00    -0.550 OA
ENDBRANCH   9  10
ENDBRANCH   8   9
ENDBRANCH   7   8
ENDBRANCH   6   7
ENDBRANCH   5   6
ENDBRANCH   4   5
ENDBRANCH   3   4
ENDBRANCH   1   3
BRANCH   2  13
ATOM     13  C   UNL     1      59.488  28.694  52.532  1.00  0.00     0.027 C 
BRANCH  13  14
ATOM     14  C   UNL     1      59.300  27.175  52.658  1.00  0.00     0.004 C 
BRANCH  14  15
ATOM     15  C   UNL     1      57.849  26.745  52.397  1.00  0.00     0.000 C 
BRANCH  15  16
ATOM     16  C   UNL     1      57.756  25.619  51.352  1.00  0.00     0.000 C 
BRANCH  16  17
ATOM     17  C   UNL     1      57.293  26.123  49.974  1.00  0.00    -0.000 C 
BRANCH  17  18
ATOM     18  C   UNL     1      55.796  26.485  49.881  1.00  0.00    -0.000 C 
BRANCH  18  19
ATOM     19  C   UNL     1      55.486  27.990  49.958  1.00  0.00    -0.003 C 
ATOM     20  C   UNL     1      54.617  28.358  51.160  1.00  0.00     0.004 C 
ENDBRANCH  18  19
ENDBRANCH  17  18
ENDBRANCH  16  17
ENDBRANCH  15  16
ENDBRANCH  14  15
ENDBRANCH  13  14
ENDBRANCH   2  13
TORSDOF 15
ENDMDL
MODEL 8
REMARK VINA RESULT:    -2.956      9.909     12.455
REMARK INTER + INTRA:          -8.642
REMARK INTER:                  -5.738
REMARK INTRA:                  -2.904
REMARK UNBOUND:                -3.093
REMARK SMILES CCCCCCCCC=CCCCCCCCC(=O)[O-]
REMARK SMILES IDX 10 1 9 2 11 3 12 4 13 5 14 6 15 7 16 8 17 9 18 10 19 11
REMARK SMILES IDX 20 12 8 13 7 14 6 15 5 16 4 17 3 18 2 19 1 20
REMARK H PARENT
REMARK Flexibility Score: inf
ROOT
ATOM      1  C   UNL     1      64.379  33.016  58.664  1.00  0.00    -0.031 C 
ATOM      2  C   UNL     1      64.840  31.831  58.221  1.00  0.00    -0.031 C 
ENDROOT
BRANCH   1   3
ATOM      3  C   UNL     1      64.513  33.510  60.084  1.00  0.00     0.027 C 
BRANCH   3   4
ATOM      4  C   UNL     1      63.259  34.264  60.550  1.00  0.00     0.004 C 
BRANCH   4   5
ATOM      5  C   UNL     1      63.541  35.752  60.807  1.00  0.00     0.000 C 
BRANCH   5   6
ATOM      6  C   UNL     1      62.266  36.588  60.657  1.00  0.00     0.000 C 
BRANCH   6   7
ATOM      7  C   UNL     1      61.071  35.703  60.271  1.00  0.00     0.000 C 
BRANCH   7   8
ATOM      8  C   UNL     1      60.348  36.201  59.009  1.00  0.00     0.006 C 
BRANCH   8   9
ATOM      9  C   UNL     1      60.336  35.156  57.887  1.00  0.00     0.053 C 
BRANCH   9  10
ATOM     10  C   UNL     1      61.608  35.215  57.102  1.00  0.00     0.041 C 
ATOM     11  O   UNL     1      61.950  34.242  56.378  1.00  0.00    -0.550 OA
ATOM     12  O   UNL     1      62.389  36.363  57.125  1.00  0.00    -0.550 OA
ENDBRANCH   9  10
ENDBRANCH   8   9
ENDBRANCH   7   8
ENDBRANCH   6   7
ENDBRANCH   5   6
ENDBRANCH   4   5
ENDBRANCH   3   4
ENDBRANCH   1   3
BRANCH   2  13
ATOM     13  C   UNL     1      65.479  30.785  59.097  1.00  0.00     0.027 C 
BRANCH  13  14
ATOM     14  C   UNL     1      64.458  29.705  59.486  1.00  0.00     0.004 C 
BRANCH  14  15
ATOM     15  C   UNL     1      64.150  29.712  60.991  1.00  0.00     0.000 C 
BRANCH  15  16
ATOM     16  C   UNL     1      62.661  29.451  61.280  1.00  0.00     0.000 C 
BRANCH  16  17
ATOM     17  C   UNL     1      61.840  30.748  61.389  1.00  0.00    -0.000 C 
BRANCH  17  18
ATOM     18  C   UNL     1      60.705  30.891  60.354  1.00  0.00    -0.000 C 
BRANCH  18  19
ATOM     19  C   UNL     1      61.007  31.849  59.188  1.00  0.00    -0.003 C 
ATOM     20  C   UNL     1      61.158  31.128  57.850  1.00  0.00     0.004 C 
ENDBRANCH  18  19
ENDBRANCH  17  18
ENDBRANCH  16  17
ENDBRANCH  15  16
ENDBRANCH  14  15
ENDBRANCH  13  14
ENDBRANCH   2  13
TORSDOF 15
ENDMDL
MODEL 9
REMARK VINA RESULT:    -2.954      2.483      3.972
REMARK INTER + INTRA:          -8.638
REMARK INTER:                  -6.549
REMARK INTRA:                  -2.089
REMARK UNBOUND:                -3.093
REMARK SMILES CCCCCCCCC=CCCCCCCCC(=O)[O-]
REMARK SMILES IDX 10 1 9 2 11 3 12 4 13 5 14 6 15 7 16 8 17 9 18 10 19 11
REMARK SMILES IDX 20 12 8 13 7 14 6 15 5 16 4 17 3 18 2 19 1 20
REMARK H PARENT
REMARK Flexibility Score: inf
ROOT
ATOM      1  C   UNL     1      57.186  26.557  50.220  1.00  0.00    -0.031 C 
ATOM      2  C   UNL     1      55.983  26.242  49.704  1.00  0.00    -0.031 C 
ENDROOT
BRANCH   1   3
ATOM      3  C   UNL     1      57.394  27.277  51.531  1.00  0.00     0.027 C 
BRANCH   3   4
ATOM      4  C   UNL     1      58.164  28.592  51.348  1.00  0.00     0.004 C 
BRANCH   4   5
ATOM      5  C   UNL     1      58.266  29.002  49.870  1.00  0.00     0.000 C 
BRANCH   5   6
ATOM      6  C   UNL     1      59.723  29.255  49.468  1.00  0.00     0.000 C 
BRANCH   6   7
ATOM      7  C   UNL     1      60.368  27.978  48.908  1.00  0.00     0.000 C 
BRANCH   7   8
ATOM      8  C   UNL     1      61.628  27.562  49.683  1.00  0.00     0.006 C 
BRANCH   8   9
ATOM      9  C   UNL     1      61.321  26.577  50.819  1.00  0.00     0.053 C 
BRANCH   9  10
ATOM     10  C   UNL     1      61.244  25.179  50.294  1.00  0.00     0.041 C 
ATOM     11  O   UNL     1      62.286  24.594  49.896  1.00  0.00    -0.550 OA
ATOM     12  O   UNL     1      60.031  24.500  50.294  1.00  0.00    -0.550 OA
ENDBRANCH   9  10
ENDBRANCH   8   9
ENDBRANCH   7   8
ENDBRANCH   6   7
ENDBRANCH   5   6
ENDBRANCH   4   5
ENDBRANCH   3   4
ENDBRANCH   1   3
BRANCH   2  13
ATOM     13  C   UNL     1      54.664  26.639  50.315  1.00  0.00     0.027 C 
BRANCH  13  14
ATOM     14  C   UNL     1      53.802  27.402  49.298  1.00  0.00     0.004 C 
BRANCH  14  15
ATOM     15  C   UNL     1      53.449  28.817  49.780  1.00  0.00     0.000 C 
BRANCH  15  16
ATOM     16  C   UNL     1      54.688  29.593  50.260  1.00  0.00     0.000 C 
BRANCH  16  17
ATOM     17  C   UNL     1      54.346  30.676  51.299  1.00  0.00    -0.000 C 
BRANCH  17  18
ATOM     18  C   UNL     1      55.368  30.824  52.445  1.00  0.00    -0.000 C 
BRANCH  18  19
ATOM     19  C   UNL     1      55.194  32.086  53.310  1.00  0.00    -0.003 C 
ATOM     20  C   UNL     1      54.263  31.867  54.501  1.00  0.00     0.004 C 
ENDBRANCH  18  19
ENDBRANCH  17  18
ENDBRANCH  16  17
ENDBRANCH  15  16
ENDBRANCH  14  15
ENDBRANCH  13  14
ENDBRANCH   2  13
TORSDOF 15
ENDMDL
