MODEL 1
REMARK VINA RESULT:    -5.386      0.000      0.000
REMARK INTER + INTRA:         -10.296
REMARK INTER:                  -9.164
REMARK INTRA:                  -1.132
REMARK UNBOUND:                -1.132
REMARK SMILES CCCCCCCCCCCCCC(=O)[O-]
REMARK SMILES IDX 8 1 9 2 10 3 11 4 12 5 13 6 14 7 15 8 16 9 7 10 6 11 5 12
REMARK SMILES IDX 4 13 3 14 2 15 1 16
REMARK H PARENT
REMARK Flexibility Score: inf
ROOT
ATOM      1  C   UNL     1     -11.704 -18.817  29.134  1.00  0.00     0.000 C 
ENDROOT
BRANCH   1   2
ATOM      2  C   UNL     1     -12.719 -17.747  29.568  1.00  0.00     0.000 C 
BRANCH   2   3
ATOM      3  C   UNL     1     -12.365 -16.339  29.055  1.00  0.00     0.000 C 
BRANCH   3   4
ATOM      4  C   UNL     1     -11.971 -16.260  27.568  1.00  0.00     0.000 C 
BRANCH   4   5
ATOM      5  C   UNL     1     -10.509 -15.832  27.355  1.00  0.00     0.006 C 
BRANCH   5   6
ATOM      6  C   UNL     1     -10.321 -15.039  26.054  1.00  0.00     0.053 C 
BRANCH   6   7
ATOM      7  C   UNL     1      -8.935 -14.483  25.938  1.00  0.00     0.041 C 
ATOM      8  O   UNL     1      -7.947 -15.149  26.347  1.00  0.00    -0.550 OA
ATOM      9  O   UNL     1      -8.735 -13.218  25.402  1.00  0.00    -0.550 OA
ENDBRANCH   6   7
ENDBRANCH   5   6
ENDBRANCH   4   5
ENDBRANCH   3   4
ENDBRANCH   2   3
ENDBRANCH   1   2
BRANCH   1  10
ATOM     10  C   UNL     1     -10.379 -18.743  29.916  1.00  0.00     0.000 C 
BRANCH  10  11
ATOM     11  C   UNL     1     -10.516 -18.845  31.447  1.00  0.00    -0.000 C 
BRANCH  11  12
ATOM     12  C   UNL     1     -10.143 -17.540  32.171  1.00  0.00    -0.000 C 
BRANCH  12  13
ATOM     13  C   UNL     1      -8.716 -17.063  31.846  1.00  0.00    -0.000 C 
BRANCH  13  14
ATOM     14  C   UNL     1      -8.636 -15.702  31.130  1.00  0.00    -0.000 C 
BRANCH  14  15
ATOM     15  C   UNL     1      -7.195 -15.197  30.963  1.00  0.00    -0.003 C 
ATOM     16  C   UNL     1      -7.048 -14.367  29.691  1.00  0.00     0.004 C 
ENDBRANCH  14  15
ENDBRANCH  13  14
ENDBRANCH  12  13
ENDBRANCH  11  12
ENDBRANCH  10  11
ENDBRANCH   1  10
TORSDOF 12
ENDMDL
MODEL 2
REMARK VINA RESULT:    -5.368      2.289      4.642
REMARK INTER + INTRA:         -10.265
REMARK INTER:                  -9.197
REMARK INTRA:                  -1.068
REMARK UNBOUND:                -1.132
REMARK SMILES CCCCCCCCCCCCCC(=O)[O-]
REMARK SMILES IDX 8 1 9 2 10 3 11 4 12 5 13 6 14 7 15 8 16 9 7 10 6 11 5 12
REMARK SMILES IDX 4 13 3 14 2 15 1 16
REMARK H PARENT
REMARK Flexibility Score: inf
ROOT
ATOM      1  C   UNL     1     -12.978 -17.604  29.700  1.00  0.00     0.000 C 
ENDROOT
BRANCH   1   2
ATOM      2  C   UNL     1     -12.624 -17.525  31.195  1.00  0.00     0.000 C 
BRANCH   2   3
ATOM      3  C   UNL     1     -11.595 -18.586  31.627  1.00  0.00     0.000 C 
BRANCH   3   4
ATOM      4  C   UNL     1     -10.201 -18.449  30.987  1.00  0.00     0.000 C 
BRANCH   4   5
ATOM      5  C   UNL     1      -9.316 -17.406  31.693  1.00  0.00     0.006 C 
BRANCH   5   6
ATOM      6  C   UNL     1      -9.146 -16.130  30.858  1.00  0.00     0.053 C 
BRANCH   6   7
ATOM      7  C   UNL     1      -8.079 -15.239  31.416  1.00  0.00     0.041 C 
ATOM      8  O   UNL     1      -6.884 -15.633  31.466  1.00  0.00    -0.550 OA
ATOM      9  O   UNL     1      -8.409 -13.982  31.907  1.00  0.00    -0.550 OA
ENDBRANCH   6   7
ENDBRANCH   5   6
ENDBRANCH   4   5
ENDBRANCH   3   4
ENDBRANCH   2   3
ENDBRANCH   1   2
BRANCH   1  10
ATOM     10  C   UNL     1     -12.639 -16.312  28.932  1.00  0.00     0.000 C 
BRANCH  10  11
ATOM     11  C   UNL     1     -12.045 -16.523  27.527  1.00  0.00    -0.000 C 
BRANCH  11  12
ATOM     12  C   UNL     1     -10.630 -15.937  27.380  1.00  0.00    -0.000 C 
BRANCH  12  13
ATOM     13  C   UNL     1     -10.471 -15.069  26.119  1.00  0.00    -0.000 C 
BRANCH  13  14
ATOM     14  C   UNL     1      -9.044 -14.546  25.869  1.00  0.00    -0.000 C 
BRANCH  14  15
ATOM     15  C   UNL     1      -8.056 -14.949  26.975  1.00  0.00    -0.003 C 
ATOM     16  C   UNL     1      -6.622 -14.608  26.580  1.00  0.00     0.004 C 
ENDBRANCH  14  15
ENDBRANCH  13  14
ENDBRANCH  12  13
ENDBRANCH  11  12
ENDBRANCH  10  11
ENDBRANCH   1  10
TORSDOF 12
ENDMDL
MODEL 3
REMARK VINA RESULT:    -5.253      1.200      2.017
REMARK INTER + INTRA:         -10.070
REMARK INTER:                  -8.631
REMARK INTRA:                  -1.438
REMARK UNBOUND:                -1.132
REMARK SMILES CCCCCCCCCCCCCC(=O)[O-]
REMARK SMILES IDX 8 1 9 2 10 3 11 4 12 5 13 6 14 7 15 8 16 9 7 10 6 11 5 12
REMARK SMILES IDX 4 13 3 14 2 15 1 16
REMARK H PARENT
REMARK Flexibility Score: inf
ROOT
ATOM      1  C   UNL     1     -10.180 -19.150  31.046  1.00  0.00     0.000 C 
ENDROOT
BRANCH   1   2
ATOM      2  C   UNL     1     -10.135 -18.636  29.598  1.00  0.00     0.000 C 
BRANCH   2   3
ATOM      3  C   UNL     1     -11.524 -18.583  28.935  1.00  0.00     0.000 C 
BRANCH   3   4
ATOM      4  C   UNL     1     -11.934 -17.206  28.378  1.00  0.00     0.000 C 
BRANCH   4   5
ATOM      5  C   UNL     1     -10.728 -16.322  28.014  1.00  0.00     0.006 C 
BRANCH   5   6
ATOM      6  C   UNL     1     -10.908 -15.627  26.658  1.00  0.00     0.053 C 
BRANCH   6   7
ATOM      7  C   UNL     1      -9.667 -14.902  26.237  1.00  0.00     0.041 C 
ATOM      8  O   UNL     1      -9.710 -14.055  25.305  1.00  0.00    -0.550 OA
ATOM      9  O   UNL     1      -8.454 -15.180  26.855  1.00  0.00    -0.550 OA
ENDBRANCH   6   7
ENDBRANCH   5   6
ENDBRANCH   4   5
ENDBRANCH   3   4
ENDBRANCH   2   3
ENDBRANCH   1   2
BRANCH   1  10
ATOM     10  C   UNL     1     -11.432 -18.684  31.812  1.00  0.00     0.000 C 
BRANCH  10  11
ATOM     11  C   UNL     1     -11.152 -17.870  33.090  1.00  0.00    -0.000 C 
BRANCH  11  12
ATOM     12  C   UNL     1     -11.640 -16.415  32.993  1.00  0.00    -0.000 C 
BRANCH  12  13
ATOM     13  C   UNL     1     -11.185 -15.718  31.698  1.00  0.00    -0.000 C 
BRANCH  13  14
ATOM     14  C   UNL     1     -10.030 -14.715  31.875  1.00  0.00    -0.000 C 
BRANCH  14  15
ATOM     15  C   UNL     1      -8.662 -15.305  31.500  1.00  0.00    -0.003 C 
ATOM     16  C   UNL     1      -7.592 -14.218  31.442  1.00  0.00     0.004 C 
ENDBRANCH  14  15
ENDBRANCH  13  14
ENDBRANCH  12  13
ENDBRANCH  11  12
ENDBRANCH  10  11
ENDBRANCH   1  10
TORSDOF 12
ENDMDL
MODEL 4
REMARK VINA RESULT:    -5.178      2.132      5.634
REMARK INTER + INTRA:          -9.942
REMARK INTER:                  -9.033
REMARK INTRA:                  -0.910
REMARK UNBOUND:                -1.132
REMARK SMILES CCCCCCCCCCCCCC(=O)[O-]
REMARK SMILES IDX 8 1 9 2 10 3 11 4 12 5 13 6 14 7 15 8 16 9 7 10 6 11 5 12
REMARK SMILES IDX 4 13 3 14 2 15 1 16
REMARK H PARENT
REMARK Flexibility Score: inf
ROOT
ATOM      1  C   UNL     1      -7.241 -14.748  31.754  1.00  0.00     0.000 C 
ENDROOT
BRANCH   1   2
ATOM      2  C   UNL     1      -8.563 -15.439  31.381  1.00  0.00     0.000 C 
BRANCH   2   3
ATOM      3  C   UNL     1      -8.636 -16.899  31.864  1.00  0.00     0.000 C 
BRANCH   3   4
ATOM      4  C   UNL     1     -10.041 -17.391  32.260  1.00  0.00     0.000 C 
BRANCH   4   5
ATOM      5  C   UNL     1     -10.399 -18.751  31.635  1.00  0.00     0.006 C 
BRANCH   5   6
ATOM      6  C   UNL     1     -10.105 -18.792  30.130  1.00  0.00     0.053 C 
BRANCH   6   7
ATOM      7  C   UNL     1     -11.114 -18.012  29.345  1.00  0.00     0.041 C 
ATOM      8  O   UNL     1     -10.771 -16.970  28.726  1.00  0.00    -0.550 OA
ATOM      9  O   UNL     1     -12.442 -18.419  29.319  1.00  0.00    -0.550 OA
ENDBRANCH   6   7
ENDBRANCH   5   6
ENDBRANCH   4   5
ENDBRANCH   3   4
ENDBRANCH   2   3
ENDBRANCH   1   2
BRANCH   1  10
ATOM     10  C   UNL     1      -6.451 -14.258  30.526  1.00  0.00     0.000 C 
BRANCH  10  11
ATOM     11  C   UNL     1      -7.121 -14.528  29.165  1.00  0.00    -0.000 C 
BRANCH  11  12
ATOM     12  C   UNL     1      -6.159 -14.352  27.978  1.00  0.00    -0.000 C 
BRANCH  12  13
ATOM     13  C   UNL     1      -6.858 -14.508  26.615  1.00  0.00    -0.000 C 
BRANCH  13  14
ATOM     14  C   UNL     1      -8.272 -15.114  26.678  1.00  0.00    -0.000 C 
BRANCH  14  15
ATOM     15  C   UNL     1      -9.219 -14.539  25.615  1.00  0.00    -0.003 C 
ATOM     16  C   UNL     1      -8.866 -13.090  25.291  1.00  0.00     0.004 C 
ENDBRANCH  14  15
ENDBRANCH  13  14
ENDBRANCH  12  13
ENDBRANCH  11  12
ENDBRANCH  10  11
ENDBRANCH   1  10
TORSDOF 12
ENDMDL
MODEL 5
REMARK VINA RESULT:    -5.166      2.223      3.266
REMARK INTER + INTRA:          -9.922
REMARK INTER:                  -9.026
REMARK INTRA:                  -0.896
REMARK UNBOUND:                -1.132
REMARK SMILES CCCCCCCCCCCCCC(=O)[O-]
REMARK SMILES IDX 8 1 9 2 10 3 11 4 12 5 13 6 14 7 15 8 16 9 7 10 6 11 5 12
REMARK SMILES IDX 4 13 3 14 2 15 1 16
REMARK H PARENT
REMARK Flexibility Score: inf
ROOT
ATOM      1  C   UNL     1     -10.551 -17.958  32.348  1.00  0.00     0.000 C 
ENDROOT
BRANCH   1   2
ATOM      2  C   UNL     1     -11.615 -16.881  32.078  1.00  0.00     0.000 C 
BRANCH   2   3
ATOM      3  C   UNL     1     -12.832 -17.419  31.303  1.00  0.00     0.000 C 
BRANCH   3   4
ATOM      4  C   UNL     1     -13.039 -16.813  29.902  1.00  0.00     0.000 C 
BRANCH   4   5
ATOM      5  C   UNL     1     -12.158 -17.470  28.826  1.00  0.00     0.006 C 
BRANCH   5   6
ATOM      6  C   UNL     1     -11.006 -16.558  28.384  1.00  0.00     0.053 C 
BRANCH   6   7
ATOM      7  C   UNL     1     -11.294 -15.895  27.072  1.00  0.00     0.041 C 
ATOM      8  O   UNL     1     -12.456 -15.923  26.587  1.00  0.00    -0.550 OA
ATOM      9  O   UNL     1     -10.272 -15.268  26.371  1.00  0.00    -0.550 OA
ENDBRANCH   6   7
ENDBRANCH   5   6
ENDBRANCH   4   5
ENDBRANCH   3   4
ENDBRANCH   2   3
ENDBRANCH   1   2
BRANCH   1  10
ATOM     10  C   UNL     1      -9.142 -17.541  31.885  1.00  0.00     0.000 C 
BRANCH  10  11
ATOM     11  C   UNL     1      -9.011 -16.076  31.427  1.00  0.00    -0.000 C 
BRANCH  11  12
ATOM     12  C   UNL     1      -7.664 -15.445  31.819  1.00  0.00    -0.000 C 
BRANCH  12  13
ATOM     13  C   UNL     1      -7.710 -13.906  31.843  1.00  0.00    -0.000 C 
BRANCH  13  14
ATOM     14  C   UNL     1      -6.402 -13.213  31.419  1.00  0.00    -0.000 C 
BRANCH  14  15
ATOM     15  C   UNL     1      -6.273 -11.786  31.974  1.00  0.00    -0.003 C 
ATOM     16  C   UNL     1      -4.830 -11.476  32.362  1.00  0.00     0.004 C 
ENDBRANCH  14  15
ENDBRANCH  13  14
ENDBRANCH  12  13
ENDBRANCH  11  12
ENDBRANCH  10  11
ENDBRANCH   1  10
TORSDOF 12
ENDMDL
MODEL 6
REMARK VINA RESULT:    -5.152      2.693      5.083
REMARK INTER + INTRA:          -9.898
REMARK INTER:                  -8.861
REMARK INTRA:                  -1.037
REMARK UNBOUND:                -1.132
REMARK SMILES CCCCCCCCCCCCCC(=O)[O-]
REMARK SMILES IDX 8 1 9 2 10 3 11 4 12 5 13 6 14 7 15 8 16 9 7 10 6 11 5 12
REMARK SMILES IDX 4 13 3 14 2 15 1 16
REMARK H PARENT
REMARK Flexibility Score: inf
ROOT
ATOM      1  C   UNL     1     -10.463 -16.210  27.568  1.00  0.00     0.000 C 
ENDROOT
BRANCH   1   2
ATOM      2  C   UNL     1     -11.769 -16.369  28.363  1.00  0.00     0.000 C 
BRANCH   2   3
ATOM      3  C   UNL     1     -11.939 -17.776  28.966  1.00  0.00     0.000 C 
BRANCH   3   4
ATOM      4  C   UNL     1     -10.630 -18.483  29.364  1.00  0.00     0.000 C 
BRANCH   4   5
ATOM      5  C   UNL     1     -10.383 -18.480  30.883  1.00  0.00     0.006 C 
BRANCH   5   6
ATOM      6  C   UNL     1      -9.721 -17.180  31.359  1.00  0.00     0.053 C 
BRANCH   6   7
ATOM      7  C   UNL     1     -10.670 -16.327  32.142  1.00  0.00     0.041 C 
ATOM      8  O   UNL     1     -11.443 -16.849  32.989  1.00  0.00    -0.550 OA
ATOM      9  O   UNL     1     -10.721 -14.957  31.918  1.00  0.00    -0.550 OA
ENDBRANCH   6   7
ENDBRANCH   5   6
ENDBRANCH   4   5
ENDBRANCH   3   4
ENDBRANCH   2   3
ENDBRANCH   1   2
BRANCH   1  10
ATOM     10  C   UNL     1     -10.597 -15.242  26.377  1.00  0.00     0.000 C 
BRANCH  10  11
ATOM     11  C   UNL     1      -9.289 -14.555  25.942  1.00  0.00    -0.000 C 
BRANCH  11  12
ATOM     12  C   UNL     1      -8.032 -15.277  26.459  1.00  0.00    -0.000 C 
BRANCH  12  13
ATOM     13  C   UNL     1      -6.807 -14.350  26.553  1.00  0.00    -0.000 C 
BRANCH  13  14
ATOM     14  C   UNL     1      -6.093 -14.359  27.917  1.00  0.00    -0.000 C 
BRANCH  14  15
ATOM     15  C   UNL     1      -7.067 -14.421  29.103  1.00  0.00    -0.003 C 
ATOM     16  C   UNL     1      -6.324 -14.672  30.411  1.00  0.00     0.004 C 
ENDBRANCH  14  15
ENDBRANCH  13  14
ENDBRANCH  12  13
ENDBRANCH  11  12
ENDBRANCH  10  11
ENDBRANCH   1  10
TORSDOF 12
ENDMDL
MODEL 7
REMARK VINA RESULT:    -5.127      1.954      4.079
REMARK INTER + INTRA:          -9.855
REMARK INTER:                  -9.048
REMARK INTRA:                  -0.807
REMARK UNBOUND:                -1.132
REMARK SMILES CCCCCCCCCCCCCC(=O)[O-]
REMARK SMILES IDX 8 1 9 2 10 3 11 4 12 5 13 6 14 7 15 8 16 9 7 10 6 11 5 12
REMARK SMILES IDX 4 13 3 14 2 15 1 16
REMARK H PARENT
REMARK Flexibility Score: inf
ROOT
ATOM      1  C   UNL     1     -12.024 -16.208  26.717  1.00  0.00     0.000 C 
ENDROOT
BRANCH   1   2
ATOM      2  C   UNL     1     -10.653 -15.570  26.992  1.00  0.00     0.000 C 
BRANCH   2   3
ATOM      3  C   UNL     1     -10.175 -14.655  25.849  1.00  0.00     0.000 C 
BRANCH   3   4
ATOM      4  C   UNL     1      -8.726 -14.149  25.974  1.00  0.00     0.000 C 
BRANCH   4   5
ATOM      5  C   UNL     1      -7.769 -15.205  26.555  1.00  0.00     0.006 C 
BRANCH   5   6
ATOM      6  C   UNL     1      -6.369 -14.635  26.819  1.00  0.00     0.053 C 
BRANCH   6   7
ATOM      7  C   UNL     1      -6.102 -14.471  28.284  1.00  0.00     0.041 C 
ATOM      8  O   UNL     1      -7.050 -14.521  29.112  1.00  0.00    -0.550 OA
ATOM      9  O   UNL     1      -4.810 -14.236  28.734  1.00  0.00    -0.550 OA
ENDBRANCH   6   7
ENDBRANCH   5   6
ENDBRANCH   4   5
ENDBRANCH   3   4
ENDBRANCH   2   3
ENDBRANCH   1   2
BRANCH   1  10
ATOM     10  C   UNL     1     -13.012 -16.040  27.887  1.00  0.00     0.000 C 
BRANCH  10  11
ATOM     11  C   UNL     1     -12.372 -16.028  29.288  1.00  0.00    -0.000 C 
BRANCH  11  12
ATOM     12  C   UNL     1     -13.104 -16.936  30.290  1.00  0.00    -0.000 C 
BRANCH  12  13
ATOM     13  C   UNL     1     -12.329 -17.120  31.607  1.00  0.00    -0.000 C 
BRANCH  13  14
ATOM     14  C   UNL     1     -11.565 -18.452  31.727  1.00  0.00    -0.000 C 
BRANCH  14  15
ATOM     15  C   UNL     1     -10.183 -18.412  31.058  1.00  0.00    -0.003 C 
ATOM     16  C   UNL     1     -10.238 -18.998  29.650  1.00  0.00     0.004 C 
ENDBRANCH  14  15
ENDBRANCH  13  14
ENDBRANCH  12  13
ENDBRANCH  11  12
ENDBRANCH  10  11
ENDBRANCH   1  10
TORSDOF 12
ENDMDL
MODEL 8
REMARK VINA RESULT:    -5.040      1.377      4.133
REMARK INTER + INTRA:          -9.707
REMARK INTER:                  -8.603
REMARK INTRA:                  -1.103
REMARK UNBOUND:                -1.132
REMARK SMILES CCCCCCCCCCCCCC(=O)[O-]
REMARK SMILES IDX 8 1 9 2 10 3 11 4 12 5 13 6 14 7 15 8 16 9 7 10 6 11 5 12
REMARK SMILES IDX 4 13 3 14 2 15 1 16
REMARK H PARENT
REMARK Flexibility Score: inf
ROOT
ATOM      1  C   UNL     1      -9.744 -18.105  31.281  1.00  0.00     0.000 C 
ENDROOT
BRANCH   1   2
ATOM      2  C   UNL     1      -8.729 -17.115  31.877  1.00  0.00     0.000 C 
BRANCH   2   3
ATOM      3  C   UNL     1      -8.760 -15.736  31.192  1.00  0.00     0.000 C 
BRANCH   3   4
ATOM      4  C   UNL     1      -7.638 -14.768  31.611  1.00  0.00     0.000 C 
BRANCH   4   5
ATOM      5  C   UNL     1      -6.650 -14.463  30.471  1.00  0.00     0.006 C 
BRANCH   5   6
ATOM      6  C   UNL     1      -7.287 -14.653  29.088  1.00  0.00     0.053 C 
BRANCH   6   7
ATOM      7  C   UNL     1      -6.281 -14.499  27.988  1.00  0.00     0.041 C 
ATOM      8  O   UNL     1      -5.049 -14.548  28.243  1.00  0.00    -0.550 OA
ATOM      9  O   UNL     1      -6.705 -14.275  26.684  1.00  0.00    -0.550 OA
ENDBRANCH   6   7
ENDBRANCH   5   6
ENDBRANCH   4   5
ENDBRANCH   3   4
ENDBRANCH   2   3
ENDBRANCH   1   2
BRANCH   1  10
ATOM     10  C   UNL     1     -11.061 -18.169  32.078  1.00  0.00     0.000 C 
BRANCH  10  11
ATOM     11  C   UNL     1     -12.046 -17.017  31.806  1.00  0.00    -0.000 C 
BRANCH  11  12
ATOM     12  C   UNL     1     -12.750 -17.139  30.444  1.00  0.00    -0.000 C 
BRANCH  12  13
ATOM     13  C   UNL     1     -12.331 -16.037  29.454  1.00  0.00    -0.000 C 
BRANCH  13  14
ATOM     14  C   UNL     1     -11.209 -16.437  28.479  1.00  0.00    -0.000 C 
BRANCH  14  15
ATOM     15  C   UNL     1     -11.495 -16.015  27.030  1.00  0.00    -0.003 C 
ATOM     16  C   UNL     1     -10.303 -15.279  26.426  1.00  0.00     0.004 C 
ENDBRANCH  14  15
ENDBRANCH  13  14
ENDBRANCH  12  13
ENDBRANCH  11  12
ENDBRANCH  10  11
ENDBRANCH   1  10
TORSDOF 12
ENDMDL
MODEL 9
REMARK VINA RESULT:    -5.036      2.395      5.089
REMARK INTER + INTRA:          -9.701
REMARK INTER:                  -8.669
REMARK INTRA:                  -1.032
REMARK UNBOUND:                -1.132
REMARK SMILES CCCCCCCCCCCCCC(=O)[O-]
REMARK SMILES IDX 8 1 9 2 10 3 11 4 12 5 13 6 14 7 15 8 16 9 7 10 6 11 5 12
REMARK SMILES IDX 4 13 3 14 2 15 1 16
REMARK H PARENT
REMARK Flexibility Score: inf
ROOT
ATOM      1  C   UNL     1     -11.248 -16.508  32.747  1.00  0.00     0.000 C 
ENDROOT
BRANCH   1   2
ATOM      2  C   UNL     1     -10.430 -15.651  31.767  1.00  0.00     0.000 C 
BRANCH   2   3
ATOM      3  C   UNL     1      -9.077 -16.287  31.397  1.00  0.00     0.000 C 
BRANCH   3   4
ATOM      4  C   UNL     1      -7.834 -15.473  31.806  1.00  0.00     0.000 C 
BRANCH   4   5
ATOM      5  C   UNL     1      -8.091 -13.957  31.833  1.00  0.00     0.006 C 
BRANCH   5   6
ATOM      6  C   UNL     1      -6.812 -13.158  32.116  1.00  0.00     0.053 C 
BRANCH   6   7
ATOM      7  C   UNL     1      -6.258 -12.537  30.870  1.00  0.00     0.041 C 
ATOM      8  O   UNL     1      -6.324 -13.149  29.771  1.00  0.00    -0.550 OA
ATOM      9  O   UNL     1      -5.645 -11.291  30.927  1.00  0.00    -0.550 OA
ENDBRANCH   6   7
ENDBRANCH   5   6
ENDBRANCH   4   5
ENDBRANCH   3   4
ENDBRANCH   2   3
ENDBRANCH   1   2
BRANCH   1  10
ATOM     10  C   UNL     1     -12.046 -17.625  32.049  1.00  0.00     0.000 C 
BRANCH  10  11
ATOM     11  C   UNL     1     -12.843 -17.181  30.808  1.00  0.00    -0.000 C 
BRANCH  11  12
ATOM     12  C   UNL     1     -12.862 -18.244  29.696  1.00  0.00    -0.000 C 
BRANCH  12  13
ATOM     13  C   UNL     1     -11.668 -18.122  28.732  1.00  0.00    -0.000 C 
BRANCH  13  14
ATOM     14  C   UNL     1     -11.238 -16.678  28.415  1.00  0.00    -0.000 C 
BRANCH  14  15
ATOM     15  C   UNL     1     -11.701 -16.206  27.028  1.00  0.00    -0.003 C 
ATOM     16  C   UNL     1     -13.197 -15.905  27.022  1.00  0.00     0.004 C 
ENDBRANCH  14  15
ENDBRANCH  13  14
ENDBRANCH  12  13
ENDBRANCH  11  12
ENDBRANCH  10  11
ENDBRANCH   1  10
TORSDOF 12
ENDMDL
