MODEL 1
REMARK VINA RESULT:    -2.137      0.000      0.000
REMARK INTER + INTRA:          -2.462
REMARK INTER:                  -2.762
REMARK INTRA:                   0.299
REMARK UNBOUND:                 0.299
REMARK SMILES COc1cc(-c2[o+]c3cc(O)cc(O)c3cc2O)cc(OC)c1O
REMARK SMILES IDX 6 1 7 2 8 3 9 4 10 5 12 6 13 7 15 8 16 9 17 10 5 11 3 12
REMARK SMILES IDX 4 13 23 14 20 15 19 16 2 17 1 18 24 19 21 21 22 22 18 23
REMARK SMILES IDX 11 25 14 27
REMARK H PARENT 24 20 18 24 11 26 14 28
REMARK Flexibility Score: inf
ROOT
ATOM      1  C   UNL     1      -1.811  41.346  24.174  1.00  0.00     0.402 A 
ATOM      2  O   UNL     1      -1.252  42.308  23.444  1.00  0.00    -0.202 OA
ATOM      3  C   UNL     1      -1.397  43.602  23.709  1.00  0.00     0.368 A 
ATOM      4  C   UNL     1      -0.772  44.538  22.882  1.00  0.00     0.162 A 
ATOM      5  C   UNL     1      -0.908  45.904  23.134  1.00  0.00     0.128 A 
ATOM      6  C   UNL     1      -1.677  46.339  24.220  1.00  0.00     0.093 A 
ATOM      7  C   UNL     1      -2.313  45.419  25.064  1.00  0.00     0.136 A 
ATOM      8  C   UNL     1      -2.174  44.030  24.812  1.00  0.00     0.125 A 
ATOM      9  C   UNL     1      -2.764  43.038  25.611  1.00  0.00     0.078 A 
ATOM     10  C   UNL     1      -2.578  41.687  25.303  1.00  0.00     0.223 A 
ENDROOT
BRANCH   1  11
ATOM     11  C   UNL     1      -1.584  39.938  23.772  1.00  0.00     0.091 A 
ATOM     12  C   UNL     1      -1.468  38.197  22.064  1.00  0.00     0.165 A 
ATOM     13  C   UNL     1      -1.706  39.533  22.433  1.00  0.00     0.069 A 
ATOM     14  C   UNL     1      -1.091  37.266  23.048  1.00  0.00     0.200 A 
ATOM     15  C   UNL     1      -0.943  37.664  24.384  1.00  0.00     0.165 A 
ATOM     16  C   UNL     1      -1.185  39.004  24.738  1.00  0.00     0.069 A 
BRANCH  12  17
ATOM     17  O   UNL     1      -1.594  37.761  20.734  1.00  0.00    -0.493 OA
ATOM     18  C   UNL     1      -0.605  37.017  20.029  1.00  0.00     0.278 C 
ENDBRANCH  12  17
BRANCH  14  19
ATOM     19  O   UNL     1      -0.851  35.932  22.713  1.00  0.00    -0.502 OA
ATOM     20  H   UNL     1      -0.345  35.666  21.877  1.00  0.00     0.293 HD
ENDBRANCH  14  19
BRANCH  15  21
ATOM     21  O   UNL     1      -0.556  36.701  25.328  1.00  0.00    -0.493 OA
ATOM     22  C   UNL     1       0.770  36.545  25.826  1.00  0.00     0.278 C 
ENDBRANCH  15  21
ENDBRANCH   1  11
BRANCH  10  23
ATOM     23  O   UNL     1      -3.123  40.699  26.125  1.00  0.00    -0.500 OA
ATOM     24  H   UNL     1      -4.096  40.424  26.053  1.00  0.00     0.294 HD
ENDBRANCH  10  23
BRANCH   5  25
ATOM     25  O   UNL     1      -0.278  46.823  22.298  1.00  0.00    -0.507 OA
ATOM     26  H   UNL     1       0.318  47.555  22.668  1.00  0.00     0.293 HD
ENDBRANCH   5  25
BRANCH   7  27
ATOM     27  O   UNL     1      -3.065  45.933  26.125  1.00  0.00    -0.507 OA
ATOM     28  H   UNL     1      -3.390  45.388  26.910  1.00  0.00     0.293 HD
ENDBRANCH   7  27
TORSDOF 7
ENDMDL
MODEL 2
REMARK VINA RESULT:    -0.851     19.254     21.150
REMARK INTER + INTRA:          -0.800
REMARK INTER:                  -0.426
REMARK INTRA:                  -0.374
REMARK UNBOUND:                 0.299
REMARK SMILES COc1cc(-c2[o+]c3cc(O)cc(O)c3cc2O)cc(OC)c1O
REMARK SMILES IDX 6 1 7 2 8 3 9 4 10 5 12 6 13 7 15 8 16 9 17 10 5 11 3 12
REMARK SMILES IDX 4 13 23 14 20 15 19 16 2 17 1 18 24 19 21 21 22 22 18 23
REMARK SMILES IDX 11 25 14 27
REMARK H PARENT 24 20 18 24 11 26 14 28
REMARK Flexibility Score: inf
ROOT
ATOM      1  C   UNL     1      14.914  45.011  11.709  1.00  0.00     0.402 A 
ATOM      2  O   UNL     1      13.625  45.335  11.764  1.00  0.00    -0.202 OA
ATOM      3  C   UNL     1      13.060  45.903  12.825  1.00  0.00     0.368 A 
ATOM      4  C   UNL     1      11.696  46.204  12.788  1.00  0.00     0.162 A 
ATOM      5  C   UNL     1      11.075  46.798  13.887  1.00  0.00     0.128 A 
ATOM      6  C   UNL     1      11.822  47.093  15.034  1.00  0.00     0.093 A 
ATOM      7  C   UNL     1      13.190  46.802  15.094  1.00  0.00     0.136 A 
ATOM      8  C   UNL     1      13.826  46.200  13.977  1.00  0.00     0.125 A 
ATOM      9  C   UNL     1      15.194  45.885  13.944  1.00  0.00     0.078 A 
ATOM     10  C   UNL     1      15.750  45.297  12.805  1.00  0.00     0.223 A 
ENDROOT
BRANCH   1  11
ATOM     11  C   UNL     1      15.426  44.373  10.474  1.00  0.00     0.091 A 
ATOM     12  C   UNL     1      15.983  44.459   8.098  1.00  0.00     0.165 A 
ATOM     13  C   UNL     1      15.476  45.073   9.258  1.00  0.00     0.069 A 
ATOM     14  C   UNL     1      16.455  43.137   8.168  1.00  0.00     0.200 A 
ATOM     15  C   UNL     1      16.431  42.436   9.381  1.00  0.00     0.165 A 
ATOM     16  C   UNL     1      15.921  43.062  10.533  1.00  0.00     0.069 A 
BRANCH  12  17
ATOM     17  O   UNL     1      16.034  45.132   6.865  1.00  0.00    -0.493 OA
ATOM     18  C   UNL     1      16.901  46.224   6.576  1.00  0.00     0.278 C 
ENDBRANCH  12  17
BRANCH  14  19
ATOM     19  O   UNL     1      16.960  42.500   7.033  1.00  0.00    -0.502 OA
ATOM     20  H   UNL     1      17.807  41.946   7.054  1.00  0.00     0.293 HD
ENDBRANCH  14  19
BRANCH  15  21
ATOM     21  O   UNL     1      16.922  41.121   9.403  1.00  0.00    -0.493 OA
ATOM     22  C   UNL     1      17.043  40.323  10.577  1.00  0.00     0.278 C 
ENDBRANCH  15  21
ENDBRANCH   1  11
BRANCH  10  23
ATOM     23  O   UNL     1      17.119  45.029  12.752  1.00  0.00    -0.500 OA
ATOM     24  H   UNL     1      17.776  45.489  13.371  1.00  0.00     0.294 HD
ENDBRANCH  10  23
BRANCH   5  25
ATOM     25  O   UNL     1       9.714  47.090  13.832  1.00  0.00    -0.507 OA
ATOM     26  H   UNL     1       9.039  46.408  13.504  1.00  0.00     0.293 HD
ENDBRANCH   5  25
BRANCH   7  27
ATOM     27  O   UNL     1      13.865  47.125  16.276  1.00  0.00    -0.507 OA
ATOM     28  H   UNL     1      14.869  47.116  16.380  1.00  0.00     0.293 HD
ENDBRANCH   7  27
TORSDOF 7
ENDMDL
MODEL 3
REMARK VINA RESULT:    -0.284     14.987     18.579
REMARK INTER + INTRA:          -0.068
REMARK INTER:                   0.092
REMARK INTRA:                  -0.159
REMARK UNBOUND:                 0.299
REMARK SMILES COc1cc(-c2[o+]c3cc(O)cc(O)c3cc2O)cc(OC)c1O
REMARK SMILES IDX 6 1 7 2 8 3 9 4 10 5 12 6 13 7 15 8 16 9 17 10 5 11 3 12
REMARK SMILES IDX 4 13 23 14 20 15 19 16 2 17 1 18 24 19 21 21 22 22 18 23
REMARK SMILES IDX 11 25 14 27
REMARK H PARENT 24 20 18 24 11 26 14 28
REMARK Flexibility Score: inf
ROOT
ATOM      1  C   UNL     1      11.530  35.103  13.959  1.00  0.00     0.402 A 
ATOM      2  O   UNL     1      10.636  34.175  13.628  1.00  0.00    -0.202 OA
ATOM      3  C   UNL     1       9.421  34.109  14.164  1.00  0.00     0.368 A 
ATOM      4  C   UNL     1       8.552  33.095  13.752  1.00  0.00     0.162 A 
ATOM      5  C   UNL     1       7.271  33.000  14.298  1.00  0.00     0.128 A 
ATOM      6  C   UNL     1       6.855  33.923  15.264  1.00  0.00     0.093 A 
ATOM      7  C   UNL     1       7.708  34.948  15.692  1.00  0.00     0.136 A 
ATOM      8  C   UNL     1       9.010  35.050  15.137  1.00  0.00     0.125 A 
ATOM      9  C   UNL     1       9.926  36.052  15.497  1.00  0.00     0.078 A 
ATOM     10  C   UNL     1      11.190  36.091  14.902  1.00  0.00     0.223 A 
ENDROOT
BRANCH   1  11
ATOM     11  C   UNL     1      12.856  35.066  13.300  1.00  0.00     0.091 A 
ATOM     12  C   UNL     1      14.645  36.150  12.039  1.00  0.00     0.165 A 
ATOM     13  C   UNL     1      13.375  36.193  12.643  1.00  0.00     0.069 A 
ATOM     14  C   UNL     1      15.402  34.967  12.110  1.00  0.00     0.200 A 
ATOM     15  C   UNL     1      14.904  33.843  12.783  1.00  0.00     0.165 A 
ATOM     16  C   UNL     1      13.633  33.902  13.382  1.00  0.00     0.069 A 
BRANCH  12  17
ATOM     17  O   UNL     1      15.183  37.259  11.364  1.00  0.00    -0.493 OA
ATOM     18  C   UNL     1      15.841  38.350  11.999  1.00  0.00     0.278 C 
ENDBRANCH  12  17
BRANCH  14  19
ATOM     19  O   UNL     1      16.663  34.892  11.516  1.00  0.00    -0.502 OA
ATOM     20  H   UNL     1      17.270  34.090  11.632  1.00  0.00     0.293 HD
ENDBRANCH  14  19
BRANCH  15  21
ATOM     21  O   UNL     1      15.701  32.689  12.835  1.00  0.00    -0.493 OA
ATOM     22  C   UNL     1      16.758  32.478  13.767  1.00  0.00     0.278 C 
ENDBRANCH  15  21
ENDBRANCH   1  11
BRANCH  10  23
ATOM     23  O   UNL     1      12.083  37.115  15.222  1.00  0.00    -0.500 OA
ATOM     24  H   UNL     1      12.870  36.961  15.842  1.00  0.00     0.294 HD
ENDBRANCH  10  23
BRANCH   5  25
ATOM     25  O   UNL     1       6.420  31.981  13.876  1.00  0.00    -0.507 OA
ATOM     26  H   UNL     1       6.708  31.010  13.890  1.00  0.00     0.293 HD
ENDBRANCH   5  25
BRANCH   7  27
ATOM     27  O   UNL     1       7.219  35.828  16.663  1.00  0.00    -0.507 OA
ATOM     28  H   UNL     1       6.604  35.561  17.417  1.00  0.00     0.293 HD
ENDBRANCH   7  27
TORSDOF 7
ENDMDL
MODEL 4
REMARK VINA RESULT:    -0.259     15.005     18.680
REMARK INTER + INTRA:          -0.036
REMARK INTER:                   0.170
REMARK INTRA:                  -0.206
REMARK UNBOUND:                 0.299
REMARK SMILES COc1cc(-c2[o+]c3cc(O)cc(O)c3cc2O)cc(OC)c1O
REMARK SMILES IDX 6 1 7 2 8 3 9 4 10 5 12 6 13 7 15 8 16 9 17 10 5 11 3 12
REMARK SMILES IDX 4 13 23 14 20 15 19 16 2 17 1 18 24 19 21 21 22 22 18 23
REMARK SMILES IDX 11 25 14 27
REMARK H PARENT 24 20 18 24 11 26 14 28
REMARK Flexibility Score: inf
ROOT
ATOM      1  C   UNL     1      11.543  35.050  13.954  1.00  0.00     0.402 A 
ATOM      2  O   UNL     1      10.644  34.124  13.630  1.00  0.00    -0.202 OA
ATOM      3  C   UNL     1       9.422  34.081  14.148  1.00  0.00     0.368 A 
ATOM      4  C   UNL     1       8.549  33.067  13.746  1.00  0.00     0.162 A 
ATOM      5  C   UNL     1       7.259  32.995  14.275  1.00  0.00     0.128 A 
ATOM      6  C   UNL     1       6.838  33.943  15.215  1.00  0.00     0.093 A 
ATOM      7  C   UNL     1       7.695  34.969  15.634  1.00  0.00     0.136 A 
ATOM      8  C   UNL     1       9.006  35.047  15.096  1.00  0.00     0.125 A 
ATOM      9  C   UNL     1       9.926  36.047  15.447  1.00  0.00     0.078 A 
ATOM     10  C   UNL     1      11.200  36.062  14.870  1.00  0.00     0.223 A 
ENDROOT
BRANCH   1  11
ATOM     11  C   UNL     1      12.878  34.986  13.315  1.00  0.00     0.091 A 
ATOM     12  C   UNL     1      14.918  33.770  12.745  1.00  0.00     0.165 A 
ATOM     13  C   UNL     1      13.660  33.822  13.373  1.00  0.00     0.069 A 
ATOM     14  C   UNL     1      15.383  34.895  12.041  1.00  0.00     0.200 A 
ATOM     15  C   UNL     1      14.602  36.055  11.957  1.00  0.00     0.165 A 
ATOM     16  C   UNL     1      13.346  36.092  12.591  1.00  0.00     0.069 A 
BRANCH  12  17
ATOM     17  O   UNL     1      15.726  32.622  12.797  1.00  0.00    -0.493 OA
ATOM     18  C   UNL     1      16.775  32.414  13.737  1.00  0.00     0.278 C 
ENDBRANCH  12  17
BRANCH  14  19
ATOM     19  O   UNL     1      16.629  34.875  11.411  1.00  0.00    -0.502 OA
ATOM     20  H   UNL     1      16.985  35.668  10.891  1.00  0.00     0.293 HD
ENDBRANCH  14  19
BRANCH  15  21
ATOM     21  O   UNL     1      15.105  37.148  11.235  1.00  0.00    -0.493 OA
ATOM     22  C   UNL     1      15.736  38.283  11.822  1.00  0.00     0.278 C 
ENDBRANCH  15  21
ENDBRANCH   1  11
BRANCH  10  23
ATOM     23  O   UNL     1      12.098  37.083  15.181  1.00  0.00    -0.500 OA
ATOM     24  H   UNL     1      13.035  37.103  14.796  1.00  0.00     0.294 HD
ENDBRANCH  10  23
BRANCH   5  25
ATOM     25  O   UNL     1       6.404  31.977  13.863  1.00  0.00    -0.507 OA
ATOM     26  H   UNL     1       6.760  31.087  13.533  1.00  0.00     0.293 HD
ENDBRANCH   5  25
BRANCH   7  27
ATOM     27  O   UNL     1       7.201  35.875  16.578  1.00  0.00    -0.507 OA
ATOM     28  H   UNL     1       7.408  36.863  16.584  1.00  0.00     0.293 HD
ENDBRANCH   7  27
TORSDOF 7
ENDMDL
MODEL 5
REMARK VINA RESULT:    -0.206     15.185     18.673
REMARK INTER + INTRA:           0.033
REMARK INTER:                   0.089
REMARK INTRA:                  -0.056
REMARK UNBOUND:                 0.299
REMARK SMILES COc1cc(-c2[o+]c3cc(O)cc(O)c3cc2O)cc(OC)c1O
REMARK SMILES IDX 6 1 7 2 8 3 9 4 10 5 12 6 13 7 15 8 16 9 17 10 5 11 3 12
REMARK SMILES IDX 4 13 23 14 20 15 19 16 2 17 1 18 24 19 21 21 22 22 18 23
REMARK SMILES IDX 11 25 14 27
REMARK H PARENT 24 20 18 24 11 26 14 28
REMARK Flexibility Score: inf
ROOT
ATOM      1  C   UNL     1      12.339  35.034  13.547  1.00  0.00     0.402 A 
ATOM      2  O   UNL     1      13.072  36.136  13.409  1.00  0.00    -0.202 OA
ATOM      3  C   UNL     1      14.146  36.205  12.629  1.00  0.00     0.368 A 
ATOM      4  C   UNL     1      14.853  37.408  12.551  1.00  0.00     0.162 A 
ATOM      5  C   UNL     1      15.986  37.509  11.743  1.00  0.00     0.128 A 
ATOM      6  C   UNL     1      16.418  36.400  11.007  1.00  0.00     0.093 A 
ATOM      7  C   UNL     1      15.726  35.184  11.068  1.00  0.00     0.136 A 
ATOM      8  C   UNL     1      14.572  35.078  11.887  1.00  0.00     0.125 A 
ATOM      9  C   UNL     1      13.810  33.904  11.999  1.00  0.00     0.078 A 
ATOM     10  C   UNL     1      12.681  33.877  12.823  1.00  0.00     0.223 A 
ENDROOT
BRANCH   1  11
ATOM     11  C   UNL     1      11.169  35.079  14.454  1.00  0.00     0.091 A 
ATOM     12  C   UNL     1       8.767  34.892  14.853  1.00  0.00     0.165 A 
ATOM     13  C   UNL     1       9.867  34.867  13.975  1.00  0.00     0.069 A 
ATOM     14  C   UNL     1       8.984  35.118  16.223  1.00  0.00     0.200 A 
ATOM     15  C   UNL     1      10.282  35.308  16.716  1.00  0.00     0.165 A 
ATOM     16  C   UNL     1      11.371  35.280  15.827  1.00  0.00     0.069 A 
BRANCH  12  17
ATOM     17  O   UNL     1       7.452  34.695  14.399  1.00  0.00    -0.493 OA
ATOM     18  C   UNL     1       6.596  33.642  14.831  1.00  0.00     0.278 C 
ENDBRANCH  12  17
BRANCH  14  19
ATOM     19  O   UNL     1       7.912  35.153  17.118  1.00  0.00    -0.502 OA
ATOM     20  H   UNL     1       8.013  34.903  18.094  1.00  0.00     0.293 HD
ENDBRANCH  14  19
BRANCH  15  21
ATOM     21  O   UNL     1      10.448  35.520  18.094  1.00  0.00    -0.493 OA
ATOM     22  C   UNL     1      11.126  36.637  18.663  1.00  0.00     0.278 C 
ENDBRANCH  15  21
ENDBRANCH   1  11
BRANCH  10  23
ATOM     23  O   UNL     1      11.895  32.726  12.897  1.00  0.00    -0.500 OA
ATOM     24  H   UNL     1      11.140  32.640  13.567  1.00  0.00     0.294 HD
ENDBRANCH  10  23
BRANCH   5  25
ATOM     25  O   UNL     1      16.677  38.717  11.679  1.00  0.00    -0.507 OA
ATOM     26  H   UNL     1      16.907  39.149  10.792  1.00  0.00     0.293 HD
ENDBRANCH   5  25
BRANCH   7  27
ATOM     27  O   UNL     1      16.223  34.122  10.306  1.00  0.00    -0.507 OA
ATOM     28  H   UNL     1      16.642  34.222   9.393  1.00  0.00     0.293 HD
ENDBRANCH   7  27
TORSDOF 7
ENDMDL
MODEL 6
REMARK VINA RESULT:    -0.142     20.503     23.317
REMARK INTER + INTRA:           0.116
REMARK INTER:                  -0.570
REMARK INTRA:                   0.686
REMARK UNBOUND:                 0.299
REMARK SMILES COc1cc(-c2[o+]c3cc(O)cc(O)c3cc2O)cc(OC)c1O
REMARK SMILES IDX 6 1 7 2 8 3 9 4 10 5 12 6 13 7 15 8 16 9 17 10 5 11 3 12
REMARK SMILES IDX 4 13 23 14 20 15 19 16 2 17 1 18 24 19 21 21 22 22 18 23
REMARK SMILES IDX 11 25 14 27
REMARK H PARENT 24 20 18 24 11 26 14 28
REMARK Flexibility Score: inf
ROOT
ATOM      1  C   UNL     1      16.635  38.917  10.729  1.00  0.00     0.402 A 
ATOM      2  O   UNL     1      16.370  38.336  11.897  1.00  0.00    -0.202 OA
ATOM      3  C   UNL     1      16.212  37.024  12.039  1.00  0.00     0.368 A 
ATOM      4  C   UNL     1      15.934  36.508  13.307  1.00  0.00     0.162 A 
ATOM      5  C   UNL     1      15.760  35.135  13.487  1.00  0.00     0.128 A 
ATOM      6  C   UNL     1      15.862  34.270  12.391  1.00  0.00     0.093 A 
ATOM      7  C   UNL     1      16.141  34.764  11.110  1.00  0.00     0.136 A 
ATOM      8  C   UNL     1      16.321  36.159  10.924  1.00  0.00     0.125 A 
ATOM      9  C   UNL     1      16.615  36.740   9.680  1.00  0.00     0.078 A 
ATOM     10  C   UNL     1      16.784  38.124   9.576  1.00  0.00     0.223 A 
ENDROOT
BRANCH   1  11
ATOM     11  C   UNL     1      16.780  40.390  10.695  1.00  0.00     0.091 A 
ATOM     12  C   UNL     1      16.940  42.493   9.464  1.00  0.00     0.165 A 
ATOM     13  C   UNL     1      16.821  41.092   9.480  1.00  0.00     0.069 A 
ATOM     14  C   UNL     1      17.003  43.194  10.682  1.00  0.00     0.200 A 
ATOM     15  C   UNL     1      16.940  42.507  11.901  1.00  0.00     0.165 A 
ATOM     16  C   UNL     1      16.822  41.105  11.901  1.00  0.00     0.069 A 
BRANCH  12  17
ATOM     17  O   UNL     1      16.995  43.220   8.262  1.00  0.00    -0.493 OA
ATOM     18  C   UNL     1      15.920  43.331   7.335  1.00  0.00     0.278 C 
ENDBRANCH  12  17
BRANCH  14  19
ATOM     19  O   UNL     1      17.125  44.584  10.698  1.00  0.00    -0.502 OA
ATOM     20  H   UNL     1      18.024  45.049  10.708  1.00  0.00     0.293 HD
ENDBRANCH  14  19
BRANCH  15  21
ATOM     21  O   UNL     1      16.998  43.250  13.090  1.00  0.00    -0.493 OA
ATOM     22  C   UNL     1      16.169  44.372  13.383  1.00  0.00     0.278 C 
ENDBRANCH  15  21
ENDBRANCH   1  11
BRANCH  10  23
ATOM     23  O   UNL     1      17.125  38.697   8.350  1.00  0.00    -0.500 OA
ATOM     24  H   UNL     1      16.713  38.380   7.481  1.00  0.00     0.294 HD
ENDBRANCH  10  23
BRANCH   5  25
ATOM     25  O   UNL     1      15.483  34.639  14.759  1.00  0.00    -0.507 OA
ATOM     26  H   UNL     1      16.044  34.897  15.562  1.00  0.00     0.293 HD
ENDBRANCH   5  25
BRANCH   7  27
ATOM     27  O   UNL     1      16.224  33.836  10.067  1.00  0.00    -0.507 OA
ATOM     28  H   UNL     1      17.089  33.498   9.672  1.00  0.00     0.293 HD
ENDBRANCH   7  27
TORSDOF 7
ENDMDL
