MODEL 1
REMARK VINA RESULT:    -4.542      0.000      0.000
REMARK INTER + INTRA:         -11.840
REMARK INTER:                  -9.852
REMARK INTRA:                  -1.988
REMARK UNBOUND:                -1.988
REMARK SMILES CCCCCCCCCCCCCCCCCCCCCC(=O)[O-]
REMARK SMILES IDX 12 1 11 2 10 3 9 4 8 5 7 6 6 7 5 8 4 9 3 10 2 11 1 12 13 13
REMARK SMILES IDX 14 14 15 15 16 16 17 17 18 18 19 19 20 20 21 21 22 22 23 23
REMARK SMILES IDX 24 24
REMARK H PARENT
REMARK Flexibility Score: inf
ROOT
ATOM      1  C   UNL     1       0.281 -32.004  24.006  1.00  0.00     0.000 C 
ENDROOT
BRANCH   1   2
ATOM      2  C   UNL     1       1.636 -32.729  24.116  1.00  0.00     0.000 C 
BRANCH   2   3
ATOM      3  C   UNL     1       1.788 -33.987  23.240  1.00  0.00     0.000 C 
BRANCH   3   4
ATOM      4  C   UNL     1       3.230 -34.518  23.195  1.00  0.00    -0.000 C 
BRANCH   4   5
ATOM      5  C   UNL     1       3.421 -35.660  22.178  1.00  0.00    -0.000 C 
BRANCH   5   6
ATOM      6  C   UNL     1       4.777 -36.382  22.254  1.00  0.00    -0.000 C 
BRANCH   6   7
ATOM      7  C   UNL     1       4.953 -37.442  21.155  1.00  0.00    -0.000 C 
BRANCH   7   8
ATOM      8  C   UNL     1       6.086 -37.101  20.170  1.00  0.00    -0.000 C 
BRANCH   8   9
ATOM      9  C   UNL     1       5.692 -37.171  18.683  1.00  0.00    -0.000 C 
BRANCH   9  10
ATOM     10  C   UNL     1       4.477 -36.292  18.344  1.00  0.00    -0.000 C 
BRANCH  10  11
ATOM     11  C   UNL     1       3.349 -37.085  17.666  1.00  0.00    -0.003 C 
ATOM     12  C   UNL     1       2.230 -37.462  18.637  1.00  0.00     0.004 C 
ENDBRANCH  10  11
ENDBRANCH   9  10
ENDBRANCH   8   9
ENDBRANCH   7   8
ENDBRANCH   6   7
ENDBRANCH   5   6
ENDBRANCH   4   5
ENDBRANCH   3   4
ENDBRANCH   2   3
ENDBRANCH   1   2
BRANCH   1  13
ATOM     13  C   UNL     1      -0.910 -32.891  24.406  1.00  0.00     0.000 C 
BRANCH  13  14
ATOM     14  C   UNL     1      -1.885 -33.148  23.243  1.00  0.00     0.000 C 
BRANCH  14  15
ATOM     15  C   UNL     1      -2.030 -34.623  22.814  1.00  0.00     0.000 C 
BRANCH  15  16
ATOM     16  C   UNL     1      -1.453 -34.963  21.428  1.00  0.00     0.000 C 
BRANCH  16  17
ATOM     17  C   UNL     1      -0.391 -36.074  21.481  1.00  0.00     0.000 C 
BRANCH  17  18
ATOM     18  C   UNL     1      -0.765 -37.282  20.605  1.00  0.00     0.000 C 
BRANCH  18  19
ATOM     19  C   UNL     1      -2.148 -37.853  20.954  1.00  0.00     0.000 C 
BRANCH  19  20
ATOM     20  C   UNL     1      -2.992 -38.054  19.689  1.00  0.00     0.006 C 
BRANCH  20  21
ATOM     21  C   UNL     1      -3.620 -36.734  19.232  1.00  0.00     0.053 C 
BRANCH  21  22
ATOM     22  C   UNL     1      -4.183 -36.873  17.853  1.00  0.00     0.041 C 
ATOM     23  O   UNL     1      -4.654 -35.869  17.256  1.00  0.00    -0.550 OA
ATOM     24  O   UNL     1      -4.228 -38.121  17.242  1.00  0.00    -0.550 OA
ENDBRANCH  21  22
ENDBRANCH  20  21
ENDBRANCH  19  20
ENDBRANCH  18  19
ENDBRANCH  17  18
ENDBRANCH  16  17
ENDBRANCH  15  16
ENDBRANCH  14  15
ENDBRANCH  13  14
ENDBRANCH   1  13
TORSDOF 20
ENDMDL
MODEL 2
REMARK VINA RESULT:    -4.476      3.052      5.393
REMARK INTER + INTRA:         -11.696
REMARK INTER:                  -9.243
REMARK INTRA:                  -2.453
REMARK UNBOUND:                -1.988
REMARK SMILES CCCCCCCCCCCCCCCCCCCCCC(=O)[O-]
REMARK SMILES IDX 12 1 11 2 10 3 9 4 8 5 7 6 6 7 5 8 4 9 3 10 2 11 1 12 13 13
REMARK SMILES IDX 14 14 15 15 16 16 17 17 18 18 19 19 20 20 21 21 22 22 23 23
REMARK SMILES IDX 24 24
REMARK H PARENT
REMARK Flexibility Score: inf
ROOT
ATOM      1  C   UNL     1       0.697 -35.888  20.347  1.00  0.00     0.000 C 
ENDROOT
BRANCH   1   2
ATOM      2  C   UNL     1       2.009 -36.059  19.557  1.00  0.00     0.000 C 
BRANCH   2   3
ATOM      3  C   UNL     1       2.082 -37.303  18.653  1.00  0.00     0.000 C 
BRANCH   3   4
ATOM      4  C   UNL     1       2.894 -37.068  17.369  1.00  0.00    -0.000 C 
BRANCH   4   5
ATOM      5  C   UNL     1       4.335 -36.596  17.644  1.00  0.00    -0.000 C 
BRANCH   5   6
ATOM      6  C   UNL     1       5.145 -37.494  18.596  1.00  0.00    -0.000 C 
BRANCH   6   7
ATOM      7  C   UNL     1       6.049 -36.694  19.549  1.00  0.00    -0.000 C 
BRANCH   7   8
ATOM      8  C   UNL     1       5.950 -37.173  21.008  1.00  0.00    -0.000 C 
BRANCH   8   9
ATOM      9  C   UNL     1       4.774 -38.124  21.297  1.00  0.00    -0.000 C 
BRANCH   9  10
ATOM     10  C   UNL     1       3.870 -37.628  22.438  1.00  0.00    -0.000 C 
BRANCH  10  11
ATOM     11  C   UNL     1       4.369 -36.311  23.053  1.00  0.00    -0.003 C 
ATOM     12  C   UNL     1       3.690 -35.084  22.447  1.00  0.00     0.004 C 
ENDBRANCH  10  11
ENDBRANCH   9  10
ENDBRANCH   8   9
ENDBRANCH   7   8
ENDBRANCH   6   7
ENDBRANCH   5   6
ENDBRANCH   4   5
ENDBRANCH   3   4
ENDBRANCH   2   3
ENDBRANCH   1   2
BRANCH   1  13
ATOM     13  C   UNL     1       0.381 -37.088  21.254  1.00  0.00     0.000 C 
BRANCH  13  14
ATOM     14  C   UNL     1      -0.538 -38.124  20.581  1.00  0.00     0.000 C 
BRANCH  14  15
ATOM     15  C   UNL     1      -1.668 -37.539  19.709  1.00  0.00     0.000 C 
BRANCH  15  16
ATOM     16  C   UNL     1      -3.095 -37.915  20.145  1.00  0.00     0.000 C 
BRANCH  16  17
ATOM     17  C   UNL     1      -3.454 -37.382  21.542  1.00  0.00     0.000 C 
BRANCH  17  18
ATOM     18  C   UNL     1      -3.284 -35.858  21.648  1.00  0.00     0.000 C 
BRANCH  18  19
ATOM     19  C   UNL     1      -2.192 -35.457  22.651  1.00  0.00     0.000 C 
BRANCH  19  20
ATOM     20  C   UNL     1      -1.825 -33.976  22.499  1.00  0.00     0.006 C 
BRANCH  20  21
ATOM     21  C   UNL     1      -2.451 -33.138  23.618  1.00  0.00     0.053 C 
BRANCH  21  22
ATOM     22  C   UNL     1      -1.483 -32.106  24.104  1.00  0.00     0.041 C 
ATOM     23  O   UNL     1      -0.334 -32.446  24.489  1.00  0.00    -0.550 OA
ATOM     24  O   UNL     1      -1.864 -30.771  24.171  1.00  0.00    -0.550 OA
ENDBRANCH  21  22
ENDBRANCH  20  21
ENDBRANCH  19  20
ENDBRANCH  18  19
ENDBRANCH  17  18
ENDBRANCH  16  17
ENDBRANCH  15  16
ENDBRANCH  14  15
ENDBRANCH  13  14
ENDBRANCH   1  13
TORSDOF 20
ENDMDL
MODEL 3
REMARK VINA RESULT:    -4.174      2.184      6.377
REMARK INTER + INTRA:         -11.041
REMARK INTER:                  -9.057
REMARK INTRA:                  -1.984
REMARK UNBOUND:                -1.988
REMARK SMILES CCCCCCCCCCCCCCCCCCCCCC(=O)[O-]
REMARK SMILES IDX 12 1 11 2 10 3 9 4 8 5 7 6 6 7 5 8 4 9 3 10 2 11 1 12 13 13
REMARK SMILES IDX 14 14 15 15 16 16 17 17 18 18 19 19 20 20 21 21 22 22 23 23
REMARK SMILES IDX 24 24
REMARK H PARENT
REMARK Flexibility Score: inf
ROOT
ATOM      1  C   UNL     1       0.891 -32.148  24.627  1.00  0.00     0.000 C 
ENDROOT
BRANCH   1   2
ATOM      2  C   UNL     1      -0.245 -31.677  23.700  1.00  0.00     0.000 C 
BRANCH   2   3
ATOM      3  C   UNL     1      -1.643 -32.237  24.026  1.00  0.00     0.000 C 
BRANCH   3   4
ATOM      4  C   UNL     1      -1.712 -33.771  23.937  1.00  0.00    -0.000 C 
BRANCH   4   5
ATOM      5  C   UNL     1      -2.094 -34.277  22.533  1.00  0.00    -0.000 C 
BRANCH   5   6
ATOM      6  C   UNL     1      -0.975 -35.017  21.779  1.00  0.00    -0.000 C 
BRANCH   6   7
ATOM      7  C   UNL     1      -1.475 -36.274  21.048  1.00  0.00    -0.000 C 
BRANCH   7   8
ATOM      8  C   UNL     1      -2.896 -36.686  21.471  1.00  0.00    -0.000 C 
BRANCH   8   9
ATOM      9  C   UNL     1      -3.530 -37.795  20.609  1.00  0.00    -0.000 C 
BRANCH   9  10
ATOM     10  C   UNL     1      -3.137 -37.699  19.126  1.00  0.00    -0.000 C 
BRANCH  10  11
ATOM     11  C   UNL     1      -4.346 -37.446  18.213  1.00  0.00    -0.003 C 
ATOM     12  C   UNL     1      -4.381 -36.021  17.662  1.00  0.00     0.004 C 
ENDBRANCH  10  11
ENDBRANCH   9  10
ENDBRANCH   8   9
ENDBRANCH   7   8
ENDBRANCH   6   7
ENDBRANCH   5   6
ENDBRANCH   4   5
ENDBRANCH   3   4
ENDBRANCH   2   3
ENDBRANCH   1   2
BRANCH   1  13
ATOM     13  C   UNL     1       2.110 -32.685  23.859  1.00  0.00     0.000 C 
BRANCH  13  14
ATOM     14  C   UNL     1       2.045 -34.204  23.615  1.00  0.00     0.000 C 
BRANCH  14  15
ATOM     15  C   UNL     1       2.939 -34.730  22.474  1.00  0.00     0.000 C 
BRANCH  15  16
ATOM     16  C   UNL     1       4.254 -35.391  22.922  1.00  0.00     0.000 C 
BRANCH  16  17
ATOM     17  C   UNL     1       4.295 -36.901  22.628  1.00  0.00     0.000 C 
BRANCH  17  18
ATOM     18  C   UNL     1       5.683 -37.368  22.161  1.00  0.00     0.000 C 
BRANCH  18  19
ATOM     19  C   UNL     1       5.845 -37.289  20.635  1.00  0.00     0.000 C 
BRANCH  19  20
ATOM     20  C   UNL     1       4.494 -37.457  19.931  1.00  0.00     0.006 C 
BRANCH  20  21
ATOM     21  C   UNL     1       4.264 -36.340  18.909  1.00  0.00     0.053 C 
BRANCH  21  22
ATOM     22  C   UNL     1       2.833 -36.316  18.472  1.00  0.00     0.041 C 
ATOM     23  O   UNL     1       1.965 -35.736  19.176  1.00  0.00    -0.550 OA
ATOM     24  O   UNL     1       2.450 -36.972  17.308  1.00  0.00    -0.550 OA
ENDBRANCH  21  22
ENDBRANCH  20  21
ENDBRANCH  19  20
ENDBRANCH  18  19
ENDBRANCH  17  18
ENDBRANCH  16  17
ENDBRANCH  15  16
ENDBRANCH  14  15
ENDBRANCH  13  14
ENDBRANCH   1  13
TORSDOF 20
ENDMDL
MODEL 4
REMARK VINA RESULT:    -4.162      0.913      2.264
REMARK INTER + INTRA:         -11.015
REMARK INTER:                  -8.869
REMARK INTRA:                  -2.146
REMARK UNBOUND:                -1.988
REMARK SMILES CCCCCCCCCCCCCCCCCCCCCC(=O)[O-]
REMARK SMILES IDX 12 1 11 2 10 3 9 4 8 5 7 6 6 7 5 8 4 9 3 10 2 11 1 12 13 13
REMARK SMILES IDX 14 14 15 15 16 16 17 17 18 18 19 19 20 20 21 21 22 22 23 23
REMARK SMILES IDX 24 24
REMARK H PARENT
REMARK Flexibility Score: inf
ROOT
ATOM      1  C   UNL     1       1.686 -31.867  23.998  1.00  0.00     0.000 C 
ENDROOT
BRANCH   1   2
ATOM      2  C   UNL     1       1.933 -33.345  24.354  1.00  0.00     0.000 C 
BRANCH   2   3
ATOM      3  C   UNL     1       2.565 -34.200  23.239  1.00  0.00     0.000 C 
BRANCH   3   4
ATOM      4  C   UNL     1       1.531 -34.749  22.242  1.00  0.00    -0.000 C 
BRANCH   4   5
ATOM      5  C   UNL     1       2.073 -35.913  21.391  1.00  0.00    -0.000 C 
BRANCH   5   6
ATOM      6  C   UNL     1       1.214 -36.284  20.170  1.00  0.00    -0.000 C 
BRANCH   6   7
ATOM      7  C   UNL     1       1.695 -37.563  19.466  1.00  0.00    -0.000 C 
BRANCH   7   8
ATOM      8  C   UNL     1       2.024 -37.340  17.979  1.00  0.00    -0.000 C 
BRANCH   8   9
ATOM      9  C   UNL     1       3.497 -37.583  17.601  1.00  0.00    -0.000 C 
BRANCH   9  10
ATOM     10  C   UNL     1       4.428 -36.447  18.057  1.00  0.00    -0.000 C 
BRANCH  10  11
ATOM     11  C   UNL     1       5.636 -36.962  18.855  1.00  0.00    -0.003 C 
ATOM     12  C   UNL     1       5.353 -37.059  20.353  1.00  0.00     0.004 C 
ENDBRANCH  10  11
ENDBRANCH   9  10
ENDBRANCH   8   9
ENDBRANCH   7   8
ENDBRANCH   6   7
ENDBRANCH   5   6
ENDBRANCH   4   5
ENDBRANCH   3   4
ENDBRANCH   2   3
ENDBRANCH   1   2
BRANCH   1  13
ATOM     13  C   UNL     1       0.207 -31.461  24.108  1.00  0.00     0.000 C 
BRANCH  13  14
ATOM     14  C   UNL     1      -0.727 -32.658  24.360  1.00  0.00     0.000 C 
BRANCH  14  15
ATOM     15  C   UNL     1      -1.758 -32.939  23.248  1.00  0.00     0.000 C 
BRANCH  15  16
ATOM     16  C   UNL     1      -2.354 -34.358  23.248  1.00  0.00     0.000 C 
BRANCH  16  17
ATOM     17  C   UNL     1      -2.031 -35.142  21.965  1.00  0.00     0.000 C 
BRANCH  17  18
ATOM     18  C   UNL     1      -3.054 -36.256  21.687  1.00  0.00     0.000 C 
BRANCH  18  19
ATOM     19  C   UNL     1      -2.406 -37.511  21.084  1.00  0.00     0.000 C 
BRANCH  19  20
ATOM     20  C   UNL     1      -3.042 -37.861  19.733  1.00  0.00     0.006 C 
BRANCH  20  21
ATOM     21  C   UNL     1      -3.438 -36.594  18.968  1.00  0.00     0.053 C 
BRANCH  21  22
ATOM     22  C   UNL     1      -4.257 -36.944  17.766  1.00  0.00     0.041 C 
ATOM     23  O   UNL     1      -4.114 -38.062  17.205  1.00  0.00    -0.550 OA
ATOM     24  O   UNL     1      -5.148 -36.017  17.237  1.00  0.00    -0.550 OA
ENDBRANCH  21  22
ENDBRANCH  20  21
ENDBRANCH  19  20
ENDBRANCH  18  19
ENDBRANCH  17  18
ENDBRANCH  16  17
ENDBRANCH  15  16
ENDBRANCH  14  15
ENDBRANCH  13  14
ENDBRANCH   1  13
TORSDOF 20
ENDMDL
MODEL 5
REMARK VINA RESULT:    -4.128      3.217      5.730
REMARK INTER + INTRA:         -10.942
REMARK INTER:                  -8.711
REMARK INTRA:                  -2.231
REMARK UNBOUND:                -1.988
REMARK SMILES CCCCCCCCCCCCCCCCCCCCCC(=O)[O-]
REMARK SMILES IDX 12 1 11 2 10 3 9 4 8 5 7 6 6 7 5 8 4 9 3 10 2 11 1 12 13 13
REMARK SMILES IDX 14 14 15 15 16 16 17 17 18 18 19 19 20 20 21 21 22 22 23 23
REMARK SMILES IDX 24 24
REMARK H PARENT
REMARK Flexibility Score: inf
ROOT
ATOM      1  C   UNL     1       0.301 -36.942  21.140  1.00  0.00     0.000 C 
ENDROOT
BRANCH   1   2
ATOM      2  C   UNL     1       1.736 -37.321  20.727  1.00  0.00     0.000 C 
BRANCH   2   3
ATOM      3  C   UNL     1       2.004 -37.349  19.210  1.00  0.00     0.000 C 
BRANCH   3   4
ATOM      4  C   UNL     1       2.853 -36.161  18.727  1.00  0.00    -0.000 C 
BRANCH   4   5
ATOM      5  C   UNL     1       3.815 -36.533  17.583  1.00  0.00    -0.000 C 
BRANCH   5   6
ATOM      6  C   UNL     1       4.828 -37.642  17.916  1.00  0.00    -0.000 C 
BRANCH   6   7
ATOM      7  C   UNL     1       6.000 -37.143  18.778  1.00  0.00    -0.000 C 
BRANCH   7   8
ATOM      8  C   UNL     1       5.914 -37.619  20.239  1.00  0.00    -0.000 C 
BRANCH   8   9
ATOM      9  C   UNL     1       6.119 -36.513  21.291  1.00  0.00    -0.000 C 
BRANCH   9  10
ATOM     10  C   UNL     1       5.862 -36.999  22.728  1.00  0.00    -0.000 C 
BRANCH  10  11
ATOM     11  C   UNL     1       4.405 -36.788  23.167  1.00  0.00    -0.003 C 
ATOM     12  C   UNL     1       3.875 -35.402  22.801  1.00  0.00     0.004 C 
ENDBRANCH  10  11
ENDBRANCH   9  10
ENDBRANCH   8   9
ENDBRANCH   7   8
ENDBRANCH   6   7
ENDBRANCH   5   6
ENDBRANCH   4   5
ENDBRANCH   3   4
ENDBRANCH   2   3
ENDBRANCH   1   2
BRANCH   1  13
ATOM     13  C   UNL     1      -0.682 -38.121  21.045  1.00  0.00     0.000 C 
BRANCH  13  14
ATOM     14  C   UNL     1      -1.968 -37.771  20.275  1.00  0.00     0.000 C 
BRANCH  14  15
ATOM     15  C   UNL     1      -2.433 -36.306  20.393  1.00  0.00     0.000 C 
BRANCH  15  16
ATOM     16  C   UNL     1      -3.465 -36.032  21.502  1.00  0.00     0.000 C 
BRANCH  16  17
ATOM     17  C   UNL     1      -2.820 -35.546  22.811  1.00  0.00     0.000 C 
BRANCH  17  18
ATOM     18  C   UNL     1      -1.902 -34.331  22.594  1.00  0.00     0.000 C 
BRANCH  18  19
ATOM     19  C   UNL     1      -2.513 -33.030  23.139  1.00  0.00     0.000 C 
BRANCH  19  20
ATOM     20  C   UNL     1      -1.772 -32.563  24.398  1.00  0.00     0.006 C 
BRANCH  20  21
ATOM     21  C   UNL     1      -0.355 -33.142  24.449  1.00  0.00     0.053 C 
BRANCH  21  22
ATOM     22  C   UNL     1       0.658 -32.072  24.192  1.00  0.00     0.041 C 
ATOM     23  O   UNL     1       0.291 -30.879  24.024  1.00  0.00    -0.550 OA
ATOM     24  O   UNL     1       2.005 -32.398  24.094  1.00  0.00    -0.550 OA
ENDBRANCH  21  22
ENDBRANCH  20  21
ENDBRANCH  19  20
ENDBRANCH  18  19
ENDBRANCH  17  18
ENDBRANCH  16  17
ENDBRANCH  15  16
ENDBRANCH  14  15
ENDBRANCH  13  14
ENDBRANCH   1  13
TORSDOF 20
ENDMDL
MODEL 6
REMARK VINA RESULT:    -3.769      1.337      4.101
REMARK INTER + INTRA:         -10.164
REMARK INTER:                  -7.757
REMARK INTRA:                  -2.407
REMARK UNBOUND:                -1.988
REMARK SMILES CCCCCCCCCCCCCCCCCCCCCC(=O)[O-]
REMARK SMILES IDX 12 1 11 2 10 3 9 4 8 5 7 6 6 7 5 8 4 9 3 10 2 11 1 12 13 13
REMARK SMILES IDX 14 14 15 15 16 16 17 17 18 18 19 19 20 20 21 21 22 22 23 23
REMARK SMILES IDX 24 24
REMARK H PARENT
REMARK Flexibility Score: inf
ROOT
ATOM      1  C   UNL     1       0.794 -37.700  19.552  1.00  0.00     0.000 C 
ENDROOT
BRANCH   1   2
ATOM      2  C   UNL     1       1.839 -36.741  18.950  1.00  0.00     0.000 C 
BRANCH   2   3
ATOM      3  C   UNL     1       2.382 -37.138  17.564  1.00  0.00     0.000 C 
BRANCH   3   4
ATOM      4  C   UNL     1       3.861 -36.764  17.368  1.00  0.00    -0.000 C 
BRANCH   4   5
ATOM      5  C   UNL     1       4.553 -36.333  18.675  1.00  0.00    -0.000 C 
BRANCH   5   6
ATOM      6  C   UNL     1       5.462 -37.397  19.314  1.00  0.00    -0.000 C 
BRANCH   6   7
ATOM      7  C   UNL     1       5.002 -37.811  20.721  1.00  0.00    -0.000 C 
BRANCH   7   8
ATOM      8  C   UNL     1       5.879 -37.216  21.837  1.00  0.00    -0.000 C 
BRANCH   8   9
ATOM      9  C   UNL     1       5.377 -35.875  22.405  1.00  0.00    -0.000 C 
BRANCH   9  10
ATOM     10  C   UNL     1       3.885 -35.901  22.774  1.00  0.00    -0.000 C 
BRANCH  10  11
ATOM     11  C   UNL     1       3.536 -34.899  23.885  1.00  0.00    -0.003 C 
ATOM     12  C   UNL     1       2.547 -33.830  23.423  1.00  0.00     0.004 C 
ENDBRANCH  10  11
ENDBRANCH   9  10
ENDBRANCH   8   9
ENDBRANCH   7   8
ENDBRANCH   6   7
ENDBRANCH   5   6
ENDBRANCH   4   5
ENDBRANCH   3   4
ENDBRANCH   2   3
ENDBRANCH   1   2
BRANCH   1  13
ATOM     13  C   UNL     1       0.392 -37.325  20.989  1.00  0.00     0.000 C 
BRANCH  13  14
ATOM     14  C   UNL     1       0.669 -35.848  21.324  1.00  0.00     0.000 C 
BRANCH  14  15
ATOM     15  C   UNL     1      -0.447 -35.127  22.108  1.00  0.00     0.000 C 
BRANCH  15  16
ATOM     16  C   UNL     1      -1.830 -35.129  21.433  1.00  0.00     0.000 C 
BRANCH  16  17
ATOM     17  C   UNL     1      -2.859 -35.991  22.183  1.00  0.00     0.000 C 
BRANCH  17  18
ATOM     18  C   UNL     1      -3.792 -36.753  21.227  1.00  0.00     0.000 C 
BRANCH  18  19
ATOM     19  C   UNL     1      -3.174 -38.068  20.729  1.00  0.00     0.000 C 
BRANCH  19  20
ATOM     20  C   UNL     1      -3.135 -38.110  19.197  1.00  0.00     0.006 C 
BRANCH  20  21
ATOM     21  C   UNL     1      -3.318 -36.709  18.604  1.00  0.00     0.053 C 
BRANCH  21  22
ATOM     22  C   UNL     1      -4.405 -36.714  17.576  1.00  0.00     0.041 C 
ATOM     23  O   UNL     1      -4.653 -37.761  16.921  1.00  0.00    -0.550 OA
ATOM     24  O   UNL     1      -5.116 -35.550  17.308  1.00  0.00    -0.550 OA
ENDBRANCH  21  22
ENDBRANCH  20  21
ENDBRANCH  19  20
ENDBRANCH  18  19
ENDBRANCH  17  18
ENDBRANCH  16  17
ENDBRANCH  15  16
ENDBRANCH  14  15
ENDBRANCH  13  14
ENDBRANCH   1  13
TORSDOF 20
ENDMDL
MODEL 7
REMARK VINA RESULT:    -3.742      1.085      1.593
REMARK INTER + INTRA:         -10.104
REMARK INTER:                  -8.572
REMARK INTRA:                  -1.532
REMARK UNBOUND:                -1.988
REMARK SMILES CCCCCCCCCCCCCCCCCCCCCC(=O)[O-]
REMARK SMILES IDX 12 1 11 2 10 3 9 4 8 5 7 6 6 7 5 8 4 9 3 10 2 11 1 12 13 13
REMARK SMILES IDX 14 14 15 15 16 16 17 17 18 18 19 19 20 20 21 21 22 22 23 23
REMARK SMILES IDX 24 24
REMARK H PARENT
REMARK Flexibility Score: inf
ROOT
ATOM      1  C   UNL     1      -0.977 -31.316  24.091  1.00  0.00     0.000 C 
ENDROOT
BRANCH   1   2
ATOM      2  C   UNL     1       0.556 -31.444  24.008  1.00  0.00     0.000 C 
BRANCH   2   3
ATOM      3  C   UNL     1       1.129 -32.821  24.391  1.00  0.00     0.000 C 
BRANCH   3   4
ATOM      4  C   UNL     1       2.447 -33.148  23.670  1.00  0.00    -0.000 C 
BRANCH   4   5
ATOM      5  C   UNL     1       2.520 -34.606  23.179  1.00  0.00    -0.000 C 
BRANCH   5   6
ATOM      6  C   UNL     1       3.912 -35.072  22.720  1.00  0.00    -0.000 C 
BRANCH   6   7
ATOM      7  C   UNL     1       3.889 -35.772  21.352  1.00  0.00    -0.000 C 
BRANCH   7   8
ATOM      8  C   UNL     1       2.465 -36.103  20.873  1.00  0.00    -0.000 C 
BRANCH   8   9
ATOM      9  C   UNL     1       2.366 -37.318  19.931  1.00  0.00    -0.000 C 
BRANCH   9  10
ATOM     10  C   UNL     1       3.740 -37.819  19.455  1.00  0.00    -0.000 C 
BRANCH  10  11
ATOM     11  C   UNL     1       3.915 -37.698  17.933  1.00  0.00    -0.003 C 
ATOM     12  C   UNL     1       2.787 -36.906  17.273  1.00  0.00     0.004 C 
ENDBRANCH  10  11
ENDBRANCH   9  10
ENDBRANCH   8   9
ENDBRANCH   7   8
ENDBRANCH   6   7
ENDBRANCH   5   6
ENDBRANCH   4   5
ENDBRANCH   3   4
ENDBRANCH   2   3
ENDBRANCH   1   2
BRANCH   1  13
ATOM     13  C   UNL     1      -1.683 -32.667  24.287  1.00  0.00     0.000 C 
BRANCH  13  14
ATOM     14  C   UNL     1      -1.749 -33.504  22.997  1.00  0.00     0.000 C 
BRANCH  14  15
ATOM     15  C   UNL     1      -2.878 -34.553  22.944  1.00  0.00     0.000 C 
BRANCH  15  16
ATOM     16  C   UNL     1      -2.508 -35.883  22.266  1.00  0.00     0.000 C 
BRANCH  16  17
ATOM     17  C   UNL     1      -1.261 -35.771  21.371  1.00  0.00     0.000 C 
BRANCH  17  18
ATOM     18  C   UNL     1      -1.206 -36.877  20.304  1.00  0.00     0.000 C 
BRANCH  18  19
ATOM     19  C   UNL     1      -2.159 -38.041  20.616  1.00  0.00     0.000 C 
BRANCH  19  20
ATOM     20  C   UNL     1      -3.282 -38.124  19.575  1.00  0.00     0.006 C 
BRANCH  20  21
ATOM     21  C   UNL     1      -3.628 -36.736  19.027  1.00  0.00     0.053 C 
BRANCH  21  22
ATOM     22  C   UNL     1      -4.305 -36.852  17.699  1.00  0.00     0.041 C 
ATOM     23  O   UNL     1      -4.898 -35.859  17.200  1.00  0.00    -0.550 OA
ATOM     24  O   UNL     1      -4.319 -38.069  17.028  1.00  0.00    -0.550 OA
ENDBRANCH  21  22
ENDBRANCH  20  21
ENDBRANCH  19  20
ENDBRANCH  18  19
ENDBRANCH  17  18
ENDBRANCH  16  17
ENDBRANCH  15  16
ENDBRANCH  14  15
ENDBRANCH  13  14
ENDBRANCH   1  13
TORSDOF 20
ENDMDL
MODEL 8
REMARK VINA RESULT:    -3.670      2.188      2.839
REMARK INTER + INTRA:          -9.948
REMARK INTER:                  -7.959
REMARK INTRA:                  -1.989
REMARK UNBOUND:                -1.988
REMARK SMILES CCCCCCCCCCCCCCCCCCCCCC(=O)[O-]
REMARK SMILES IDX 12 1 11 2 10 3 9 4 8 5 7 6 6 7 5 8 4 9 3 10 2 11 1 12 13 13
REMARK SMILES IDX 14 14 15 15 16 16 17 17 18 18 19 19 20 20 21 21 22 22 23 23
REMARK SMILES IDX 24 24
REMARK H PARENT
REMARK Flexibility Score: inf
ROOT
ATOM      1  C   UNL     1       0.281 -31.865  24.149  1.00  0.00     0.000 C 
ENDROOT
BRANCH   1   2
ATOM      2  C   UNL     1       1.677 -32.505  24.272  1.00  0.00     0.000 C 
BRANCH   2   3
ATOM      3  C   UNL     1       1.817 -33.912  23.661  1.00  0.00     0.000 C 
BRANCH   3   4
ATOM      4  C   UNL     1       3.152 -34.120  22.927  1.00  0.00    -0.000 C 
BRANCH   4   5
ATOM      5  C   UNL     1       3.668 -35.569  23.011  1.00  0.00    -0.000 C 
BRANCH   5   6
ATOM      6  C   UNL     1       5.199 -35.720  22.978  1.00  0.00    -0.000 C 
BRANCH   6   7
ATOM      7  C   UNL     1       5.661 -36.968  22.208  1.00  0.00    -0.000 C 
BRANCH   7   8
ATOM      8  C   UNL     1       4.705 -37.354  21.065  1.00  0.00    -0.000 C 
BRANCH   8   9
ATOM      9  C   UNL     1       5.397 -37.904  19.803  1.00  0.00    -0.000 C 
BRANCH   9  10
ATOM     10  C   UNL     1       5.182 -37.014  18.568  1.00  0.00    -0.000 C 
BRANCH  10  11
ATOM     11  C   UNL     1       3.775 -36.400  18.524  1.00  0.00    -0.003 C 
ATOM     12  C   UNL     1       2.935 -36.934  17.365  1.00  0.00     0.004 C 
ENDBRANCH  10  11
ENDBRANCH   9  10
ENDBRANCH   8   9
ENDBRANCH   7   8
ENDBRANCH   6   7
ENDBRANCH   5   6
ENDBRANCH   4   5
ENDBRANCH   3   4
ENDBRANCH   2   3
ENDBRANCH   1   2
BRANCH   1  13
ATOM     13  C   UNL     1      -0.862 -32.860  24.410  1.00  0.00     0.000 C 
BRANCH  13  14
ATOM     14  C   UNL     1      -1.752 -33.089  23.175  1.00  0.00     0.000 C 
BRANCH  14  15
ATOM     15  C   UNL     1      -1.742 -34.524  22.609  1.00  0.00     0.000 C 
BRANCH  15  16
ATOM     16  C   UNL     1      -3.129 -35.160  22.408  1.00  0.00     0.000 C 
BRANCH  16  17
ATOM     17  C   UNL     1      -3.053 -36.601  21.875  1.00  0.00     0.000 C 
BRANCH  17  18
ATOM     18  C   UNL     1      -3.496 -36.705  20.406  1.00  0.00     0.000 C 
BRANCH  18  19
ATOM     19  C   UNL     1      -2.460 -37.426  19.531  1.00  0.00     0.000 C 
BRANCH  19  20
ATOM     20  C   UNL     1      -1.404 -38.124  20.395  1.00  0.00     0.006 C 
BRANCH  20  21
ATOM     21  C   UNL     1      -0.004 -37.955  19.795  1.00  0.00     0.053 C 
BRANCH  21  22
ATOM     22  C   UNL     1       0.892 -37.238  20.754  1.00  0.00     0.041 C 
ATOM     23  O   UNL     1       1.496 -37.875  21.657  1.00  0.00    -0.550 OA
ATOM     24  O   UNL     1       1.030 -35.857  20.678  1.00  0.00    -0.550 OA
ENDBRANCH  21  22
ENDBRANCH  20  21
ENDBRANCH  19  20
ENDBRANCH  18  19
ENDBRANCH  17  18
ENDBRANCH  16  17
ENDBRANCH  15  16
ENDBRANCH  14  15
ENDBRANCH  13  14
ENDBRANCH   1  13
TORSDOF 20
ENDMDL
MODEL 9
REMARK VINA RESULT:    -3.614      1.150      3.261
REMARK INTER + INTRA:          -9.827
REMARK INTER:                  -8.112
REMARK INTRA:                  -1.715
REMARK UNBOUND:                -1.988
REMARK SMILES CCCCCCCCCCCCCCCCCCCCCC(=O)[O-]
REMARK SMILES IDX 12 1 11 2 10 3 9 4 8 5 7 6 6 7 5 8 4 9 3 10 2 11 1 12 13 13
REMARK SMILES IDX 14 14 15 15 16 16 17 17 18 18 19 19 20 20 21 21 22 22 23 23
REMARK SMILES IDX 24 24
REMARK H PARENT
REMARK Flexibility Score: inf
ROOT
ATOM      1  C   UNL     1       2.572 -34.375  22.972  1.00  0.00     0.000 C 
ENDROOT
BRANCH   1   2
ATOM      2  C   UNL     1       1.366 -34.816  22.120  1.00  0.00     0.000 C 
BRANCH   2   3
ATOM      3  C   UNL     1       1.527 -36.163  21.390  1.00  0.00     0.000 C 
BRANCH   3   4
ATOM      4  C   UNL     1       1.725 -36.005  19.873  1.00  0.00    -0.000 C 
BRANCH   4   5
ATOM      5  C   UNL     1       1.690 -37.347  19.118  1.00  0.00    -0.000 C 
BRANCH   5   6
ATOM      6  C   UNL     1       2.932 -37.647  18.261  1.00  0.00    -0.000 C 
BRANCH   6   7
ATOM      7  C   UNL     1       3.880 -36.443  18.138  1.00  0.00    -0.000 C 
BRANCH   7   8
ATOM      8  C   UNL     1       5.359 -36.825  18.323  1.00  0.00    -0.000 C 
BRANCH   8   9
ATOM      9  C   UNL     1       5.607 -37.996  19.293  1.00  0.00    -0.000 C 
BRANCH   9  10
ATOM     10  C   UNL     1       6.125 -37.536  20.666  1.00  0.00    -0.000 C 
BRANCH  10  11
ATOM     11  C   UNL     1       4.989 -37.118  21.612  1.00  0.00    -0.003 C 
ATOM     12  C   UNL     1       5.479 -36.255  22.774  1.00  0.00     0.004 C 
ENDBRANCH  10  11
ENDBRANCH   9  10
ENDBRANCH   8   9
ENDBRANCH   7   8
ENDBRANCH   6   7
ENDBRANCH   5   6
ENDBRANCH   4   5
ENDBRANCH   3   4
ENDBRANCH   2   3
ENDBRANCH   1   2
BRANCH   1  13
ATOM     13  C   UNL     1       2.354 -33.021  23.666  1.00  0.00     0.000 C 
BRANCH  13  14
ATOM     14  C   UNL     1       1.040 -32.960  24.465  1.00  0.00     0.000 C 
BRANCH  14  15
ATOM     15  C   UNL     1      -0.201 -32.512  23.666  1.00  0.00     0.000 C 
BRANCH  15  16
ATOM     16  C   UNL     1      -1.556 -32.885  24.292  1.00  0.00     0.000 C 
BRANCH  16  17
ATOM     17  C   UNL     1      -2.502 -33.581  23.299  1.00  0.00     0.000 C 
BRANCH  17  18
ATOM     18  C   UNL     1      -1.788 -34.664  22.473  1.00  0.00     0.000 C 
BRANCH  18  19
ATOM     19  C   UNL     1      -2.738 -35.791  22.038  1.00  0.00     0.000 C 
BRANCH  19  20
ATOM     20  C   UNL     1      -1.986 -36.863  21.239  1.00  0.00     0.006 C 
BRANCH  20  21
ATOM     21  C   UNL     1      -2.943 -37.953  20.747  1.00  0.00     0.053 C 
BRANCH  21  22
ATOM     22  C   UNL     1      -3.763 -37.450  19.601  1.00  0.00     0.041 C 
ATOM     23  O   UNL     1      -4.803 -38.065  19.248  1.00  0.00    -0.550 OA
ATOM     24  O   UNL     1      -3.355 -36.325  18.894  1.00  0.00    -0.550 OA
ENDBRANCH  21  22
ENDBRANCH  20  21
ENDBRANCH  19  20
ENDBRANCH  18  19
ENDBRANCH  17  18
ENDBRANCH  16  17
ENDBRANCH  15  16
ENDBRANCH  14  15
ENDBRANCH  13  14
ENDBRANCH   1  13
TORSDOF 20
ENDMDL
