MODEL 1
REMARK VINA RESULT:    25.581      0.000      0.000
REMARK INTER + INTRA:          30.558
REMARK INTER:                  30.815
REMARK INTRA:                  -0.258
REMARK UNBOUND:                -0.258
REMARK SMILES O=c1c(O)c(-c2ccc(O)c(O)c2)oc2cc(O)cc(O)c12
REMARK SMILES IDX 5 1 3 2 2 3 1 4 22 5 20 6 19 7 17 8 16 9 15 10 14 11 6 12
REMARK SMILES IDX 7 13 8 14 9 15 13 16 11 17 10 18 12 20 4 22 21 24 18 26
REMARK H PARENT 10 19 12 21 4 23 21 25 18 27
REMARK Flexibility Score: inf
ROOT
ATOM      1  C   UNL     1      29.123  33.352  48.570  1.00  0.00     0.180 A 
ATOM      2  C   UNL     1      28.449  33.086  47.365  1.00  0.00     0.208 A 
ATOM      3  C   UNL     1      28.170  31.754  47.020  1.00  0.00     0.238 A 
ATOM      4  O   UNL     1      27.520  31.527  45.967  1.00  0.00    -0.285 OA
ATOM      5  C   UNL     1      28.582  30.704  47.876  1.00  0.00     0.111 A 
ATOM      6  C   UNL     1      28.387  29.316  47.605  1.00  0.00     0.134 A 
ATOM      7  C   UNL     1      28.718  28.369  48.584  1.00  0.00     0.093 A 
ATOM      8  C   UNL     1      29.296  28.757  49.795  1.00  0.00     0.123 A 
ATOM      9  C   UNL     1      29.545  30.105  50.043  1.00  0.00     0.094 A 
ATOM     10  C   UNL     1      29.192  31.075  49.101  1.00  0.00     0.146 A 
ATOM     11  O   UNL     1      29.437  32.350  49.382  1.00  0.00    -0.452 OA
ENDROOT
BRANCH   1  12
ATOM     12  C   UNL     1      29.474  34.728  48.990  1.00  0.00     0.025 A 
ATOM     13  C   UNL     1      30.798  35.194  48.933  1.00  0.00     0.016 A 
ATOM     14  C   UNL     1      31.111  36.489  49.358  1.00  0.00     0.051 A 
ATOM     15  C   UNL     1      30.107  37.330  49.857  1.00  0.00     0.157 A 
ATOM     16  C   UNL     1      28.476  35.567  49.511  1.00  0.00     0.062 A 
ATOM     17  C   UNL     1      28.784  36.864  49.937  1.00  0.00     0.158 A 
BRANCH  15  18
ATOM     18  O   UNL     1      30.421  38.621  50.277  1.00  0.00    -0.504 OA
ATOM     19  H   UNL     1      29.701  39.282  50.548  1.00  0.00     0.293 HD
ENDBRANCH  15  18
BRANCH  17  20
ATOM     20  O   UNL     1      27.764  37.675  50.436  1.00  0.00    -0.504 OA
ATOM     21  H   UNL     1      26.946  37.291  50.894  1.00  0.00     0.293 HD
ENDBRANCH  17  20
ENDBRANCH   1  12
BRANCH   2  22
ATOM     22  O   UNL     1      28.032  34.139  46.546  1.00  0.00    -0.502 OA
ATOM     23  H   UNL     1      28.261  35.106  46.742  1.00  0.00     0.293 HD
ENDBRANCH   2  22
BRANCH   6  24
ATOM     24  O   UNL     1      27.903  28.816  46.393  1.00  0.00    -0.507 OA
ATOM     25  H   UNL     1      28.482  28.531  45.618  1.00  0.00     0.293 HD
ENDBRANCH   6  24
BRANCH   8  26
ATOM     26  O   UNL     1      29.637  27.807  50.756  1.00  0.00    -0.508 OA
ATOM     27  H   UNL     1      28.933  27.359  51.331  1.00  0.00     0.293 HD
ENDBRANCH   8  26
TORSDOF 6
ENDMDL
MODEL 2
REMARK VINA RESULT:    26.698      1.226      2.861
REMARK INTER + INTRA:          31.903
REMARK INTER:                  32.139
REMARK INTRA:                  -0.236
REMARK UNBOUND:                -0.258
REMARK SMILES O=c1c(O)c(-c2ccc(O)c(O)c2)oc2cc(O)cc(O)c12
REMARK SMILES IDX 5 1 3 2 2 3 1 4 22 5 20 6 19 7 17 8 16 9 15 10 14 11 6 12
REMARK SMILES IDX 7 13 8 14 9 15 13 16 11 17 10 18 12 20 4 22 21 24 18 26
REMARK H PARENT 10 19 12 21 4 23 21 25 18 27
REMARK Flexibility Score: inf
ROOT
ATOM      1  C   UNL     1      29.393  33.547  49.150  1.00  0.00     0.180 A 
ATOM      2  C   UNL     1      29.841  32.594  50.081  1.00  0.00     0.208 A 
ATOM      3  C   UNL     1      29.539  31.240  49.868  1.00  0.00     0.238 A 
ATOM      4  O   UNL     1      29.988  30.386  50.676  1.00  0.00    -0.285 OA
ATOM      5  C   UNL     1      28.779  30.857  48.736  1.00  0.00     0.111 A 
ATOM      6  C   UNL     1      28.381  29.518  48.443  1.00  0.00     0.134 A 
ATOM      7  C   UNL     1      27.743  29.238  47.227  1.00  0.00     0.093 A 
ATOM      8  C   UNL     1      27.432  30.259  46.325  1.00  0.00     0.123 A 
ATOM      9  C   UNL     1      27.764  31.577  46.630  1.00  0.00     0.094 A 
ATOM     10  C   UNL     1      28.433  31.882  47.818  1.00  0.00     0.146 A 
ATOM     11  O   UNL     1      28.740  33.150  48.065  1.00  0.00    -0.452 OA
ENDROOT
BRANCH   1  12
ATOM     12  C   UNL     1      29.652  34.995  49.319  1.00  0.00     0.025 A 
ATOM     13  C   UNL     1      30.937  35.535  49.136  1.00  0.00     0.016 A 
ATOM     14  C   UNL     1      31.163  36.902  49.325  1.00  0.00     0.051 A 
ATOM     15  C   UNL     1      30.113  37.745  49.713  1.00  0.00     0.157 A 
ATOM     16  C   UNL     1      28.608  35.841  49.728  1.00  0.00     0.062 A 
ATOM     17  C   UNL     1      28.830  37.210  49.919  1.00  0.00     0.158 A 
BRANCH  15  18
ATOM     18  O   UNL     1      30.341  39.107  49.899  1.00  0.00    -0.504 OA
ATOM     19  H   UNL     1      30.376  39.519  50.825  1.00  0.00     0.293 HD
ENDBRANCH  15  18
BRANCH  17  20
ATOM     20  O   UNL     1      27.766  38.021  50.311  1.00  0.00    -0.504 OA
ATOM     21  H   UNL     1      27.906  38.878  50.833  1.00  0.00     0.293 HD
ENDBRANCH  17  20
ENDBRANCH   1  12
BRANCH   2  22
ATOM     22  O   UNL     1      30.608  32.990  51.180  1.00  0.00    -0.502 OA
ATOM     23  H   UNL     1      30.194  33.347  52.033  1.00  0.00     0.293 HD
ENDBRANCH   2  22
BRANCH   6  24
ATOM     24  O   UNL     1      28.560  28.441  49.315  1.00  0.00    -0.507 OA
ATOM     25  H   UNL     1      27.819  27.988  49.828  1.00  0.00     0.293 HD
ENDBRANCH   6  24
BRANCH   8  26
ATOM     26  O   UNL     1      26.784  29.974  45.125  1.00  0.00    -0.508 OA
ATOM     27  H   UNL     1      26.813  30.615  44.341  1.00  0.00     0.293 HD
ENDBRANCH   8  26
TORSDOF 6
ENDMDL
