MODEL 1
REMARK VINA RESULT:    -4.342      0.000      0.000
REMARK INTER + INTRA:         -12.172
REMARK INTER:                  -9.418
REMARK INTRA:                  -2.754
REMARK UNBOUND:                -2.754
REMARK SMILES CCCCCCCCCCCCCCCCCCCCCC(=O)[O-]
REMARK SMILES IDX 12 1 11 2 10 3 9 4 8 5 7 6 6 7 5 8 4 9 3 10 2 11 1 12 13 13
REMARK SMILES IDX 14 14 15 15 16 16 17 17 18 18 19 19 20 20 21 21 22 22 23 23
REMARK SMILES IDX 24 24
REMARK H PARENT
REMARK Flexibility Score: inf
ROOT
ATOM      1  C   UNL     1       0.339 -36.796  21.514  1.00  0.00     0.000 C 
ENDROOT
BRANCH   1   2
ATOM      2  C   UNL     1       0.515 -36.044  20.187  1.00  0.00     0.000 C 
BRANCH   2   3
ATOM      3  C   UNL     1       1.903 -36.251  19.555  1.00  0.00     0.000 C 
BRANCH   3   4
ATOM      4  C   UNL     1       1.990 -37.379  18.509  1.00  0.00    -0.000 C 
BRANCH   4   5
ATOM      5  C   UNL     1       3.330 -37.400  17.756  1.00  0.00    -0.000 C 
BRANCH   5   6
ATOM      6  C   UNL     1       4.404 -36.512  18.412  1.00  0.00    -0.000 C 
BRANCH   6   7
ATOM      7  C   UNL     1       5.582 -37.271  19.052  1.00  0.00    -0.000 C 
BRANCH   7   8
ATOM      8  C   UNL     1       5.858 -36.844  20.502  1.00  0.00    -0.000 C 
BRANCH   8   9
ATOM      9  C   UNL     1       5.499 -37.967  21.483  1.00  0.00    -0.000 C 
BRANCH   9  10
ATOM     10  C   UNL     1       4.017 -37.896  21.881  1.00  0.00    -0.000 C 
BRANCH  10  11
ATOM     11  C   UNL     1       3.775 -36.989  23.096  1.00  0.00    -0.003 C 
ATOM     12  C   UNL     1       3.627 -35.517  22.714  1.00  0.00     0.004 C 
ENDBRANCH  10  11
ENDBRANCH   9  10
ENDBRANCH   8   9
ENDBRANCH   7   8
ENDBRANCH   6   7
ENDBRANCH   5   6
ENDBRANCH   4   5
ENDBRANCH   3   4
ENDBRANCH   2   3
ENDBRANCH   1   2
BRANCH   1  13
ATOM     13  C   UNL     1      -0.404 -38.122  21.296  1.00  0.00     0.000 C 
BRANCH  13  14
ATOM     14  C   UNL     1      -1.266 -38.125  20.022  1.00  0.00     0.000 C 
BRANCH  14  15
ATOM     15  C   UNL     1      -2.788 -38.068  20.261  1.00  0.00     0.000 C 
BRANCH  15  16
ATOM     16  C   UNL     1      -3.379 -36.650  20.390  1.00  0.00     0.000 C 
BRANCH  16  17
ATOM     17  C   UNL     1      -4.068 -36.353  21.734  1.00  0.00     0.000 C 
BRANCH  17  18
ATOM     18  C   UNL     1      -3.098 -35.814  22.796  1.00  0.00     0.000 C 
BRANCH  18  19
ATOM     19  C   UNL     1      -2.246 -34.670  22.227  1.00  0.00     0.000 C 
BRANCH  19  20
ATOM     20  C   UNL     1      -1.671 -33.755  23.319  1.00  0.00     0.006 C 
BRANCH  20  21
ATOM     21  C   UNL     1      -2.660 -32.669  23.765  1.00  0.00     0.053 C 
BRANCH  21  22
ATOM     22  C   UNL     1      -1.926 -31.465  24.265  1.00  0.00     0.041 C 
ATOM     23  O   UNL     1      -2.543 -30.388  24.475  1.00  0.00    -0.550 OA
ATOM     24  O   UNL     1      -0.551 -31.520  24.457  1.00  0.00    -0.550 OA
ENDBRANCH  21  22
ENDBRANCH  20  21
ENDBRANCH  19  20
ENDBRANCH  18  19
ENDBRANCH  17  18
ENDBRANCH  16  17
ENDBRANCH  15  16
ENDBRANCH  14  15
ENDBRANCH  13  14
ENDBRANCH   1  13
TORSDOF 20
ENDMDL
MODEL 2
REMARK VINA RESULT:    -4.298     20.415     22.918
REMARK INTER + INTRA:         -12.076
REMARK INTER:                  -9.339
REMARK INTRA:                  -2.737
REMARK UNBOUND:                -2.754
REMARK SMILES CCCCCCCCCCCCCCCCCCCCCC(=O)[O-]
REMARK SMILES IDX 12 1 11 2 10 3 9 4 8 5 7 6 6 7 5 8 4 9 3 10 2 11 1 12 13 13
REMARK SMILES IDX 14 14 15 15 16 16 17 17 18 18 19 19 20 20 21 21 22 22 23 23
REMARK SMILES IDX 24 24
REMARK H PARENT
REMARK Flexibility Score: inf
ROOT
ATOM      1  C   UNL     1      -4.748 -21.137  34.973  1.00  0.00     0.000 C 
ENDROOT
BRANCH   1   2
ATOM      2  C   UNL     1      -5.875 -22.037  34.446  1.00  0.00     0.000 C 
BRANCH   2   3
ATOM      3  C   UNL     1      -7.259 -21.660  35.005  1.00  0.00     0.000 C 
BRANCH   3   4
ATOM      4  C   UNL     1      -8.302 -21.238  33.953  1.00  0.00    -0.000 C 
BRANCH   4   5
ATOM      5  C   UNL     1      -9.630 -22.002  34.082  1.00  0.00    -0.000 C 
BRANCH   5   6
ATOM      6  C   UNL     1      -9.823 -22.647  35.467  1.00  0.00    -0.000 C 
BRANCH   6   7
ATOM      7  C   UNL     1     -11.250 -22.558  36.040  1.00  0.00    -0.000 C 
BRANCH   7   8
ATOM      8  C   UNL     1     -12.246 -21.897  35.076  1.00  0.00    -0.000 C 
BRANCH   8   9
ATOM      9  C   UNL     1     -12.553 -20.456  35.504  1.00  0.00    -0.000 C 
BRANCH   9  10
ATOM     10  C   UNL     1     -13.319 -19.707  34.402  1.00  0.00    -0.000 C 
BRANCH  10  11
ATOM     11  C   UNL     1     -12.406 -19.254  33.254  1.00  0.00    -0.003 C 
ATOM     12  C   UNL     1     -11.109 -18.614  33.747  1.00  0.00     0.004 C 
ENDBRANCH  10  11
ENDBRANCH   9  10
ENDBRANCH   8   9
ENDBRANCH   7   8
ENDBRANCH   6   7
ENDBRANCH   5   6
ENDBRANCH   4   5
ENDBRANCH   3   4
ENDBRANCH   2   3
ENDBRANCH   1   2
BRANCH   1  13
ATOM     13  C   UNL     1      -5.297 -20.095  35.958  1.00  0.00     0.000 C 
BRANCH  13  14
ATOM     14  C   UNL     1      -4.982 -18.648  35.538  1.00  0.00     0.000 C 
BRANCH  14  15
ATOM     15  C   UNL     1      -3.982 -18.507  34.373  1.00  0.00     0.000 C 
BRANCH  15  16
ATOM     16  C   UNL     1      -4.592 -18.032  33.039  1.00  0.00     0.000 C 
BRANCH  16  17
ATOM     17  C   UNL     1      -6.127 -17.927  33.028  1.00  0.00     0.000 C 
BRANCH  17  18
ATOM     18  C   UNL     1      -6.782 -18.852  31.993  1.00  0.00     0.000 C 
BRANCH  18  19
ATOM     19  C   UNL     1      -8.174 -18.334  31.600  1.00  0.00     0.000 C 
BRANCH  19  20
ATOM     20  C   UNL     1      -8.529 -18.630  30.135  1.00  0.00     0.006 C 
BRANCH  20  21
ATOM     21  C   UNL     1      -9.899 -19.305  29.981  1.00  0.00     0.053 C 
BRANCH  21  22
ATOM     22  C   UNL     1      -9.976 -20.044  28.683  1.00  0.00     0.041 C 
ATOM     23  O   UNL     1     -10.322 -21.255  28.661  1.00  0.00    -0.550 OA
ATOM     24  O   UNL     1      -9.622 -19.409  27.499  1.00  0.00    -0.550 OA
ENDBRANCH  21  22
ENDBRANCH  20  21
ENDBRANCH  19  20
ENDBRANCH  18  19
ENDBRANCH  17  18
ENDBRANCH  16  17
ENDBRANCH  15  16
ENDBRANCH  14  15
ENDBRANCH  13  14
ENDBRANCH   1  13
TORSDOF 20
ENDMDL
MODEL 3
REMARK VINA RESULT:    -4.258      3.168      5.496
REMARK INTER + INTRA:         -11.991
REMARK INTER:                  -9.664
REMARK INTRA:                  -2.326
REMARK UNBOUND:                -2.754
REMARK SMILES CCCCCCCCCCCCCCCCCCCCCC(=O)[O-]
REMARK SMILES IDX 12 1 11 2 10 3 9 4 8 5 7 6 6 7 5 8 4 9 3 10 2 11 1 12 13 13
REMARK SMILES IDX 14 14 15 15 16 16 17 17 18 18 19 19 20 20 21 21 22 22 23 23
REMARK SMILES IDX 24 24
REMARK H PARENT
REMARK Flexibility Score: inf
ROOT
ATOM      1  C   UNL     1       1.563 -32.272  24.144  1.00  0.00     0.000 C 
ENDROOT
BRANCH   1   2
ATOM      2  C   UNL     1       1.549 -33.758  23.757  1.00  0.00     0.000 C 
BRANCH   2   3
ATOM      3  C   UNL     1       2.940 -34.294  23.370  1.00  0.00     0.000 C 
BRANCH   3   4
ATOM      4  C   UNL     1       2.938 -35.557  22.489  1.00  0.00    -0.000 C 
BRANCH   4   5
ATOM      5  C   UNL     1       1.602 -35.783  21.763  1.00  0.00    -0.000 C 
BRANCH   5   6
ATOM      6  C   UNL     1       1.450 -37.213  21.211  1.00  0.00    -0.000 C 
BRANCH   6   7
ATOM      7  C   UNL     1       1.297 -37.313  19.681  1.00  0.00    -0.000 C 
BRANCH   7   8
ATOM      8  C   UNL     1       2.214 -36.345  18.919  1.00  0.00    -0.000 C 
BRANCH   8   9
ATOM      9  C   UNL     1       2.956 -37.065  17.787  1.00  0.00    -0.000 C 
BRANCH   9  10
ATOM     10  C   UNL     1       4.198 -37.794  18.321  1.00  0.00    -0.000 C 
BRANCH  10  11
ATOM     11  C   UNL     1       4.921 -37.001  19.419  1.00  0.00    -0.003 C 
ATOM     12  C   UNL     1       5.191 -37.835  20.670  1.00  0.00     0.004 C 
ENDBRANCH  10  11
ENDBRANCH   9  10
ENDBRANCH   8   9
ENDBRANCH   7   8
ENDBRANCH   6   7
ENDBRANCH   5   6
ENDBRANCH   4   5
ENDBRANCH   3   4
ENDBRANCH   2   3
ENDBRANCH   1   2
BRANCH   1  13
ATOM     13  C   UNL     1       0.135 -31.709  24.196  1.00  0.00     0.000 C 
BRANCH  13  14
ATOM     14  C   UNL     1      -0.926 -32.786  24.482  1.00  0.00     0.000 C 
BRANCH  14  15
ATOM     15  C   UNL     1      -1.972 -32.986  23.367  1.00  0.00     0.000 C 
BRANCH  15  16
ATOM     16  C   UNL     1      -2.562 -34.407  23.268  1.00  0.00     0.000 C 
BRANCH  16  17
ATOM     17  C   UNL     1      -2.110 -35.213  22.037  1.00  0.00     0.000 C 
BRANCH  17  18
ATOM     18  C   UNL     1      -2.830 -36.563  21.909  1.00  0.00     0.000 C 
BRANCH  18  19
ATOM     19  C   UNL     1      -2.119 -37.468  20.893  1.00  0.00     0.000 C 
BRANCH  19  20
ATOM     20  C   UNL     1      -3.061 -37.997  19.802  1.00  0.00     0.006 C 
BRANCH  20  21
ATOM     21  C   UNL     1      -4.293 -37.104  19.598  1.00  0.00     0.053 C 
BRANCH  21  22
ATOM     22  C   UNL     1      -4.570 -36.918  18.140  1.00  0.00     0.041 C 
ATOM     23  O   UNL     1      -4.625 -37.914  17.371  1.00  0.00    -0.550 OA
ATOM     24  O   UNL     1      -4.722 -35.638  17.620  1.00  0.00    -0.550 OA
ENDBRANCH  21  22
ENDBRANCH  20  21
ENDBRANCH  19  20
ENDBRANCH  18  19
ENDBRANCH  17  18
ENDBRANCH  16  17
ENDBRANCH  15  16
ENDBRANCH  14  15
ENDBRANCH  13  14
ENDBRANCH   1  13
TORSDOF 20
ENDMDL
MODEL 4
REMARK VINA RESULT:    -4.140      0.963      1.699
REMARK INTER + INTRA:         -11.735
REMARK INTER:                  -9.289
REMARK INTRA:                  -2.446
REMARK UNBOUND:                -2.754
REMARK SMILES CCCCCCCCCCCCCCCCCCCCCC(=O)[O-]
REMARK SMILES IDX 12 1 11 2 10 3 9 4 8 5 7 6 6 7 5 8 4 9 3 10 2 11 1 12 13 13
REMARK SMILES IDX 14 14 15 15 16 16 17 17 18 18 19 19 20 20 21 21 22 22 23 23
REMARK SMILES IDX 24 24
REMARK H PARENT
REMARK Flexibility Score: inf
ROOT
ATOM      1  C   UNL     1       1.459 -36.273  19.961  1.00  0.00     0.000 C 
ENDROOT
BRANCH   1   2
ATOM      2  C   UNL     1       2.158 -37.639  19.893  1.00  0.00     0.000 C 
BRANCH   2   3
ATOM      3  C   UNL     1       2.866 -37.888  18.550  1.00  0.00     0.000 C 
BRANCH   3   4
ATOM      4  C   UNL     1       3.669 -36.695  17.997  1.00  0.00    -0.000 C 
BRANCH   4   5
ATOM      5  C   UNL     1       5.098 -36.618  18.558  1.00  0.00    -0.000 C 
BRANCH   5   6
ATOM      6  C   UNL     1       5.665 -37.995  18.951  1.00  0.00    -0.000 C 
BRANCH   6   7
ATOM      7  C   UNL     1       6.125 -38.123  20.415  1.00  0.00    -0.000 C 
BRANCH   7   8
ATOM      8  C   UNL     1       5.028 -37.754  21.425  1.00  0.00    -0.000 C 
BRANCH   8   9
ATOM      9  C   UNL     1       5.466 -36.580  22.310  1.00  0.00    -0.000 C 
BRANCH   9  10
ATOM     10  C   UNL     1       4.461 -35.422  22.224  1.00  0.00    -0.000 C 
BRANCH  10  11
ATOM     11  C   UNL     1       3.250 -35.622  23.147  1.00  0.00    -0.003 C 
ATOM     12  C   UNL     1       2.442 -34.340  23.347  1.00  0.00     0.004 C 
ENDBRANCH  10  11
ENDBRANCH   9  10
ENDBRANCH   8   9
ENDBRANCH   7   8
ENDBRANCH   6   7
ENDBRANCH   5   6
ENDBRANCH   4   5
ENDBRANCH   3   4
ENDBRANCH   2   3
ENDBRANCH   1   2
BRANCH   1  13
ATOM     13  C   UNL     1       0.379 -36.266  21.053  1.00  0.00     0.000 C 
BRANCH  13  14
ATOM     14  C   UNL     1      -0.167 -37.670  21.367  1.00  0.00     0.000 C 
BRANCH  14  15
ATOM     15  C   UNL     1      -1.351 -38.123  20.490  1.00  0.00     0.000 C 
BRANCH  15  16
ATOM     16  C   UNL     1      -2.395 -37.031  20.183  1.00  0.00     0.000 C 
BRANCH  16  17
ATOM     17  C   UNL     1      -3.771 -37.245  20.838  1.00  0.00     0.000 C 
BRANCH  17  18
ATOM     18  C   UNL     1      -4.075 -36.219  21.940  1.00  0.00     0.000 C 
BRANCH  18  19
ATOM     19  C   UNL     1      -2.785 -35.779  22.647  1.00  0.00     0.000 C 
BRANCH  19  20
ATOM     20  C   UNL     1      -2.879 -34.362  23.234  1.00  0.00     0.006 C 
BRANCH  20  21
ATOM     21  C   UNL     1      -1.552 -33.596  23.150  1.00  0.00     0.053 C 
BRANCH  21  22
ATOM     22  C   UNL     1      -1.566 -32.420  24.075  1.00  0.00     0.041 C 
ATOM     23  O   UNL     1      -2.659 -31.936  24.469  1.00  0.00    -0.550 OA
ATOM     24  O   UNL     1      -0.371 -31.828  24.464  1.00  0.00    -0.550 OA
ENDBRANCH  21  22
ENDBRANCH  20  21
ENDBRANCH  19  20
ENDBRANCH  18  19
ENDBRANCH  17  18
ENDBRANCH  16  17
ENDBRANCH  15  16
ENDBRANCH  14  15
ENDBRANCH  13  14
ENDBRANCH   1  13
TORSDOF 20
ENDMDL
MODEL 5
REMARK VINA RESULT:    -4.021     20.881     23.155
REMARK INTER + INTRA:         -11.477
REMARK INTER:                  -8.686
REMARK INTRA:                  -2.791
REMARK UNBOUND:                -2.754
REMARK SMILES CCCCCCCCCCCCCCCCCCCCCC(=O)[O-]
REMARK SMILES IDX 12 1 11 2 10 3 9 4 8 5 7 6 6 7 5 8 4 9 3 10 2 11 1 12 13 13
REMARK SMILES IDX 14 14 15 15 16 16 17 17 18 18 19 19 20 20 21 21 22 22 23 23
REMARK SMILES IDX 24 24
REMARK H PARENT
REMARK Flexibility Score: inf
ROOT
ATOM      1  C   UNL     1      -4.719 -20.724  35.257  1.00  0.00     0.000 C 
ENDROOT
BRANCH   1   2
ATOM      2  C   UNL     1      -5.790 -21.775  34.929  1.00  0.00     0.000 C 
BRANCH   2   3
ATOM      3  C   UNL     1      -7.206 -21.181  34.824  1.00  0.00     0.000 C 
BRANCH   3   4
ATOM      4  C   UNL     1      -8.160 -21.915  33.863  1.00  0.00    -0.000 C 
BRANCH   4   5
ATOM      5  C   UNL     1      -9.456 -21.135  33.588  1.00  0.00    -0.000 C 
BRANCH   5   6
ATOM      6  C   UNL     1      -9.509 -19.779  34.316  1.00  0.00    -0.000 C 
BRANCH   6   7
ATOM      7  C   UNL     1     -10.702 -18.879  33.942  1.00  0.00    -0.000 C 
BRANCH   7   8
ATOM      8  C   UNL     1     -11.514 -18.417  35.161  1.00  0.00    -0.000 C 
BRANCH   8   9
ATOM      9  C   UNL     1     -12.929 -19.009  35.136  1.00  0.00    -0.000 C 
BRANCH   9  10
ATOM     10  C   UNL     1     -12.904 -20.473  34.672  1.00  0.00    -0.000 C 
BRANCH  10  11
ATOM     11  C   UNL     1     -12.941 -21.464  35.844  1.00  0.00    -0.003 C 
ATOM     12  C   UNL     1     -12.269 -22.796  35.512  1.00  0.00     0.004 C 
ENDBRANCH  10  11
ENDBRANCH   9  10
ENDBRANCH   8   9
ENDBRANCH   7   8
ENDBRANCH   6   7
ENDBRANCH   5   6
ENDBRANCH   4   5
ENDBRANCH   3   4
ENDBRANCH   2   3
ENDBRANCH   1   2
BRANCH   1  13
ATOM     13  C   UNL     1      -5.339 -19.521  35.983  1.00  0.00     0.000 C 
BRANCH  13  14
ATOM     14  C   UNL     1      -4.933 -18.172  35.364  1.00  0.00     0.000 C 
BRANCH  14  15
ATOM     15  C   UNL     1      -4.009 -18.268  34.133  1.00  0.00     0.000 C 
BRANCH  15  16
ATOM     16  C   UNL     1      -4.729 -18.501  32.790  1.00  0.00     0.000 C 
BRANCH  16  17
ATOM     17  C   UNL     1      -6.213 -18.092  32.769  1.00  0.00     0.000 C 
BRANCH  17  18
ATOM     18  C   UNL     1      -7.079 -19.029  31.915  1.00  0.00     0.000 C 
BRANCH  18  19
ATOM     19  C   UNL     1      -8.191 -18.247  31.202  1.00  0.00     0.000 C 
BRANCH  19  20
ATOM     20  C   UNL     1      -8.351 -18.647  29.727  1.00  0.00     0.006 C 
BRANCH  20  21
ATOM     21  C   UNL     1      -9.817 -18.854  29.325  1.00  0.00     0.053 C 
BRANCH  21  22
ATOM     22  C   UNL     1     -10.421 -19.980  30.104  1.00  0.00     0.041 C 
ATOM     23  O   UNL     1      -9.975 -21.150  29.979  1.00  0.00    -0.550 OA
ATOM     24  O   UNL     1     -11.508 -19.743  30.936  1.00  0.00    -0.550 OA
ENDBRANCH  21  22
ENDBRANCH  20  21
ENDBRANCH  19  20
ENDBRANCH  18  19
ENDBRANCH  17  18
ENDBRANCH  16  17
ENDBRANCH  15  16
ENDBRANCH  14  15
ENDBRANCH  13  14
ENDBRANCH   1  13
TORSDOF 20
ENDMDL
MODEL 6
REMARK VINA RESULT:    -4.017      2.430      7.324
REMARK INTER + INTRA:         -11.468
REMARK INTER:                  -9.690
REMARK INTRA:                  -1.778
REMARK UNBOUND:                -2.754
REMARK SMILES CCCCCCCCCCCCCCCCCCCCCC(=O)[O-]
REMARK SMILES IDX 12 1 11 2 10 3 9 4 8 5 7 6 6 7 5 8 4 9 3 10 2 11 1 12 13 13
REMARK SMILES IDX 14 14 15 15 16 16 17 17 18 18 19 19 20 20 21 21 22 22 23 23
REMARK SMILES IDX 24 24
REMARK H PARENT
REMARK Flexibility Score: inf
ROOT
ATOM      1  C   UNL     1       0.060 -36.018  20.835  1.00  0.00     0.000 C 
ENDROOT
BRANCH   1   2
ATOM      2  C   UNL     1      -0.458 -37.356  21.385  1.00  0.00     0.000 C 
BRANCH   2   3
ATOM      3  C   UNL     1      -1.700 -37.874  20.637  1.00  0.00     0.000 C 
BRANCH   3   4
ATOM      4  C   UNL     1      -3.052 -37.540  21.295  1.00  0.00    -0.000 C 
BRANCH   4   5
ATOM      5  C   UNL     1      -3.391 -36.041  21.248  1.00  0.00    -0.000 C 
BRANCH   5   6
ATOM      6  C   UNL     1      -3.378 -35.377  22.637  1.00  0.00    -0.000 C 
BRANCH   6   7
ATOM      7  C   UNL     1      -2.124 -34.540  22.953  1.00  0.00    -0.000 C 
BRANCH   7   8
ATOM      8  C   UNL     1      -2.451 -33.094  23.358  1.00  0.00    -0.000 C 
BRANCH   8   9
ATOM      9  C   UNL     1      -1.612 -32.658  24.565  1.00  0.00    -0.000 C 
BRANCH   9  10
ATOM     10  C   UNL     1      -0.487 -31.704  24.137  1.00  0.00    -0.000 C 
BRANCH  10  11
ATOM     11  C   UNL     1       0.890 -32.145  24.655  1.00  0.00    -0.003 C 
ATOM     12  C   UNL     1       1.523 -33.237  23.793  1.00  0.00     0.004 C 
ENDBRANCH  10  11
ENDBRANCH   9  10
ENDBRANCH   8   9
ENDBRANCH   7   8
ENDBRANCH   6   7
ENDBRANCH   5   6
ENDBRANCH   4   5
ENDBRANCH   3   4
ENDBRANCH   2   3
ENDBRANCH   1   2
BRANCH   1  13
ATOM     13  C   UNL     1       1.574 -36.081  20.587  1.00  0.00     0.000 C 
BRANCH  13  14
ATOM     14  C   UNL     1       2.037 -37.441  20.037  1.00  0.00     0.000 C 
BRANCH  14  15
ATOM     15  C   UNL     1       1.979 -37.581  18.503  1.00  0.00     0.000 C 
BRANCH  15  16
ATOM     16  C   UNL     1       3.067 -36.808  17.731  1.00  0.00     0.000 C 
BRANCH  16  17
ATOM     17  C   UNL     1       4.357 -36.537  18.526  1.00  0.00     0.000 C 
BRANCH  17  18
ATOM     18  C   UNL     1       5.395 -37.660  18.382  1.00  0.00     0.000 C 
BRANCH  18  19
ATOM     19  C   UNL     1       6.125 -37.902  19.711  1.00  0.00     0.000 C 
BRANCH  19  20
ATOM     20  C   UNL     1       5.175 -37.930  20.918  1.00  0.00     0.006 C 
BRANCH  20  21
ATOM     21  C   UNL     1       5.691 -37.096  22.098  1.00  0.00     0.053 C 
BRANCH  21  22
ATOM     22  C   UNL     1       4.562 -36.706  22.999  1.00  0.00     0.041 C 
ATOM     23  O   UNL     1       3.525 -37.418  23.062  1.00  0.00    -0.550 OA
ATOM     24  O   UNL     1       4.634 -35.529  23.734  1.00  0.00    -0.550 OA
ENDBRANCH  21  22
ENDBRANCH  20  21
ENDBRANCH  19  20
ENDBRANCH  18  19
ENDBRANCH  17  18
ENDBRANCH  16  17
ENDBRANCH  15  16
ENDBRANCH  14  15
ENDBRANCH  13  14
ENDBRANCH   1  13
TORSDOF 20
ENDMDL
MODEL 7
REMARK VINA RESULT:    -3.930     20.779     23.233
REMARK INTER + INTRA:         -11.278
REMARK INTER:                  -9.371
REMARK INTRA:                  -1.907
REMARK UNBOUND:                -2.754
REMARK SMILES CCCCCCCCCCCCCCCCCCCCCC(=O)[O-]
REMARK SMILES IDX 12 1 11 2 10 3 9 4 8 5 7 6 6 7 5 8 4 9 3 10 2 11 1 12 13 13
REMARK SMILES IDX 14 14 15 15 16 16 17 17 18 18 19 19 20 20 21 21 22 22 23 23
REMARK SMILES IDX 24 24
REMARK H PARENT
REMARK Flexibility Score: inf
ROOT
ATOM      1  C   UNL     1     -10.328 -21.800  34.635  1.00  0.00     0.000 C 
ENDROOT
BRANCH   1   2
ATOM      2  C   UNL     1     -11.311 -22.245  35.728  1.00  0.00     0.000 C 
BRANCH   2   3
ATOM      3  C   UNL     1     -12.777 -21.924  35.387  1.00  0.00     0.000 C 
BRANCH   3   4
ATOM      4  C   UNL     1     -13.359 -20.682  36.089  1.00  0.00    -0.000 C 
BRANCH   4   5
ATOM      5  C   UNL     1     -12.912 -19.360  35.443  1.00  0.00    -0.000 C 
BRANCH   5   6
ATOM      6  C   UNL     1     -13.227 -19.288  33.937  1.00  0.00    -0.000 C 
BRANCH   6   7
ATOM      7  C   UNL     1     -12.314 -18.357  33.118  1.00  0.00    -0.000 C 
BRANCH   7   8
ATOM      8  C   UNL     1     -11.265 -19.115  32.291  1.00  0.00    -0.000 C 
BRANCH   8   9
ATOM      9  C   UNL     1     -10.419 -18.149  31.454  1.00  0.00    -0.000 C 
BRANCH   9  10
ATOM     10  C   UNL     1     -10.785 -18.247  29.965  1.00  0.00    -0.000 C 
BRANCH  10  11
ATOM     11  C   UNL     1     -10.041 -19.385  29.250  1.00  0.00    -0.003 C 
ATOM     12  C   UNL     1      -9.582 -18.999  27.844  1.00  0.00     0.004 C 
ENDBRANCH  10  11
ENDBRANCH   9  10
ENDBRANCH   8   9
ENDBRANCH   7   8
ENDBRANCH   6   7
ENDBRANCH   5   6
ENDBRANCH   4   5
ENDBRANCH   3   4
ENDBRANCH   2   3
ENDBRANCH   1   2
BRANCH   1  13
ATOM     13  C   UNL     1      -8.936 -22.404  34.873  1.00  0.00     0.000 C 
BRANCH  13  14
ATOM     14  C   UNL     1      -7.821 -21.661  34.115  1.00  0.00     0.000 C 
BRANCH  14  15
ATOM     15  C   UNL     1      -6.722 -21.048  35.006  1.00  0.00     0.000 C 
BRANCH  15  16
ATOM     16  C   UNL     1      -5.564 -21.999  35.367  1.00  0.00     0.000 C 
BRANCH  16  17
ATOM     17  C   UNL     1      -4.197 -21.317  35.552  1.00  0.00     0.000 C 
BRANCH  17  18
ATOM     18  C   UNL     1      -3.760 -20.512  34.320  1.00  0.00     0.000 C 
BRANCH  18  19
ATOM     19  C   UNL     1      -3.563 -19.031  34.676  1.00  0.00     0.000 C 
BRANCH  19  20
ATOM     20  C   UNL     1      -4.394 -18.089  33.791  1.00  0.00     0.006 C 
BRANCH  20  21
ATOM     21  C   UNL     1      -5.051 -18.812  32.607  1.00  0.00     0.053 C 
BRANCH  21  22
ATOM     22  C   UNL     1      -6.513 -18.500  32.548  1.00  0.00     0.041 C 
ATOM     23  O   UNL     1      -7.067 -17.875  33.490  1.00  0.00    -0.550 OA
ATOM     24  O   UNL     1      -7.274 -18.941  31.472  1.00  0.00    -0.550 OA
ENDBRANCH  21  22
ENDBRANCH  20  21
ENDBRANCH  19  20
ENDBRANCH  18  19
ENDBRANCH  17  18
ENDBRANCH  16  17
ENDBRANCH  15  16
ENDBRANCH  14  15
ENDBRANCH  13  14
ENDBRANCH   1  13
TORSDOF 20
ENDMDL
MODEL 8
REMARK VINA RESULT:    -3.898     20.728     23.015
REMARK INTER + INTRA:         -11.210
REMARK INTER:                  -8.398
REMARK INTRA:                  -2.812
REMARK UNBOUND:                -2.754
REMARK SMILES CCCCCCCCCCCCCCCCCCCCCC(=O)[O-]
REMARK SMILES IDX 12 1 11 2 10 3 9 4 8 5 7 6 6 7 5 8 4 9 3 10 2 11 1 12 13 13
REMARK SMILES IDX 14 14 15 15 16 16 17 17 18 18 19 19 20 20 21 21 22 22 23 23
REMARK SMILES IDX 24 24
REMARK H PARENT
REMARK Flexibility Score: inf
ROOT
ATOM      1  C   UNL     1     -10.432 -22.826  34.623  1.00  0.00     0.000 C 
ENDROOT
BRANCH   1   2
ATOM      2  C   UNL     1     -11.715 -22.360  35.327  1.00  0.00     0.000 C 
BRANCH   2   3
ATOM      3  C   UNL     1     -11.533 -21.044  36.105  1.00  0.00     0.000 C 
BRANCH   3   4
ATOM      4  C   UNL     1     -12.278 -19.827  35.524  1.00  0.00    -0.000 C 
BRANCH   4   5
ATOM      5  C   UNL     1     -12.894 -20.101  34.142  1.00  0.00    -0.000 C 
BRANCH   5   6
ATOM      6  C   UNL     1     -12.700 -18.936  33.154  1.00  0.00    -0.000 C 
BRANCH   6   7
ATOM      7  C   UNL     1     -11.518 -19.092  32.179  1.00  0.00    -0.000 C 
BRANCH   7   8
ATOM      8  C   UNL     1     -11.325 -20.536  31.691  1.00  0.00    -0.000 C 
BRANCH   8   9
ATOM      9  C   UNL     1     -10.489 -20.576  30.406  1.00  0.00    -0.000 C 
BRANCH   9  10
ATOM     10  C   UNL     1      -9.791 -19.230  30.163  1.00  0.00    -0.000 C 
BRANCH  10  11
ATOM     11  C   UNL     1     -10.280 -18.535  28.884  1.00  0.00    -0.003 C 
ATOM     12  C   UNL     1      -9.554 -19.023  27.631  1.00  0.00     0.004 C 
ENDBRANCH  10  11
ENDBRANCH   9  10
ENDBRANCH   8   9
ENDBRANCH   7   8
ENDBRANCH   6   7
ENDBRANCH   5   6
ENDBRANCH   4   5
ENDBRANCH   3   4
ENDBRANCH   2   3
ENDBRANCH   1   2
BRANCH   1  13
ATOM     13  C   UNL     1      -9.229 -21.980  35.067  1.00  0.00     0.000 C 
BRANCH  13  14
ATOM     14  C   UNL     1      -8.413 -21.429  33.884  1.00  0.00     0.000 C 
BRANCH  14  15
ATOM     15  C   UNL     1      -8.430 -19.894  33.737  1.00  0.00     0.000 C 
BRANCH  15  16
ATOM     16  C   UNL     1      -7.330 -19.310  32.829  1.00  0.00     0.000 C 
BRANCH  16  17
ATOM     17  C   UNL     1      -6.079 -18.803  33.568  1.00  0.00     0.000 C 
BRANCH  17  18
ATOM     18  C   UNL     1      -6.404 -18.174  34.931  1.00  0.00     0.000 C 
BRANCH  18  19
ATOM     19  C   UNL     1      -5.528 -18.781  36.036  1.00  0.00     0.000 C 
BRANCH  19  20
ATOM     20  C   UNL     1      -5.191 -20.259  35.785  1.00  0.00     0.006 C 
BRANCH  20  21
ATOM     21  C   UNL     1      -3.718 -20.587  36.065  1.00  0.00     0.053 C 
BRANCH  21  22
ATOM     22  C   UNL     1      -2.872 -20.253  34.877  1.00  0.00     0.041 C 
ATOM     23  O   UNL     1      -2.794 -19.065  34.467  1.00  0.00    -0.550 OA
ATOM     24  O   UNL     1      -2.205 -21.262  34.194  1.00  0.00    -0.550 OA
ENDBRANCH  21  22
ENDBRANCH  20  21
ENDBRANCH  19  20
ENDBRANCH  18  19
ENDBRANCH  17  18
ENDBRANCH  16  17
ENDBRANCH  15  16
ENDBRANCH  14  15
ENDBRANCH  13  14
ENDBRANCH   1  13
TORSDOF 20
ENDMDL
MODEL 9
REMARK VINA RESULT:    -3.816      2.438      7.916
REMARK INTER + INTRA:         -11.033
REMARK INTER:                  -9.433
REMARK INTRA:                  -1.600
REMARK UNBOUND:                -2.754
REMARK SMILES CCCCCCCCCCCCCCCCCCCCCC(=O)[O-]
REMARK SMILES IDX 12 1 11 2 10 3 9 4 8 5 7 6 6 7 5 8 4 9 3 10 2 11 1 12 13 13
REMARK SMILES IDX 14 14 15 15 16 16 17 17 18 18 19 19 20 20 21 21 22 22 23 23
REMARK SMILES IDX 24 24
REMARK H PARENT
REMARK Flexibility Score: inf
ROOT
ATOM      1  C   UNL     1       1.830 -33.683  23.169  1.00  0.00     0.000 C 
ENDROOT
BRANCH   1   2
ATOM      2  C   UNL     1       1.618 -32.768  24.384  1.00  0.00     0.000 C 
BRANCH   2   3
ATOM      3  C   UNL     1       0.312 -31.957  24.309  1.00  0.00     0.000 C 
BRANCH   3   4
ATOM      4  C   UNL     1      -0.975 -32.753  24.595  1.00  0.00    -0.000 C 
BRANCH   4   5
ATOM      5  C   UNL     1      -1.904 -32.855  23.373  1.00  0.00    -0.000 C 
BRANCH   5   6
ATOM      6  C   UNL     1      -2.703 -34.170  23.332  1.00  0.00    -0.000 C 
BRANCH   6   7
ATOM      7  C   UNL     1      -2.250 -35.181  22.261  1.00  0.00    -0.000 C 
BRANCH   7   8
ATOM      8  C   UNL     1      -3.294 -36.272  21.982  1.00  0.00    -0.000 C 
BRANCH   8   9
ATOM      9  C   UNL     1      -2.684 -37.424  21.173  1.00  0.00    -0.000 C 
BRANCH   9  10
ATOM     10  C   UNL     1      -3.627 -37.859  20.041  1.00  0.00    -0.000 C 
BRANCH  10  11
ATOM     11  C   UNL     1      -4.011 -36.697  19.114  1.00  0.00    -0.003 C 
ATOM     12  C   UNL     1      -4.744 -37.162  17.856  1.00  0.00     0.004 C 
ENDBRANCH  10  11
ENDBRANCH   9  10
ENDBRANCH   8   9
ENDBRANCH   7   8
ENDBRANCH   6   7
ENDBRANCH   5   6
ENDBRANCH   4   5
ENDBRANCH   3   4
ENDBRANCH   2   3
ENDBRANCH   1   2
BRANCH   1  13
ATOM     13  C   UNL     1       2.736 -34.869  23.529  1.00  0.00     0.000 C 
BRANCH  13  14
ATOM     14  C   UNL     1       3.754 -35.204  22.425  1.00  0.00     0.000 C 
BRANCH  14  15
ATOM     15  C   UNL     1       4.994 -35.990  22.894  1.00  0.00     0.000 C 
BRANCH  15  16
ATOM     16  C   UNL     1       5.746 -36.752  21.785  1.00  0.00     0.000 C 
BRANCH  16  17
ATOM     17  C   UNL     1       4.848 -37.527  20.805  1.00  0.00     0.000 C 
BRANCH  17  18
ATOM     18  C   UNL     1       4.912 -36.977  19.373  1.00  0.00     0.000 C 
BRANCH  18  19
ATOM     19  C   UNL     1       4.067 -37.835  18.420  1.00  0.00     0.000 C 
BRANCH  19  20
ATOM     20  C   UNL     1       2.733 -37.172  18.045  1.00  0.00     0.006 C 
BRANCH  20  21
ATOM     21  C   UNL     1       2.418 -35.942  18.908  1.00  0.00     0.053 C 
BRANCH  21  22
ATOM     22  C   UNL     1       1.346 -36.260  19.902  1.00  0.00     0.041 C 
ATOM     23  O   UNL     1       0.576 -35.354  20.316  1.00  0.00    -0.550 OA
ATOM     24  O   UNL     1       1.228 -37.548  20.408  1.00  0.00    -0.550 OA
ENDBRANCH  21  22
ENDBRANCH  20  21
ENDBRANCH  19  20
ENDBRANCH  18  19
ENDBRANCH  17  18
ENDBRANCH  16  17
ENDBRANCH  15  16
ENDBRANCH  14  15
ENDBRANCH  13  14
ENDBRANCH   1  13
TORSDOF 20
ENDMDL
