MODEL 1
REMARK VINA RESULT:    -4.151      0.000      0.000
REMARK INTER + INTRA:          -8.754
REMARK INTER:                  -7.063
REMARK INTRA:                  -1.691
REMARK UNBOUND:                -1.691
REMARK SMILES CCCCCCCCCCCCCC(=O)[O-]
REMARK SMILES IDX 8 1 9 2 10 3 11 4 12 5 13 6 14 7 15 8 16 9 7 10 6 11 5 12
REMARK SMILES IDX 4 13 3 14 2 15 1 16
REMARK H PARENT
REMARK Flexibility Score: inf
ROOT
ATOM      1  C   UNL     1      -5.130  -7.179 -16.471  1.00  0.00     0.000 C 
ENDROOT
BRANCH   1   2
ATOM      2  C   UNL     1      -4.702  -8.081 -15.294  1.00  0.00     0.000 C 
BRANCH   2   3
ATOM      3  C   UNL     1      -5.911  -8.612 -14.502  1.00  0.00     0.000 C 
BRANCH   3   4
ATOM      4  C   UNL     1      -6.527  -9.872 -15.131  1.00  0.00     0.000 C 
BRANCH   4   5
ATOM      5  C   UNL     1      -5.479 -10.958 -15.428  1.00  0.00     0.006 C 
BRANCH   5   6
ATOM      6  C   UNL     1      -5.617 -11.523 -16.847  1.00  0.00     0.053 C 
BRANCH   6   7
ATOM      7  C   UNL     1      -4.825 -10.729 -17.841  1.00  0.00     0.041 C 
ATOM      8  O   UNL     1      -5.404 -10.161 -18.805  1.00  0.00    -0.550 OA
ATOM      9  O   UNL     1      -3.451 -10.593 -17.687  1.00  0.00    -0.550 OA
ENDBRANCH   6   7
ENDBRANCH   5   6
ENDBRANCH   4   5
ENDBRANCH   3   4
ENDBRANCH   2   3
ENDBRANCH   1   2
BRANCH   1  10
ATOM     10  C   UNL     1      -4.096  -7.122 -17.609  1.00  0.00     0.000 C 
BRANCH  10  11
ATOM     11  C   UNL     1      -2.715  -6.647 -17.141  1.00  0.00    -0.000 C 
BRANCH  11  12
ATOM     12  C   UNL     1      -1.606  -7.556 -17.684  1.00  0.00    -0.000 C 
BRANCH  12  13
ATOM     13  C   UNL     1      -0.757  -8.130 -16.539  1.00  0.00    -0.000 C 
BRANCH  13  14
ATOM     14  C   UNL     1      -1.046  -7.458 -15.184  1.00  0.00    -0.000 C 
BRANCH  14  15
ATOM     15  C   UNL     1      -1.107  -8.421 -13.985  1.00  0.00    -0.003 C 
ATOM     16  C   UNL     1      -1.759  -9.760 -14.327  1.00  0.00     0.004 C 
ENDBRANCH  14  15
ENDBRANCH  13  14
ENDBRANCH  12  13
ENDBRANCH  11  12
ENDBRANCH  10  11
ENDBRANCH   1  10
TORSDOF 12
ENDMDL
MODEL 2
REMARK VINA RESULT:    -4.142      1.829      2.986
REMARK INTER + INTRA:          -8.737
REMARK INTER:                  -6.630
REMARK INTRA:                  -2.108
REMARK UNBOUND:                -1.691
REMARK SMILES CCCCCCCCCCCCCC(=O)[O-]
REMARK SMILES IDX 8 1 9 2 10 3 11 4 12 5 13 6 14 7 15 8 16 9 7 10 6 11 5 12
REMARK SMILES IDX 4 13 3 14 2 15 1 16
REMARK H PARENT
REMARK Flexibility Score: inf
ROOT
ATOM      1  C   UNL     1      -4.675  -8.900 -18.620  1.00  0.00     0.000 C 
ENDROOT
BRANCH   1   2
ATOM      2  C   UNL     1      -3.936  -7.564 -18.390  1.00  0.00     0.000 C 
BRANCH   2   3
ATOM      3  C   UNL     1      -4.333  -6.905 -17.056  1.00  0.00     0.000 C 
BRANCH   3   4
ATOM      4  C   UNL     1      -5.383  -7.716 -16.281  1.00  0.00     0.000 C 
BRANCH   4   5
ATOM      5  C   UNL     1      -4.894  -8.135 -14.884  1.00  0.00     0.006 C 
BRANCH   5   6
ATOM      6  C   UNL     1      -4.977  -9.652 -14.672  1.00  0.00     0.053 C 
BRANCH   6   7
ATOM      7  C   UNL     1      -6.267 -10.216 -15.183  1.00  0.00     0.041 C 
ATOM      8  O   UNL     1      -6.275 -10.965 -16.196  1.00  0.00    -0.550 OA
ATOM      9  O   UNL     1      -7.457  -9.939 -14.523  1.00  0.00    -0.550 OA
ENDBRANCH   6   7
ENDBRANCH   5   6
ENDBRANCH   4   5
ENDBRANCH   3   4
ENDBRANCH   2   3
ENDBRANCH   1   2
BRANCH   1  10
ATOM     10  C   UNL     1      -3.731 -10.104 -18.781  1.00  0.00     0.000 C 
BRANCH  10  11
ATOM     11  C   UNL     1      -2.968 -10.443 -17.493  1.00  0.00    -0.000 C 
BRANCH  11  12
ATOM     12  C   UNL     1      -1.461 -10.228 -17.673  1.00  0.00    -0.000 C 
BRANCH  12  13
ATOM     13  C   UNL     1      -0.858  -9.520 -16.450  1.00  0.00    -0.000 C 
BRANCH  13  14
ATOM     14  C   UNL     1      -0.683  -8.005 -16.660  1.00  0.00    -0.000 C 
BRANCH  14  15
ATOM     15  C   UNL     1      -0.954  -7.144 -15.414  1.00  0.00    -0.003 C 
ATOM     16  C   UNL     1      -1.286  -7.974 -14.175  1.00  0.00     0.004 C 
ENDBRANCH  14  15
ENDBRANCH  13  14
ENDBRANCH  12  13
ENDBRANCH  11  12
ENDBRANCH  10  11
ENDBRANCH   1  10
TORSDOF 12
ENDMDL
MODEL 3
REMARK VINA RESULT:    -4.044      1.280      4.129
REMARK INTER + INTRA:          -8.571
REMARK INTER:                  -6.954
REMARK INTRA:                  -1.617
REMARK UNBOUND:                -1.691
REMARK SMILES CCCCCCCCCCCCCC(=O)[O-]
REMARK SMILES IDX 8 1 9 2 10 3 11 4 12 5 13 6 14 7 15 8 16 9 7 10 6 11 5 12
REMARK SMILES IDX 4 13 3 14 2 15 1 16
REMARK H PARENT
REMARK Flexibility Score: inf
ROOT
ATOM      1  C   UNL     1      -1.105  -7.222 -16.060  1.00  0.00     0.000 C 
ENDROOT
BRANCH   1   2
ATOM      2  C   UNL     1      -2.109  -6.667 -17.092  1.00  0.00     0.000 C 
BRANCH   2   3
ATOM      3  C   UNL     1      -2.000  -7.383 -18.450  1.00  0.00     0.000 C 
BRANCH   3   4
ATOM      4  C   UNL     1      -3.348  -7.478 -19.182  1.00  0.00     0.000 C 
BRANCH   4   5
ATOM      5  C   UNL     1      -4.424  -8.196 -18.350  1.00  0.00     0.006 C 
BRANCH   5   6
ATOM      6  C   UNL     1      -4.895  -9.497 -19.011  1.00  0.00     0.053 C 
BRANCH   6   7
ATOM      7  C   UNL     1      -4.596 -10.694 -18.161  1.00  0.00     0.041 C 
ATOM      8  O   UNL     1      -5.490 -11.188 -17.424  1.00  0.00    -0.550 OA
ATOM      9  O   UNL     1      -3.338 -11.281 -18.205  1.00  0.00    -0.550 OA
ENDBRANCH   6   7
ENDBRANCH   5   6
ENDBRANCH   4   5
ENDBRANCH   3   4
ENDBRANCH   2   3
ENDBRANCH   1   2
BRANCH   1  10
ATOM     10  C   UNL     1      -1.773  -7.957 -14.885  1.00  0.00     0.000 C 
BRANCH  10  11
ATOM     11  C   UNL     1      -2.243  -9.371 -15.253  1.00  0.00    -0.000 C 
BRANCH  11  12
ATOM     12  C   UNL     1      -3.669  -9.626 -14.751  1.00  0.00    -0.000 C 
BRANCH  12  13
ATOM     13  C   UNL     1      -4.532  -8.362 -14.884  1.00  0.00    -0.000 C 
BRANCH  13  14
ATOM     14  C   UNL     1      -6.036  -8.673 -15.004  1.00  0.00    -0.000 C 
BRANCH  14  15
ATOM     15  C   UNL     1      -6.610  -9.538 -13.869  1.00  0.00    -0.003 C 
ATOM     16  C   UNL     1      -7.364 -10.766 -14.377  1.00  0.00     0.004 C 
ENDBRANCH  14  15
ENDBRANCH  13  14
ENDBRANCH  12  13
ENDBRANCH  11  12
ENDBRANCH  10  11
ENDBRANCH   1  10
TORSDOF 12
ENDMDL
MODEL 4
REMARK VINA RESULT:    -3.917      1.187      3.406
REMARK INTER + INTRA:          -8.355
REMARK INTER:                  -6.894
REMARK INTRA:                  -1.461
REMARK UNBOUND:                -1.691
REMARK SMILES CCCCCCCCCCCCCC(=O)[O-]
REMARK SMILES IDX 8 1 9 2 10 3 11 4 12 5 13 6 14 7 15 8 16 9 7 10 6 11 5 12
REMARK SMILES IDX 4 13 3 14 2 15 1 16
REMARK H PARENT
REMARK Flexibility Score: inf
ROOT
ATOM      1  C   UNL     1      -5.875 -10.270 -14.304  1.00  0.00     0.000 C 
ENDROOT
BRANCH   1   2
ATOM      2  C   UNL     1      -6.140  -8.764 -14.521  1.00  0.00     0.000 C 
BRANCH   2   3
ATOM      3  C   UNL     1      -4.911  -8.037 -15.095  1.00  0.00     0.000 C 
BRANCH   3   4
ATOM      4  C   UNL     1      -5.221  -7.285 -16.399  1.00  0.00     0.000 C 
BRANCH   4   5
ATOM      5  C   UNL     1      -3.966  -7.045 -17.257  1.00  0.00     0.006 C 
BRANCH   5   6
ATOM      6  C   UNL     1      -4.102  -7.645 -18.662  1.00  0.00     0.053 C 
BRANCH   6   7
ATOM      7  C   UNL     1      -4.112  -9.143 -18.629  1.00  0.00     0.041 C 
ATOM      8  O   UNL     1      -3.106  -9.774 -18.209  1.00  0.00    -0.550 OA
ATOM      9  O   UNL     1      -5.242  -9.840 -19.035  1.00  0.00    -0.550 OA
ENDBRANCH   6   7
ENDBRANCH   5   6
ENDBRANCH   4   5
ENDBRANCH   3   4
ENDBRANCH   2   3
ENDBRANCH   1   2
BRANCH   1  10
ATOM     10  C   UNL     1      -4.774 -10.837 -15.216  1.00  0.00     0.000 C 
BRANCH  10  11
ATOM     11  C   UNL     1      -3.604 -11.447 -14.432  1.00  0.00    -0.000 C 
BRANCH  11  12
ATOM     12  C   UNL     1      -2.283 -10.753 -14.785  1.00  0.00    -0.000 C 
BRANCH  12  13
ATOM     13  C   UNL     1      -1.475 -10.434 -13.518  1.00  0.00    -0.000 C 
BRANCH  13  14
ATOM     14  C   UNL     1      -0.654  -9.137 -13.641  1.00  0.00    -0.000 C 
BRANCH  14  15
ATOM     15  C   UNL     1      -1.425  -7.936 -14.217  1.00  0.00    -0.003 C 
ATOM     16  C   UNL     1      -0.697  -7.260 -15.378  1.00  0.00     0.004 C 
ENDBRANCH  14  15
ENDBRANCH  13  14
ENDBRANCH  12  13
ENDBRANCH  11  12
ENDBRANCH  10  11
ENDBRANCH   1  10
TORSDOF 12
ENDMDL
MODEL 5
REMARK VINA RESULT:    -3.881      1.913      4.007
REMARK INTER + INTRA:          -8.294
REMARK INTER:                  -6.542
REMARK INTRA:                  -1.752
REMARK UNBOUND:                -1.691
REMARK SMILES CCCCCCCCCCCCCC(=O)[O-]
REMARK SMILES IDX 8 1 9 2 10 3 11 4 12 5 13 6 14 7 15 8 16 9 7 10 6 11 5 12
REMARK SMILES IDX 4 13 3 14 2 15 1 16
REMARK H PARENT
REMARK Flexibility Score: inf
ROOT
ATOM      1  C   UNL     1      -1.319  -7.757 -14.161  1.00  0.00     0.000 C 
ENDROOT
BRANCH   1   2
ATOM      2  C   UNL     1      -0.704  -9.156 -13.940  1.00  0.00     0.000 C 
BRANCH   2   3
ATOM      3  C   UNL     1      -1.781 -10.241 -13.759  1.00  0.00     0.000 C 
BRANCH   3   4
ATOM      4  C   UNL     1      -2.214 -10.876 -15.090  1.00  0.00     0.000 C 
BRANCH   4   5
ATOM      5  C   UNL     1      -3.725 -10.739 -15.347  1.00  0.00     0.006 C 
BRANCH   5   6
ATOM      6  C   UNL     1      -4.319  -9.505 -14.657  1.00  0.00     0.053 C 
BRANCH   6   7
ATOM      7  C   UNL     1      -5.797  -9.640 -14.449  1.00  0.00     0.041 C 
ATOM      8  O   UNL     1      -6.603  -9.116 -15.263  1.00  0.00    -0.550 OA
ATOM      9  O   UNL     1      -6.283 -10.371 -13.373  1.00  0.00    -0.550 OA
ENDBRANCH   6   7
ENDBRANCH   5   6
ENDBRANCH   4   5
ENDBRANCH   3   4
ENDBRANCH   2   3
ENDBRANCH   1   2
BRANCH   1  10
ATOM     10  C   UNL     1      -0.845  -7.075 -15.455  1.00  0.00     0.000 C 
BRANCH  10  11
ATOM     11  C   UNL     1      -0.878  -8.009 -16.672  1.00  0.00    -0.000 C 
BRANCH  11  12
ATOM     12  C   UNL     1      -1.824  -7.472 -17.753  1.00  0.00    -0.000 C 
BRANCH  12  13
ATOM     13  C   UNL     1      -3.126  -6.945 -17.132  1.00  0.00    -0.000 C 
BRANCH  13  14
ATOM     14  C   UNL     1      -4.386  -7.511 -17.812  1.00  0.00    -0.000 C 
BRANCH  14  15
ATOM     15  C   UNL     1      -4.120  -8.604 -18.862  1.00  0.00    -0.003 C 
ATOM     16  C   UNL     1      -5.022  -9.826 -18.693  1.00  0.00     0.004 C 
ENDBRANCH  14  15
ENDBRANCH  13  14
ENDBRANCH  12  13
ENDBRANCH  11  12
ENDBRANCH  10  11
ENDBRANCH   1  10
TORSDOF 12
ENDMDL
MODEL 6
REMARK VINA RESULT:    -3.873      1.702      3.563
REMARK INTER + INTRA:          -8.280
REMARK INTER:                  -6.141
REMARK INTRA:                  -2.139
REMARK UNBOUND:                -1.691
REMARK SMILES CCCCCCCCCCCCCC(=O)[O-]
REMARK SMILES IDX 8 1 9 2 10 3 11 4 12 5 13 6 14 7 15 8 16 9 7 10 6 11 5 12
REMARK SMILES IDX 4 13 3 14 2 15 1 16
REMARK H PARENT
REMARK Flexibility Score: inf
ROOT
ATOM      1  C   UNL     1      -6.031  -9.280 -15.222  1.00  0.00     0.000 C 
ENDROOT
BRANCH   1   2
ATOM      2  C   UNL     1      -5.184  -7.990 -15.246  1.00  0.00     0.000 C 
BRANCH   2   3
ATOM      3  C   UNL     1      -5.236  -7.288 -16.615  1.00  0.00     0.000 C 
BRANCH   3   4
ATOM      4  C   UNL     1      -3.848  -6.860 -17.117  1.00  0.00     0.000 C 
BRANCH   4   5
ATOM      5  C   UNL     1      -3.576  -7.310 -18.562  1.00  0.00     0.006 C 
BRANCH   5   6
ATOM      6  C   UNL     1      -2.081  -7.529 -18.828  1.00  0.00     0.053 C 
BRANCH   6   7
ATOM      7  C   UNL     1      -1.844  -8.668 -19.771  1.00  0.00     0.041 C 
ATOM      8  O   UNL     1      -2.817  -9.260 -20.309  1.00  0.00    -0.550 OA
ATOM      9  O   UNL     1      -0.547  -9.057 -20.080  1.00  0.00    -0.550 OA
ENDBRANCH   6   7
ENDBRANCH   5   6
ENDBRANCH   4   5
ENDBRANCH   3   4
ENDBRANCH   2   3
ENDBRANCH   1   2
BRANCH   1  10
ATOM     10  C   UNL     1      -5.469 -10.401 -16.114  1.00  0.00     0.000 C 
BRANCH  10  11
ATOM     11  C   UNL     1      -4.080 -10.879 -15.671  1.00  0.00    -0.000 C 
BRANCH  11  12
ATOM     12  C   UNL     1      -3.011 -10.495 -16.701  1.00  0.00    -0.000 C 
BRANCH  12  13
ATOM     13  C   UNL     1      -1.694 -10.113 -16.008  1.00  0.00    -0.000 C 
BRANCH  13  14
ATOM     14  C   UNL     1      -1.895  -9.642 -14.556  1.00  0.00    -0.000 C 
BRANCH  14  15
ATOM     15  C   UNL     1      -1.640  -8.143 -14.320  1.00  0.00    -0.003 C 
ATOM     16  C   UNL     1      -0.699  -7.528 -15.355  1.00  0.00     0.004 C 
ENDBRANCH  14  15
ENDBRANCH  13  14
ENDBRANCH  12  13
ENDBRANCH  11  12
ENDBRANCH  10  11
ENDBRANCH   1  10
TORSDOF 12
ENDMDL
MODEL 7
REMARK VINA RESULT:    -3.750      2.111      4.990
REMARK INTER + INTRA:          -8.071
REMARK INTER:                  -6.258
REMARK INTRA:                  -1.813
REMARK UNBOUND:                -1.691
REMARK SMILES CCCCCCCCCCCCCC(=O)[O-]
REMARK SMILES IDX 8 1 9 2 10 3 11 4 12 5 13 6 14 7 15 8 16 9 7 10 6 11 5 12
REMARK SMILES IDX 4 13 3 14 2 15 1 16
REMARK H PARENT
REMARK Flexibility Score: inf
ROOT
ATOM      1  C   UNL     1      -1.356  -7.890 -14.135  1.00  0.00     0.000 C 
ENDROOT
BRANCH   1   2
ATOM      2  C   UNL     1      -0.799  -7.195 -15.396  1.00  0.00     0.000 C 
BRANCH   2   3
ATOM      3  C   UNL     1      -0.242  -8.205 -16.416  1.00  0.00     0.000 C 
BRANCH   3   4
ATOM      4  C   UNL     1      -1.235  -8.516 -17.547  1.00  0.00     0.000 C 
BRANCH   4   5
ATOM      5  C   UNL     1      -2.014  -7.273 -18.010  1.00  0.00     0.006 C 
BRANCH   5   6
ATOM      6  C   UNL     1      -2.914  -7.570 -19.216  1.00  0.00     0.053 C 
BRANCH   6   7
ATOM      7  C   UNL     1      -2.134  -7.619 -20.494  1.00  0.00     0.041 C 
ATOM      8  O   UNL     1      -1.163  -6.837 -20.675  1.00  0.00    -0.550 OA
ATOM      9  O   UNL     1      -2.461  -8.548 -21.473  1.00  0.00    -0.550 OA
ENDBRANCH   6   7
ENDBRANCH   5   6
ENDBRANCH   4   5
ENDBRANCH   3   4
ENDBRANCH   2   3
ENDBRANCH   1   2
BRANCH   1  10
ATOM     10  C   UNL     1      -0.594  -9.169 -13.751  1.00  0.00     0.000 C 
BRANCH  10  11
ATOM     11  C   UNL     1      -1.524 -10.347 -13.431  1.00  0.00    -0.000 C 
BRANCH  11  12
ATOM     12  C   UNL     1      -2.251 -10.833 -14.690  1.00  0.00    -0.000 C 
BRANCH  12  13
ATOM     13  C   UNL     1      -3.774 -10.717 -14.525  1.00  0.00    -0.000 C 
BRANCH  13  14
ATOM     14  C   UNL     1      -4.428  -9.835 -15.604  1.00  0.00    -0.000 C 
BRANCH  14  15
ATOM     15  C   UNL     1      -4.940  -8.472 -15.104  1.00  0.00    -0.003 C 
ATOM     16  C   UNL     1      -5.143  -7.461 -16.232  1.00  0.00     0.004 C 
ENDBRANCH  14  15
ENDBRANCH  13  14
ENDBRANCH  12  13
ENDBRANCH  11  12
ENDBRANCH  10  11
ENDBRANCH   1  10
TORSDOF 12
ENDMDL
MODEL 8
REMARK VINA RESULT:    -3.726     14.837     16.912
REMARK INTER + INTRA:          -8.030
REMARK INTER:                  -7.055
REMARK INTRA:                  -0.976
REMARK UNBOUND:                -1.691
REMARK SMILES CCCCCCCCCCCCCC(=O)[O-]
REMARK SMILES IDX 8 1 9 2 10 3 11 4 12 5 13 6 14 7 15 8 16 9 7 10 6 11 5 12
REMARK SMILES IDX 4 13 3 14 2 15 1 16
REMARK H PARENT
REMARK Flexibility Score: inf
ROOT
ATOM      1  C   UNL     1     -15.252  -2.344 -19.411  1.00  0.00     0.000 C 
ENDROOT
BRANCH   1   2
ATOM      2  C   UNL     1     -16.410  -1.996 -20.372  1.00  0.00     0.000 C 
BRANCH   2   3
ATOM      3  C   UNL     1     -16.829  -0.519 -20.264  1.00  0.00     0.000 C 
BRANCH   3   4
ATOM      4  C   UNL     1     -17.948  -0.145 -21.248  1.00  0.00     0.000 C 
BRANCH   4   5
ATOM      5  C   UNL     1     -18.134  -1.193 -22.360  1.00  0.00     0.006 C 
BRANCH   5   6
ATOM      6  C   UNL     1     -19.573  -1.226 -22.889  1.00  0.00     0.053 C 
BRANCH   6   7
ATOM      7  C   UNL     1     -19.683  -0.593 -24.243  1.00  0.00     0.041 C 
ATOM      8  O   UNL     1     -19.619   0.659 -24.365  1.00  0.00    -0.550 OA
ATOM      9  O   UNL     1     -19.827  -1.388 -25.372  1.00  0.00    -0.550 OA
ENDBRANCH   6   7
ENDBRANCH   5   6
ENDBRANCH   4   5
ENDBRANCH   3   4
ENDBRANCH   2   3
ENDBRANCH   1   2
BRANCH   1  10
ATOM     10  C   UNL     1     -15.717  -2.672 -17.982  1.00  0.00     0.000 C 
BRANCH  10  11
ATOM     11  C   UNL     1     -14.884  -1.965 -16.904  1.00  0.00    -0.000 C 
BRANCH  11  12
ATOM     12  C   UNL     1     -15.740  -1.631 -15.677  1.00  0.00    -0.000 C 
BRANCH  12  13
ATOM     13  C   UNL     1     -17.237  -1.700 -16.016  1.00  0.00    -0.000 C 
BRANCH  13  14
ATOM     14  C   UNL     1     -18.103  -0.830 -15.087  1.00  0.00    -0.000 C 
BRANCH  14  15
ATOM     15  C   UNL     1     -18.367   0.598 -15.598  1.00  0.00    -0.003 C 
ATOM     16  C   UNL     1     -18.620   0.655 -17.104  1.00  0.00     0.004 C 
ENDBRANCH  14  15
ENDBRANCH  13  14
ENDBRANCH  12  13
ENDBRANCH  11  12
ENDBRANCH  10  11
ENDBRANCH   1  10
TORSDOF 12
ENDMDL
MODEL 9
REMARK VINA RESULT:    -3.321      2.410      3.976
REMARK INTER + INTRA:          -7.341
REMARK INTER:                  -5.208
REMARK INTRA:                  -2.133
REMARK UNBOUND:                -1.691
REMARK SMILES CCCCCCCCCCCCCC(=O)[O-]
REMARK SMILES IDX 8 1 9 2 10 3 11 4 12 5 13 6 14 7 15 8 16 9 7 10 6 11 5 12
REMARK SMILES IDX 4 13 3 14 2 15 1 16
REMARK H PARENT
REMARK Flexibility Score: inf
ROOT
ATOM      1  C   UNL     1      -5.178  -7.342 -16.364  1.00  0.00     0.000 C 
ENDROOT
BRANCH   1   2
ATOM      2  C   UNL     1      -4.391  -8.021 -15.223  1.00  0.00     0.000 C 
BRANCH   2   3
ATOM      3  C   UNL     1      -4.933  -9.425 -14.900  1.00  0.00     0.000 C 
BRANCH   3   4
ATOM      4  C   UNL     1      -3.827 -10.410 -14.489  1.00  0.00     0.000 C 
BRANCH   4   5
ATOM      5  C   UNL     1      -2.514 -10.180 -15.257  1.00  0.00     0.006 C 
BRANCH   5   6
ATOM      6  C   UNL     1      -1.331  -9.920 -14.316  1.00  0.00     0.053 C 
BRANCH   6   7
ATOM      7  C   UNL     1      -0.872  -8.495 -14.379  1.00  0.00     0.041 C 
ATOM      8  O   UNL     1      -1.369  -7.633 -13.606  1.00  0.00    -0.550 OA
ATOM      9  O   UNL     1       0.125  -8.124 -15.272  1.00  0.00    -0.550 OA
ENDBRANCH   6   7
ENDBRANCH   5   6
ENDBRANCH   4   5
ENDBRANCH   3   4
ENDBRANCH   2   3
ENDBRANCH   1   2
BRANCH   1  10
ATOM     10  C   UNL     1      -4.291  -6.885 -17.535  1.00  0.00     0.000 C 
BRANCH  10  11
ATOM     11  C   UNL     1      -2.797  -6.873 -17.186  1.00  0.00    -0.000 C 
BRANCH  11  12
ATOM     12  C   UNL     1      -1.982  -7.655 -18.222  1.00  0.00    -0.000 C 
BRANCH  12  13
ATOM     13  C   UNL     1      -2.905  -8.408 -19.192  1.00  0.00    -0.000 C 
BRANCH  13  14
ATOM     14  C   UNL     1      -2.655  -9.927 -19.201  1.00  0.00    -0.000 C 
BRANCH  14  15
ATOM     15  C   UNL     1      -3.704 -10.760 -18.443  1.00  0.00    -0.003 C 
ATOM     16  C   UNL     1      -5.128 -10.235 -18.625  1.00  0.00     0.004 C 
ENDBRANCH  14  15
ENDBRANCH  13  14
ENDBRANCH  12  13
ENDBRANCH  11  12
ENDBRANCH  10  11
ENDBRANCH   1  10
TORSDOF 12
ENDMDL
