MODEL 1
REMARK VINA RESULT:    -4.941      0.000      0.000
REMARK INTER + INTRA:         -16.343
REMARK INTER:                 -13.029
REMARK INTRA:                  -3.314
REMARK UNBOUND:                -3.314
REMARK SMILES CCCCCCCCCCCCCCCCCCCCCCCCCCCCCC(=O)[O-]
REMARK SMILES IDX 16 1 17 2 18 3 19 4 20 5 21 6 22 7 23 8 24 9 25 10 26 11
REMARK SMILES IDX 27 12 28 13 29 14 30 15 31 16 32 17 15 18 14 19 13 20 12 21
REMARK SMILES IDX 11 22 10 23 9 24 8 25 7 26 6 27 5 28 4 29 3 30 2 31 1 32
REMARK H PARENT
REMARK Flexibility Score: inf
ROOT
ATOM      1  C   UNL     1       7.459 -11.145  36.248  1.00  0.00     0.000 C 
ENDROOT
BRANCH   1   2
ATOM      2  C   UNL     1       7.831 -12.219  35.214  1.00  0.00     0.000 C 
BRANCH   2   3
ATOM      3  C   UNL     1       7.975 -13.626  35.828  1.00  0.00     0.000 C 
BRANCH   3   4
ATOM      4  C   UNL     1       7.211 -13.824  37.153  1.00  0.00     0.000 C 
BRANCH   4   5
ATOM      5  C   UNL     1       8.085 -13.930  38.418  1.00  0.00     0.000 C 
BRANCH   5   6
ATOM      6  C   UNL     1       9.603 -13.818  38.181  1.00  0.00     0.000 C 
BRANCH   6   7
ATOM      7  C   UNL     1      10.281 -15.184  37.992  1.00  0.00     0.000 C 
BRANCH   7   8
ATOM      8  C   UNL     1      11.264 -15.150  36.811  1.00  0.00     0.000 C 
BRANCH   8   9
ATOM      9  C   UNL     1      12.321 -14.043  36.948  1.00  0.00     0.000 C 
BRANCH   9  10
ATOM     10  C   UNL     1      12.511 -13.240  35.649  1.00  0.00     0.000 C 
BRANCH  10  11
ATOM     11  C   UNL     1      11.495 -12.092  35.507  1.00  0.00     0.000 C 
BRANCH  11  12
ATOM     12  C   UNL     1      12.104 -10.713  35.185  1.00  0.00     0.000 C 
BRANCH  12  13
ATOM     13  C   UNL     1      12.293  -9.779  36.399  1.00  0.00     0.006 C 
BRANCH  13  14
ATOM     14  C   UNL     1      13.271 -10.306  37.463  1.00  0.00     0.053 C 
BRANCH  14  15
ATOM     15  C   UNL     1      12.616 -10.454  38.803  1.00  0.00     0.041 C 
ATOM     16  O   UNL     1      13.268 -10.223  39.855  1.00  0.00    -0.550 OA
ATOM     17  O   UNL     1      11.306 -10.905  38.890  1.00  0.00    -0.550 OA
ENDBRANCH  14  15
ENDBRANCH  13  14
ENDBRANCH  12  13
ENDBRANCH  11  12
ENDBRANCH  10  11
ENDBRANCH   9  10
ENDBRANCH   8   9
ENDBRANCH   7   8
ENDBRANCH   6   7
ENDBRANCH   5   6
ENDBRANCH   4   5
ENDBRANCH   3   4
ENDBRANCH   2   3
ENDBRANCH   1   2
BRANCH   1  18
ATOM     18  C   UNL     1       6.115 -10.487  35.901  1.00  0.00     0.000 C 
BRANCH  18  19
ATOM     19  C   UNL     1       5.507  -9.698  37.076  1.00  0.00     0.000 C 
BRANCH  19  20
ATOM     20  C   UNL     1       4.239  -8.894  36.734  1.00  0.00     0.000 C 
BRANCH  20  21
ATOM     21  C   UNL     1       4.494  -7.446  36.281  1.00  0.00     0.000 C 
BRANCH  21  22
ATOM     22  C   UNL     1       3.205  -6.662  35.944  1.00  0.00     0.000 C 
BRANCH  22  23
ATOM     23  C   UNL     1       3.312  -5.751  34.702  1.00  0.00     0.000 C 
BRANCH  23  24
ATOM     24  C   UNL     1       3.029  -4.255  34.950  1.00  0.00    -0.000 C 
BRANCH  24  25
ATOM     25  C   UNL     1       3.947  -3.325  34.145  1.00  0.00    -0.000 C 
BRANCH  25  26
ATOM     26  C   UNL     1       4.886  -4.126  33.230  1.00  0.00    -0.000 C 
BRANCH  26  27
ATOM     27  C   UNL     1       6.366  -3.979  33.620  1.00  0.00    -0.000 C 
BRANCH  27  28
ATOM     28  C   UNL     1       6.772  -2.518  33.874  1.00  0.00    -0.000 C 
BRANCH  28  29
ATOM     29  C   UNL     1       7.827  -2.427  34.986  1.00  0.00    -0.000 C 
BRANCH  29  30
ATOM     30  C   UNL     1       7.661  -3.524  36.051  1.00  0.00    -0.000 C 
BRANCH  30  31
ATOM     31  C   UNL     1       6.737  -3.094  37.200  1.00  0.00    -0.003 C 
ATOM     32  C   UNL     1       5.661  -4.145  37.465  1.00  0.00     0.004 C 
ENDBRANCH  30  31
ENDBRANCH  29  30
ENDBRANCH  28  29
ENDBRANCH  27  28
ENDBRANCH  26  27
ENDBRANCH  25  26
ENDBRANCH  24  25
ENDBRANCH  23  24
ENDBRANCH  22  23
ENDBRANCH  21  22
ENDBRANCH  20  21
ENDBRANCH  19  20
ENDBRANCH  18  19
ENDBRANCH   1  18
TORSDOF 28
ENDMDL
MODEL 2
REMARK VINA RESULT:    -4.914      3.399      9.980
REMARK INTER + INTRA:         -16.271
REMARK INTER:                 -12.843
REMARK INTRA:                  -3.428
REMARK UNBOUND:                -3.314
REMARK SMILES CCCCCCCCCCCCCCCCCCCCCCCCCCCCCC(=O)[O-]
REMARK SMILES IDX 16 1 17 2 18 3 19 4 20 5 21 6 22 7 23 8 24 9 25 10 26 11
REMARK SMILES IDX 27 12 28 13 29 14 30 15 31 16 32 17 15 18 14 19 13 20 12 21
REMARK SMILES IDX 11 22 10 23 9 24 8 25 7 26 6 27 5 28 4 29 3 30 2 31 1 32
REMARK H PARENT
REMARK Flexibility Score: inf
ROOT
ATOM      1  C   UNL     1      14.243 -11.246  34.442  1.00  0.00     0.000 C 
ENDROOT
BRANCH   1   2
ATOM      2  C   UNL     1      12.988 -10.609  35.059  1.00  0.00     0.000 C 
BRANCH   2   3
ATOM      3  C   UNL     1      13.266  -9.905  36.402  1.00  0.00     0.000 C 
BRANCH   3   4
ATOM      4  C   UNL     1      12.081  -9.084  36.948  1.00  0.00     0.000 C 
BRANCH   4   5
ATOM      5  C   UNL     1      11.390  -8.153  35.933  1.00  0.00     0.000 C 
BRANCH   5   6
ATOM      6  C   UNL     1      11.419  -6.654  36.288  1.00  0.00     0.000 C 
BRANCH   6   7
ATOM      7  C   UNL     1      10.846  -5.764  35.174  1.00  0.00     0.000 C 
BRANCH   7   8
ATOM      8  C   UNL     1      10.624  -4.329  35.677  1.00  0.00     0.000 C 
BRANCH   8   9
ATOM      9  C   UNL     1       9.168  -3.861  35.517  1.00  0.00     0.000 C 
BRANCH   9  10
ATOM     10  C   UNL     1       8.812  -2.700  36.462  1.00  0.00     0.000 C 
BRANCH  10  11
ATOM     11  C   UNL     1       7.438  -2.881  37.133  1.00  0.00     0.000 C 
BRANCH  11  12
ATOM     12  C   UNL     1       6.503  -3.900  36.451  1.00  0.00     0.000 C 
BRANCH  12  13
ATOM     13  C   UNL     1       5.123  -3.348  36.034  1.00  0.00     0.006 C 
BRANCH  13  14
ATOM     14  C   UNL     1       4.994  -3.021  34.537  1.00  0.00     0.053 C 
BRANCH  14  15
ATOM     15  C   UNL     1       4.790  -4.254  33.709  1.00  0.00     0.041 C 
ATOM     16  O   UNL     1       5.099  -4.255  32.488  1.00  0.00    -0.550 OA
ATOM     17  O   UNL     1       4.204  -5.380  34.270  1.00  0.00    -0.550 OA
ENDBRANCH  14  15
ENDBRANCH  13  14
ENDBRANCH  12  13
ENDBRANCH  11  12
ENDBRANCH  10  11
ENDBRANCH   9  10
ENDBRANCH   8   9
ENDBRANCH   7   8
ENDBRANCH   6   7
ENDBRANCH   5   6
ENDBRANCH   4   5
ENDBRANCH   3   4
ENDBRANCH   2   3
ENDBRANCH   1   2
BRANCH   1  18
ATOM     18  C   UNL     1      14.273 -12.761  34.697  1.00  0.00     0.000 C 
BRANCH  18  19
ATOM     19  C   UNL     1      13.041 -13.268  35.469  1.00  0.00     0.000 C 
BRANCH  19  20
ATOM     20  C   UNL     1      13.329 -13.784  36.891  1.00  0.00     0.000 C 
BRANCH  20  21
ATOM     21  C   UNL     1      12.162 -14.538  37.554  1.00  0.00     0.000 C 
BRANCH  21  22
ATOM     22  C   UNL     1      11.121 -15.082  36.549  1.00  0.00     0.000 C 
BRANCH  22  23
ATOM     23  C   UNL     1       9.732 -15.371  37.156  1.00  0.00     0.000 C 
BRANCH  23  24
ATOM     24  C   UNL     1       9.462 -14.732  38.534  1.00  0.00    -0.000 C 
BRANCH  24  25
ATOM     25  C   UNL     1       8.049 -14.147  38.663  1.00  0.00    -0.000 C 
BRANCH  25  26
ATOM     26  C   UNL     1       8.059 -12.622  38.478  1.00  0.00    -0.000 C 
BRANCH  26  27
ATOM     27  C   UNL     1       9.481 -12.036  38.452  1.00  0.00    -0.000 C 
BRANCH  27  28
ATOM     28  C   UNL     1       9.943 -11.659  37.035  1.00  0.00    -0.000 C 
BRANCH  28  29
ATOM     29  C   UNL     1       8.752 -11.594  36.068  1.00  0.00    -0.000 C 
BRANCH  29  30
ATOM     30  C   UNL     1       8.956 -12.469  34.820  1.00  0.00    -0.000 C 
BRANCH  30  31
ATOM     31  C   UNL     1       7.719 -13.317  34.486  1.00  0.00    -0.003 C 
ATOM     32  C   UNL     1       7.713 -13.726  33.015  1.00  0.00     0.004 C 
ENDBRANCH  30  31
ENDBRANCH  29  30
ENDBRANCH  28  29
ENDBRANCH  27  28
ENDBRANCH  26  27
ENDBRANCH  25  26
ENDBRANCH  24  25
ENDBRANCH  23  24
ENDBRANCH  22  23
ENDBRANCH  21  22
ENDBRANCH  20  21
ENDBRANCH  19  20
ENDBRANCH  18  19
ENDBRANCH   1  18
TORSDOF 28
ENDMDL
MODEL 3
REMARK VINA RESULT:    -4.886      2.494      9.795
REMARK INTER + INTRA:         -16.197
REMARK INTER:                 -12.413
REMARK INTRA:                  -3.784
REMARK UNBOUND:                -3.314
REMARK SMILES CCCCCCCCCCCCCCCCCCCCCCCCCCCCCC(=O)[O-]
REMARK SMILES IDX 16 1 17 2 18 3 19 4 20 5 21 6 22 7 23 8 24 9 25 10 26 11
REMARK SMILES IDX 27 12 28 13 29 14 30 15 31 16 32 17 15 18 14 19 13 20 12 21
REMARK SMILES IDX 11 22 10 23 9 24 8 25 7 26 6 27 5 28 4 29 3 30 2 31 1 32
REMARK H PARENT
REMARK Flexibility Score: inf
ROOT
ATOM      1  C   UNL     1       7.075 -10.994  36.310  1.00  0.00     0.000 C 
ENDROOT
BRANCH   1   2
ATOM      2  C   UNL     1       5.791 -10.254  35.905  1.00  0.00     0.000 C 
BRANCH   2   3
ATOM      3  C   UNL     1       5.254  -9.325  37.012  1.00  0.00     0.000 C 
BRANCH   3   4
ATOM      4  C   UNL     1       4.019  -8.496  36.605  1.00  0.00     0.000 C 
BRANCH   4   5
ATOM      5  C   UNL     1       4.310  -7.072  36.094  1.00  0.00     0.000 C 
BRANCH   5   6
ATOM      6  C   UNL     1       3.120  -6.356  35.426  1.00  0.00     0.000 C 
BRANCH   6   7
ATOM      7  C   UNL     1       3.473  -4.946  34.928  1.00  0.00     0.000 C 
BRANCH   7   8
ATOM      8  C   UNL     1       2.614  -3.884  35.631  1.00  0.00     0.000 C 
BRANCH   8   9
ATOM      9  C   UNL     1       1.859  -4.440  36.851  1.00  0.00     0.000 C 
BRANCH   9  10
ATOM     10  C   UNL     1       2.450  -3.954  38.185  1.00  0.00     0.000 C 
BRANCH  10  11
ATOM     11  C   UNL     1       3.807  -3.246  38.012  1.00  0.00     0.000 C 
BRANCH  11  12
ATOM     12  C   UNL     1       5.033  -4.054  38.482  1.00  0.00     0.000 C 
BRANCH  12  13
ATOM     13  C   UNL     1       6.391  -3.568  37.932  1.00  0.00     0.006 C 
BRANCH  13  14
ATOM     14  C   UNL     1       6.616  -3.864  36.440  1.00  0.00     0.053 C 
BRANCH  14  15
ATOM     15  C   UNL     1       7.924  -3.320  35.951  1.00  0.00     0.041 C 
ATOM     16  O   UNL     1       8.157  -3.245  34.716  1.00  0.00    -0.550 OA
ATOM     17  O   UNL     1       8.907  -2.952  36.860  1.00  0.00    -0.550 OA
ENDBRANCH  14  15
ENDBRANCH  13  14
ENDBRANCH  12  13
ENDBRANCH  11  12
ENDBRANCH  10  11
ENDBRANCH   9  10
ENDBRANCH   8   9
ENDBRANCH   7   8
ENDBRANCH   6   7
ENDBRANCH   5   6
ENDBRANCH   4   5
ENDBRANCH   3   4
ENDBRANCH   2   3
ENDBRANCH   1   2
BRANCH   1  18
ATOM     18  C   UNL     1       7.461 -12.044  35.258  1.00  0.00     0.000 C 
BRANCH  18  19
ATOM     19  C   UNL     1       7.749 -13.431  35.864  1.00  0.00     0.000 C 
BRANCH  19  20
ATOM     20  C   UNL     1       7.705 -13.492  37.402  1.00  0.00     0.000 C 
BRANCH  20  21
ATOM     21  C   UNL     1       9.080 -13.608  38.084  1.00  0.00     0.000 C 
BRANCH  21  22
ATOM     22  C   UNL     1      10.233 -13.935  37.109  1.00  0.00     0.000 C 
BRANCH  22  23
ATOM     23  C   UNL     1      11.546 -14.376  37.791  1.00  0.00     0.000 C 
BRANCH  23  24
ATOM     24  C   UNL     1      12.842 -13.995  37.046  1.00  0.00    -0.000 C 
BRANCH  24  25
ATOM     25  C   UNL     1      12.586 -13.385  35.661  1.00  0.00    -0.000 C 
BRANCH  25  26
ATOM     26  C   UNL     1      13.560 -12.232  35.372  1.00  0.00    -0.000 C 
BRANCH  26  27
ATOM     27  C   UNL     1      12.848 -10.959  34.887  1.00  0.00    -0.000 C 
BRANCH  27  28
ATOM     28  C   UNL     1      11.316 -11.086  34.914  1.00  0.00    -0.000 C 
BRANCH  28  29
ATOM     29  C   UNL     1      10.737 -10.473  36.197  1.00  0.00    -0.000 C 
BRANCH  29  30
ATOM     30  C   UNL     1      11.826  -9.925  37.134  1.00  0.00    -0.000 C 
BRANCH  30  31
ATOM     31  C   UNL     1      11.750 -10.531  38.545  1.00  0.00    -0.003 C 
ATOM     32  C   UNL     1      13.096 -10.434  39.259  1.00  0.00     0.004 C 
ENDBRANCH  30  31
ENDBRANCH  29  30
ENDBRANCH  28  29
ENDBRANCH  27  28
ENDBRANCH  26  27
ENDBRANCH  25  26
ENDBRANCH  24  25
ENDBRANCH  23  24
ENDBRANCH  22  23
ENDBRANCH  21  22
ENDBRANCH  20  21
ENDBRANCH  19  20
ENDBRANCH  18  19
ENDBRANCH   1  18
TORSDOF 28
ENDMDL
MODEL 4
REMARK VINA RESULT:    -4.857      1.101      2.138
REMARK INTER + INTRA:         -16.122
REMARK INTER:                 -12.946
REMARK INTRA:                  -3.176
REMARK UNBOUND:                -3.314
REMARK SMILES CCCCCCCCCCCCCCCCCCCCCCCCCCCCCC(=O)[O-]
REMARK SMILES IDX 16 1 17 2 18 3 19 4 20 5 21 6 22 7 23 8 24 9 25 10 26 11
REMARK SMILES IDX 27 12 28 13 29 14 30 15 31 16 32 17 15 18 14 19 13 20 12 21
REMARK SMILES IDX 11 22 10 23 9 24 8 25 7 26 6 27 5 28 4 29 3 30 2 31 1 32
REMARK H PARENT
REMARK Flexibility Score: inf
ROOT
ATOM      1  C   UNL     1       7.496 -10.953  36.634  1.00  0.00     0.000 C 
ENDROOT
BRANCH   1   2
ATOM      2  C   UNL     1       7.960 -12.208  35.878  1.00  0.00     0.000 C 
BRANCH   2   3
ATOM      3  C   UNL     1       7.219 -13.487  36.318  1.00  0.00     0.000 C 
BRANCH   3   4
ATOM      4  C   UNL     1       7.291 -13.777  37.830  1.00  0.00     0.000 C 
BRANCH   4   5
ATOM      5  C   UNL     1       8.697 -13.705  38.457  1.00  0.00     0.000 C 
BRANCH   5   6
ATOM      6  C   UNL     1       9.513 -15.011  38.397  1.00  0.00     0.000 C 
BRANCH   6   7
ATOM      7  C   UNL     1      10.618 -14.977  37.331  1.00  0.00     0.000 C 
BRANCH   7   8
ATOM      8  C   UNL     1      11.249 -13.580  37.237  1.00  0.00     0.000 C 
BRANCH   8   9
ATOM      9  C   UNL     1      11.821 -13.276  35.842  1.00  0.00     0.000 C 
BRANCH   9  10
ATOM     10  C   UNL     1      13.344 -13.062  35.860  1.00  0.00     0.000 C 
BRANCH  10  11
ATOM     11  C   UNL     1      13.798 -11.945  34.902  1.00  0.00     0.000 C 
BRANCH  11  12
ATOM     12  C   UNL     1      13.212 -10.550  35.196  1.00  0.00     0.000 C 
BRANCH  12  13
ATOM     13  C   UNL     1      13.490 -10.006  36.613  1.00  0.00     0.006 C 
BRANCH  13  14
ATOM     14  C   UNL     1      12.231  -9.615  37.404  1.00  0.00     0.053 C 
BRANCH  14  15
ATOM     15  C   UNL     1      12.217 -10.225  38.773  1.00  0.00     0.041 C 
ATOM     16  O   UNL     1      13.285 -10.326  39.432  1.00  0.00    -0.550 OA
ATOM     17  O   UNL     1      11.036 -10.735  39.295  1.00  0.00    -0.550 OA
ENDBRANCH  14  15
ENDBRANCH  13  14
ENDBRANCH  12  13
ENDBRANCH  11  12
ENDBRANCH  10  11
ENDBRANCH   9  10
ENDBRANCH   8   9
ENDBRANCH   7   8
ENDBRANCH   6   7
ENDBRANCH   5   6
ENDBRANCH   4   5
ENDBRANCH   3   4
ENDBRANCH   2   3
ENDBRANCH   1   2
BRANCH   1  18
ATOM     18  C   UNL     1       6.113 -10.495  36.144  1.00  0.00     0.000 C 
BRANCH  18  19
ATOM     19  C   UNL     1       5.469  -9.435  37.057  1.00  0.00     0.000 C 
BRANCH  19  20
ATOM     20  C   UNL     1       4.195  -8.778  36.494  1.00  0.00     0.000 C 
BRANCH  20  21
ATOM     21  C   UNL     1       4.283  -7.252  36.307  1.00  0.00     0.000 C 
BRANCH  21  22
ATOM     22  C   UNL     1       3.153  -6.666  35.431  1.00  0.00     0.000 C 
BRANCH  22  23
ATOM     23  C   UNL     1       1.975  -6.060  36.223  1.00  0.00     0.000 C 
BRANCH  23  24
ATOM     24  C   UNL     1       2.028  -4.532  36.428  1.00  0.00    -0.000 C 
BRANCH  24  25
ATOM     25  C   UNL     1       2.476  -4.127  37.839  1.00  0.00    -0.000 C 
BRANCH  25  26
ATOM     26  C   UNL     1       3.773  -3.304  37.797  1.00  0.00    -0.000 C 
BRANCH  26  27
ATOM     27  C   UNL     1       5.009  -4.121  38.207  1.00  0.00    -0.000 C 
BRANCH  27  28
ATOM     28  C   UNL     1       6.283  -3.686  37.466  1.00  0.00    -0.000 C 
BRANCH  28  29
ATOM     29  C   UNL     1       6.315  -4.264  36.043  1.00  0.00    -0.000 C 
BRANCH  29  30
ATOM     30  C   UNL     1       6.488  -3.178  34.968  1.00  0.00    -0.000 C 
BRANCH  30  31
ATOM     31  C   UNL     1       6.250  -3.712  33.547  1.00  0.00    -0.003 C 
ATOM     32  C   UNL     1       4.804  -4.169  33.366  1.00  0.00     0.004 C 
ENDBRANCH  30  31
ENDBRANCH  29  30
ENDBRANCH  28  29
ENDBRANCH  27  28
ENDBRANCH  26  27
ENDBRANCH  25  26
ENDBRANCH  24  25
ENDBRANCH  23  24
ENDBRANCH  22  23
ENDBRANCH  21  22
ENDBRANCH  20  21
ENDBRANCH  19  20
ENDBRANCH  18  19
ENDBRANCH   1  18
TORSDOF 28
ENDMDL
MODEL 5
REMARK VINA RESULT:    -4.802      1.244      2.909
REMARK INTER + INTRA:         -15.976
REMARK INTER:                 -12.461
REMARK INTRA:                  -3.515
REMARK UNBOUND:                -3.314
REMARK SMILES CCCCCCCCCCCCCCCCCCCCCCCCCCCCCC(=O)[O-]
REMARK SMILES IDX 16 1 17 2 18 3 19 4 20 5 21 6 22 7 23 8 24 9 25 10 26 11
REMARK SMILES IDX 27 12 28 13 29 14 30 15 31 16 32 17 15 18 14 19 13 20 12 21
REMARK SMILES IDX 11 22 10 23 9 24 8 25 7 26 6 27 5 28 4 29 3 30 2 31 1 32
REMARK H PARENT
REMARK Flexibility Score: inf
ROOT
ATOM      1  C   UNL     1       7.192 -13.660  36.646  1.00  0.00     0.000 C 
ENDROOT
BRANCH   1   2
ATOM      2  C   UNL     1       7.721 -13.421  38.069  1.00  0.00     0.000 C 
BRANCH   2   3
ATOM      3  C   UNL     1       9.249 -13.589  38.182  1.00  0.00     0.000 C 
BRANCH   3   4
ATOM      4  C   UNL     1       9.741 -15.046  38.057  1.00  0.00     0.000 C 
BRANCH   4   5
ATOM      5  C   UNL     1      10.825 -15.294  36.991  1.00  0.00     0.000 C 
BRANCH   5   6
ATOM      6  C   UNL     1      11.519 -14.030  36.449  1.00  0.00     0.000 C 
BRANCH   6   7
ATOM      7  C   UNL     1      12.806 -13.679  37.211  1.00  0.00     0.000 C 
BRANCH   7   8
ATOM      8  C   UNL     1      14.007 -13.606  36.256  1.00  0.00     0.000 C 
BRANCH   8   9
ATOM      9  C   UNL     1      13.640 -13.024  34.881  1.00  0.00     0.000 C 
BRANCH   9  10
ATOM     10  C   UNL     1      14.326 -11.675  34.606  1.00  0.00     0.000 C 
BRANCH  10  11
ATOM     11  C   UNL     1      13.594 -10.490  35.262  1.00  0.00     0.000 C 
BRANCH  11  12
ATOM     12  C   UNL     1      12.056 -10.528  35.152  1.00  0.00     0.000 C 
BRANCH  12  13
ATOM     13  C   UNL     1      11.297 -10.300  36.477  1.00  0.00     0.006 C 
BRANCH  13  14
ATOM     14  C   UNL     1      12.103  -9.555  37.554  1.00  0.00     0.053 C 
BRANCH  14  15
ATOM     15  C   UNL     1      12.072 -10.269  38.871  1.00  0.00     0.041 C 
ATOM     16  O   UNL     1      11.025 -10.858  39.248  1.00  0.00    -0.550 OA
ATOM     17  O   UNL     1      13.179 -10.232  39.708  1.00  0.00    -0.550 OA
ENDBRANCH  14  15
ENDBRANCH  13  14
ENDBRANCH  12  13
ENDBRANCH  11  12
ENDBRANCH  10  11
ENDBRANCH   9  10
ENDBRANCH   8   9
ENDBRANCH   7   8
ENDBRANCH   6   7
ENDBRANCH   5   6
ENDBRANCH   4   5
ENDBRANCH   3   4
ENDBRANCH   2   3
ENDBRANCH   1   2
BRANCH   1  18
ATOM     18  C   UNL     1       7.639 -12.538  35.697  1.00  0.00     0.000 C 
BRANCH  18  19
ATOM     19  C   UNL     1       7.428 -11.129  36.285  1.00  0.00     0.000 C 
BRANCH  19  20
ATOM     20  C   UNL     1       6.057 -10.496  35.983  1.00  0.00     0.000 C 
BRANCH  20  21
ATOM     21  C   UNL     1       5.569  -9.480  37.031  1.00  0.00     0.000 C 
BRANCH  21  22
ATOM     22  C   UNL     1       4.221  -8.813  36.673  1.00  0.00     0.000 C 
BRANCH  22  23
ATOM     23  C   UNL     1       4.322  -7.319  36.300  1.00  0.00     0.000 C 
BRANCH  23  24
ATOM     24  C   UNL     1       3.142  -6.758  35.480  1.00  0.00    -0.000 C 
BRANCH  24  25
ATOM     25  C   UNL     1       3.440  -5.391  34.849  1.00  0.00    -0.000 C 
BRANCH  25  26
ATOM     26  C   UNL     1       2.482  -4.313  35.378  1.00  0.00    -0.000 C 
BRANCH  26  27
ATOM     27  C   UNL     1       2.007  -4.593  36.813  1.00  0.00    -0.000 C 
BRANCH  27  28
ATOM     28  C   UNL     1       2.286  -3.423  37.771  1.00  0.00    -0.000 C 
BRANCH  28  29
ATOM     29  C   UNL     1       3.763  -3.009  37.716  1.00  0.00    -0.000 C 
BRANCH  29  30
ATOM     30  C   UNL     1       4.708  -4.125  38.192  1.00  0.00    -0.000 C 
BRANCH  30  31
ATOM     31  C   UNL     1       6.184  -3.811  37.901  1.00  0.00    -0.003 C 
ATOM     32  C   UNL     1       6.467  -3.836  36.400  1.00  0.00     0.004 C 
ENDBRANCH  30  31
ENDBRANCH  29  30
ENDBRANCH  28  29
ENDBRANCH  27  28
ENDBRANCH  26  27
ENDBRANCH  25  26
ENDBRANCH  24  25
ENDBRANCH  23  24
ENDBRANCH  22  23
ENDBRANCH  21  22
ENDBRANCH  20  21
ENDBRANCH  19  20
ENDBRANCH  18  19
ENDBRANCH   1  18
TORSDOF 28
ENDMDL
MODEL 6
REMARK VINA RESULT:    -4.783      1.345      2.704
REMARK INTER + INTRA:         -15.926
REMARK INTER:                 -12.653
REMARK INTRA:                  -3.273
REMARK UNBOUND:                -3.314
REMARK SMILES CCCCCCCCCCCCCCCCCCCCCCCCCCCCCC(=O)[O-]
REMARK SMILES IDX 16 1 17 2 18 3 19 4 20 5 21 6 22 7 23 8 24 9 25 10 26 11
REMARK SMILES IDX 27 12 28 13 29 14 30 15 31 16 32 17 15 18 14 19 13 20 12 21
REMARK SMILES IDX 11 22 10 23 9 24 8 25 7 26 6 27 5 28 4 29 3 30 2 31 1 32
REMARK H PARENT
REMARK Flexibility Score: inf
ROOT
ATOM      1  C   UNL     1       5.734 -10.139  35.944  1.00  0.00     0.000 C 
ENDROOT
BRANCH   1   2
ATOM      2  C   UNL     1       6.903 -10.967  36.500  1.00  0.00     0.000 C 
BRANCH   2   3
ATOM      3  C   UNL     1       7.576 -11.854  35.432  1.00  0.00     0.000 C 
BRANCH   3   4
ATOM      4  C   UNL     1       7.925 -13.277  35.914  1.00  0.00     0.000 C 
BRANCH   4   5
ATOM      5  C   UNL     1       7.195 -13.748  37.187  1.00  0.00     0.000 C 
BRANCH   5   6
ATOM      6  C   UNL     1       8.051 -13.771  38.467  1.00  0.00     0.000 C 
BRANCH   6   7
ATOM      7  C   UNL     1       9.555 -13.628  38.185  1.00  0.00     0.000 C 
BRANCH   7   8
ATOM      8  C   UNL     1      10.199 -15.000  37.933  1.00  0.00     0.000 C 
BRANCH   8   9
ATOM      9  C   UNL     1      11.210 -14.980  36.775  1.00  0.00     0.000 C 
BRANCH   9  10
ATOM     10  C   UNL     1      11.508 -13.556  36.274  1.00  0.00     0.000 C 
BRANCH  10  11
ATOM     11  C   UNL     1      13.002 -13.194  36.371  1.00  0.00     0.000 C 
BRANCH  11  12
ATOM     12  C   UNL     1      13.590 -12.498  35.126  1.00  0.00     0.000 C 
BRANCH  12  13
ATOM     13  C   UNL     1      13.546 -10.956  35.154  1.00  0.00     0.006 C 
BRANCH  13  14
ATOM     14  C   UNL     1      13.097 -10.354  36.496  1.00  0.00     0.053 C 
BRANCH  14  15
ATOM     15  C   UNL     1      11.788  -9.635  36.378  1.00  0.00     0.041 C 
ATOM     16  O   UNL     1      10.732 -10.276  36.134  1.00  0.00    -0.550 OA
ATOM     17  O   UNL     1      11.744  -8.251  36.478  1.00  0.00    -0.550 OA
ENDBRANCH  14  15
ENDBRANCH  13  14
ENDBRANCH  12  13
ENDBRANCH  11  12
ENDBRANCH  10  11
ENDBRANCH   9  10
ENDBRANCH   8   9
ENDBRANCH   7   8
ENDBRANCH   6   7
ENDBRANCH   5   6
ENDBRANCH   4   5
ENDBRANCH   3   4
ENDBRANCH   2   3
ENDBRANCH   1   2
BRANCH   1  18
ATOM     18  C   UNL     1       5.276  -9.083  36.962  1.00  0.00     0.000 C 
BRANCH  18  19
ATOM     19  C   UNL     1       3.924  -8.440  36.598  1.00  0.00     0.000 C 
BRANCH  19  20
ATOM     20  C   UNL     1       3.994  -6.950  36.214  1.00  0.00     0.000 C 
BRANCH  20  21
ATOM     21  C   UNL     1       3.094  -6.545  35.032  1.00  0.00     0.000 C 
BRANCH  21  22
ATOM     22  C   UNL     1       2.197  -5.320  35.323  1.00  0.00     0.000 C 
BRANCH  22  23
ATOM     23  C   UNL     1       2.493  -4.609  36.661  1.00  0.00     0.000 C 
BRANCH  23  24
ATOM     24  C   UNL     1       2.872  -3.118  36.551  1.00  0.00    -0.000 C 
BRANCH  24  25
ATOM     25  C   UNL     1       3.758  -2.633  37.707  1.00  0.00    -0.000 C 
BRANCH  25  26
ATOM     26  C   UNL     1       4.153  -3.796  38.630  1.00  0.00    -0.000 C 
BRANCH  26  27
ATOM     27  C   UNL     1       5.636  -4.181  38.500  1.00  0.00    -0.000 C 
BRANCH  27  28
ATOM     28  C   UNL     1       6.461  -3.128  37.744  1.00  0.00    -0.000 C 
BRANCH  28  29
ATOM     29  C   UNL     1       7.066  -3.720  36.463  1.00  0.00    -0.000 C 
BRANCH  29  30
ATOM     30  C   UNL     1       6.456  -3.115  35.187  1.00  0.00    -0.000 C 
BRANCH  30  31
ATOM     31  C   UNL     1       5.658  -4.144  34.371  1.00  0.00    -0.003 C 
ATOM     32  C   UNL     1       5.855  -3.930  32.872  1.00  0.00     0.004 C 
ENDBRANCH  30  31
ENDBRANCH  29  30
ENDBRANCH  28  29
ENDBRANCH  27  28
ENDBRANCH  26  27
ENDBRANCH  25  26
ENDBRANCH  24  25
ENDBRANCH  23  24
ENDBRANCH  22  23
ENDBRANCH  21  22
ENDBRANCH  20  21
ENDBRANCH  19  20
ENDBRANCH  18  19
ENDBRANCH   1  18
TORSDOF 28
ENDMDL
MODEL 7
REMARK VINA RESULT:    -4.774      3.171      9.916
REMARK INTER + INTRA:         -15.902
REMARK INTER:                 -12.609
REMARK INTRA:                  -3.293
REMARK UNBOUND:                -3.314
REMARK SMILES CCCCCCCCCCCCCCCCCCCCCCCCCCCCCC(=O)[O-]
REMARK SMILES IDX 16 1 17 2 18 3 19 4 20 5 21 6 22 7 23 8 24 9 25 10 26 11
REMARK SMILES IDX 27 12 28 13 29 14 30 15 31 16 32 17 15 18 14 19 13 20 12 21
REMARK SMILES IDX 11 22 10 23 9 24 8 25 7 26 6 27 5 28 4 29 3 30 2 31 1 32
REMARK H PARENT
REMARK Flexibility Score: inf
ROOT
ATOM      1  C   UNL     1       7.254 -12.167  35.454  1.00  0.00     0.000 C 
ENDROOT
BRANCH   1   2
ATOM      2  C   UNL     1       6.907 -11.040  36.440  1.00  0.00     0.000 C 
BRANCH   2   3
ATOM      3  C   UNL     1       5.743 -10.152  35.957  1.00  0.00     0.000 C 
BRANCH   3   4
ATOM      4  C   UNL     1       5.207  -9.171  37.019  1.00  0.00     0.000 C 
BRANCH   4   5
ATOM      5  C   UNL     1       3.895  -8.447  36.658  1.00  0.00     0.000 C 
BRANCH   5   6
ATOM      6  C   UNL     1       4.065  -7.046  36.040  1.00  0.00     0.000 C 
BRANCH   6   7
ATOM      7  C   UNL     1       2.737  -6.438  35.562  1.00  0.00     0.000 C 
BRANCH   7   8
ATOM      8  C   UNL     1       2.977  -5.130  34.793  1.00  0.00     0.000 C 
BRANCH   8   9
ATOM      9  C   UNL     1       4.468  -4.770  34.681  1.00  0.00     0.000 C 
BRANCH   9  10
ATOM     10  C   UNL     1       4.722  -3.257  34.790  1.00  0.00     0.000 C 
BRANCH  10  11
ATOM     11  C   UNL     1       5.598  -2.888  36.002  1.00  0.00     0.000 C 
BRANCH  11  12
ATOM     12  C   UNL     1       6.101  -4.083  36.836  1.00  0.00     0.000 C 
BRANCH  12  13
ATOM     13  C   UNL     1       5.608  -4.118  38.298  1.00  0.00     0.006 C 
BRANCH  13  14
ATOM     14  C   UNL     1       4.696  -2.944  38.692  1.00  0.00     0.053 C 
BRANCH  14  15
ATOM     15  C   UNL     1       3.272  -3.376  38.874  1.00  0.00     0.041 C 
ATOM     16  O   UNL     1       2.624  -3.845  37.901  1.00  0.00    -0.550 OA
ATOM     17  O   UNL     1       2.645  -3.205  40.100  1.00  0.00    -0.550 OA
ENDBRANCH  14  15
ENDBRANCH  13  14
ENDBRANCH  12  13
ENDBRANCH  11  12
ENDBRANCH  10  11
ENDBRANCH   9  10
ENDBRANCH   8   9
ENDBRANCH   7   8
ENDBRANCH   6   7
ENDBRANCH   5   6
ENDBRANCH   4   5
ENDBRANCH   3   4
ENDBRANCH   2   3
ENDBRANCH   1   2
BRANCH   1  18
ATOM     18  C   UNL     1       7.525 -13.484  36.196  1.00  0.00     0.000 C 
BRANCH  18  19
ATOM     19  C   UNL     1       7.709 -13.296  37.714  1.00  0.00     0.000 C 
BRANCH  19  20
ATOM     20  C   UNL     1       8.059 -14.578  38.492  1.00  0.00     0.000 C 
BRANCH  20  21
ATOM     21  C   UNL     1       9.563 -14.795  38.737  1.00  0.00     0.000 C 
BRANCH  21  22
ATOM     22  C   UNL     1      10.253 -15.654  37.652  1.00  0.00     0.000 C 
BRANCH  22  23
ATOM     23  C   UNL     1      11.026 -14.847  36.588  1.00  0.00     0.000 C 
BRANCH  23  24
ATOM     24  C   UNL     1      12.350 -14.216  37.065  1.00  0.00    -0.000 C 
BRANCH  24  25
ATOM     25  C   UNL     1      13.148 -13.555  35.932  1.00  0.00    -0.000 C 
BRANCH  25  26
ATOM     26  C   UNL     1      12.386 -12.359  35.340  1.00  0.00    -0.000 C 
BRANCH  26  27
ATOM     27  C   UNL     1      13.320 -11.221  34.896  1.00  0.00    -0.000 C 
BRANCH  27  28
ATOM     28  C   UNL     1      13.829 -10.374  36.074  1.00  0.00    -0.000 C 
BRANCH  28  29
ATOM     29  C   UNL     1      12.666  -9.925  36.970  1.00  0.00    -0.000 C 
BRANCH  29  30
ATOM     30  C   UNL     1      12.935 -10.182  38.462  1.00  0.00    -0.000 C 
BRANCH  30  31
ATOM     31  C   UNL     1      11.660 -10.551  39.236  1.00  0.00    -0.003 C 
ATOM     32  C   UNL     1      10.675 -11.305  38.346  1.00  0.00     0.004 C 
ENDBRANCH  30  31
ENDBRANCH  29  30
ENDBRANCH  28  29
ENDBRANCH  27  28
ENDBRANCH  26  27
ENDBRANCH  25  26
ENDBRANCH  24  25
ENDBRANCH  23  24
ENDBRANCH  22  23
ENDBRANCH  21  22
ENDBRANCH  20  21
ENDBRANCH  19  20
ENDBRANCH  18  19
ENDBRANCH   1  18
TORSDOF 28
ENDMDL
MODEL 8
REMARK VINA RESULT:    -4.740      2.899     10.131
REMARK INTER + INTRA:         -15.812
REMARK INTER:                 -12.102
REMARK INTRA:                  -3.710
REMARK UNBOUND:                -3.314
REMARK SMILES CCCCCCCCCCCCCCCCCCCCCCCCCCCCCC(=O)[O-]
REMARK SMILES IDX 16 1 17 2 18 3 19 4 20 5 21 6 22 7 23 8 24 9 25 10 26 11
REMARK SMILES IDX 27 12 28 13 29 14 30 15 31 16 32 17 15 18 14 19 13 20 12 21
REMARK SMILES IDX 11 22 10 23 9 24 8 25 7 26 6 27 5 28 4 29 3 30 2 31 1 32
REMARK H PARENT
REMARK Flexibility Score: inf
ROOT
ATOM      1  C   UNL     1       5.645  -9.403  36.836  1.00  0.00     0.000 C 
ENDROOT
BRANCH   1   2
ATOM      2  C   UNL     1       4.235  -8.820  36.650  1.00  0.00     0.000 C 
BRANCH   2   3
ATOM      3  C   UNL     1       4.245  -7.325  36.272  1.00  0.00     0.000 C 
BRANCH   3   4
ATOM      4  C   UNL     1       2.865  -6.758  35.884  1.00  0.00     0.000 C 
BRANCH   4   5
ATOM      5  C   UNL     1       2.884  -5.419  35.122  1.00  0.00     0.000 C 
BRANCH   5   6
ATOM      6  C   UNL     1       1.897  -4.353  35.636  1.00  0.00     0.000 C 
BRANCH   6   7
ATOM      7  C   UNL     1       2.545  -3.357  36.610  1.00  0.00     0.000 C 
BRANCH   7   8
ATOM      8  C   UNL     1       2.505  -3.891  38.050  1.00  0.00     0.000 C 
BRANCH   8   9
ATOM      9  C   UNL     1       3.732  -3.469  38.875  1.00  0.00     0.000 C 
BRANCH   9  10
ATOM     10  C   UNL     1       5.019  -4.186  38.431  1.00  0.00     0.000 C 
BRANCH  10  11
ATOM     11  C   UNL     1       6.203  -3.220  38.244  1.00  0.00     0.000 C 
BRANCH  11  12
ATOM     12  C   UNL     1       7.039  -3.446  36.968  1.00  0.00     0.000 C 
BRANCH  12  13
ATOM     13  C   UNL     1       6.306  -4.176  35.823  1.00  0.00     0.006 C 
BRANCH  13  14
ATOM     14  C   UNL     1       5.773  -3.252  34.716  1.00  0.00     0.053 C 
BRANCH  14  15
ATOM     15  C   UNL     1       6.051  -3.797  33.347  1.00  0.00     0.041 C 
ATOM     16  O   UNL     1       7.233  -3.858  32.919  1.00  0.00    -0.550 OA
ATOM     17  O   UNL     1       5.001  -4.181  32.525  1.00  0.00    -0.550 OA
ENDBRANCH  14  15
ENDBRANCH  13  14
ENDBRANCH  12  13
ENDBRANCH  11  12
ENDBRANCH  10  11
ENDBRANCH   9  10
ENDBRANCH   8   9
ENDBRANCH   7   8
ENDBRANCH   6   7
ENDBRANCH   5   6
ENDBRANCH   4   5
ENDBRANCH   3   4
ENDBRANCH   2   3
ENDBRANCH   1   2
BRANCH   1  18
ATOM     18  C   UNL     1       5.871 -10.604  35.905  1.00  0.00     0.000 C 
BRANCH  18  19
ATOM     19  C   UNL     1       7.247 -11.269  36.100  1.00  0.00     0.000 C 
BRANCH  19  20
ATOM     20  C   UNL     1       7.282 -12.785  35.830  1.00  0.00     0.000 C 
BRANCH  20  21
ATOM     21  C   UNL     1       7.602 -13.653  37.060  1.00  0.00     0.000 C 
BRANCH  21  22
ATOM     22  C   UNL     1       8.545 -12.970  38.076  1.00  0.00     0.000 C 
BRANCH  22  23
ATOM     23  C   UNL     1       9.959 -13.585  38.157  1.00  0.00     0.000 C 
BRANCH  23  24
ATOM     24  C   UNL     1      10.454 -14.282  36.873  1.00  0.00    -0.000 C 
BRANCH  24  25
ATOM     25  C   UNL     1      11.884 -14.826  36.995  1.00  0.00    -0.000 C 
BRANCH  25  26
ATOM     26  C   UNL     1      12.918 -13.691  36.936  1.00  0.00    -0.000 C 
BRANCH  26  27
ATOM     27  C   UNL     1      13.137 -13.159  35.510  1.00  0.00    -0.000 C 
BRANCH  27  28
ATOM     28  C   UNL     1      13.181 -11.624  35.447  1.00  0.00    -0.000 C 
BRANCH  28  29
ATOM     29  C   UNL     1      11.770 -11.039  35.297  1.00  0.00    -0.000 C 
BRANCH  29  30
ATOM     30  C   UNL     1      11.200 -10.519  36.627  1.00  0.00    -0.000 C 
BRANCH  30  31
ATOM     31  C   UNL     1      12.300 -10.153  37.636  1.00  0.00    -0.003 C 
ATOM     32  C   UNL     1      11.816 -10.344  39.071  1.00  0.00     0.004 C 
ENDBRANCH  30  31
ENDBRANCH  29  30
ENDBRANCH  28  29
ENDBRANCH  27  28
ENDBRANCH  26  27
ENDBRANCH  25  26
ENDBRANCH  24  25
ENDBRANCH  23  24
ENDBRANCH  22  23
ENDBRANCH  21  22
ENDBRANCH  20  21
ENDBRANCH  19  20
ENDBRANCH  18  19
ENDBRANCH   1  18
TORSDOF 28
ENDMDL
MODEL 9
REMARK VINA RESULT:    -4.718      2.923     10.427
REMARK INTER + INTRA:         -15.754
REMARK INTER:                 -12.283
REMARK INTRA:                  -3.471
REMARK UNBOUND:                -3.314
REMARK SMILES CCCCCCCCCCCCCCCCCCCCCCCCCCCCCC(=O)[O-]
REMARK SMILES IDX 16 1 17 2 18 3 19 4 20 5 21 6 22 7 23 8 24 9 25 10 26 11
REMARK SMILES IDX 27 12 28 13 29 14 30 15 31 16 32 17 15 18 14 19 13 20 12 21
REMARK SMILES IDX 11 22 10 23 9 24 8 25 7 26 6 27 5 28 4 29 3 30 2 31 1 32
REMARK H PARENT
REMARK Flexibility Score: inf
ROOT
ATOM      1  C   UNL     1      11.293  -9.677  36.145  1.00  0.00     0.000 C 
ENDROOT
BRANCH   1   2
ATOM      2  C   UNL     1      11.316  -8.367  35.342  1.00  0.00     0.000 C 
BRANCH   2   3
ATOM      3  C   UNL     1      11.350  -7.111  36.236  1.00  0.00     0.000 C 
BRANCH   3   4
ATOM      4  C   UNL     1      11.313  -5.777  35.462  1.00  0.00     0.000 C 
BRANCH   4   5
ATOM      5  C   UNL     1      10.108  -4.865  35.763  1.00  0.00     0.000 C 
BRANCH   5   6
ATOM      6  C   UNL     1      10.345  -3.361  35.524  1.00  0.00     0.000 C 
BRANCH   6   7
ATOM      7  C   UNL     1       9.394  -2.469  36.336  1.00  0.00     0.000 C 
BRANCH   7   8
ATOM      8  C   UNL     1       7.943  -2.959  36.215  1.00  0.00     0.000 C 
BRANCH   8   9
ATOM      9  C   UNL     1       7.089  -2.071  35.294  1.00  0.00     0.000 C 
BRANCH   9  10
ATOM     10  C   UNL     1       7.157  -2.507  33.820  1.00  0.00     0.000 C 
BRANCH  10  11
ATOM     11  C   UNL     1       6.578  -3.915  33.591  1.00  0.00     0.000 C 
BRANCH  11  12
ATOM     12  C   UNL     1       5.093  -3.955  33.180  1.00  0.00     0.000 C 
BRANCH  12  13
ATOM     13  C   UNL     1       4.111  -4.353  34.302  1.00  0.00     0.006 C 
BRANCH  13  14
ATOM     14  C   UNL     1       4.730  -5.213  35.416  1.00  0.00     0.053 C 
BRANCH  14  15
ATOM     15  C   UNL     1       4.310  -4.753  36.779  1.00  0.00     0.041 C 
ATOM     16  O   UNL     1       5.171  -4.572  37.679  1.00  0.00    -0.550 OA
ATOM     17  O   UNL     1       2.964  -4.582  37.070  1.00  0.00    -0.550 OA
ENDBRANCH  14  15
ENDBRANCH  13  14
ENDBRANCH  12  13
ENDBRANCH  11  12
ENDBRANCH  10  11
ENDBRANCH   9  10
ENDBRANCH   8   9
ENDBRANCH   7   8
ENDBRANCH   6   7
ENDBRANCH   5   6
ENDBRANCH   4   5
ENDBRANCH   3   4
ENDBRANCH   2   3
ENDBRANCH   1   2
BRANCH   1  18
ATOM     18  C   UNL     1      12.367  -9.669  37.243  1.00  0.00     0.000 C 
BRANCH  18  19
ATOM     19  C   UNL     1      13.601 -10.519  36.887  1.00  0.00     0.000 C 
BRANCH  19  20
ATOM     20  C   UNL     1      13.887 -10.654  35.380  1.00  0.00     0.000 C 
BRANCH  20  21
ATOM     21  C   UNL     1      13.852 -12.097  34.843  1.00  0.00     0.000 C 
BRANCH  21  22
ATOM     22  C   UNL     1      12.763 -12.978  35.496  1.00  0.00     0.000 C 
BRANCH  22  23
ATOM     23  C   UNL     1      13.294 -14.004  36.520  1.00  0.00     0.000 C 
BRANCH  23  24
ATOM     24  C   UNL     1      12.221 -14.700  37.381  1.00  0.00    -0.000 C 
BRANCH  24  25
ATOM     25  C   UNL     1      10.787 -14.383  36.932  1.00  0.00    -0.000 C 
BRANCH  25  26
ATOM     26  C   UNL     1       9.925 -13.912  38.114  1.00  0.00    -0.000 C 
BRANCH  26  27
ATOM     27  C   UNL     1       9.831 -12.380  38.207  1.00  0.00    -0.000 C 
BRANCH  27  28
ATOM     28  C   UNL     1       8.380 -11.872  38.199  1.00  0.00    -0.000 C 
BRANCH  28  29
ATOM     29  C   UNL     1       7.904 -11.591  36.766  1.00  0.00    -0.000 C 
BRANCH  29  30
ATOM     30  C   UNL     1       7.203 -12.803  36.129  1.00  0.00    -0.000 C 
BRANCH  30  31
ATOM     31  C   UNL     1       7.811 -13.189  34.771  1.00  0.00    -0.003 C 
ATOM     32  C   UNL     1       9.004 -12.300  34.430  1.00  0.00     0.004 C 
ENDBRANCH  30  31
ENDBRANCH  29  30
ENDBRANCH  28  29
ENDBRANCH  27  28
ENDBRANCH  26  27
ENDBRANCH  25  26
ENDBRANCH  24  25
ENDBRANCH  23  24
ENDBRANCH  22  23
ENDBRANCH  21  22
ENDBRANCH  20  21
ENDBRANCH  19  20
ENDBRANCH  18  19
ENDBRANCH   1  18
TORSDOF 28
ENDMDL
