MODEL 1
REMARK VINA RESULT:    -5.832      0.000      0.000
REMARK INTER + INTRA:          -6.002
REMARK INTER:                  -6.002
REMARK INTRA:                   0.000
REMARK UNBOUND:                 0.000
REMARK SMILES O=c1ccc2ccc(O)cc2o1
REMARK SMILES IDX 6 1 7 2 8 3 10 4 11 5 5 6 4 7 3 8 2 9 1 10 12 11 9 12
REMARK H PARENT 9 13
REMARK Flexibility Score: inf
ROOT
ATOM      1  C   UNL     1     -38.310  -9.087 -14.119  1.00  0.00     0.016 A 
ATOM      2  C   UNL     1     -39.709  -9.112 -14.132  1.00  0.00     0.047 A 
ATOM      3  C   UNL     1     -40.441  -7.930 -13.973  1.00  0.00     0.119 A 
ATOM      4  C   UNL     1     -39.770  -6.711 -13.798  1.00  0.00     0.094 A 
ATOM      5  C   UNL     1     -38.371  -6.674 -13.783  1.00  0.00     0.142 A 
ATOM      6  C   UNL     1     -37.637  -7.870 -13.944  1.00  0.00     0.018 A 
ATOM      7  C   UNL     1     -36.240  -7.802 -13.925  1.00  0.00     0.019 A 
ATOM      8  C   UNL     1     -35.618  -6.566 -13.749  1.00  0.00     0.094 A 
ATOM      9  C   UNL     1     -36.410  -5.424 -13.594  1.00  0.00     0.336 A 
ATOM     10  O   UNL     1     -35.867  -4.300 -13.435  1.00  0.00    -0.246 OA
ATOM     11  O   UNL     1     -37.737  -5.516 -13.617  1.00  0.00    -0.423 OA
ENDROOT
BRANCH   3  12
ATOM     12  O   UNL     1     -41.833  -7.976 -13.988  1.00  0.00    -0.508 OA
ATOM     13  H   UNL     1     -42.336  -8.627 -14.580  1.00  0.00     0.293 HD
ENDBRANCH   3  12
TORSDOF 1
ENDMDL
MODEL 2
REMARK VINA RESULT:    -5.818      7.410      9.529
REMARK INTER + INTRA:          -5.988
REMARK INTER:                  -5.988
REMARK INTRA:                   0.000
REMARK UNBOUND:                 0.000
REMARK SMILES O=c1ccc2ccc(O)cc2o1
REMARK SMILES IDX 6 1 7 2 8 3 10 4 11 5 5 6 4 7 3 8 2 9 1 10 12 11 9 12
REMARK H PARENT 9 13
REMARK Flexibility Score: inf
ROOT
ATOM      1  C   UNL     1     -31.413  -2.870 -18.579  1.00  0.00     0.016 A 
ATOM      2  C   UNL     1     -30.726  -2.440 -19.719  1.00  0.00     0.047 A 
ATOM      3  C   UNL     1     -31.364  -2.420 -20.964  1.00  0.00     0.119 A 
ATOM      4  C   UNL     1     -32.700  -2.834 -21.072  1.00  0.00     0.094 A 
ATOM      5  C   UNL     1     -33.396  -3.265 -19.938  1.00  0.00     0.142 A 
ATOM      6  C   UNL     1     -32.748  -3.283 -18.683  1.00  0.00     0.018 A 
ATOM      7  C   UNL     1     -33.469  -3.719 -17.567  1.00  0.00     0.019 A 
ATOM      8  C   UNL     1     -34.796  -4.120 -17.724  1.00  0.00     0.094 A 
ATOM      9  C   UNL     1     -35.372  -4.076 -18.998  1.00  0.00     0.336 A 
ATOM     10  O   UNL     1     -36.568  -4.433 -19.159  1.00  0.00    -0.246 OA
ATOM     11  O   UNL     1     -34.664  -3.657 -20.043  1.00  0.00    -0.423 OA
ENDROOT
BRANCH   3  12
ATOM     12  O   UNL     1     -30.663  -1.990 -22.089  1.00  0.00    -0.508 OA
ATOM     13  H   UNL     1     -29.915  -1.310 -22.020  1.00  0.00     0.293 HD
ENDBRANCH   3  12
TORSDOF 1
ENDMDL
MODEL 3
REMARK VINA RESULT:    -5.643      1.908      3.101
REMARK INTER + INTRA:          -5.808
REMARK INTER:                  -5.808
REMARK INTRA:                   0.000
REMARK UNBOUND:                 0.000
REMARK SMILES O=c1ccc2ccc(O)cc2o1
REMARK SMILES IDX 6 1 7 2 8 3 10 4 11 5 5 6 4 7 3 8 2 9 1 10 12 11 9 12
REMARK H PARENT 9 13
REMARK Flexibility Score: inf
ROOT
ATOM      1  C   UNL     1     -39.406  -8.461 -13.970  1.00  0.00     0.016 A 
ATOM      2  C   UNL     1     -38.468  -9.106 -14.783  1.00  0.00     0.047 A 
ATOM      3  C   UNL     1     -37.273  -8.466 -15.131  1.00  0.00     0.119 A 
ATOM      4  C   UNL     1     -37.013  -7.169 -14.664  1.00  0.00     0.094 A 
ATOM      5  C   UNL     1     -37.944  -6.515 -13.851  1.00  0.00     0.142 A 
ATOM      6  C   UNL     1     -39.148  -7.165 -13.502  1.00  0.00     0.018 A 
ATOM      7  C   UNL     1     -40.060  -6.486 -12.687  1.00  0.00     0.019 A 
ATOM      8  C   UNL     1     -39.757  -5.197 -12.247  1.00  0.00     0.094 A 
ATOM      9  C   UNL     1     -38.545  -4.616 -12.634  1.00  0.00     0.336 A 
ATOM     10  O   UNL     1     -38.253  -3.455 -12.246  1.00  0.00    -0.246 OA
ATOM     11  O   UNL     1     -37.695  -5.284 -13.409  1.00  0.00    -0.423 OA
ENDROOT
BRANCH   3  12
ATOM     12  O   UNL     1     -36.352  -9.125 -15.942  1.00  0.00    -0.508 OA
ATOM     13  H   UNL     1     -35.432  -8.739 -16.122  1.00  0.00     0.293 HD
ENDBRANCH   3  12
TORSDOF 1
ENDMDL
MODEL 4
REMARK VINA RESULT:    -5.455      2.669      3.853
REMARK INTER + INTRA:          -5.615
REMARK INTER:                  -5.615
REMARK INTRA:                   0.000
REMARK UNBOUND:                 0.000
REMARK SMILES O=c1ccc2ccc(O)cc2o1
REMARK SMILES IDX 6 1 7 2 8 3 10 4 11 5 5 6 4 7 3 8 2 9 1 10 12 11 9 12
REMARK H PARENT 9 13
REMARK Flexibility Score: inf
ROOT
ATOM      1  C   UNL     1     -36.569  -8.572 -15.149  1.00  0.00     0.016 A 
ATOM      2  C   UNL     1     -35.684  -8.788 -14.087  1.00  0.00     0.047 A 
ATOM      3  C   UNL     1     -35.296  -7.727 -13.262  1.00  0.00     0.119 A 
ATOM      4  C   UNL     1     -35.794  -6.437 -13.500  1.00  0.00     0.094 A 
ATOM      5  C   UNL     1     -36.679  -6.210 -14.559  1.00  0.00     0.142 A 
ATOM      6  C   UNL     1     -37.069  -7.285 -15.389  1.00  0.00     0.018 A 
ATOM      7  C   UNL     1     -37.956  -7.028 -16.440  1.00  0.00     0.019 A 
ATOM      8  C   UNL     1     -38.425  -5.729 -16.637  1.00  0.00     0.094 A 
ATOM      9  C   UNL     1     -37.994  -4.714 -15.776  1.00  0.00     0.336 A 
ATOM     10  O   UNL     1     -38.407  -3.537 -15.937  1.00  0.00    -0.246 OA
ATOM     11  O   UNL     1     -37.151  -4.986 -14.784  1.00  0.00    -0.423 OA
ENDROOT
BRANCH   3  12
ATOM     12  O   UNL     1     -34.413  -7.961 -12.210  1.00  0.00    -0.508 OA
ATOM     13  H   UNL     1     -34.042  -7.203 -11.650  1.00  0.00     0.293 HD
ENDBRANCH   3  12
TORSDOF 1
ENDMDL
MODEL 5
REMARK VINA RESULT:    -5.399      1.722      2.451
REMARK INTER + INTRA:          -5.557
REMARK INTER:                  -5.557
REMARK INTRA:                   0.000
REMARK UNBOUND:                 0.000
REMARK SMILES O=c1ccc2ccc(O)cc2o1
REMARK SMILES IDX 6 1 7 2 8 3 10 4 11 5 5 6 4 7 3 8 2 9 1 10 12 11 9 12
REMARK H PARENT 9 13
REMARK Flexibility Score: inf
ROOT
ATOM      1  C   UNL     1     -39.051  -5.748 -13.970  1.00  0.00     0.016 A 
ATOM      2  C   UNL     1     -40.298  -6.373 -14.077  1.00  0.00     0.047 A 
ATOM      3  C   UNL     1     -40.394  -7.769 -14.066  1.00  0.00     0.119 A 
ATOM      4  C   UNL     1     -39.233  -8.549 -13.947  1.00  0.00     0.094 A 
ATOM      5  C   UNL     1     -37.982  -7.934 -13.839  1.00  0.00     0.142 A 
ATOM      6  C   UNL     1     -37.890  -6.525 -13.851  1.00  0.00     0.018 A 
ATOM      7  C   UNL     1     -36.625  -5.938 -13.741  1.00  0.00     0.019 A 
ATOM      8  C   UNL     1     -35.500  -6.755 -13.625  1.00  0.00     0.094 A 
ATOM      9  C   UNL     1     -35.668  -8.144 -13.622  1.00  0.00     0.336 A 
ATOM     10  O   UNL     1     -34.665  -8.897 -13.517  1.00  0.00    -0.246 OA
ATOM     11  O   UNL     1     -36.882  -8.675 -13.727  1.00  0.00    -0.423 OA
ENDROOT
BRANCH   3  12
ATOM     12  O   UNL     1     -41.645  -8.373 -14.174  1.00  0.00    -0.508 OA
ATOM     13  H   UNL     1     -42.492  -7.892 -13.897  1.00  0.00     0.293 HD
ENDBRANCH   3  12
TORSDOF 1
ENDMDL
MODEL 6
REMARK VINA RESULT:    -5.274      2.051      3.903
REMARK INTER + INTRA:          -5.428
REMARK INTER:                  -5.428
REMARK INTRA:                   0.000
REMARK UNBOUND:                 0.000
REMARK SMILES O=c1ccc2ccc(O)cc2o1
REMARK SMILES IDX 6 1 7 2 8 3 10 4 11 5 5 6 4 7 3 8 2 9 1 10 12 11 9 12
REMARK H PARENT 9 13
REMARK Flexibility Score: inf
ROOT
ATOM      1  C   UNL     1     -40.171  -6.248 -12.365  1.00  0.00     0.016 A 
ATOM      2  C   UNL     1     -39.741  -4.978 -11.966  1.00  0.00     0.047 A 
ATOM      3  C   UNL     1     -38.561  -4.435 -12.485  1.00  0.00     0.119 A 
ATOM      4  C   UNL     1     -37.801  -5.166 -13.410  1.00  0.00     0.094 A 
ATOM      5  C   UNL     1     -38.222  -6.437 -13.815  1.00  0.00     0.142 A 
ATOM      6  C   UNL     1     -39.415  -6.982 -13.289  1.00  0.00     0.018 A 
ATOM      7  C   UNL     1     -39.811  -8.254 -13.713  1.00  0.00     0.019 A 
ATOM      8  C   UNL     1     -39.023  -8.944 -14.636  1.00  0.00     0.094 A 
ATOM      9  C   UNL     1     -37.854  -8.342 -15.113  1.00  0.00     0.336 A 
ATOM     10  O   UNL     1     -37.131  -8.948 -15.945  1.00  0.00    -0.246 OA
ATOM     11  O   UNL     1     -37.501  -7.130 -14.693  1.00  0.00    -0.423 OA
ENDROOT
BRANCH   3  12
ATOM     12  O   UNL     1     -38.148  -3.168 -12.075  1.00  0.00    -0.508 OA
ATOM     13  H   UNL     1     -38.805  -2.403 -11.974  1.00  0.00     0.293 HD
ENDBRANCH   3  12
TORSDOF 1
ENDMDL
MODEL 7
REMARK VINA RESULT:    -5.204      3.469      4.577
REMARK INTER + INTRA:          -5.356
REMARK INTER:                  -5.356
REMARK INTRA:                   0.000
REMARK UNBOUND:                 0.000
REMARK SMILES O=c1ccc2ccc(O)cc2o1
REMARK SMILES IDX 6 1 7 2 8 3 10 4 11 5 5 6 4 7 3 8 2 9 1 10 12 11 9 12
REMARK H PARENT 9 13
REMARK Flexibility Score: inf
ROOT
ATOM      1  C   UNL     1     -36.025  -5.726 -14.114  1.00  0.00     0.016 A 
ATOM      2  C   UNL     1     -36.060  -7.119 -14.244  1.00  0.00     0.047 A 
ATOM      3  C   UNL     1     -36.087  -7.711 -15.512  1.00  0.00     0.119 A 
ATOM      4  C   UNL     1     -36.080  -6.905 -16.661  1.00  0.00     0.094 A 
ATOM      5  C   UNL     1     -36.045  -5.512 -16.541  1.00  0.00     0.142 A 
ATOM      6  C   UNL     1     -36.017  -4.919 -15.260  1.00  0.00     0.018 A 
ATOM      7  C   UNL     1     -35.982  -3.523 -15.171  1.00  0.00     0.019 A 
ATOM      8  C   UNL     1     -35.976  -2.764 -16.342  1.00  0.00     0.094 A 
ATOM      9  C   UNL     1     -36.006  -3.420 -17.576  1.00  0.00     0.336 A 
ATOM     10  O   UNL     1     -36.000  -2.753 -18.643  1.00  0.00    -0.246 OA
ATOM     11  O   UNL     1     -36.038  -4.749 -17.632  1.00  0.00    -0.423 OA
ENDROOT
BRANCH   3  12
ATOM     12  O   UNL     1     -36.123  -9.099 -15.622  1.00  0.00    -0.508 OA
ATOM     13  H   UNL     1     -35.309  -9.668 -15.421  1.00  0.00     0.293 HD
ENDBRANCH   3  12
TORSDOF 1
ENDMDL
MODEL 8
REMARK VINA RESULT:    -5.200      4.104      5.924
REMARK INTER + INTRA:          -5.352
REMARK INTER:                  -5.352
REMARK INTRA:                   0.000
REMARK UNBOUND:                 0.000
REMARK SMILES O=c1ccc2ccc(O)cc2o1
REMARK SMILES IDX 6 1 7 2 8 3 10 4 11 5 5 6 4 7 3 8 2 9 1 10 12 11 9 12
REMARK H PARENT 9 13
REMARK Flexibility Score: inf
ROOT
ATOM      1  C   UNL     1     -35.732  -3.244 -16.407  1.00  0.00     0.016 A 
ATOM      2  C   UNL     1     -35.606  -2.743 -17.708  1.00  0.00     0.047 A 
ATOM      3  C   UNL     1     -35.659  -3.607 -18.807  1.00  0.00     0.119 A 
ATOM      4  C   UNL     1     -35.838  -4.984 -18.607  1.00  0.00     0.094 A 
ATOM      5  C   UNL     1     -35.965  -5.495 -17.311  1.00  0.00     0.142 A 
ATOM      6  C   UNL     1     -35.911  -4.619 -16.204  1.00  0.00     0.018 A 
ATOM      7  C   UNL     1     -36.041  -5.159 -14.920  1.00  0.00     0.019 A 
ATOM      8  C   UNL     1     -36.218  -6.535 -14.771  1.00  0.00     0.094 A 
ATOM      9  C   UNL     1     -36.261  -7.341 -15.914  1.00  0.00     0.336 A 
ATOM     10  O   UNL     1     -36.420  -8.584 -15.800  1.00  0.00    -0.246 OA
ATOM     11  O   UNL     1     -36.135  -6.801 -17.123  1.00  0.00    -0.423 OA
ENDROOT
BRANCH   3  12
ATOM     12  O   UNL     1     -35.531  -3.089 -20.094  1.00  0.00    -0.508 OA
ATOM     13  H   UNL     1     -35.602  -2.095 -20.275  1.00  0.00     0.293 HD
ENDBRANCH   3  12
TORSDOF 1
ENDMDL
