MODEL 1
REMARK VINA RESULT:    -5.416      0.000      0.000
REMARK INTER + INTRA:          -6.354
REMARK INTER:                  -6.525
REMARK INTRA:                   0.171
REMARK UNBOUND:                 0.171
REMARK SMILES O=c1c(O)c(-c2ccc(O)c(O)c2)oc2cc(O)cc(O)c12
REMARK SMILES IDX 5 1 3 2 2 3 1 4 22 5 20 6 19 7 17 8 16 9 15 10 14 11 6 12
REMARK SMILES IDX 7 13 8 14 9 15 13 16 11 17 10 18 12 20 4 22 21 24 18 26
REMARK H PARENT 10 19 12 21 4 23 21 25 18 27
REMARK Flexibility Score: inf
ROOT
ATOM      1  C   UNL     1     148.159 153.047 157.711  1.00  0.00     0.180 A 
ATOM      2  C   UNL     1     147.018 153.845 157.920  1.00  0.00     0.208 A 
ATOM      3  C   UNL     1     147.163 155.241 157.949  1.00  0.00     0.238 A 
ATOM      4  O   UNL     1     146.147 155.967 158.124  1.00  0.00    -0.285 OA
ATOM      5  C   UNL     1     148.442 155.812 157.790  1.00  0.00     0.111 A 
ATOM      6  C   UNL     1     148.675 157.209 157.809  1.00  0.00     0.134 A 
ATOM      7  C   UNL     1     149.980 157.699 157.652  1.00  0.00     0.093 A 
ATOM      8  C   UNL     1     151.055 156.820 157.478  1.00  0.00     0.123 A 
ATOM      9  C   UNL     1     150.830 155.443 157.456  1.00  0.00     0.094 A 
ATOM     10  C   UNL     1     149.536 154.934 157.609  1.00  0.00     0.146 A 
ATOM     11  O   UNL     1     149.351 153.619 157.580  1.00  0.00    -0.452 OA
ENDROOT
BRANCH   1  12
ATOM     12  C   UNL     1     148.084 151.568 157.649  1.00  0.00     0.025 A 
ATOM     13  C   UNL     1     149.160 150.802 158.124  1.00  0.00     0.016 A 
ATOM     14  C   UNL     1     149.119 149.408 158.057  1.00  0.00     0.051 A 
ATOM     15  C   UNL     1     148.013 148.758 157.502  1.00  0.00     0.157 A 
ATOM     16  C   UNL     1     146.981 150.914 157.071  1.00  0.00     0.062 A 
ATOM     17  C   UNL     1     146.940 149.514 157.001  1.00  0.00     0.158 A 
BRANCH  15  18
ATOM     18  O   UNL     1     148.000 147.365 157.449  1.00  0.00    -0.504 OA
ATOM     19  H   UNL     1     148.572 146.798 158.062  1.00  0.00     0.293 HD
ENDBRANCH  15  18
BRANCH  17  20
ATOM     20  O   UNL     1     145.840 148.874 156.433  1.00  0.00    -0.504 OA
ATOM     21  H   UNL     1     144.936 149.327 156.370  1.00  0.00     0.293 HD
ENDBRANCH  17  20
ENDBRANCH   1  12
BRANCH   2  22
ATOM     22  O   UNL     1     145.768 153.253 158.124  1.00  0.00    -0.502 OA
ATOM     23  H   UNL     1     145.464 152.437 157.609  1.00  0.00     0.293 HD
ENDBRANCH   2  22
BRANCH   6  24
ATOM     24  O   UNL     1     147.623 158.109 157.983  1.00  0.00    -0.507 OA
ATOM     25  H   UNL     1     147.169 158.557 157.196  1.00  0.00     0.293 HD
ENDBRANCH   6  24
BRANCH   8  26
ATOM     26  O   UNL     1     152.351 157.306 157.323  1.00  0.00    -0.508 OA
ATOM     27  H   UNL     1     152.543 158.142 156.783  1.00  0.00     0.293 HD
ENDBRANCH   8  26
TORSDOF 6
ENDMDL
MODEL 2
REMARK VINA RESULT:    -3.772      1.004      1.167
REMARK INTER + INTRA:          -4.373
REMARK INTER:                  -4.558
REMARK INTRA:                   0.185
REMARK UNBOUND:                 0.171
REMARK SMILES O=c1c(O)c(-c2ccc(O)c(O)c2)oc2cc(O)cc(O)c12
REMARK SMILES IDX 5 1 3 2 2 3 1 4 22 5 20 6 19 7 17 8 16 9 15 10 14 11 6 12
REMARK SMILES IDX 7 13 8 14 9 15 13 16 11 17 10 18 12 20 4 22 21 24 18 26
REMARK H PARENT 10 19 12 21 4 23 21 25 18 27
REMARK Flexibility Score: inf
ROOT
ATOM      1  C   UNL     1     147.835 152.028 157.682  1.00  0.00     0.180 A 
ATOM      2  C   UNL     1     146.608 152.714 157.752  1.00  0.00     0.208 A 
ATOM      3  C   UNL     1     146.618 154.113 157.865  1.00  0.00     0.238 A 
ATOM      4  O   UNL     1     145.525 154.740 157.918  1.00  0.00    -0.285 OA
ATOM      5  C   UNL     1     147.849 154.798 157.927  1.00  0.00     0.111 A 
ATOM      6  C   UNL     1     147.947 156.205 158.045  1.00  0.00     0.134 A 
ATOM      7  C   UNL     1     149.211 156.812 158.109  1.00  0.00     0.093 A 
ATOM      8  C   UNL     1     150.375 156.037 158.059  1.00  0.00     0.123 A 
ATOM      9  C   UNL     1     150.284 154.650 157.942  1.00  0.00     0.094 A 
ATOM     10  C   UNL     1     149.034 154.027 157.874  1.00  0.00     0.146 A 
ATOM     11  O   UNL     1     148.976 152.705 157.758  1.00  0.00    -0.452 OA
ENDROOT
BRANCH   1  12
ATOM     12  C   UNL     1     147.906 150.554 157.543  1.00  0.00     0.025 A 
ATOM     13  C   UNL     1     148.976 149.857 158.125  1.00  0.00     0.016 A 
ATOM     14  C   UNL     1     149.073 148.471 157.989  1.00  0.00     0.051 A 
ATOM     15  C   UNL     1     148.115 147.761 157.258  1.00  0.00     0.157 A 
ATOM     16  C   UNL     1     146.955 149.843 156.790  1.00  0.00     0.062 A 
ATOM     17  C   UNL     1     147.052 148.451 156.650  1.00  0.00     0.158 A 
BRANCH  15  18
ATOM     18  O   UNL     1     148.238 146.377 157.140  1.00  0.00    -0.504 OA
ATOM     19  H   UNL     1     148.526 145.935 156.277  1.00  0.00     0.293 HD
ENDBRANCH  15  18
BRANCH  17  20
ATOM     20  O   UNL     1     146.101 147.753 155.908  1.00  0.00    -0.504 OA
ATOM     21  H   UNL     1     145.969 147.926 154.918  1.00  0.00     0.293 HD
ENDBRANCH  17  20
ENDBRANCH   1  12
BRANCH   2  22
ATOM     22  O   UNL     1     145.401 152.008 157.738  1.00  0.00    -0.502 OA
ATOM     23  H   UNL     1     144.642 152.219 158.373  1.00  0.00     0.293 HD
ENDBRANCH   2  22
BRANCH   6  24
ATOM     24  O   UNL     1     146.803 157.003 158.098  1.00  0.00    -0.507 OA
ATOM     25  H   UNL     1     146.437 157.351 158.976  1.00  0.00     0.293 HD
ENDBRANCH   6  24
BRANCH   8  26
ATOM     26  O   UNL     1     151.631 156.639 158.125  1.00  0.00    -0.508 OA
ATOM     27  H   UNL     1     152.437 156.235 157.663  1.00  0.00     0.293 HD
ENDBRANCH   8  26
TORSDOF 6
ENDMDL
MODEL 3
REMARK VINA RESULT:    -3.155      3.941      6.855
REMARK INTER + INTRA:          -3.629
REMARK INTER:                  -3.989
REMARK INTRA:                   0.360
REMARK UNBOUND:                 0.171
REMARK SMILES O=c1c(O)c(-c2ccc(O)c(O)c2)oc2cc(O)cc(O)c12
REMARK SMILES IDX 5 1 3 2 2 3 1 4 22 5 20 6 19 7 17 8 16 9 15 10 14 11 6 12
REMARK SMILES IDX 7 13 8 14 9 15 13 16 11 17 10 18 12 20 4 22 21 24 18 26
REMARK H PARENT 10 19 12 21 4 23 21 25 18 27
REMARK Flexibility Score: inf
ROOT
ATOM      1  C   UNL     1     147.446 146.383 157.480  1.00  0.00     0.180 A 
ATOM      2  C   UNL     1     146.261 147.042 157.098  1.00  0.00     0.208 A 
ATOM      3  C   UNL     1     146.274 148.439 156.966  1.00  0.00     0.238 A 
ATOM      4  O   UNL     1     145.223 149.040 156.614  1.00  0.00    -0.285 OA
ATOM      5  C   UNL     1     147.459 149.154 157.238  1.00  0.00     0.111 A 
ATOM      6  C   UNL     1     147.556 150.563 157.133  1.00  0.00     0.134 A 
ATOM      7  C   UNL     1     148.769 151.201 157.429  1.00  0.00     0.093 A 
ATOM      8  C   UNL     1     149.886 150.458 157.829  1.00  0.00     0.123 A 
ATOM      9  C   UNL     1     149.796 149.069 157.933  1.00  0.00     0.094 A 
ATOM     10  C   UNL     1     148.596 148.414 157.640  1.00  0.00     0.146 A 
ATOM     11  O   UNL     1     148.540 147.091 157.742  1.00  0.00    -0.452 OA
ENDROOT
BRANCH   1  12
ATOM     12  C   UNL     1     147.516 144.910 157.622  1.00  0.00     0.025 A 
ATOM     13  C   UNL     1     146.357 144.194 157.960  1.00  0.00     0.016 A 
ATOM     14  C   UNL     1     146.404 142.808 158.119  1.00  0.00     0.051 A 
ATOM     15  C   UNL     1     147.609 142.117 157.959  1.00  0.00     0.157 A 
ATOM     16  C   UNL     1     148.731 144.218 157.482  1.00  0.00     0.062 A 
ATOM     17  C   UNL     1     148.781 142.825 157.644  1.00  0.00     0.158 A 
BRANCH  15  18
ATOM     18  O   UNL     1     147.626 140.732 158.123  1.00  0.00    -0.504 OA
ATOM     19  H   UNL     1     147.471 140.296 159.023  1.00  0.00     0.293 HD
ENDBRANCH  15  18
BRANCH  17  20
ATOM     20  O   UNL     1     149.989 142.146 157.496  1.00  0.00    -0.504 OA
ATOM     21  H   UNL     1     150.842 142.630 157.241  1.00  0.00     0.293 HD
ENDBRANCH  17  20
ENDBRANCH   1  12
BRANCH   2  22
ATOM     22  O   UNL     1     145.086 146.316 156.882  1.00  0.00    -0.502 OA
ATOM     23  H   UNL     1     145.021 145.585 156.185  1.00  0.00     0.293 HD
ENDBRANCH   2  22
BRANCH   6  24
ATOM     24  O   UNL     1     146.459 151.330 156.738  1.00  0.00    -0.507 OA
ATOM     25  H   UNL     1     145.561 151.255 157.202  1.00  0.00     0.293 HD
ENDBRANCH   6  24
BRANCH   8  26
ATOM     26  O   UNL     1     151.091 151.091 158.125  1.00  0.00    -0.508 OA
ATOM     27  H   UNL     1     151.159 151.781 158.864  1.00  0.00     0.293 HD
ENDBRANCH   8  26
TORSDOF 6
ENDMDL
MODEL 4
REMARK VINA RESULT:    -3.114      5.732     11.785
REMARK INTER + INTRA:          -3.580
REMARK INTER:                  -3.992
REMARK INTRA:                   0.412
REMARK UNBOUND:                 0.171
REMARK SMILES O=c1c(O)c(-c2ccc(O)c(O)c2)oc2cc(O)cc(O)c12
REMARK SMILES IDX 5 1 3 2 2 3 1 4 22 5 20 6 19 7 17 8 16 9 15 10 14 11 6 12
REMARK SMILES IDX 7 13 8 14 9 15 13 16 11 17 10 18 12 20 4 22 21 24 18 26
REMARK H PARENT 10 19 12 21 4 23 21 25 18 27
REMARK Flexibility Score: inf
ROOT
ATOM      1  C   UNL     1     147.363 144.650 157.435  1.00  0.00     0.180 A 
ATOM      2  C   UNL     1     148.637 144.052 157.487  1.00  0.00     0.208 A 
ATOM      3  C   UNL     1     148.727 142.660 157.639  1.00  0.00     0.238 A 
ATOM      4  O   UNL     1     149.861 142.111 157.676  1.00  0.00    -0.285 OA
ATOM      5  C   UNL     1     147.548 141.894 157.759  1.00  0.00     0.111 A 
ATOM      6  C   UNL     1     147.551 140.488 157.919  1.00  0.00     0.134 A 
ATOM      7  C   UNL     1     146.335 139.798 158.039  1.00  0.00     0.093 A 
ATOM      8  C   UNL     1     145.119 140.489 158.004  1.00  0.00     0.123 A 
ATOM      9  C   UNL     1     145.111 141.875 157.844  1.00  0.00     0.094 A 
ATOM     10  C   UNL     1     146.312 142.580 157.721  1.00  0.00     0.146 A 
ATOM     11  O   UNL     1     146.274 143.899 157.565  1.00  0.00    -0.452 OA
ENDROOT
BRANCH   1  12
ATOM     12  C   UNL     1     147.186 146.110 157.257  1.00  0.00     0.025 A 
ATOM     13  C   UNL     1     145.949 146.608 156.819  1.00  0.00     0.016 A 
ATOM     14  C   UNL     1     145.766 147.978 156.624  1.00  0.00     0.051 A 
ATOM     15  C   UNL     1     146.819 148.871 156.848  1.00  0.00     0.157 A 
ATOM     16  C   UNL     1     148.250 147.007 157.460  1.00  0.00     0.062 A 
ATOM     17  C   UNL     1     148.069 148.384 157.263  1.00  0.00     0.158 A 
BRANCH  15  18
ATOM     18  O   UNL     1     146.607 150.235 156.646  1.00  0.00    -0.504 OA
ATOM     19  H   UNL     1     147.243 150.936 157.003  1.00  0.00     0.293 HD
ENDBRANCH  15  18
BRANCH  17  20
ATOM     20  O   UNL     1     149.128 149.267 157.474  1.00  0.00    -0.504 OA
ATOM     21  H   UNL     1     149.812 149.457 156.752  1.00  0.00     0.293 HD
ENDBRANCH  17  20
ENDBRANCH   1  12
BRANCH   2  22
ATOM     22  O   UNL     1     149.790 144.838 157.415  1.00  0.00    -0.502 OA
ATOM     23  H   UNL     1     150.479 144.726 156.683  1.00  0.00     0.293 HD
ENDBRANCH   2  22
BRANCH   6  24
ATOM     24  O   UNL     1     148.749 139.772 157.959  1.00  0.00    -0.507 OA
ATOM     25  H   UNL     1     149.264 139.547 157.116  1.00  0.00     0.293 HD
ENDBRANCH   6  24
BRANCH   8  26
ATOM     26  O   UNL     1     143.911 139.805 158.125  1.00  0.00    -0.508 OA
ATOM     27  H   UNL     1     143.742 139.159 158.887  1.00  0.00     0.293 HD
ENDBRANCH   8  26
TORSDOF 6
ENDMDL
MODEL 5
REMARK VINA RESULT:    -2.516      4.332     10.111
REMARK INTER + INTRA:          -2.860
REMARK INTER:                  -3.188
REMARK INTRA:                   0.328
REMARK UNBOUND:                 0.171
REMARK SMILES O=c1c(O)c(-c2ccc(O)c(O)c2)oc2cc(O)cc(O)c12
REMARK SMILES IDX 5 1 3 2 2 3 1 4 22 5 20 6 19 7 17 8 16 9 15 10 14 11 6 12
REMARK SMILES IDX 7 13 8 14 9 15 13 16 11 17 10 18 12 20 4 22 21 24 18 26
REMARK H PARENT 10 19 12 21 4 23 21 25 18 27
REMARK Flexibility Score: inf
ROOT
ATOM      1  C   UNL     1     146.974 146.326 157.734  1.00  0.00     0.180 A 
ATOM      2  C   UNL     1     145.644 145.875 157.836  1.00  0.00     0.208 A 
ATOM      3  C   UNL     1     145.401 144.495 157.932  1.00  0.00     0.238 A 
ATOM      4  O   UNL     1     144.215 144.079 158.035  1.00  0.00    -0.285 OA
ATOM      5  C   UNL     1     146.484 143.593 157.902  1.00  0.00     0.111 A 
ATOM      6  C   UNL     1     146.326 142.189 157.990  1.00  0.00     0.134 A 
ATOM      7  C   UNL     1     147.454 141.357 157.944  1.00  0.00     0.093 A 
ATOM      8  C   UNL     1     148.736 141.902 157.812  1.00  0.00     0.123 A 
ATOM      9  C   UNL     1     148.898 143.285 157.727  1.00  0.00     0.094 A 
ATOM     10  C   UNL     1     147.785 144.132 157.773  1.00  0.00     0.146 A 
ATOM     11  O   UNL     1     147.969 145.445 157.694  1.00  0.00    -0.452 OA
ENDROOT
BRANCH   1  12
ATOM     12  C   UNL     1     147.312 147.765 157.649  1.00  0.00     0.025 A 
ATOM     13  C   UNL     1     148.555 148.212 158.123  1.00  0.00     0.016 A 
ATOM     14  C   UNL     1     148.886 149.567 158.071  1.00  0.00     0.051 A 
ATOM     15  C   UNL     1     147.977 150.500 157.561  1.00  0.00     0.157 A 
ATOM     16  C   UNL     1     146.390 148.706 157.156  1.00  0.00     0.062 A 
ATOM     17  C   UNL     1     146.720 150.069 157.105  1.00  0.00     0.158 A 
BRANCH  15  18
ATOM     18  O   UNL     1     148.336 151.846 157.521  1.00  0.00    -0.504 OA
ATOM     19  H   UNL     1     147.646 152.587 157.534  1.00  0.00     0.293 HD
ENDBRANCH  15  18
BRANCH  17  20
ATOM     20  O   UNL     1     145.803 150.993 156.609  1.00  0.00    -0.504 OA
ATOM     21  H   UNL     1     146.098 151.791 156.059  1.00  0.00     0.293 HD
ENDBRANCH  17  20
ENDBRANCH   1  12
BRANCH   2  22
ATOM     22  O   UNL     1     144.585 146.786 157.814  1.00  0.00    -0.502 OA
ATOM     23  H   UNL     1     144.466 147.461 157.070  1.00  0.00     0.293 HD
ENDBRANCH   2  22
BRANCH   6  24
ATOM     24  O   UNL     1     145.059 141.617 158.120  1.00  0.00    -0.507 OA
ATOM     25  H   UNL     1     144.827 140.732 157.684  1.00  0.00     0.293 HD
ENDBRANCH   6  24
BRANCH   8  26
ATOM     26  O   UNL     1     149.857 141.076 157.766  1.00  0.00    -0.508 OA
ATOM     27  H   UNL     1     150.102 140.471 158.541  1.00  0.00     0.293 HD
ENDBRANCH   8  26
TORSDOF 6
ENDMDL
