MODEL 1
REMARK VINA RESULT:    -6.251      0.000      0.000
REMARK INTER + INTRA:         -16.381
REMARK INTER:                 -13.560
REMARK INTRA:                  -2.821
REMARK UNBOUND:                -2.821
REMARK SMILES CCCCCCCCCCCCCCCCCCCCCC(=O)[O-]
REMARK SMILES IDX 12 1 11 2 10 3 9 4 8 5 7 6 6 7 5 8 4 9 3 10 2 11 1 12 13 13
REMARK SMILES IDX 14 14 15 15 16 16 17 17 18 18 19 19 20 20 21 21 22 22 23 23
REMARK SMILES IDX 24 24
REMARK H PARENT
REMARK Flexibility Score: inf
ROOT
ATOM      1  C   UNL     1       9.450  19.847  44.007  1.00  0.00     0.000 C 
ENDROOT
BRANCH   1   2
ATOM      2  C   UNL     1       9.846  20.846  45.105  1.00  0.00     0.000 C 
BRANCH   2   3
ATOM      3  C   UNL     1       8.631  21.457  45.821  1.00  0.00     0.000 C 
BRANCH   3   4
ATOM      4  C   UNL     1       7.329  20.688  45.539  1.00  0.00    -0.000 C 
BRANCH   4   5
ATOM      5  C   UNL     1       6.085  21.589  45.624  1.00  0.00    -0.000 C 
BRANCH   5   6
ATOM      6  C   UNL     1       5.111  21.356  44.454  1.00  0.00    -0.000 C 
BRANCH   6   7
ATOM      7  C   UNL     1       5.520  20.167  43.570  1.00  0.00    -0.000 C 
BRANCH   7   8
ATOM      8  C   UNL     1       5.894  20.592  42.140  1.00  0.00    -0.000 C 
BRANCH   8   9
ATOM      9  C   UNL     1       6.232  22.090  42.031  1.00  0.00    -0.000 C 
BRANCH   9  10
ATOM     10  C   UNL     1       7.738  22.424  42.019  1.00  0.00    -0.000 C 
BRANCH  10  11
ATOM     11  C   UNL     1       8.122  23.727  42.740  1.00  0.00    -0.003 C 
ATOM     12  C   UNL     1       6.920  24.444  43.355  1.00  0.00     0.004 C 
ENDBRANCH  10  11
ENDBRANCH   9  10
ENDBRANCH   8   9
ENDBRANCH   7   8
ENDBRANCH   6   7
ENDBRANCH   5   6
ENDBRANCH   4   5
ENDBRANCH   3   4
ENDBRANCH   2   3
ENDBRANCH   1   2
BRANCH   1  13
ATOM     13  C   UNL     1       9.903  18.425  44.373  1.00  0.00     0.000 C 
BRANCH  13  14
ATOM     14  C   UNL     1      11.061  18.404  45.388  1.00  0.00     0.000 C 
BRANCH  14  15
ATOM     15  C   UNL     1      11.898  17.111  45.401  1.00  0.00     0.000 C 
BRANCH  15  16
ATOM     16  C   UNL     1      13.332  17.331  45.913  1.00  0.00     0.000 C 
BRANCH  16  17
ATOM     17  C   UNL     1      13.690  16.432  47.111  1.00  0.00     0.000 C 
BRANCH  17  18
ATOM     18  C   UNL     1      15.065  15.744  47.036  1.00  0.00     0.000 C 
BRANCH  18  19
ATOM     19  C   UNL     1      14.978  14.211  47.133  1.00  0.00     0.000 C 
BRANCH  19  20
ATOM     20  C   UNL     1      14.029  13.603  46.083  1.00  0.00     0.006 C 
BRANCH  20  21
ATOM     21  C   UNL     1      14.679  13.363  44.709  1.00  0.00     0.053 C 
BRANCH  21  22
ATOM     22  C   UNL     1      14.306  14.421  43.716  1.00  0.00     0.041 C 
ATOM     23  O   UNL     1      15.145  15.297  43.378  1.00  0.00    -0.550 OA
ATOM     24  O   UNL     1      13.022  14.456  43.188  1.00  0.00    -0.550 OA
ENDBRANCH  21  22
ENDBRANCH  20  21
ENDBRANCH  19  20
ENDBRANCH  18  19
ENDBRANCH  17  18
ENDBRANCH  16  17
ENDBRANCH  15  16
ENDBRANCH  14  15
ENDBRANCH  13  14
ENDBRANCH   1  13
TORSDOF 20
ENDMDL
MODEL 2
REMARK VINA RESULT:    -6.197      8.340     14.325
REMARK INTER + INTRA:         -16.263
REMARK INTER:                 -13.696
REMARK INTRA:                  -2.568
REMARK UNBOUND:                -2.821
REMARK SMILES CCCCCCCCCCCCCCCCCCCCCC(=O)[O-]
REMARK SMILES IDX 12 1 11 2 10 3 9 4 8 5 7 6 6 7 5 8 4 9 3 10 2 11 1 12 13 13
REMARK SMILES IDX 14 14 15 15 16 16 17 17 18 18 19 19 20 20 21 21 22 22 23 23
REMARK SMILES IDX 24 24
REMARK H PARENT
REMARK Flexibility Score: inf
ROOT
ATOM      1  C   UNL     1       2.655  25.353  43.998  1.00  0.00     0.000 C 
ENDROOT
BRANCH   1   2
ATOM      2  C   UNL     1       3.536  24.102  43.851  1.00  0.00     0.000 C 
BRANCH   2   3
ATOM      3  C   UNL     1       4.482  23.896  45.044  1.00  0.00     0.000 C 
BRANCH   3   4
ATOM      4  C   UNL     1       4.813  22.413  45.288  1.00  0.00    -0.000 C 
BRANCH   4   5
ATOM      5  C   UNL     1       4.425  21.521  44.097  1.00  0.00    -0.000 C 
BRANCH   5   6
ATOM      6  C   UNL     1       5.542  20.532  43.716  1.00  0.00    -0.000 C 
BRANCH   6   7
ATOM      7  C   UNL     1       5.947  20.636  42.236  1.00  0.00    -0.000 C 
BRANCH   7   8
ATOM      8  C   UNL     1       6.243  22.081  41.803  1.00  0.00    -0.000 C 
BRANCH   8   9
ATOM      9  C   UNL     1       7.679  22.523  42.141  1.00  0.00    -0.000 C 
BRANCH   9  10
ATOM     10  C   UNL     1       7.790  23.840  42.938  1.00  0.00    -0.000 C 
BRANCH  10  11
ATOM     11  C   UNL     1       8.172  23.674  44.419  1.00  0.00    -0.003 C 
ATOM     12  C   UNL     1       8.761  22.299  44.732  1.00  0.00     0.004 C 
ENDBRANCH  10  11
ENDBRANCH   9  10
ENDBRANCH   8   9
ENDBRANCH   7   8
ENDBRANCH   6   7
ENDBRANCH   5   6
ENDBRANCH   4   5
ENDBRANCH   3   4
ENDBRANCH   2   3
ENDBRANCH   1   2
BRANCH   1  13
ATOM     13  C   UNL     1       2.964  26.372  42.891  1.00  0.00     0.000 C 
BRANCH  13  14
ATOM     14  C   UNL     1       1.888  27.466  42.760  1.00  0.00     0.000 C 
BRANCH  14  15
ATOM     15  C   UNL     1       0.470  27.047  43.192  1.00  0.00     0.000 C 
BRANCH  15  16
ATOM     16  C   UNL     1      -0.149  28.005  44.225  1.00  0.00     0.000 C 
BRANCH  16  17
ATOM     17  C   UNL     1      -1.673  28.155  44.070  1.00  0.00     0.000 C 
BRANCH  17  18
ATOM     18  C   UNL     1      -2.261  29.493  44.555  1.00  0.00     0.000 C 
BRANCH  18  19
ATOM     19  C   UNL     1      -1.668  30.711  43.825  1.00  0.00     0.000 C 
BRANCH  19  20
ATOM     20  C   UNL     1      -2.177  30.841  42.377  1.00  0.00     0.006 C 
BRANCH  20  21
ATOM     21  C   UNL     1      -1.075  31.125  41.343  1.00  0.00     0.053 C 
BRANCH  21  22
ATOM     22  C   UNL     1      -0.576  29.871  40.692  1.00  0.00     0.041 C 
ATOM     23  O   UNL     1      -1.327  28.865  40.593  1.00  0.00    -0.550 OA
ATOM     24  O   UNL     1       0.730  29.805  40.223  1.00  0.00    -0.550 OA
ENDBRANCH  21  22
ENDBRANCH  20  21
ENDBRANCH  19  20
ENDBRANCH  18  19
ENDBRANCH  17  18
ENDBRANCH  16  17
ENDBRANCH  15  16
ENDBRANCH  14  15
ENDBRANCH  13  14
ENDBRANCH   1  13
TORSDOF 20
ENDMDL
MODEL 3
REMARK VINA RESULT:    -6.153      8.631     14.763
REMARK INTER + INTRA:         -16.169
REMARK INTER:                 -13.493
REMARK INTRA:                  -2.676
REMARK UNBOUND:                -2.821
REMARK SMILES CCCCCCCCCCCCCCCCCCCCCC(=O)[O-]
REMARK SMILES IDX 12 1 11 2 10 3 9 4 8 5 7 6 6 7 5 8 4 9 3 10 2 11 1 12 13 13
REMARK SMILES IDX 14 14 15 15 16 16 17 17 18 18 19 19 20 20 21 21 22 22 23 23
REMARK SMILES IDX 24 24
REMARK H PARENT
REMARK Flexibility Score: inf
ROOT
ATOM      1  C   UNL     1       2.192  25.844  43.750  1.00  0.00     0.000 C 
ENDROOT
BRANCH   1   2
ATOM      2  C   UNL     1       3.444  26.183  42.925  1.00  0.00     0.000 C 
BRANCH   2   3
ATOM      3  C   UNL     1       4.675  25.365  43.348  1.00  0.00     0.000 C 
BRANCH   3   4
ATOM      4  C   UNL     1       4.521  24.744  44.747  1.00  0.00    -0.000 C 
BRANCH   4   5
ATOM      5  C   UNL     1       4.534  23.206  44.712  1.00  0.00    -0.000 C 
BRANCH   5   6
ATOM      6  C   UNL     1       5.632  22.608  45.610  1.00  0.00    -0.000 C 
BRANCH   6   7
ATOM      7  C   UNL     1       6.321  23.665  46.488  1.00  0.00    -0.000 C 
BRANCH   7   8
ATOM      8  C   UNL     1       7.855  23.608  46.393  1.00  0.00    -0.000 C 
BRANCH   8   9
ATOM      9  C   UNL     1       8.351  23.205  44.992  1.00  0.00    -0.000 C 
BRANCH   9  10
ATOM     10  C   UNL     1       8.456  24.361  43.975  1.00  0.00    -0.000 C 
BRANCH  10  11
ATOM     11  C   UNL     1       7.784  24.096  42.617  1.00  0.00    -0.003 C 
ATOM     12  C   UNL     1       7.599  22.607  42.324  1.00  0.00     0.004 C 
ENDBRANCH  10  11
ENDBRANCH   9  10
ENDBRANCH   8   9
ENDBRANCH   7   8
ENDBRANCH   6   7
ENDBRANCH   5   6
ENDBRANCH   4   5
ENDBRANCH   3   4
ENDBRANCH   2   3
ENDBRANCH   1   2
BRANCH   1  13
ATOM     13  C   UNL     1       1.184  27.002  43.711  1.00  0.00     0.000 C 
BRANCH  13  14
ATOM     14  C   UNL     1       1.392  27.945  42.512  1.00  0.00     0.000 C 
BRANCH  14  15
ATOM     15  C   UNL     1       0.415  27.742  41.339  1.00  0.00     0.000 C 
BRANCH  15  16
ATOM     16  C   UNL     1       0.140  29.038  40.557  1.00  0.00     0.000 C 
BRANCH  16  17
ATOM     17  C   UNL     1       0.393  30.310  41.388  1.00  0.00     0.000 C 
BRANCH  17  18
ATOM     18  C   UNL     1      -0.846  31.184  41.656  1.00  0.00     0.000 C 
BRANCH  18  19
ATOM     19  C   UNL     1      -2.164  30.394  41.602  1.00  0.00     0.000 C 
BRANCH  19  20
ATOM     20  C   UNL     1      -2.751  30.124  43.000  1.00  0.00     0.006 C 
BRANCH  20  21
ATOM     21  C   UNL     1      -2.171  28.884  43.700  1.00  0.00     0.053 C 
BRANCH  21  22
ATOM     22  C   UNL     1      -1.441  29.237  44.960  1.00  0.00     0.041 C 
ATOM     23  O   UNL     1      -1.347  28.398  45.895  1.00  0.00    -0.550 OA
ATOM     24  O   UNL     1      -0.890  30.503  45.112  1.00  0.00    -0.550 OA
ENDBRANCH  21  22
ENDBRANCH  20  21
ENDBRANCH  19  20
ENDBRANCH  18  19
ENDBRANCH  17  18
ENDBRANCH  16  17
ENDBRANCH  15  16
ENDBRANCH  14  15
ENDBRANCH  13  14
ENDBRANCH   1  13
TORSDOF 20
ENDMDL
MODEL 4
REMARK VINA RESULT:    -6.152      8.492     14.491
REMARK INTER + INTRA:         -16.166
REMARK INTER:                 -13.300
REMARK INTRA:                  -2.866
REMARK UNBOUND:                -2.821
REMARK SMILES CCCCCCCCCCCCCCCCCCCCCC(=O)[O-]
REMARK SMILES IDX 12 1 11 2 10 3 9 4 8 5 7 6 6 7 5 8 4 9 3 10 2 11 1 12 13 13
REMARK SMILES IDX 14 14 15 15 16 16 17 17 18 18 19 19 20 20 21 21 22 22 23 23
REMARK SMILES IDX 24 24
REMARK H PARENT
REMARK Flexibility Score: inf
ROOT
ATOM      1  C   UNL     1       3.375  26.297  42.891  1.00  0.00     0.000 C 
ENDROOT
BRANCH   1   2
ATOM      2  C   UNL     1       4.368  25.165  43.195  1.00  0.00     0.000 C 
BRANCH   2   3
ATOM      3  C   UNL     1       3.946  24.311  44.402  1.00  0.00     0.000 C 
BRANCH   3   4
ATOM      4  C   UNL     1       3.977  22.803  44.099  1.00  0.00    -0.000 C 
BRANCH   4   5
ATOM      5  C   UNL     1       4.491  21.975  45.289  1.00  0.00    -0.000 C 
BRANCH   5   6
ATOM      6  C   UNL     1       5.393  20.808  44.847  1.00  0.00    -0.000 C 
BRANCH   6   7
ATOM      7  C   UNL     1       5.548  20.726  43.319  1.00  0.00    -0.000 C 
BRANCH   7   8
ATOM      8  C   UNL     1       6.977  21.047  42.850  1.00  0.00    -0.000 C 
BRANCH   8   9
ATOM      9  C   UNL     1       7.073  22.390  42.102  1.00  0.00    -0.000 C 
BRANCH   9  10
ATOM     10  C   UNL     1       7.741  23.535  42.892  1.00  0.00    -0.000 C 
BRANCH  10  11
ATOM     11  C   UNL     1       8.292  23.139  44.272  1.00  0.00    -0.003 C 
ATOM     12  C   UNL     1       7.593  23.862  45.423  1.00  0.00     0.004 C 
ENDBRANCH  10  11
ENDBRANCH   9  10
ENDBRANCH   8   9
ENDBRANCH   7   8
ENDBRANCH   6   7
ENDBRANCH   5   6
ENDBRANCH   4   5
ENDBRANCH   3   4
ENDBRANCH   2   3
ENDBRANCH   1   2
BRANCH   1  13
ATOM     13  C   UNL     1       2.058  26.088  43.653  1.00  0.00     0.000 C 
BRANCH  13  14
ATOM     14  C   UNL     1       0.973  27.115  43.279  1.00  0.00     0.000 C 
BRANCH  14  15
ATOM     15  C   UNL     1       1.492  28.528  42.955  1.00  0.00     0.000 C 
BRANCH  15  16
ATOM     16  C   UNL     1       0.932  29.083  41.633  1.00  0.00     0.000 C 
BRANCH  16  17
ATOM     17  C   UNL     1      -0.249  28.261  41.086  1.00  0.00     0.000 C 
BRANCH  17  18
ATOM     18  C   UNL     1      -1.535  29.057  40.801  1.00  0.00     0.000 C 
BRANCH  18  19
ATOM     19  C   UNL     1      -1.471  30.508  41.308  1.00  0.00     0.000 C 
BRANCH  19  20
ATOM     20  C   UNL     1      -2.458  30.779  42.458  1.00  0.00     0.006 C 
BRANCH  20  21
ATOM     21  C   UNL     1      -2.807  29.538  43.296  1.00  0.00     0.053 C 
BRANCH  21  22
ATOM     22  C   UNL     1      -1.880  29.364  44.460  1.00  0.00     0.041 C 
ATOM     23  O   UNL     1      -1.886  28.293  45.122  1.00  0.00    -0.550 OA
ATOM     24  O   UNL     1      -1.030  30.399  44.831  1.00  0.00    -0.550 OA
ENDBRANCH  21  22
ENDBRANCH  20  21
ENDBRANCH  19  20
ENDBRANCH  18  19
ENDBRANCH  17  18
ENDBRANCH  16  17
ENDBRANCH  15  16
ENDBRANCH  14  15
ENDBRANCH  13  14
ENDBRANCH   1  13
TORSDOF 20
ENDMDL
MODEL 5
REMARK VINA RESULT:    -6.133      8.345     14.315
REMARK INTER + INTRA:         -16.125
REMARK INTER:                 -13.237
REMARK INTRA:                  -2.888
REMARK UNBOUND:                -2.821
REMARK SMILES CCCCCCCCCCCCCCCCCCCCCC(=O)[O-]
REMARK SMILES IDX 12 1 11 2 10 3 9 4 8 5 7 6 6 7 5 8 4 9 3 10 2 11 1 12 13 13
REMARK SMILES IDX 14 14 15 15 16 16 17 17 18 18 19 19 20 20 21 21 22 22 23 23
REMARK SMILES IDX 24 24
REMARK H PARENT
REMARK Flexibility Score: inf
ROOT
ATOM      1  C   UNL     1       2.512  25.360  43.999  1.00  0.00     0.000 C 
ENDROOT
BRANCH   1   2
ATOM      2  C   UNL     1       3.633  24.311  44.075  1.00  0.00     0.000 C 
BRANCH   2   3
ATOM      3  C   UNL     1       4.363  24.122  42.736  1.00  0.00     0.000 C 
BRANCH   3   4
ATOM      4  C   UNL     1       5.892  24.227  42.875  1.00  0.00    -0.000 C 
BRANCH   4   5
ATOM      5  C   UNL     1       6.333  24.504  44.322  1.00  0.00    -0.000 C 
BRANCH   5   6
ATOM      6  C   UNL     1       7.700  23.875  44.649  1.00  0.00    -0.000 C 
BRANCH   6   7
ATOM      7  C   UNL     1       7.608  22.790  45.736  1.00  0.00    -0.000 C 
BRANCH   7   8
ATOM      8  C   UNL     1       6.252  22.792  46.462  1.00  0.00    -0.000 C 
BRANCH   8   9
ATOM      9  C   UNL     1       5.363  21.598  46.069  1.00  0.00    -0.000 C 
BRANCH   9  10
ATOM     10  C   UNL     1       5.975  20.639  45.026  1.00  0.00    -0.000 C 
BRANCH  10  11
ATOM     11  C   UNL     1       5.226  20.573  43.685  1.00  0.00    -0.003 C 
ATOM     12  C   UNL     1       6.165  20.500  42.481  1.00  0.00     0.004 C 
ENDBRANCH  10  11
ENDBRANCH   9  10
ENDBRANCH   8   9
ENDBRANCH   7   8
ENDBRANCH   6   7
ENDBRANCH   5   6
ENDBRANCH   4   5
ENDBRANCH   3   4
ENDBRANCH   2   3
ENDBRANCH   1   2
BRANCH   1  13
ATOM     13  C   UNL     1       2.877  26.479  43.013  1.00  0.00     0.000 C 
BRANCH  13  14
ATOM     14  C   UNL     1       1.771  27.540  42.867  1.00  0.00     0.000 C 
BRANCH  14  15
ATOM     15  C   UNL     1       0.467  27.238  43.628  1.00  0.00     0.000 C 
BRANCH  15  16
ATOM     16  C   UNL     1       0.251  28.164  44.838  1.00  0.00     0.000 C 
BRANCH  16  17
ATOM     17  C   UNL     1      -1.229  28.289  45.245  1.00  0.00     0.000 C 
BRANCH  17  18
ATOM     18  C   UNL     1      -2.036  29.362  44.490  1.00  0.00     0.000 C 
BRANCH  18  19
ATOM     19  C   UNL     1      -1.200  30.603  44.131  1.00  0.00     0.000 C 
BRANCH  19  20
ATOM     20  C   UNL     1      -1.343  31.007  42.652  1.00  0.00     0.006 C 
BRANCH  20  21
ATOM     21  C   UNL     1      -0.140  30.622  41.774  1.00  0.00     0.053 C 
BRANCH  21  22
ATOM     22  C   UNL     1      -0.479  29.539  40.796  1.00  0.00     0.041 C 
ATOM     23  O   UNL     1      -1.606  28.979  40.835  1.00  0.00    -0.550 OA
ATOM     24  O   UNL     1       0.463  29.128  39.861  1.00  0.00    -0.550 OA
ENDBRANCH  21  22
ENDBRANCH  20  21
ENDBRANCH  19  20
ENDBRANCH  18  19
ENDBRANCH  17  18
ENDBRANCH  16  17
ENDBRANCH  15  16
ENDBRANCH  14  15
ENDBRANCH  13  14
ENDBRANCH   1  13
TORSDOF 20
ENDMDL
MODEL 6
REMARK VINA RESULT:    -6.123      8.193     14.381
REMARK INTER + INTRA:         -16.103
REMARK INTER:                 -13.532
REMARK INTRA:                  -2.571
REMARK UNBOUND:                -2.821
REMARK SMILES CCCCCCCCCCCCCCCCCCCCCC(=O)[O-]
REMARK SMILES IDX 12 1 11 2 10 3 9 4 8 5 7 6 6 7 5 8 4 9 3 10 2 11 1 12 13 13
REMARK SMILES IDX 14 14 15 15 16 16 17 17 18 18 19 19 20 20 21 21 22 22 23 23
REMARK SMILES IDX 24 24
REMARK H PARENT
REMARK Flexibility Score: inf
ROOT
ATOM      1  C   UNL     1       3.925  26.128  43.077  1.00  0.00     0.000 C 
ENDROOT
BRANCH   1   2
ATOM      2  C   UNL     1       5.182  25.456  43.651  1.00  0.00     0.000 C 
BRANCH   2   3
ATOM      3  C   UNL     1       5.491  24.105  42.986  1.00  0.00     0.000 C 
BRANCH   3   4
ATOM      4  C   UNL     1       6.999  23.875  42.784  1.00  0.00    -0.000 C 
BRANCH   4   5
ATOM      5  C   UNL     1       7.837  24.407  43.959  1.00  0.00    -0.000 C 
BRANCH   5   6
ATOM      6  C   UNL     1       8.257  23.292  44.934  1.00  0.00    -0.000 C 
BRANCH   6   7
ATOM      7  C   UNL     1       7.706  23.508  46.353  1.00  0.00    -0.000 C 
BRANCH   7   8
ATOM      8  C   UNL     1       6.357  22.806  46.579  1.00  0.00    -0.000 C 
BRANCH   8   9
ATOM      9  C   UNL     1       6.311  21.392  45.972  1.00  0.00    -0.000 C 
BRANCH   9  10
ATOM     10  C   UNL     1       5.135  21.129  45.008  1.00  0.00    -0.000 C 
BRANCH  10  11
ATOM     11  C   UNL     1       5.448  20.171  43.846  1.00  0.00    -0.003 C 
ATOM     12  C   UNL     1       6.916  20.208  43.421  1.00  0.00     0.004 C 
ENDBRANCH  10  11
ENDBRANCH   9  10
ENDBRANCH   8   9
ENDBRANCH   7   8
ENDBRANCH   6   7
ENDBRANCH   5   6
ENDBRANCH   4   5
ENDBRANCH   3   4
ENDBRANCH   2   3
ENDBRANCH   1   2
BRANCH   1  13
ATOM     13  C   UNL     1       2.657  25.564  43.735  1.00  0.00     0.000 C 
BRANCH  13  14
ATOM     14  C   UNL     1       1.441  26.500  43.602  1.00  0.00     0.000 C 
BRANCH  14  15
ATOM     15  C   UNL     1       1.741  27.884  42.998  1.00  0.00     0.000 C 
BRANCH  15  16
ATOM     16  C   UNL     1       0.910  28.181  41.738  1.00  0.00     0.000 C 
BRANCH  16  17
ATOM     17  C   UNL     1       1.000  29.651  41.288  1.00  0.00     0.000 C 
BRANCH  17  18
ATOM     18  C   UNL     1      -0.262  30.214  40.607  1.00  0.00     0.000 C 
BRANCH  18  19
ATOM     19  C   UNL     1      -1.553  29.504  41.049  1.00  0.00     0.000 C 
BRANCH  19  20
ATOM     20  C   UNL     1      -2.344  30.308  42.097  1.00  0.00     0.006 C 
BRANCH  20  21
ATOM     21  C   UNL     1      -2.844  29.474  43.288  1.00  0.00     0.053 C 
BRANCH  21  22
ATOM     22  C   UNL     1      -1.725  29.048  44.188  1.00  0.00     0.041 C 
ATOM     23  O   UNL     1      -1.683  27.872  44.636  1.00  0.00    -0.550 OA
ATOM     24  O   UNL     1      -0.745  29.961  44.557  1.00  0.00    -0.550 OA
ENDBRANCH  21  22
ENDBRANCH  20  21
ENDBRANCH  19  20
ENDBRANCH  18  19
ENDBRANCH  17  18
ENDBRANCH  16  17
ENDBRANCH  15  16
ENDBRANCH  14  15
ENDBRANCH  13  14
ENDBRANCH   1  13
TORSDOF 20
ENDMDL
MODEL 7
REMARK VINA RESULT:    -6.074      1.906      3.543
REMARK INTER + INTRA:         -15.997
REMARK INTER:                 -13.227
REMARK INTRA:                  -2.769
REMARK UNBOUND:                -2.821
REMARK SMILES CCCCCCCCCCCCCCCCCCCCCC(=O)[O-]
REMARK SMILES IDX 12 1 11 2 10 3 9 4 8 5 7 6 6 7 5 8 4 9 3 10 2 11 1 12 13 13
REMARK SMILES IDX 14 14 15 15 16 16 17 17 18 18 19 19 20 20 21 21 22 22 23 23
REMARK SMILES IDX 24 24
REMARK H PARENT
REMARK Flexibility Score: inf
ROOT
ATOM      1  C   UNL     1       8.905  19.908  45.289  1.00  0.00     0.000 C 
ENDROOT
BRANCH   1   2
ATOM      2  C   UNL     1       8.365  19.423  43.934  1.00  0.00     0.000 C 
BRANCH   2   3
ATOM      3  C   UNL     1       7.516  20.484  43.217  1.00  0.00     0.000 C 
BRANCH   3   4
ATOM      4  C   UNL     1       8.313  21.759  42.890  1.00  0.00    -0.000 C 
BRANCH   4   5
ATOM      5  C   UNL     1       7.403  22.976  42.653  1.00  0.00    -0.000 C 
BRANCH   5   6
ATOM      6  C   UNL     1       7.475  23.996  43.804  1.00  0.00    -0.000 C 
BRANCH   6   7
ATOM      7  C   UNL     1       8.617  23.698  44.789  1.00  0.00    -0.000 C 
BRANCH   7   8
ATOM      8  C   UNL     1       8.116  23.452  46.222  1.00  0.00    -0.000 C 
BRANCH   8   9
ATOM      9  C   UNL     1       6.585  23.312  46.303  1.00  0.00    -0.000 C 
BRANCH   9  10
ATOM     10  C   UNL     1       6.074  21.927  46.753  1.00  0.00    -0.000 C 
BRANCH  10  11
ATOM     11  C   UNL     1       5.038  21.280  45.818  1.00  0.00    -0.003 C 
ATOM     12  C   UNL     1       4.379  22.284  44.873  1.00  0.00     0.004 C 
ENDBRANCH  10  11
ENDBRANCH   9  10
ENDBRANCH   8   9
ENDBRANCH   7   8
ENDBRANCH   6   7
ENDBRANCH   5   6
ENDBRANCH   4   5
ENDBRANCH   3   4
ENDBRANCH   2   3
ENDBRANCH   1   2
BRANCH   1  13
ATOM     13  C   UNL     1      10.340  19.412  45.514  1.00  0.00     0.000 C 
BRANCH  13  14
ATOM     14  C   UNL     1      10.663  18.123  44.735  1.00  0.00     0.000 C 
BRANCH  14  15
ATOM     15  C   UNL     1      11.698  17.196  45.399  1.00  0.00     0.000 C 
BRANCH  15  16
ATOM     16  C   UNL     1      12.768  16.691  44.415  1.00  0.00     0.000 C 
BRANCH  16  17
ATOM     17  C   UNL     1      12.867  15.155  44.368  1.00  0.00     0.000 C 
BRANCH  17  18
ATOM     18  C   UNL     1      14.152  14.592  43.733  1.00  0.00     0.000 C 
BRANCH  18  19
ATOM     19  C   UNL     1      15.412  14.877  44.569  1.00  0.00     0.000 C 
BRANCH  19  20
ATOM     20  C   UNL     1      15.451  14.066  45.878  1.00  0.00     0.006 C 
BRANCH  20  21
ATOM     21  C   UNL     1      15.817  14.894  47.122  1.00  0.00     0.053 C 
BRANCH  21  22
ATOM     22  C   UNL     1      14.638  15.638  47.671  1.00  0.00     0.041 C 
ATOM     23  O   UNL     1      14.514  16.873  47.461  1.00  0.00    -0.550 OA
ATOM     24  O   UNL     1      13.693  14.971  48.441  1.00  0.00    -0.550 OA
ENDBRANCH  21  22
ENDBRANCH  20  21
ENDBRANCH  19  20
ENDBRANCH  18  19
ENDBRANCH  17  18
ENDBRANCH  16  17
ENDBRANCH  15  16
ENDBRANCH  14  15
ENDBRANCH  13  14
ENDBRANCH   1  13
TORSDOF 20
ENDMDL
MODEL 8
REMARK VINA RESULT:    -6.039      1.596      2.184
REMARK INTER + INTRA:         -15.921
REMARK INTER:                 -13.202
REMARK INTRA:                  -2.719
REMARK UNBOUND:                -2.821
REMARK SMILES CCCCCCCCCCCCCCCCCCCCCC(=O)[O-]
REMARK SMILES IDX 12 1 11 2 10 3 9 4 8 5 7 6 6 7 5 8 4 9 3 10 2 11 1 12 13 13
REMARK SMILES IDX 14 14 15 15 16 16 17 17 18 18 19 19 20 20 21 21 22 22 23 23
REMARK SMILES IDX 24 24
REMARK H PARENT
REMARK Flexibility Score: inf
ROOT
ATOM      1  C   UNL     1       8.763  19.297  44.425  1.00  0.00     0.000 C 
ENDROOT
BRANCH   1   2
ATOM      2  C   UNL     1       8.816  20.141  45.708  1.00  0.00     0.000 C 
BRANCH   2   3
ATOM      3  C   UNL     1       8.676  21.648  45.436  1.00  0.00     0.000 C 
BRANCH   3   4
ATOM      4  C   UNL     1       7.466  22.270  46.153  1.00  0.00    -0.000 C 
BRANCH   4   5
ATOM      5  C   UNL     1       6.223  21.366  46.100  1.00  0.00    -0.000 C 
BRANCH   5   6
ATOM      6  C   UNL     1       5.053  22.019  45.340  1.00  0.00    -0.000 C 
BRANCH   6   7
ATOM      7  C   UNL     1       4.563  21.163  44.161  1.00  0.00    -0.000 C 
BRANCH   7   8
ATOM      8  C   UNL     1       5.695  20.781  43.193  1.00  0.00    -0.000 C 
BRANCH   8   9
ATOM      9  C   UNL     1       6.010  21.890  42.174  1.00  0.00    -0.000 C 
BRANCH   9  10
ATOM     10  C   UNL     1       7.505  22.246  42.030  1.00  0.00    -0.000 C 
BRANCH  10  11
ATOM     11  C   UNL     1       7.879  23.672  42.468  1.00  0.00    -0.003 C 
ATOM     12  C   UNL     1       6.708  24.432  43.091  1.00  0.00     0.004 C 
ENDBRANCH  10  11
ENDBRANCH   9  10
ENDBRANCH   8   9
ENDBRANCH   7   8
ENDBRANCH   6   7
ENDBRANCH   5   6
ENDBRANCH   4   5
ENDBRANCH   3   4
ENDBRANCH   2   3
ENDBRANCH   1   2
BRANCH   1  13
ATOM     13  C   UNL     1       9.906  18.271  44.400  1.00  0.00     0.000 C 
BRANCH  13  14
ATOM     14  C   UNL     1      11.063  18.633  45.350  1.00  0.00     0.000 C 
BRANCH  14  15
ATOM     15  C   UNL     1      11.860  17.435  45.899  1.00  0.00     0.000 C 
BRANCH  15  16
ATOM     16  C   UNL     1      12.128  16.355  44.836  1.00  0.00     0.000 C 
BRANCH  16  17
ATOM     17  C   UNL     1      13.388  16.636  43.997  1.00  0.00     0.000 C 
BRANCH  17  18
ATOM     18  C   UNL     1      14.402  15.480  43.915  1.00  0.00     0.000 C 
BRANCH  18  19
ATOM     19  C   UNL     1      13.786  14.114  44.262  1.00  0.00     0.000 C 
BRANCH  19  20
ATOM     20  C   UNL     1      14.539  13.395  45.398  1.00  0.00     0.006 C 
BRANCH  20  21
ATOM     21  C   UNL     1      14.079  13.792  46.811  1.00  0.00     0.053 C 
BRANCH  21  22
ATOM     22  C   UNL     1      14.916  14.891  47.389  1.00  0.00     0.041 C 
ATOM     23  O   UNL     1      14.375  15.946  47.813  1.00  0.00    -0.550 OA
ATOM     24  O   UNL     1      16.299  14.762  47.432  1.00  0.00    -0.550 OA
ENDBRANCH  21  22
ENDBRANCH  20  21
ENDBRANCH  19  20
ENDBRANCH  18  19
ENDBRANCH  17  18
ENDBRANCH  16  17
ENDBRANCH  15  16
ENDBRANCH  14  15
ENDBRANCH  13  14
ENDBRANCH   1  13
TORSDOF 20
ENDMDL
MODEL 9
REMARK VINA RESULT:    -6.032      1.855      3.079
REMARK INTER + INTRA:         -15.904
REMARK INTER:                 -13.351
REMARK INTRA:                  -2.554
REMARK UNBOUND:                -2.821
REMARK SMILES CCCCCCCCCCCCCCCCCCCCCC(=O)[O-]
REMARK SMILES IDX 12 1 11 2 10 3 9 4 8 5 7 6 6 7 5 8 4 9 3 10 2 11 1 12 13 13
REMARK SMILES IDX 14 14 15 15 16 16 17 17 18 18 19 19 20 20 21 21 22 22 23 23
REMARK SMILES IDX 24 24
REMARK H PARENT
REMARK Flexibility Score: inf
ROOT
ATOM      1  C   UNL     1       9.432  19.415  44.865  1.00  0.00     0.000 C 
ENDROOT
BRANCH   1   2
ATOM      2  C   UNL     1       8.771  20.354  45.887  1.00  0.00     0.000 C 
BRANCH   2   3
ATOM      3  C   UNL     1       8.888  21.836  45.497  1.00  0.00     0.000 C 
BRANCH   3   4
ATOM      4  C   UNL     1       7.847  22.719  46.206  1.00  0.00    -0.000 C 
BRANCH   4   5
ATOM      5  C   UNL     1       7.223  23.763  45.264  1.00  0.00    -0.000 C 
BRANCH   5   6
ATOM      6  C   UNL     1       8.175  24.170  44.124  1.00  0.00    -0.000 C 
BRANCH   6   7
ATOM      7  C   UNL     1       7.538  24.007  42.734  1.00  0.00    -0.000 C 
BRANCH   7   8
ATOM      8  C   UNL     1       7.774  22.611  42.134  1.00  0.00    -0.000 C 
BRANCH   8   9
ATOM      9  C   UNL     1       6.476  21.794  41.996  1.00  0.00    -0.000 C 
BRANCH   9  10
ATOM     10  C   UNL     1       6.431  20.490  42.821  1.00  0.00    -0.000 C 
BRANCH  10  11
ATOM     11  C   UNL     1       5.575  20.556  44.097  1.00  0.00    -0.003 C 
ATOM     12  C   UNL     1       4.477  21.617  44.024  1.00  0.00     0.004 C 
ENDBRANCH  10  11
ENDBRANCH   9  10
ENDBRANCH   8   9
ENDBRANCH   7   8
ENDBRANCH   6   7
ENDBRANCH   5   6
ENDBRANCH   4   5
ENDBRANCH   3   4
ENDBRANCH   2   3
ENDBRANCH   1   2
BRANCH   1  13
ATOM     13  C   UNL     1      10.729  18.819  45.431  1.00  0.00     0.000 C 
BRANCH  13  14
ATOM     14  C   UNL     1      11.139  17.503  44.743  1.00  0.00     0.000 C 
BRANCH  14  15
ATOM     15  C   UNL     1      12.481  16.909  45.209  1.00  0.00     0.000 C 
BRANCH  15  16
ATOM     16  C   UNL     1      13.275  16.252  44.067  1.00  0.00     0.000 C 
BRANCH  16  17
ATOM     17  C   UNL     1      13.371  14.721  44.202  1.00  0.00     0.000 C 
BRANCH  17  18
ATOM     18  C   UNL     1      14.763  14.118  43.933  1.00  0.00     0.000 C 
BRANCH  18  19
ATOM     19  C   UNL     1      15.837  14.623  44.911  1.00  0.00     0.000 C 
BRANCH  19  20
ATOM     20  C   UNL     1      15.604  14.134  46.353  1.00  0.00     0.006 C 
BRANCH  20  21
ATOM     21  C   UNL     1      15.317  15.258  47.362  1.00  0.00     0.053 C 
BRANCH  21  22
ATOM     22  C   UNL     1      13.968  15.114  47.998  1.00  0.00     0.041 C 
ATOM     23  O   UNL     1      13.255  14.106  47.752  1.00  0.00    -0.550 OA
ATOM     24  O   UNL     1      13.487  16.110  48.840  1.00  0.00    -0.550 OA
ENDBRANCH  21  22
ENDBRANCH  20  21
ENDBRANCH  19  20
ENDBRANCH  18  19
ENDBRANCH  17  18
ENDBRANCH  16  17
ENDBRANCH  15  16
ENDBRANCH  14  15
ENDBRANCH  13  14
ENDBRANCH   1  13
TORSDOF 20
ENDMDL
