MODEL 1
REMARK VINA RESULT:    -5.169      0.000      0.000
REMARK INTER + INTRA:         -15.233
REMARK INTER:                 -11.818
REMARK INTRA:                  -3.416
REMARK UNBOUND:                -3.416
REMARK SMILES CCCCCCCCCCCCCCCCCCCCCCCC(=O)[O-]
REMARK SMILES IDX 13 1 14 2 15 3 16 4 17 5 18 6 19 7 20 8 21 9 22 10 23 11
REMARK SMILES IDX 24 12 25 13 26 14 12 15 11 16 10 17 9 18 8 19 7 20 6 21 5 22
REMARK SMILES IDX 4 23 3 24 2 25 1 26
REMARK H PARENT
REMARK Flexibility Score: inf
ROOT
ATOM      1  C   UNL     1      17.296 -30.596  21.828  1.00  0.00     0.000 C 
ENDROOT
BRANCH   1   2
ATOM      2  C   UNL     1      17.657 -31.804  20.943  1.00  0.00     0.000 C 
BRANCH   2   3
ATOM      3  C   UNL     1      19.168 -32.053  20.760  1.00  0.00     0.000 C 
BRANCH   3   4
ATOM      4  C   UNL     1      19.998 -32.004  22.056  1.00  0.00     0.000 C 
BRANCH   4   5
ATOM      5  C   UNL     1      21.006 -30.846  22.073  1.00  0.00     0.000 C 
BRANCH   5   6
ATOM      6  C   UNL     1      21.135 -30.208  20.679  1.00  0.00     0.000 C 
BRANCH   6   7
ATOM      7  C   UNL     1      21.115 -28.668  20.724  1.00  0.00     0.000 C 
BRANCH   7   8
ATOM      8  C   UNL     1      19.717 -28.047  20.892  1.00  0.00     0.000 C 
BRANCH   8   9
ATOM      9  C   UNL     1      19.763 -26.523  21.097  1.00  0.00     0.000 C 
BRANCH   9  10
ATOM     10  C   UNL     1      20.710 -25.833  20.101  1.00  0.00     0.006 C 
BRANCH  10  11
ATOM     11  C   UNL     1      21.947 -25.241  20.791  1.00  0.00     0.053 C 
BRANCH  11  12
ATOM     12  C   UNL     1      23.158 -25.389  19.924  1.00  0.00     0.041 C 
ATOM     13  O   UNL     1      23.702 -26.518  19.785  1.00  0.00    -0.550 OA
ATOM     14  O   UNL     1      23.667 -24.288  19.247  1.00  0.00    -0.550 OA
ENDBRANCH  11  12
ENDBRANCH  10  11
ENDBRANCH   9  10
ENDBRANCH   8   9
ENDBRANCH   7   8
ENDBRANCH   6   7
ENDBRANCH   5   6
ENDBRANCH   4   5
ENDBRANCH   3   4
ENDBRANCH   2   3
ENDBRANCH   1   2
BRANCH   1  15
ATOM     15  C   UNL     1      16.686 -30.955  23.196  1.00  0.00     0.000 C 
BRANCH  15  16
ATOM     16  C   UNL     1      15.151 -31.102  23.204  1.00  0.00     0.000 C 
BRANCH  16  17
ATOM     17  C   UNL     1      14.442 -30.585  21.938  1.00  0.00     0.000 C 
BRANCH  17  18
ATOM     18  C   UNL     1      13.666 -31.685  21.202  1.00  0.00    -0.000 C 
BRANCH  18  19
ATOM     19  C   UNL     1      14.358 -33.046  21.348  1.00  0.00    -0.000 C 
BRANCH  19  20
ATOM     20  C   UNL     1      14.440 -33.762  19.995  1.00  0.00    -0.000 C 
BRANCH  20  21
ATOM     21  C   UNL     1      15.203 -35.087  20.113  1.00  0.00    -0.000 C 
BRANCH  21  22
ATOM     22  C   UNL     1      16.500 -35.045  19.294  1.00  0.00    -0.000 C 
BRANCH  22  23
ATOM     23  C   UNL     1      17.722 -35.345  20.175  1.00  0.00    -0.000 C 
BRANCH  23  24
ATOM     24  C   UNL     1      17.333 -35.936  21.539  1.00  0.00    -0.000 C 
BRANCH  24  25
ATOM     25  C   UNL     1      17.904 -35.131  22.717  1.00  0.00    -0.003 C 
ATOM     26  C   UNL     1      16.799 -34.715  23.684  1.00  0.00     0.004 C 
ENDBRANCH  24  25
ENDBRANCH  23  24
ENDBRANCH  22  23
ENDBRANCH  21  22
ENDBRANCH  20  21
ENDBRANCH  19  20
ENDBRANCH  18  19
ENDBRANCH  17  18
ENDBRANCH  16  17
ENDBRANCH  15  16
ENDBRANCH   1  15
TORSDOF 22
ENDMDL
MODEL 2
REMARK VINA RESULT:    -5.035      4.368      7.289
REMARK INTER + INTRA:         -14.927
REMARK INTER:                 -11.416
REMARK INTRA:                  -3.511
REMARK UNBOUND:                -3.416
REMARK SMILES CCCCCCCCCCCCCCCCCCCCCCCC(=O)[O-]
REMARK SMILES IDX 13 1 14 2 15 3 16 4 17 5 18 6 19 7 20 8 21 9 22 10 23 11
REMARK SMILES IDX 24 12 25 13 26 14 12 15 11 16 10 17 9 18 8 19 7 20 6 21 5 22
REMARK SMILES IDX 4 23 3 24 2 25 1 26
REMARK H PARENT
REMARK Flexibility Score: inf
ROOT
ATOM      1  C   UNL     1      17.941 -37.331  21.195  1.00  0.00     0.000 C 
ENDROOT
BRANCH   1   2
ATOM      2  C   UNL     1      17.360 -36.925  19.827  1.00  0.00     0.000 C 
BRANCH   2   3
ATOM      3  C   UNL     1      17.666 -35.478  19.390  1.00  0.00     0.000 C 
BRANCH   3   4
ATOM      4  C   UNL     1      16.428 -34.605  19.115  1.00  0.00     0.000 C 
BRANCH   4   5
ATOM      5  C   UNL     1      15.451 -34.570  20.300  1.00  0.00     0.000 C 
BRANCH   5   6
ATOM      6  C   UNL     1      14.380 -33.485  20.098  1.00  0.00     0.000 C 
BRANCH   6   7
ATOM      7  C   UNL     1      14.028 -32.744  21.401  1.00  0.00     0.000 C 
BRANCH   7   8
ATOM      8  C   UNL     1      13.366 -31.369  21.202  1.00  0.00     0.000 C 
BRANCH   8   9
ATOM      9  C   UNL     1      14.374 -30.209  21.258  1.00  0.00     0.000 C 
BRANCH   9  10
ATOM     10  C   UNL     1      14.420 -29.546  22.645  1.00  0.00     0.006 C 
BRANCH  10  11
ATOM     11  C   UNL     1      13.203 -29.913  23.505  1.00  0.00     0.053 C 
BRANCH  11  12
ATOM     12  C   UNL     1      12.408 -28.692  23.845  1.00  0.00     0.041 C 
ATOM     13  O   UNL     1      12.951 -27.733  24.459  1.00  0.00    -0.550 OA
ATOM     14  O   UNL     1      11.077 -28.598  23.459  1.00  0.00    -0.550 OA
ENDBRANCH  11  12
ENDBRANCH  10  11
ENDBRANCH   9  10
ENDBRANCH   8   9
ENDBRANCH   7   8
ENDBRANCH   6   7
ENDBRANCH   5   6
ENDBRANCH   4   5
ENDBRANCH   3   4
ENDBRANCH   2   3
ENDBRANCH   1   2
BRANCH   1  15
ATOM     15  C   UNL     1      18.152 -36.166  22.180  1.00  0.00     0.000 C 
BRANCH  15  16
ATOM     16  C   UNL     1      19.207 -36.424  23.274  1.00  0.00     0.000 C 
BRANCH  16  17
ATOM     17  C   UNL     1      18.927 -35.737  24.624  1.00  0.00     0.000 C 
BRANCH  17  18
ATOM     18  C   UNL     1      17.479 -35.927  25.096  1.00  0.00    -0.000 C 
BRANCH  18  19
ATOM     19  C   UNL     1      16.776 -34.578  25.291  1.00  0.00    -0.000 C 
BRANCH  19  20
ATOM     20  C   UNL     1      16.262 -34.035  23.952  1.00  0.00    -0.000 C 
BRANCH  20  21
ATOM     21  C   UNL     1      16.093 -32.512  23.999  1.00  0.00    -0.000 C 
BRANCH  21  22
ATOM     22  C   UNL     1      17.456 -31.813  24.074  1.00  0.00    -0.000 C 
BRANCH  22  23
ATOM     23  C   UNL     1      17.720 -30.977  22.811  1.00  0.00    -0.000 C 
BRANCH  23  24
ATOM     24  C   UNL     1      17.778 -31.836  21.538  1.00  0.00    -0.000 C 
BRANCH  24  25
ATOM     25  C   UNL     1      19.082 -32.639  21.426  1.00  0.00    -0.003 C 
ATOM     26  C   UNL     1      20.228 -31.760  20.932  1.00  0.00     0.004 C 
ENDBRANCH  24  25
ENDBRANCH  23  24
ENDBRANCH  22  23
ENDBRANCH  21  22
ENDBRANCH  20  21
ENDBRANCH  19  20
ENDBRANCH  18  19
ENDBRANCH  17  18
ENDBRANCH  16  17
ENDBRANCH  15  16
ENDBRANCH   1  15
TORSDOF 22
ENDMDL
MODEL 3
REMARK VINA RESULT:    -5.013      0.834      1.727
REMARK INTER + INTRA:         -14.876
REMARK INTER:                 -11.817
REMARK INTRA:                  -3.059
REMARK UNBOUND:                -3.416
REMARK SMILES CCCCCCCCCCCCCCCCCCCCCCCC(=O)[O-]
REMARK SMILES IDX 13 1 14 2 15 3 16 4 17 5 18 6 19 7 20 8 21 9 22 10 23 11
REMARK SMILES IDX 24 12 25 13 26 14 12 15 11 16 10 17 9 18 8 19 7 20 6 21 5 22
REMARK SMILES IDX 4 23 3 24 2 25 1 26
REMARK H PARENT
REMARK Flexibility Score: inf
ROOT
ATOM      1  C   UNL     1      15.856 -30.367  22.577  1.00  0.00     0.000 C 
ENDROOT
BRANCH   1   2
ATOM      2  C   UNL     1      17.064 -30.139  21.648  1.00  0.00     0.000 C 
BRANCH   2   3
ATOM      3  C   UNL     1      17.498 -31.368  20.824  1.00  0.00     0.000 C 
BRANCH   3   4
ATOM      4  C   UNL     1      18.813 -32.026  21.280  1.00  0.00     0.000 C 
BRANCH   4   5
ATOM      5  C   UNL     1      19.792 -31.023  21.909  1.00  0.00     0.000 C 
BRANCH   5   6
ATOM      6  C   UNL     1      20.899 -30.637  20.914  1.00  0.00     0.000 C 
BRANCH   6   7
ATOM      7  C   UNL     1      21.352 -29.172  21.066  1.00  0.00     0.000 C 
BRANCH   7   8
ATOM      8  C   UNL     1      20.299 -28.126  20.659  1.00  0.00     0.000 C 
BRANCH   8   9
ATOM      9  C   UNL     1      20.446 -26.803  21.429  1.00  0.00     0.000 C 
BRANCH   9  10
ATOM     10  C   UNL     1      20.745 -25.618  20.495  1.00  0.00     0.006 C 
BRANCH  10  11
ATOM     11  C   UNL     1      22.156 -25.052  20.708  1.00  0.00     0.053 C 
BRANCH  11  12
ATOM     12  C   UNL     1      23.174 -25.887  19.997  1.00  0.00     0.041 C 
ATOM     13  O   UNL     1      23.384 -25.717  18.765  1.00  0.00    -0.550 OA
ATOM     14  O   UNL     1      23.912 -26.832  20.699  1.00  0.00    -0.550 OA
ENDBRANCH  11  12
ENDBRANCH  10  11
ENDBRANCH   9  10
ENDBRANCH   8   9
ENDBRANCH   7   8
ENDBRANCH   6   7
ENDBRANCH   5   6
ENDBRANCH   4   5
ENDBRANCH   3   4
ENDBRANCH   2   3
ENDBRANCH   1   2
BRANCH   1  15
ATOM     15  C   UNL     1      14.481 -30.228  21.898  1.00  0.00     0.000 C 
BRANCH  15  16
ATOM     16  C   UNL     1      13.614 -31.503  21.918  1.00  0.00     0.000 C 
BRANCH  16  17
ATOM     17  C   UNL     1      13.901 -32.502  20.782  1.00  0.00     0.000 C 
BRANCH  17  18
ATOM     18  C   UNL     1      14.748 -33.696  21.241  1.00  0.00    -0.000 C 
BRANCH  18  19
ATOM     19  C   UNL     1      14.945 -34.708  20.106  1.00  0.00    -0.000 C 
BRANCH  19  20
ATOM     20  C   UNL     1      16.400 -34.706  19.623  1.00  0.00    -0.000 C 
BRANCH  20  21
ATOM     21  C   UNL     1      16.951 -36.132  19.512  1.00  0.00    -0.000 C 
BRANCH  21  22
ATOM     22  C   UNL     1      17.395 -36.654  20.885  1.00  0.00    -0.000 C 
BRANCH  22  23
ATOM     23  C   UNL     1      18.037 -35.537  21.722  1.00  0.00    -0.000 C 
BRANCH  23  24
ATOM     24  C   UNL     1      18.019 -35.845  23.227  1.00  0.00    -0.000 C 
BRANCH  24  25
ATOM     25  C   UNL     1      16.916 -35.078  23.974  1.00  0.00    -0.003 C 
ATOM     26  C   UNL     1      17.218 -33.583  24.014  1.00  0.00     0.004 C 
ENDBRANCH  24  25
ENDBRANCH  23  24
ENDBRANCH  22  23
ENDBRANCH  21  22
ENDBRANCH  20  21
ENDBRANCH  19  20
ENDBRANCH  18  19
ENDBRANCH  17  18
ENDBRANCH  16  17
ENDBRANCH  15  16
ENDBRANCH   1  15
TORSDOF 22
ENDMDL
MODEL 4
REMARK VINA RESULT:    -5.002      1.558      3.810
REMARK INTER + INTRA:         -14.850
REMARK INTER:                 -11.759
REMARK INTRA:                  -3.091
REMARK UNBOUND:                -3.416
REMARK SMILES CCCCCCCCCCCCCCCCCCCCCCCC(=O)[O-]
REMARK SMILES IDX 13 1 14 2 15 3 16 4 17 5 18 6 19 7 20 8 21 9 22 10 23 11
REMARK SMILES IDX 24 12 25 13 26 14 12 15 11 16 10 17 9 18 8 19 7 20 6 21 5 22
REMARK SMILES IDX 4 23 3 24 2 25 1 26
REMARK H PARENT
REMARK Flexibility Score: inf
ROOT
ATOM      1  C   UNL     1      13.669 -31.392  21.647  1.00  0.00     0.000 C 
ENDROOT
BRANCH   1   2
ATOM      2  C   UNL     1      14.309 -30.047  21.254  1.00  0.00     0.000 C 
BRANCH   2   3
ATOM      3  C   UNL     1      15.558 -29.653  22.070  1.00  0.00     0.000 C 
BRANCH   3   4
ATOM      4  C   UNL     1      16.071 -30.736  23.037  1.00  0.00     0.000 C 
BRANCH   4   5
ATOM      5  C   UNL     1      17.505 -31.184  22.721  1.00  0.00     0.000 C 
BRANCH   5   6
ATOM      6  C   UNL     1      17.588 -31.820  21.324  1.00  0.00     0.000 C 
BRANCH   6   7
ATOM      7  C   UNL     1      19.038 -32.012  20.840  1.00  0.00     0.000 C 
BRANCH   7   8
ATOM      8  C   UNL     1      20.107 -31.357  21.733  1.00  0.00     0.000 C 
BRANCH   8   9
ATOM      9  C   UNL     1      20.902 -30.261  21.004  1.00  0.00     0.000 C 
BRANCH   9  10
ATOM     10  C   UNL     1      20.234 -28.881  21.128  1.00  0.00     0.006 C 
BRANCH  10  11
ATOM     11  C   UNL     1      21.262 -27.748  21.252  1.00  0.00     0.053 C 
BRANCH  11  12
ATOM     12  C   UNL     1      20.615 -26.419  21.020  1.00  0.00     0.041 C 
ATOM     13  O   UNL     1      19.919 -25.886  21.927  1.00  0.00    -0.550 OA
ATOM     14  O   UNL     1      20.804 -25.754  19.814  1.00  0.00    -0.550 OA
ENDBRANCH  11  12
ENDBRANCH  10  11
ENDBRANCH   9  10
ENDBRANCH   8   9
ENDBRANCH   7   8
ENDBRANCH   6   7
ENDBRANCH   5   6
ENDBRANCH   4   5
ENDBRANCH   3   4
ENDBRANCH   2   3
ENDBRANCH   1   2
BRANCH   1  15
ATOM     15  C   UNL     1      13.860 -32.524  20.621  1.00  0.00     0.000 C 
BRANCH  15  16
ATOM     16  C   UNL     1      14.653 -33.741  21.137  1.00  0.00     0.000 C 
BRANCH  16  17
ATOM     17  C   UNL     1      15.001 -34.793  20.067  1.00  0.00     0.000 C 
BRANCH  17  18
ATOM     18  C   UNL     1      16.418 -34.620  19.504  1.00  0.00    -0.000 C 
BRANCH  18  19
ATOM     19  C   UNL     1      17.102 -35.976  19.292  1.00  0.00    -0.000 C 
BRANCH  19  20
ATOM     20  C   UNL     1      17.526 -36.586  20.633  1.00  0.00    -0.000 C 
BRANCH  20  21
ATOM     21  C   UNL     1      18.179 -35.536  21.539  1.00  0.00    -0.000 C 
BRANCH  21  22
ATOM     22  C   UNL     1      17.813 -35.779  23.009  1.00  0.00    -0.000 C 
BRANCH  22  23
ATOM     23  C   UNL     1      16.897 -34.668  23.544  1.00  0.00    -0.000 C 
BRANCH  23  24
ATOM     24  C   UNL     1      16.609 -34.815  25.047  1.00  0.00    -0.000 C 
BRANCH  24  25
ATOM     25  C   UNL     1      17.546 -35.822  25.732  1.00  0.00    -0.003 C 
ATOM     26  C   UNL     1      16.754 -36.867  26.511  1.00  0.00     0.004 C 
ENDBRANCH  24  25
ENDBRANCH  23  24
ENDBRANCH  22  23
ENDBRANCH  21  22
ENDBRANCH  20  21
ENDBRANCH  19  20
ENDBRANCH  18  19
ENDBRANCH  17  18
ENDBRANCH  16  17
ENDBRANCH  15  16
ENDBRANCH   1  15
TORSDOF 22
ENDMDL
MODEL 5
REMARK VINA RESULT:    -4.986      1.584      2.850
REMARK INTER + INTRA:         -14.813
REMARK INTER:                 -10.913
REMARK INTRA:                  -3.900
REMARK UNBOUND:                -3.416
REMARK SMILES CCCCCCCCCCCCCCCCCCCCCCCC(=O)[O-]
REMARK SMILES IDX 13 1 14 2 15 3 16 4 17 5 18 6 19 7 20 8 21 9 22 10 23 11
REMARK SMILES IDX 24 12 25 13 26 14 12 15 11 16 10 17 9 18 8 19 7 20 6 21 5 22
REMARK SMILES IDX 4 23 3 24 2 25 1 26
REMARK H PARENT
REMARK Flexibility Score: inf
ROOT
ATOM      1  C   UNL     1      14.297 -29.102  23.080  1.00  0.00     0.000 C 
ENDROOT
BRANCH   1   2
ATOM      2  C   UNL     1      14.883 -29.344  21.676  1.00  0.00     0.000 C 
BRANCH   2   3
ATOM      3  C   UNL     1      16.375 -29.735  21.647  1.00  0.00     0.000 C 
BRANCH   3   4
ATOM      4  C   UNL     1      16.861 -30.537  22.868  1.00  0.00     0.000 C 
BRANCH   4   5
ATOM      5  C   UNL     1      17.855 -31.645  22.493  1.00  0.00     0.000 C 
BRANCH   5   6
ATOM      6  C   UNL     1      18.448 -31.404  21.095  1.00  0.00     0.000 C 
BRANCH   6   7
ATOM      7  C   UNL     1      19.817 -32.083  20.902  1.00  0.00     0.000 C 
BRANCH   7   8
ATOM      8  C   UNL     1      21.005 -31.330  21.527  1.00  0.00     0.000 C 
BRANCH   8   9
ATOM      9  C   UNL     1      20.719 -29.833  21.732  1.00  0.00     0.000 C 
BRANCH   9  10
ATOM     10  C   UNL     1      21.291 -28.972  20.594  1.00  0.00     0.006 C 
BRANCH  10  11
ATOM     11  C   UNL     1      21.227 -27.471  20.912  1.00  0.00     0.053 C 
BRANCH  11  12
ATOM     12  C   UNL     1      22.192 -27.120  22.000  1.00  0.00     0.041 C 
ATOM     13  O   UNL     1      21.772 -26.655  23.094  1.00  0.00    -0.550 OA
ATOM     14  O   UNL     1      23.553 -27.333  21.818  1.00  0.00    -0.550 OA
ENDBRANCH  11  12
ENDBRANCH  10  11
ENDBRANCH   9  10
ENDBRANCH   8   9
ENDBRANCH   7   8
ENDBRANCH   6   7
ENDBRANCH   5   6
ENDBRANCH   4   5
ENDBRANCH   3   4
ENDBRANCH   2   3
ENDBRANCH   1   2
BRANCH   1  15
ATOM     15  C   UNL     1      13.051 -29.943  23.415  1.00  0.00     0.000 C 
BRANCH  15  16
ATOM     16  C   UNL     1      13.119 -31.415  22.960  1.00  0.00     0.000 C 
BRANCH  16  17
ATOM     17  C   UNL     1      13.890 -32.353  23.907  1.00  0.00     0.000 C 
BRANCH  17  18
ATOM     18  C   UNL     1      14.639 -33.465  23.159  1.00  0.00    -0.000 C 
BRANCH  18  19
ATOM     19  C   UNL     1      14.617 -33.229  21.644  1.00  0.00    -0.000 C 
BRANCH  19  20
ATOM     20  C   UNL     1      15.163 -34.450  20.896  1.00  0.00    -0.000 C 
BRANCH  20  21
ATOM     21  C   UNL     1      16.159 -34.035  19.807  1.00  0.00    -0.000 C 
BRANCH  21  22
ATOM     22  C   UNL     1      17.391 -34.950  19.816  1.00  0.00    -0.000 C 
BRANCH  22  23
ATOM     23  C   UNL     1      17.402 -35.853  21.060  1.00  0.00    -0.000 C 
BRANCH  23  24
ATOM     24  C   UNL     1      18.475 -35.437  22.079  1.00  0.00    -0.000 C 
BRANCH  24  25
ATOM     25  C   UNL     1      18.156 -35.919  23.502  1.00  0.00    -0.003 C 
ATOM     26  C   UNL     1      17.759 -34.751  24.401  1.00  0.00     0.004 C 
ENDBRANCH  24  25
ENDBRANCH  23  24
ENDBRANCH  22  23
ENDBRANCH  21  22
ENDBRANCH  20  21
ENDBRANCH  19  20
ENDBRANCH  18  19
ENDBRANCH  17  18
ENDBRANCH  16  17
ENDBRANCH  15  16
ENDBRANCH   1  15
TORSDOF 22
ENDMDL
MODEL 6
REMARK VINA RESULT:    -4.974      3.804      7.328
REMARK INTER + INTRA:         -14.786
REMARK INTER:                 -11.089
REMARK INTRA:                  -3.697
REMARK UNBOUND:                -3.416
REMARK SMILES CCCCCCCCCCCCCCCCCCCCCCCC(=O)[O-]
REMARK SMILES IDX 13 1 14 2 15 3 16 4 17 5 18 6 19 7 20 8 21 9 22 10 23 11
REMARK SMILES IDX 24 12 25 13 26 14 12 15 11 16 10 17 9 18 8 19 7 20 6 21 5 22
REMARK SMILES IDX 4 23 3 24 2 25 1 26
REMARK H PARENT
REMARK Flexibility Score: inf
ROOT
ATOM      1  C   UNL     1      17.819 -35.786  23.443  1.00  0.00     0.000 C 
ENDROOT
BRANCH   1   2
ATOM      2  C   UNL     1      18.290 -34.456  24.063  1.00  0.00     0.000 C 
BRANCH   2   3
ATOM      3  C   UNL     1      17.234 -33.718  24.911  1.00  0.00     0.000 C 
BRANCH   3   4
ATOM      4  C   UNL     1      16.323 -32.758  24.124  1.00  0.00     0.000 C 
BRANCH   4   5
ATOM      5  C   UNL     1      15.003 -33.413  23.690  1.00  0.00     0.000 C 
BRANCH   5   6
ATOM      6  C   UNL     1      15.047 -33.810  22.206  1.00  0.00     0.000 C 
BRANCH   6   7
ATOM      7  C   UNL     1      14.234 -32.858  21.308  1.00  0.00     0.000 C 
BRANCH   7   8
ATOM      8  C   UNL     1      14.772 -31.417  21.244  1.00  0.00     0.000 C 
BRANCH   8   9
ATOM      9  C   UNL     1      13.669 -30.361  21.428  1.00  0.00     0.000 C 
BRANCH   9  10
ATOM     10  C   UNL     1      12.697 -30.728  22.562  1.00  0.00     0.006 C 
BRANCH  10  11
ATOM     11  C   UNL     1      13.045 -30.018  23.878  1.00  0.00     0.053 C 
BRANCH  11  12
ATOM     12  C   UNL     1      12.393 -28.673  23.941  1.00  0.00     0.041 C 
ATOM     13  O   UNL     1      12.974 -27.714  24.518  1.00  0.00    -0.550 OA
ATOM     14  O   UNL     1      11.158 -28.469  23.336  1.00  0.00    -0.550 OA
ENDBRANCH  11  12
ENDBRANCH  10  11
ENDBRANCH   9  10
ENDBRANCH   8   9
ENDBRANCH   7   8
ENDBRANCH   6   7
ENDBRANCH   5   6
ENDBRANCH   4   5
ENDBRANCH   3   4
ENDBRANCH   2   3
ENDBRANCH   1   2
BRANCH   1  15
ATOM     15  C   UNL     1      18.865 -36.497  22.564  1.00  0.00     0.000 C 
BRANCH  15  16
ATOM     16  C   UNL     1      18.331 -37.025  21.218  1.00  0.00     0.000 C 
BRANCH  16  17
ATOM     17  C   UNL     1      16.957 -36.467  20.800  1.00  0.00     0.000 C 
BRANCH  17  18
ATOM     18  C   UNL     1      16.921 -36.023  19.331  1.00  0.00    -0.000 C 
BRANCH  18  19
ATOM     19  C   UNL     1      17.972 -34.942  19.051  1.00  0.00    -0.000 C 
BRANCH  19  20
ATOM     20  C   UNL     1      17.563 -33.608  19.685  1.00  0.00    -0.000 C 
BRANCH  20  21
ATOM     21  C   UNL     1      18.636 -33.104  20.658  1.00  0.00    -0.000 C 
BRANCH  21  22
ATOM     22  C   UNL     1      18.403 -31.629  21.011  1.00  0.00    -0.000 C 
BRANCH  22  23
ATOM     23  C   UNL     1      19.068 -31.268  22.349  1.00  0.00    -0.000 C 
BRANCH  23  24
ATOM     24  C   UNL     1      20.584 -31.053  22.213  1.00  0.00    -0.000 C 
BRANCH  24  25
ATOM     25  C   UNL     1      20.975 -30.450  20.855  1.00  0.00    -0.003 C 
ATOM     26  C   UNL     1      21.061 -28.928  20.934  1.00  0.00     0.004 C 
ENDBRANCH  24  25
ENDBRANCH  23  24
ENDBRANCH  22  23
ENDBRANCH  21  22
ENDBRANCH  20  21
ENDBRANCH  19  20
ENDBRANCH  18  19
ENDBRANCH  17  18
ENDBRANCH  16  17
ENDBRANCH  15  16
ENDBRANCH   1  15
TORSDOF 22
ENDMDL
MODEL 7
REMARK VINA RESULT:    -4.949      5.807      8.493
REMARK INTER + INTRA:         -14.729
REMARK INTER:                 -10.962
REMARK INTRA:                  -3.767
REMARK UNBOUND:                -3.416
REMARK SMILES CCCCCCCCCCCCCCCCCCCCCCCC(=O)[O-]
REMARK SMILES IDX 13 1 14 2 15 3 16 4 17 5 18 6 19 7 20 8 21 9 22 10 23 11
REMARK SMILES IDX 24 12 25 13 26 14 12 15 11 16 10 17 9 18 8 19 7 20 6 21 5 22
REMARK SMILES IDX 4 23 3 24 2 25 1 26
REMARK H PARENT
REMARK Flexibility Score: inf
ROOT
ATOM      1  C   UNL     1      18.049 -36.294  22.302  1.00  0.00     0.000 C 
ENDROOT
BRANCH   1   2
ATOM      2  C   UNL     1      19.425 -35.653  22.568  1.00  0.00     0.000 C 
BRANCH   2   3
ATOM      3  C   UNL     1      19.611 -34.236  21.989  1.00  0.00     0.000 C 
BRANCH   3   4
ATOM      4  C   UNL     1      19.850 -33.132  23.035  1.00  0.00     0.000 C 
BRANCH   4   5
ATOM      5  C   UNL     1      18.653 -32.180  23.179  1.00  0.00     0.000 C 
BRANCH   5   6
ATOM      6  C   UNL     1      18.221 -32.057  24.649  1.00  0.00     0.000 C 
BRANCH   6   7
ATOM      7  C   UNL     1      18.035 -33.425  25.333  1.00  0.00     0.000 C 
BRANCH   7   8
ATOM      8  C   UNL     1      16.663 -34.082  25.095  1.00  0.00     0.000 C 
BRANCH   8   9
ATOM      9  C   UNL     1      16.660 -35.586  25.414  1.00  0.00     0.000 C 
BRANCH   9  10
ATOM     10  C   UNL     1      18.008 -36.062  25.980  1.00  0.00     0.006 C 
BRANCH  10  11
ATOM     11  C   UNL     1      17.985 -37.548  26.364  1.00  0.00     0.053 C 
BRANCH  11  12
ATOM     12  C   UNL     1      17.349 -37.739  27.705  1.00  0.00     0.041 C 
ATOM     13  O   UNL     1      18.028 -37.583  28.756  1.00  0.00    -0.550 OA
ATOM     14  O   UNL     1      16.000 -38.058  27.796  1.00  0.00    -0.550 OA
ENDBRANCH  11  12
ENDBRANCH  10  11
ENDBRANCH   9  10
ENDBRANCH   8   9
ENDBRANCH   7   8
ENDBRANCH   6   7
ENDBRANCH   5   6
ENDBRANCH   4   5
ENDBRANCH   3   4
ENDBRANCH   2   3
ENDBRANCH   1   2
BRANCH   1  15
ATOM     15  C   UNL     1      18.034 -37.353  21.184  1.00  0.00     0.000 C 
BRANCH  15  16
ATOM     16  C   UNL     1      17.196 -36.978  19.946  1.00  0.00     0.000 C 
BRANCH  16  17
ATOM     17  C   UNL     1      17.487 -35.583  19.361  1.00  0.00     0.000 C 
BRANCH  17  18
ATOM     18  C   UNL     1      16.250 -34.675  19.349  1.00  0.00    -0.000 C 
BRANCH  18  19
ATOM     19  C   UNL     1      16.321 -33.623  20.462  1.00  0.00    -0.000 C 
BRANCH  19  20
ATOM     20  C   UNL     1      15.435 -34.025  21.647  1.00  0.00    -0.000 C 
BRANCH  20  21
ATOM     21  C   UNL     1      14.574 -32.848  22.120  1.00  0.00    -0.000 C 
BRANCH  21  22
ATOM     22  C   UNL     1      15.283 -31.512  21.860  1.00  0.00    -0.000 C 
BRANCH  22  23
ATOM     23  C   UNL     1      15.189 -30.587  23.084  1.00  0.00    -0.000 C 
BRANCH  23  24
ATOM     24  C   UNL     1      14.327 -29.343  22.816  1.00  0.00    -0.000 C 
BRANCH  24  25
ATOM     25  C   UNL     1      12.843 -29.571  23.142  1.00  0.00    -0.003 C 
ATOM     26  C   UNL     1      12.344 -28.558  24.168  1.00  0.00     0.004 C 
ENDBRANCH  24  25
ENDBRANCH  23  24
ENDBRANCH  22  23
ENDBRANCH  21  22
ENDBRANCH  20  21
ENDBRANCH  19  20
ENDBRANCH  18  19
ENDBRANCH  17  18
ENDBRANCH  16  17
ENDBRANCH  15  16
ENDBRANCH   1  15
TORSDOF 22
ENDMDL
MODEL 8
REMARK VINA RESULT:    -4.923      2.160      4.596
REMARK INTER + INTRA:         -14.671
REMARK INTER:                 -10.602
REMARK INTRA:                  -4.069
REMARK UNBOUND:                -3.416
REMARK SMILES CCCCCCCCCCCCCCCCCCCCCCCC(=O)[O-]
REMARK SMILES IDX 13 1 14 2 15 3 16 4 17 5 18 6 19 7 20 8 21 9 22 10 23 11
REMARK SMILES IDX 24 12 25 13 26 14 12 15 11 16 10 17 9 18 8 19 7 20 6 21 5 22
REMARK SMILES IDX 4 23 3 24 2 25 1 26
REMARK H PARENT
REMARK Flexibility Score: inf
ROOT
ATOM      1  C   UNL     1      15.271 -33.923  22.291  1.00  0.00     0.000 C 
ENDROOT
BRANCH   1   2
ATOM      2  C   UNL     1      14.615 -33.104  23.419  1.00  0.00     0.000 C 
BRANCH   2   3
ATOM      3  C   UNL     1      15.201 -31.693  23.629  1.00  0.00     0.000 C 
BRANCH   3   4
ATOM      4  C   UNL     1      14.547 -30.585  22.783  1.00  0.00     0.000 C 
BRANCH   4   5
ATOM      5  C   UNL     1      15.502 -29.998  21.733  1.00  0.00     0.000 C 
BRANCH   5   6
ATOM      6  C   UNL     1      16.951 -30.435  22.001  1.00  0.00     0.000 C 
BRANCH   6   7
ATOM      7  C   UNL     1      17.558 -31.238  20.834  1.00  0.00     0.000 C 
BRANCH   7   8
ATOM      8  C   UNL     1      18.566 -32.323  21.254  1.00  0.00     0.000 C 
BRANCH   8   9
ATOM      9  C   UNL     1      19.732 -31.762  22.085  1.00  0.00     0.000 C 
BRANCH   9  10
ATOM     10  C   UNL     1      20.841 -31.166  21.202  1.00  0.00     0.006 C 
BRANCH  10  11
ATOM     11  C   UNL     1      20.762 -29.635  21.126  1.00  0.00     0.053 C 
BRANCH  11  12
ATOM     12  C   UNL     1      21.658 -29.008  22.148  1.00  0.00     0.041 C 
ATOM     13  O   UNL     1      22.351 -29.733  22.912  1.00  0.00    -0.550 OA
ATOM     14  O   UNL     1      21.750 -27.624  22.237  1.00  0.00    -0.550 OA
ENDBRANCH  11  12
ENDBRANCH  10  11
ENDBRANCH   9  10
ENDBRANCH   8   9
ENDBRANCH   7   8
ENDBRANCH   6   7
ENDBRANCH   5   6
ENDBRANCH   4   5
ENDBRANCH   3   4
ENDBRANCH   2   3
ENDBRANCH   1   2
BRANCH   1  15
ATOM     15  C   UNL     1      14.708 -33.652  20.883  1.00  0.00     0.000 C 
BRANCH  15  16
ATOM     16  C   UNL     1      15.137 -34.667  19.805  1.00  0.00     0.000 C 
BRANCH  16  17
ATOM     17  C   UNL     1      16.409 -34.288  19.024  1.00  0.00     0.000 C 
BRANCH  17  18
ATOM     18  C   UNL     1      17.558 -35.281  19.242  1.00  0.00    -0.000 C 
BRANCH  18  19
ATOM     19  C   UNL     1      17.028 -36.675  19.601  1.00  0.00    -0.000 C 
BRANCH  19  20
ATOM     20  C   UNL     1      17.671 -37.184  20.896  1.00  0.00    -0.000 C 
BRANCH  20  21
ATOM     21  C   UNL     1      17.974 -36.029  21.857  1.00  0.00    -0.000 C 
BRANCH  21  22
ATOM     22  C   UNL     1      18.933 -36.479  22.967  1.00  0.00    -0.000 C 
BRANCH  22  23
ATOM     23  C   UNL     1      19.698 -35.283  23.557  1.00  0.00    -0.000 C 
BRANCH  23  24
ATOM     24  C   UNL     1      19.146 -34.849  24.924  1.00  0.00    -0.000 C 
BRANCH  24  25
ATOM     25  C   UNL     1      18.003 -33.830  24.803  1.00  0.00    -0.003 C 
ATOM     26  C   UNL     1      18.348 -32.528  25.521  1.00  0.00     0.004 C 
ENDBRANCH  24  25
ENDBRANCH  23  24
ENDBRANCH  22  23
ENDBRANCH  21  22
ENDBRANCH  20  21
ENDBRANCH  19  20
ENDBRANCH  18  19
ENDBRANCH  17  18
ENDBRANCH  16  17
ENDBRANCH  15  16
ENDBRANCH   1  15
TORSDOF 22
ENDMDL
MODEL 9
REMARK VINA RESULT:    -4.913      1.138      2.566
REMARK INTER + INTRA:         -14.647
REMARK INTER:                 -11.225
REMARK INTRA:                  -3.422
REMARK UNBOUND:                -3.416
REMARK SMILES CCCCCCCCCCCCCCCCCCCCCCCC(=O)[O-]
REMARK SMILES IDX 13 1 14 2 15 3 16 4 17 5 18 6 19 7 20 8 21 9 22 10 23 11
REMARK SMILES IDX 24 12 25 13 26 14 12 15 11 16 10 17 9 18 8 19 7 20 6 21 5 22
REMARK SMILES IDX 4 23 3 24 2 25 1 26
REMARK H PARENT
REMARK Flexibility Score: inf
ROOT
ATOM      1  C   UNL     1      14.964 -29.062  22.257  1.00  0.00     0.000 C 
ENDROOT
BRANCH   1   2
ATOM      2  C   UNL     1      16.236 -29.614  21.586  1.00  0.00     0.000 C 
BRANCH   2   3
ATOM      3  C   UNL     1      17.142 -30.465  22.499  1.00  0.00     0.000 C 
BRANCH   3   4
ATOM      4  C   UNL     1      18.103 -31.414  21.760  1.00  0.00     0.000 C 
BRANCH   4   5
ATOM      5  C   UNL     1      19.377 -31.713  22.563  1.00  0.00     0.000 C 
BRANCH   5   6
ATOM      6  C   UNL     1      20.610 -31.752  21.644  1.00  0.00     0.000 C 
BRANCH   6   7
ATOM      7  C   UNL     1      20.632 -30.597  20.626  1.00  0.00     0.000 C 
BRANCH   7   8
ATOM      8  C   UNL     1      20.901 -29.208  21.232  1.00  0.00     0.000 C 
BRANCH   8   9
ATOM      9  C   UNL     1      19.859 -28.160  20.805  1.00  0.00     0.000 C 
BRANCH   9  10
ATOM     10  C   UNL     1      20.214 -26.750  21.307  1.00  0.00     0.006 C 
BRANCH  10  11
ATOM     11  C   UNL     1      20.648 -25.820  20.166  1.00  0.00     0.053 C 
BRANCH  11  12
ATOM     12  C   UNL     1      22.137 -25.671  20.142  1.00  0.00     0.041 C 
ATOM     13  O   UNL     1      22.672 -24.601  20.540  1.00  0.00    -0.550 OA
ATOM     14  O   UNL     1      22.934 -26.723  19.709  1.00  0.00    -0.550 OA
ENDBRANCH  11  12
ENDBRANCH  10  11
ENDBRANCH   9  10
ENDBRANCH   8   9
ENDBRANCH   7   8
ENDBRANCH   6   7
ENDBRANCH   5   6
ENDBRANCH   4   5
ENDBRANCH   3   4
ENDBRANCH   2   3
ENDBRANCH   1   2
BRANCH   1  15
ATOM     15  C   UNL     1      13.750 -30.010  22.221  1.00  0.00     0.000 C 
BRANCH  15  16
ATOM     16  C   UNL     1      13.516 -30.814  23.516  1.00  0.00     0.000 C 
BRANCH  16  17
ATOM     17  C   UNL     1      14.004 -32.274  23.472  1.00  0.00     0.000 C 
BRANCH  17  18
ATOM     18  C   UNL     1      14.344 -32.743  22.051  1.00  0.00    -0.000 C 
BRANCH  18  19
ATOM     19  C   UNL     1      15.260 -33.973  22.076  1.00  0.00    -0.000 C 
BRANCH  19  20
ATOM     20  C   UNL     1      15.659 -34.324  23.514  1.00  0.00    -0.000 C 
BRANCH  20  21
ATOM     21  C   UNL     1      17.183 -34.329  23.682  1.00  0.00    -0.000 C 
BRANCH  21  22
ATOM     22  C   UNL     1      17.785 -35.643  23.167  1.00  0.00    -0.000 C 
BRANCH  22  23
ATOM     23  C   UNL     1      18.364 -35.471  21.753  1.00  0.00    -0.000 C 
BRANCH  23  24
ATOM     24  C   UNL     1      17.675 -36.379  20.722  1.00  0.00    -0.000 C 
BRANCH  24  25
ATOM     25  C   UNL     1      17.358 -35.647  19.409  1.00  0.00    -0.003 C 
ATOM     26  C   UNL     1      18.036 -34.281  19.364  1.00  0.00     0.004 C 
ENDBRANCH  24  25
ENDBRANCH  23  24
ENDBRANCH  22  23
ENDBRANCH  21  22
ENDBRANCH  20  21
ENDBRANCH  19  20
ENDBRANCH  18  19
ENDBRANCH  17  18
ENDBRANCH  16  17
ENDBRANCH  15  16
ENDBRANCH   1  15
TORSDOF 22
ENDMDL
