MODEL 1
REMARK VINA RESULT:    -4.504      0.000      0.000
REMARK INTER + INTRA:          -4.635
REMARK INTER:                  -4.635
REMARK INTRA:                   0.000
REMARK UNBOUND:                 0.000
REMARK SMILES O=c1ccc2ccc(O)cc2o1
REMARK SMILES IDX 6 1 7 2 8 3 10 4 11 5 5 6 4 7 3 8 2 9 1 10 12 11 9 12
REMARK H PARENT 9 13
REMARK Flexibility Score: inf
ROOT
ATOM      1  C   UNL     1      18.373 -47.997   7.115  1.00  0.00     0.016 A 
ATOM      2  C   UNL     1      19.153 -48.826   6.304  1.00  0.00     0.047 A 
ATOM      3  C   UNL     1      20.230 -48.300   5.581  1.00  0.00     0.119 A 
ATOM      4  C   UNL     1      20.530 -46.933   5.670  1.00  0.00     0.094 A 
ATOM      5  C   UNL     1      19.755 -46.095   6.478  1.00  0.00     0.142 A 
ATOM      6  C   UNL     1      18.669 -46.630   7.206  1.00  0.00     0.018 A 
ATOM      7  C   UNL     1      17.914 -45.767   8.006  1.00  0.00     0.019 A 
ATOM      8  C   UNL     1      18.250 -44.415   8.062  1.00  0.00     0.094 A 
ATOM      9  C   UNL     1      19.339 -43.956   7.314  1.00  0.00     0.336 A 
ATOM     10  O   UNL     1      19.658 -42.738   7.351  1.00  0.00    -0.246 OA
ATOM     11  O   UNL     1      20.042 -44.797   6.560  1.00  0.00    -0.423 OA
ENDROOT
BRANCH   3  12
ATOM     12  O   UNL     1      20.995 -49.143   4.778  1.00  0.00    -0.508 OA
ATOM     13  H   UNL     1      21.008 -50.146   4.925  1.00  0.00     0.293 HD
ENDBRANCH   3  12
TORSDOF 1
ENDMDL
MODEL 2
REMARK VINA RESULT:    -4.478      2.619      4.863
REMARK INTER + INTRA:          -4.609
REMARK INTER:                  -4.609
REMARK INTRA:                   0.000
REMARK UNBOUND:                 0.000
REMARK SMILES O=c1ccc2ccc(O)cc2o1
REMARK SMILES IDX 6 1 7 2 8 3 10 4 11 5 5 6 4 7 3 8 2 9 1 10 12 11 9 12
REMARK H PARENT 9 13
REMARK Flexibility Score: inf
ROOT
ATOM      1  C   UNL     1      20.446 -42.463   8.750  1.00  0.00     0.016 A 
ATOM      2  C   UNL     1      21.751 -42.125   9.120  1.00  0.00     0.047 A 
ATOM      3  C   UNL     1      22.826 -42.941   8.747  1.00  0.00     0.119 A 
ATOM      4  C   UNL     1      22.594 -44.104   7.998  1.00  0.00     0.094 A 
ATOM      5  C   UNL     1      21.292 -44.450   7.624  1.00  0.00     0.142 A 
ATOM      6  C   UNL     1      20.210 -43.625   8.001  1.00  0.00     0.018 A 
ATOM      7  C   UNL     1      18.920 -43.997   7.612  1.00  0.00     0.019 A 
ATOM      8  C   UNL     1      18.738 -45.163   6.868  1.00  0.00     0.094 A 
ATOM      9  C   UNL     1      19.857 -45.932   6.530  1.00  0.00     0.336 A 
ATOM     10  O   UNL     1      19.714 -46.987   5.859  1.00  0.00    -0.246 OA
ATOM     11  O   UNL     1      21.075 -45.555   6.913  1.00  0.00    -0.423 OA
ENDROOT
BRANCH   3  12
ATOM     12  O   UNL     1      24.119 -42.587   9.125  1.00  0.00    -0.508 OA
ATOM     13  H   UNL     1      24.366 -41.626   9.333  1.00  0.00     0.293 HD
ENDBRANCH   3  12
TORSDOF 1
ENDMDL
MODEL 3
REMARK VINA RESULT:    -4.471      2.629      3.319
REMARK INTER + INTRA:          -4.602
REMARK INTER:                  -4.602
REMARK INTRA:                   0.000
REMARK UNBOUND:                 0.000
REMARK SMILES O=c1ccc2ccc(O)cc2o1
REMARK SMILES IDX 6 1 7 2 8 3 10 4 11 5 5 6 4 7 3 8 2 9 1 10 12 11 9 12
REMARK H PARENT 9 13
REMARK Flexibility Score: inf
ROOT
ATOM      1  C   UNL     1      17.783 -44.726   7.710  1.00  0.00     0.016 A 
ATOM      2  C   UNL     1      17.307 -46.005   8.016  1.00  0.00     0.047 A 
ATOM      3  C   UNL     1      18.186 -47.001   8.457  1.00  0.00     0.119 A 
ATOM      4  C   UNL     1      19.553 -46.716   8.594  1.00  0.00     0.094 A 
ATOM      5  C   UNL     1      20.039 -45.440   8.290  1.00  0.00     0.142 A 
ATOM      6  C   UNL     1      19.148 -44.438   7.846  1.00  0.00     0.018 A 
ATOM      7  C   UNL     1      19.663 -43.172   7.550  1.00  0.00     0.019 A 
ATOM      8  C   UNL     1      21.029 -42.936   7.701  1.00  0.00     0.094 A 
ATOM      9  C   UNL     1      21.852 -43.977   8.146  1.00  0.00     0.336 A 
ATOM     10  O   UNL     1      23.088 -43.784   8.289  1.00  0.00    -0.246 OA
ATOM     11  O   UNL     1      21.336 -45.173   8.421  1.00  0.00    -0.423 OA
ENDROOT
BRANCH   3  12
ATOM     12  O   UNL     1      17.693 -48.268   8.757  1.00  0.00    -0.508 OA
ATOM     13  H   UNL     1      17.011 -48.411   9.494  1.00  0.00     0.293 HD
ENDBRANCH   3  12
TORSDOF 1
ENDMDL
MODEL 4
REMARK VINA RESULT:    -4.469      2.533      3.529
REMARK INTER + INTRA:          -4.599
REMARK INTER:                  -4.599
REMARK INTRA:                   0.000
REMARK UNBOUND:                 0.000
REMARK SMILES O=c1ccc2ccc(O)cc2o1
REMARK SMILES IDX 6 1 7 2 8 3 10 4 11 5 5 6 4 7 3 8 2 9 1 10 12 11 9 12
REMARK H PARENT 9 13
REMARK Flexibility Score: inf
ROOT
ATOM      1  C   UNL     1      18.867 -44.014   7.948  1.00  0.00     0.016 A 
ATOM      2  C   UNL     1      18.524 -45.182   7.260  1.00  0.00     0.047 A 
ATOM      3  C   UNL     1      19.519 -45.998   6.709  1.00  0.00     0.119 A 
ATOM      4  C   UNL     1      20.870 -45.644   6.848  1.00  0.00     0.094 A 
ATOM      5  C   UNL     1      21.223 -44.478   7.534  1.00  0.00     0.142 A 
ATOM      6  C   UNL     1      20.215 -43.657   8.088  1.00  0.00     0.018 A 
ATOM      7  C   UNL     1      20.600 -42.498   8.769  1.00  0.00     0.019 A 
ATOM      8  C   UNL     1      21.954 -42.186   8.881  1.00  0.00     0.094 A 
ATOM      9  C   UNL     1      22.897 -43.046   8.307  1.00  0.00     0.336 A 
ATOM     10  O   UNL     1      24.125 -42.783   8.397  1.00  0.00    -0.246 OA
ATOM     11  O   UNL     1      22.505 -44.144   7.664  1.00  0.00    -0.423 OA
ENDROOT
BRANCH   3  12
ATOM     12  O   UNL     1      19.157 -47.158   6.027  1.00  0.00    -0.508 OA
ATOM     13  H   UNL     1      19.510 -48.067   6.304  1.00  0.00     0.293 HD
ENDBRANCH   3  12
TORSDOF 1
ENDMDL
MODEL 5
REMARK VINA RESULT:    -4.451      3.024      4.485
REMARK INTER + INTRA:          -4.582
REMARK INTER:                  -4.582
REMARK INTRA:                   0.000
REMARK UNBOUND:                 0.000
REMARK SMILES O=c1ccc2ccc(O)cc2o1
REMARK SMILES IDX 6 1 7 2 8 3 10 4 11 5 5 6 4 7 3 8 2 9 1 10 12 11 9 12
REMARK H PARENT 9 13
REMARK Flexibility Score: inf
ROOT
ATOM      1  C   UNL     1      21.156 -45.882   7.338  1.00  0.00     0.016 A 
ATOM      2  C   UNL     1      19.774 -45.736   7.179  1.00  0.00     0.047 A 
ATOM      3  C   UNL     1      19.174 -44.480   7.324  1.00  0.00     0.119 A 
ATOM      4  C   UNL     1      19.961 -43.360   7.632  1.00  0.00     0.094 A 
ATOM      5  C   UNL     1      21.344 -43.497   7.793  1.00  0.00     0.142 A 
ATOM      6  C   UNL     1      21.946 -44.766   7.645  1.00  0.00     0.018 A 
ATOM      7  C   UNL     1      23.330 -44.870   7.813  1.00  0.00     0.019 A 
ATOM      8  C   UNL     1      24.071 -43.729   8.118  1.00  0.00     0.094 A 
ATOM      9  C   UNL     1      23.406 -42.505   8.250  1.00  0.00     0.336 A 
ATOM     10  O   UNL     1      24.058 -41.463   8.525  1.00  0.00    -0.246 OA
ATOM     11  O   UNL     1      22.088 -42.432   8.085  1.00  0.00    -0.423 OA
ENDROOT
BRANCH   3  12
ATOM     12  O   UNL     1      17.796 -44.355   7.162  1.00  0.00    -0.508 OA
ATOM     13  H   UNL     1      17.364 -44.411   6.246  1.00  0.00     0.293 HD
ENDBRANCH   3  12
TORSDOF 1
ENDMDL
MODEL 6
REMARK VINA RESULT:    -4.404      2.736      4.647
REMARK INTER + INTRA:          -4.533
REMARK INTER:                  -4.533
REMARK INTRA:                   0.000
REMARK UNBOUND:                 0.000
REMARK SMILES O=c1ccc2ccc(O)cc2o1
REMARK SMILES IDX 6 1 7 2 8 3 10 4 11 5 5 6 4 7 3 8 2 9 1 10 12 11 9 12
REMARK H PARENT 9 13
REMARK Flexibility Score: inf
ROOT
ATOM      1  C   UNL     1      20.371 -42.765   7.624  1.00  0.00     0.016 A 
ATOM      2  C   UNL     1      21.677 -42.502   8.049  1.00  0.00     0.047 A 
ATOM      3  C   UNL     1      22.418 -43.488   8.710  1.00  0.00     0.119 A 
ATOM      4  C   UNL     1      21.850 -44.748   8.950  1.00  0.00     0.094 A 
ATOM      5  C   UNL     1      20.543 -45.020   8.529  1.00  0.00     0.142 A 
ATOM      6  C   UNL     1      19.799 -44.022   7.862  1.00  0.00     0.018 A 
ATOM      7  C   UNL     1      18.496 -44.324   7.454  1.00  0.00     0.019 A 
ATOM      8  C   UNL     1      17.973 -45.590   7.715  1.00  0.00     0.094 A 
ATOM      9  C   UNL     1      18.769 -46.528   8.380  1.00  0.00     0.336 A 
ATOM     10  O   UNL     1      18.314 -47.677   8.625  1.00  0.00    -0.246 OA
ATOM     11  O   UNL     1      20.006 -46.216   8.758  1.00  0.00    -0.423 OA
ENDROOT
BRANCH   3  12
ATOM     12  O   UNL     1      23.718 -43.207   9.125  1.00  0.00    -0.508 OA
ATOM     13  H   UNL     1      24.441 -42.946   8.463  1.00  0.00     0.293 HD
ENDBRANCH   3  12
TORSDOF 1
ENDMDL
MODEL 7
REMARK VINA RESULT:    -4.359      0.903      4.224
REMARK INTER + INTRA:          -4.486
REMARK INTER:                  -4.486
REMARK INTRA:                   0.000
REMARK UNBOUND:                 0.000
REMARK SMILES O=c1ccc2ccc(O)cc2o1
REMARK SMILES IDX 6 1 7 2 8 3 10 4 11 5 5 6 4 7 3 8 2 9 1 10 12 11 9 12
REMARK H PARENT 9 13
REMARK Flexibility Score: inf
ROOT
ATOM      1  C   UNL     1      17.738 -46.107   7.962  1.00  0.00     0.016 A 
ATOM      2  C   UNL     1      17.951 -44.737   7.780  1.00  0.00     0.047 A 
ATOM      3  C   UNL     1      19.014 -44.285   6.989  1.00  0.00     0.119 A 
ATOM      4  C   UNL     1      19.872 -45.209   6.375  1.00  0.00     0.094 A 
ATOM      5  C   UNL     1      19.667 -46.582   6.552  1.00  0.00     0.142 A 
ATOM      6  C   UNL     1      18.593 -47.034   7.350  1.00  0.00     0.018 A 
ATOM      7  C   UNL     1      18.415 -48.412   7.508  1.00  0.00     0.019 A 
ATOM      8  C   UNL     1      19.293 -49.293   6.879  1.00  0.00     0.094 A 
ATOM      9  C   UNL     1      20.335 -48.772   6.103  1.00  0.00     0.336 A 
ATOM     10  O   UNL     1      21.139 -49.552   5.526  1.00  0.00    -0.246 OA
ATOM     11  O   UNL     1      20.483 -47.457   5.969  1.00  0.00    -0.423 OA
ENDROOT
BRANCH   3  12
ATOM     12  O   UNL     1      19.209 -42.916   6.820  1.00  0.00    -0.508 OA
ATOM     13  H   UNL     1      19.467 -42.525   5.921  1.00  0.00     0.293 HD
ENDBRANCH   3  12
TORSDOF 1
ENDMDL
MODEL 8
REMARK VINA RESULT:    -4.286      2.887      3.741
REMARK INTER + INTRA:          -4.411
REMARK INTER:                  -4.411
REMARK INTRA:                   0.000
REMARK UNBOUND:                 0.000
REMARK SMILES O=c1ccc2ccc(O)cc2o1
REMARK SMILES IDX 6 1 7 2 8 3 10 4 11 5 5 6 4 7 3 8 2 9 1 10 12 11 9 12
REMARK H PARENT 9 13
REMARK Flexibility Score: inf
ROOT
ATOM      1  C   UNL     1      19.456 -46.771   8.765  1.00  0.00     0.016 A 
ATOM      2  C   UNL     1      18.103 -46.728   8.414  1.00  0.00     0.047 A 
ATOM      3  C   UNL     1      17.497 -45.512   8.078  1.00  0.00     0.119 A 
ATOM      4  C   UNL     1      18.249 -44.328   8.092  1.00  0.00     0.094 A 
ATOM      5  C   UNL     1      19.603 -44.361   8.441  1.00  0.00     0.142 A 
ATOM      6  C   UNL     1      20.211 -45.590   8.780  1.00  0.00     0.018 A 
ATOM      7  C   UNL     1      21.566 -45.591   9.125  1.00  0.00     0.019 A 
ATOM      8  C   UNL     1      22.273 -44.389   9.125  1.00  0.00     0.094 A 
ATOM      9  C   UNL     1      21.605 -43.209   8.778  1.00  0.00     0.336 A 
ATOM     10  O   UNL     1      22.226 -42.114   8.772  1.00  0.00    -0.246 OA
ATOM     11  O   UNL     1      20.315 -43.236   8.454  1.00  0.00    -0.423 OA
ENDROOT
BRANCH   3  12
ATOM     12  O   UNL     1      16.147 -45.490   7.732  1.00  0.00    -0.508 OA
ATOM     13  H   UNL     1      15.641 -46.343   7.519  1.00  0.00     0.293 HD
ENDBRANCH   3  12
TORSDOF 1
ENDMDL
MODEL 9
REMARK VINA RESULT:    -4.232      2.969      5.014
REMARK INTER + INTRA:          -4.356
REMARK INTER:                  -4.356
REMARK INTRA:                   0.000
REMARK UNBOUND:                 0.000
REMARK SMILES O=c1ccc2ccc(O)cc2o1
REMARK SMILES IDX 6 1 7 2 8 3 10 4 11 5 5 6 4 7 3 8 2 9 1 10 12 11 9 12
REMARK H PARENT 9 13
REMARK Flexibility Score: inf
ROOT
ATOM      1  C   UNL     1      22.912 -44.757   7.860  1.00  0.00     0.016 A 
ATOM      2  C   UNL     1      23.650 -43.633   8.243  1.00  0.00     0.047 A 
ATOM      3  C   UNL     1      23.000 -42.484   8.709  1.00  0.00     0.119 A 
ATOM      4  C   UNL     1      21.600 -42.459   8.795  1.00  0.00     0.094 A 
ATOM      5  C   UNL     1      20.853 -43.578   8.413  1.00  0.00     0.142 A 
ATOM      6  C   UNL     1      21.513 -44.736   7.944  1.00  0.00     0.018 A 
ATOM      7  C   UNL     1      20.739 -45.839   7.570  1.00  0.00     0.019 A 
ATOM      8  C   UNL     1      19.350 -45.766   7.672  1.00  0.00     0.094 A 
ATOM      9  C   UNL     1      18.765 -44.587   8.146  1.00  0.00     0.336 A 
ATOM     10  O   UNL     1      17.513 -44.502   8.245  1.00  0.00    -0.246 OA
ATOM     11  O   UNL     1      19.525 -43.552   8.495  1.00  0.00    -0.423 OA
ENDROOT
BRANCH   3  12
ATOM     12  O   UNL     1      23.753 -41.375   9.086  1.00  0.00    -0.508 OA
ATOM     13  H   UNL     1      24.239 -40.807   8.401  1.00  0.00     0.293 HD
ENDBRANCH   3  12
TORSDOF 1
ENDMDL
