MODEL 1
REMARK VINA RESULT:    -5.523      0.000      0.000
REMARK INTER + INTRA:         -10.618
REMARK INTER:                  -9.398
REMARK INTRA:                  -1.220
REMARK UNBOUND:                -1.220
REMARK SMILES CCCCCCCCCCCCCC(=O)[O-]
REMARK SMILES IDX 8 1 9 2 10 3 11 4 12 5 13 6 14 7 15 8 16 9 7 10 6 11 5 12
REMARK SMILES IDX 4 13 3 14 2 15 1 16
REMARK H PARENT
REMARK Flexibility Score: inf
ROOT
ATOM      1  C   UNL     1      18.363   9.050 -19.099  1.00  0.00     0.000 C 
ENDROOT
BRANCH   1   2
ATOM      2  C   UNL     1      19.388   9.076 -20.245  1.00  0.00     0.000 C 
BRANCH   2   3
ATOM      3  C   UNL     1      19.890  10.497 -20.560  1.00  0.00     0.000 C 
BRANCH   3   4
ATOM      4  C   UNL     1      19.348  11.032 -21.895  1.00  0.00     0.000 C 
BRANCH   4   5
ATOM      5  C   UNL     1      18.639  12.389 -21.744  1.00  0.00     0.006 C 
BRANCH   5   6
ATOM      6  C   UNL     1      17.670  12.406 -20.555  1.00  0.00     0.053 C 
BRANCH   6   7
ATOM      7  C   UNL     1      17.924  13.568 -19.645  1.00  0.00     0.041 C 
ATOM      8  O   UNL     1      16.959  14.207 -19.149  1.00  0.00    -0.550 OA
ATOM      9  O   UNL     1      19.226  13.927 -19.320  1.00  0.00    -0.550 OA
ENDBRANCH   6   7
ENDBRANCH   5   6
ENDBRANCH   4   5
ENDBRANCH   3   4
ENDBRANCH   2   3
ENDBRANCH   1   2
BRANCH   1  10
ATOM     10  C   UNL     1      16.932   8.779 -19.593  1.00  0.00     0.000 C 
BRANCH  10  11
ATOM     11  C   UNL     1      16.816   8.806 -21.128  1.00  0.00    -0.000 C 
BRANCH  11  12
ATOM     12  C   UNL     1      15.480   8.280 -21.692  1.00  0.00    -0.000 C 
BRANCH  12  13
ATOM     13  C   UNL     1      15.272   6.756 -21.576  1.00  0.00    -0.000 C 
BRANCH  13  14
ATOM     14  C   UNL     1      14.379   6.312 -20.403  1.00  0.00    -0.000 C 
BRANCH  14  15
ATOM     15  C   UNL     1      13.298   7.345 -20.054  1.00  0.00    -0.003 C 
ATOM     16  C   UNL     1      13.083   7.426 -18.546  1.00  0.00     0.004 C 
ENDBRANCH  14  15
ENDBRANCH  13  14
ENDBRANCH  12  13
ENDBRANCH  11  12
ENDBRANCH  10  11
ENDBRANCH   1  10
TORSDOF 12
ENDMDL
MODEL 2
REMARK VINA RESULT:    -5.169      0.888      1.494
REMARK INTER + INTRA:         -10.014
REMARK INTER:                  -8.958
REMARK INTRA:                  -1.056
REMARK UNBOUND:                -1.220
REMARK SMILES CCCCCCCCCCCCCC(=O)[O-]
REMARK SMILES IDX 8 1 9 2 10 3 11 4 12 5 13 6 14 7 15 8 16 9 7 10 6 11 5 12
REMARK SMILES IDX 4 13 3 14 2 15 1 16
REMARK H PARENT
REMARK Flexibility Score: inf
ROOT
ATOM      1  C   UNL     1      17.011   8.804 -20.117  1.00  0.00     0.000 C 
ENDROOT
BRANCH   1   2
ATOM      2  C   UNL     1      18.078   9.794 -19.619  1.00  0.00     0.000 C 
BRANCH   2   3
ATOM      3  C   UNL     1      19.378   9.727 -20.441  1.00  0.00     0.000 C 
BRANCH   3   4
ATOM      4  C   UNL     1      19.874  11.116 -20.876  1.00  0.00     0.000 C 
BRANCH   4   5
ATOM      5  C   UNL     1      18.721  12.106 -21.113  1.00  0.00     0.006 C 
BRANCH   5   6
ATOM      6  C   UNL     1      18.846  13.360 -20.237  1.00  0.00     0.053 C 
BRANCH   6   7
ATOM      7  C   UNL     1      17.506  13.913 -19.860  1.00  0.00     0.041 C 
ATOM      8  O   UNL     1      16.454  13.369 -20.287  1.00  0.00    -0.550 OA
ATOM      9  O   UNL     1      17.418  15.010 -19.013  1.00  0.00    -0.550 OA
ENDBRANCH   6   7
ENDBRANCH   5   6
ENDBRANCH   4   5
ENDBRANCH   3   4
ENDBRANCH   2   3
ENDBRANCH   1   2
BRANCH   1  10
ATOM     10  C   UNL     1      16.521   9.131 -21.537  1.00  0.00     0.000 C 
BRANCH  10  11
ATOM     11  C   UNL     1      15.383   8.203 -22.005  1.00  0.00    -0.000 C 
BRANCH  11  12
ATOM     12  C   UNL     1      15.357   6.813 -21.339  1.00  0.00    -0.000 C 
BRANCH  12  13
ATOM     13  C   UNL     1      14.107   6.517 -20.485  1.00  0.00    -0.000 C 
BRANCH  13  14
ATOM     14  C   UNL     1      12.996   7.579 -20.573  1.00  0.00    -0.000 C 
BRANCH  14  15
ATOM     15  C   UNL     1      12.320   7.847 -19.221  1.00  0.00    -0.003 C 
ATOM     16  C   UNL     1      13.311   7.692 -18.070  1.00  0.00     0.004 C 
ENDBRANCH  14  15
ENDBRANCH  13  14
ENDBRANCH  12  13
ENDBRANCH  11  12
ENDBRANCH  10  11
ENDBRANCH   1  10
TORSDOF 12
ENDMDL
MODEL 3
REMARK VINA RESULT:    -5.141      3.898      5.822
REMARK INTER + INTRA:          -9.967
REMARK INTER:                  -9.381
REMARK INTRA:                  -0.585
REMARK UNBOUND:                -1.220
REMARK SMILES CCCCCCCCCCCCCC(=O)[O-]
REMARK SMILES IDX 8 1 9 2 10 3 11 4 12 5 13 6 14 7 15 8 16 9 7 10 6 11 5 12
REMARK SMILES IDX 4 13 3 14 2 15 1 16
REMARK H PARENT
REMARK Flexibility Score: inf
ROOT
ATOM      1  C   UNL     1      13.378   7.116 -18.855  1.00  0.00     0.000 C 
ENDROOT
BRANCH   1   2
ATOM      2  C   UNL     1      13.547   7.133 -20.383  1.00  0.00     0.000 C 
BRANCH   2   3
ATOM      3  C   UNL     1      14.952   6.687 -20.829  1.00  0.00     0.000 C 
BRANCH   3   4
ATOM      4  C   UNL     1      15.571   7.638 -21.867  1.00  0.00     0.000 C 
BRANCH   4   5
ATOM      5  C   UNL     1      16.505   8.681 -21.229  1.00  0.00     0.006 C 
BRANCH   5   6
ATOM      6  C   UNL     1      16.822   8.356 -19.763  1.00  0.00     0.053 C 
BRANCH   6   7
ATOM      7  C   UNL     1      17.812   9.317 -19.181  1.00  0.00     0.041 C 
ATOM      8  O   UNL     1      18.786   8.891 -18.507  1.00  0.00    -0.550 OA
ATOM      9  O   UNL     1      17.676  10.681 -19.406  1.00  0.00    -0.550 OA
ENDBRANCH   6   7
ENDBRANCH   5   6
ENDBRANCH   4   5
ENDBRANCH   3   4
ENDBRANCH   2   3
ENDBRANCH   1   2
BRANCH   1  10
ATOM     10  C   UNL     1      12.626   8.351 -18.331  1.00  0.00     0.000 C 
BRANCH  10  11
ATOM     11  C   UNL     1      11.707   8.984 -19.392  1.00  0.00    -0.000 C 
BRANCH  11  12
ATOM     12  C   UNL     1      10.836  10.154 -18.889  1.00  0.00    -0.000 C 
BRANCH  12  13
ATOM     13  C   UNL     1      10.647  11.311 -19.891  1.00  0.00    -0.000 C 
BRANCH  13  14
ATOM     14  C   UNL     1       9.686  12.420 -19.427  1.00  0.00    -0.000 C 
BRANCH  14  15
ATOM     15  C   UNL     1       8.634  12.778 -20.486  1.00  0.00    -0.003 C 
ATOM     16  C   UNL     1       8.531  14.290 -20.670  1.00  0.00     0.004 C 
ENDBRANCH  14  15
ENDBRANCH  13  14
ENDBRANCH  12  13
ENDBRANCH  11  12
ENDBRANCH  10  11
ENDBRANCH   1  10
TORSDOF 12
ENDMDL
MODEL 4
REMARK VINA RESULT:    -5.000      2.954      6.354
REMARK INTER + INTRA:          -9.727
REMARK INTER:                  -8.698
REMARK INTRA:                  -1.030
REMARK UNBOUND:                -1.220
REMARK SMILES CCCCCCCCCCCCCC(=O)[O-]
REMARK SMILES IDX 8 1 9 2 10 3 11 4 12 5 13 6 14 7 15 8 16 9 7 10 6 11 5 12
REMARK SMILES IDX 4 13 3 14 2 15 1 16
REMARK H PARENT
REMARK Flexibility Score: inf
ROOT
ATOM      1  C   UNL     1      17.895   9.550 -19.370  1.00  0.00     0.000 C 
ENDROOT
BRANCH   1   2
ATOM      2  C   UNL     1      16.786   8.555 -19.753  1.00  0.00     0.000 C 
BRANCH   2   3
ATOM      3  C   UNL     1      16.460   8.580 -21.258  1.00  0.00     0.000 C 
BRANCH   3   4
ATOM      4  C   UNL     1      15.545   7.421 -21.683  1.00  0.00     0.000 C 
BRANCH   4   5
ATOM      5  C   UNL     1      14.906   6.702 -20.483  1.00  0.00     0.006 C 
BRANCH   5   6
ATOM      6  C   UNL     1      13.377   6.819 -20.484  1.00  0.00     0.053 C 
BRANCH   6   7
ATOM      7  C   UNL     1      12.882   7.666 -19.352  1.00  0.00     0.041 C 
ATOM      8  O   UNL     1      13.336   7.498 -18.190  1.00  0.00    -0.550 OA
ATOM      9  O   UNL     1      11.940   8.661 -19.586  1.00  0.00    -0.550 OA
ENDBRANCH   6   7
ENDBRANCH   5   6
ENDBRANCH   4   5
ENDBRANCH   3   4
ENDBRANCH   2   3
ENDBRANCH   1   2
BRANCH   1  10
ATOM     10  C   UNL     1      19.217   9.270 -20.103  1.00  0.00     0.000 C 
BRANCH  10  11
ATOM     11  C   UNL     1      19.743  10.494 -20.875  1.00  0.00    -0.000 C 
BRANCH  11  12
ATOM     12  C   UNL     1      18.674  11.286 -21.655  1.00  0.00    -0.000 C 
BRANCH  12  13
ATOM     13  C   UNL     1      18.553  12.776 -21.276  1.00  0.00    -0.000 C 
BRANCH  13  14
ATOM     14  C   UNL     1      17.413  13.106 -20.296  1.00  0.00    -0.000 C 
BRANCH  14  15
ATOM     15  C   UNL     1      17.739  14.294 -19.381  1.00  0.00    -0.003 C 
ATOM     16  C   UNL     1      19.242  14.556 -19.334  1.00  0.00     0.004 C 
ENDBRANCH  14  15
ENDBRANCH  13  14
ENDBRANCH  12  13
ENDBRANCH  11  12
ENDBRANCH  10  11
ENDBRANCH   1  10
TORSDOF 12
ENDMDL
MODEL 5
REMARK VINA RESULT:    -4.890      3.384      6.579
REMARK INTER + INTRA:          -9.540
REMARK INTER:                  -8.766
REMARK INTRA:                  -0.775
REMARK UNBOUND:                -1.220
REMARK SMILES CCCCCCCCCCCCCC(=O)[O-]
REMARK SMILES IDX 8 1 9 2 10 3 11 4 12 5 13 6 14 7 15 8 16 9 7 10 6 11 5 12
REMARK SMILES IDX 4 13 3 14 2 15 1 16
REMARK H PARENT
REMARK Flexibility Score: inf
ROOT
ATOM      1  C   UNL     1      19.364   9.273 -19.986  1.00  0.00     0.000 C 
ENDROOT
BRANCH   1   2
ATOM      2  C   UNL     1      17.913   9.548 -19.558  1.00  0.00     0.000 C 
BRANCH   2   3
ATOM      3  C   UNL     1      16.961   8.391 -19.913  1.00  0.00     0.000 C 
BRANCH   3   4
ATOM      4  C   UNL     1      16.325   8.555 -21.303  1.00  0.00     0.000 C 
BRANCH   4   5
ATOM      5  C   UNL     1      15.465   7.345 -21.706  1.00  0.00     0.006 C 
BRANCH   5   6
ATOM      6  C   UNL     1      14.882   6.618 -20.487  1.00  0.00     0.053 C 
BRANCH   6   7
ATOM      7  C   UNL     1      13.638   7.283 -19.983  1.00  0.00     0.041 C 
ATOM      8  O   UNL     1      12.886   7.904 -20.778  1.00  0.00    -0.550 OA
ATOM      9  O   UNL     1      13.294   7.191 -18.640  1.00  0.00    -0.550 OA
ENDBRANCH   6   7
ENDBRANCH   5   6
ENDBRANCH   4   5
ENDBRANCH   3   4
ENDBRANCH   2   3
ENDBRANCH   1   2
BRANCH   1  10
ATOM     10  C   UNL     1      19.912  10.349 -20.937  1.00  0.00     0.000 C 
BRANCH  10  11
ATOM     11  C   UNL     1      18.992  11.580 -21.041  1.00  0.00    -0.000 C 
BRANCH  11  12
ATOM     12  C   UNL     1      18.609  11.991 -22.477  1.00  0.00    -0.000 C 
BRANCH  12  13
ATOM     13  C   UNL     1      19.629  11.601 -23.567  1.00  0.00    -0.000 C 
BRANCH  13  14
ATOM     14  C   UNL     1      19.081  11.625 -25.005  1.00  0.00    -0.000 C 
BRANCH  14  15
ATOM     15  C   UNL     1      20.125  11.201 -26.047  1.00  0.00    -0.003 C 
ATOM     16  C   UNL     1      19.629  10.017 -26.872  1.00  0.00     0.004 C 
ENDBRANCH  14  15
ENDBRANCH  13  14
ENDBRANCH  12  13
ENDBRANCH  11  12
ENDBRANCH  10  11
ENDBRANCH   1  10
TORSDOF 12
ENDMDL
MODEL 6
REMARK VINA RESULT:    -4.700      4.352      7.022
REMARK INTER + INTRA:          -9.216
REMARK INTER:                  -8.562
REMARK INTRA:                  -0.655
REMARK UNBOUND:                -1.220
REMARK SMILES CCCCCCCCCCCCCC(=O)[O-]
REMARK SMILES IDX 8 1 9 2 10 3 11 4 12 5 13 6 14 7 15 8 16 9 7 10 6 11 5 12
REMARK SMILES IDX 4 13 3 14 2 15 1 16
REMARK H PARENT
REMARK Flexibility Score: inf
ROOT
ATOM      1  C   UNL     1      12.811   7.876 -20.154  1.00  0.00     0.000 C 
ENDROOT
BRANCH   1   2
ATOM      2  C   UNL     1      12.049   8.493 -18.970  1.00  0.00     0.000 C 
BRANCH   2   3
ATOM      3  C   UNL     1      11.174   9.690 -19.387  1.00  0.00     0.000 C 
BRANCH   3   4
ATOM      4  C   UNL     1      11.022  10.730 -18.265  1.00  0.00     0.000 C 
BRANCH   4   5
ATOM      5  C   UNL     1      10.359  12.030 -18.751  1.00  0.00     0.006 C 
BRANCH   5   6
ATOM      6  C   UNL     1       9.966  11.962 -20.232  1.00  0.00     0.053 C 
BRANCH   6   7
ATOM      7  C   UNL     1       8.806  12.857 -20.543  1.00  0.00     0.041 C 
ATOM      8  O   UNL     1       8.796  14.046 -20.130  1.00  0.00    -0.550 OA
ATOM      9  O   UNL     1       7.751  12.389 -21.316  1.00  0.00    -0.550 OA
ENDBRANCH   6   7
ENDBRANCH   5   6
ENDBRANCH   4   5
ENDBRANCH   3   4
ENDBRANCH   2   3
ENDBRANCH   1   2
BRANCH   1  10
ATOM     10  C   UNL     1      13.615   6.628 -19.752  1.00  0.00     0.000 C 
BRANCH  10  11
ATOM     11  C   UNL     1      14.947   6.505 -20.514  1.00  0.00    -0.000 C 
BRANCH  11  12
ATOM     12  C   UNL     1      15.166   7.552 -21.624  1.00  0.00    -0.000 C 
BRANCH  12  13
ATOM     13  C   UNL     1      16.256   8.604 -21.330  1.00  0.00    -0.000 C 
BRANCH  13  14
ATOM     14  C   UNL     1      16.843   8.547 -19.908  1.00  0.00    -0.000 C 
BRANCH  14  15
ATOM     15  C   UNL     1      17.939   9.596 -19.675  1.00  0.00    -0.003 C 
ATOM     16  C   UNL     1      19.306   9.068 -20.102  1.00  0.00     0.004 C 
ENDBRANCH  14  15
ENDBRANCH  13  14
ENDBRANCH  12  13
ENDBRANCH  11  12
ENDBRANCH  10  11
ENDBRANCH   1  10
TORSDOF 12
ENDMDL
MODEL 7
REMARK VINA RESULT:    -4.667      3.235      4.954
REMARK INTER + INTRA:          -9.161
REMARK INTER:                  -8.607
REMARK INTRA:                  -0.554
REMARK UNBOUND:                -1.220
REMARK SMILES CCCCCCCCCCCCCC(=O)[O-]
REMARK SMILES IDX 8 1 9 2 10 3 11 4 12 5 13 6 14 7 15 8 16 9 7 10 6 11 5 12
REMARK SMILES IDX 4 13 3 14 2 15 1 16
REMARK H PARENT
REMARK Flexibility Score: inf
ROOT
ATOM      1  C   UNL     1      13.618   7.527 -20.398  1.00  0.00     0.000 C 
ENDROOT
BRANCH   1   2
ATOM      2  C   UNL     1      14.821   6.658 -20.799  1.00  0.00     0.000 C 
BRANCH   2   3
ATOM      3  C   UNL     1      15.629   7.263 -21.962  1.00  0.00     0.000 C 
BRANCH   3   4
ATOM      4  C   UNL     1      15.754   8.793 -21.860  1.00  0.00     0.000 C 
BRANCH   4   5
ATOM      5  C   UNL     1      16.912   9.231 -20.947  1.00  0.00     0.006 C 
BRANCH   5   6
ATOM      6  C   UNL     1      17.725  10.382 -21.553  1.00  0.00     0.053 C 
BRANCH   6   7
ATOM      7  C   UNL     1      18.408  11.198 -20.500  1.00  0.00     0.041 C 
ATOM      8  O   UNL     1      17.739  11.722 -19.572  1.00  0.00    -0.550 OA
ATOM      9  O   UNL     1      19.789  11.354 -20.526  1.00  0.00    -0.550 OA
ENDBRANCH   6   7
ENDBRANCH   5   6
ENDBRANCH   4   5
ENDBRANCH   3   4
ENDBRANCH   2   3
ENDBRANCH   1   2
BRANCH   1  10
ATOM     10  C   UNL     1      13.146   7.254 -18.961  1.00  0.00     0.000 C 
BRANCH  10  11
ATOM     11  C   UNL     1      12.191   8.339 -18.429  1.00  0.00    -0.000 C 
BRANCH  11  12
ATOM     12  C   UNL     1      11.512   9.201 -19.512  1.00  0.00    -0.000 C 
BRANCH  12  13
ATOM     13  C   UNL     1      10.721  10.416 -18.984  1.00  0.00    -0.000 C 
BRANCH  13  14
ATOM     14  C   UNL     1      10.479  11.530 -20.019  1.00  0.00    -0.000 C 
BRANCH  14  15
ATOM     15  C   UNL     1       9.602  12.667 -19.475  1.00  0.00    -0.003 C 
ATOM     16  C   UNL     1       8.673  13.210 -20.557  1.00  0.00     0.004 C 
ENDBRANCH  14  15
ENDBRANCH  13  14
ENDBRANCH  12  13
ENDBRANCH  11  12
ENDBRANCH  10  11
ENDBRANCH   1  10
TORSDOF 12
ENDMDL
MODEL 8
REMARK VINA RESULT:    -4.632      3.125      6.565
REMARK INTER + INTRA:          -9.101
REMARK INTER:                  -8.029
REMARK INTRA:                  -1.072
REMARK UNBOUND:                -1.220
REMARK SMILES CCCCCCCCCCCCCC(=O)[O-]
REMARK SMILES IDX 8 1 9 2 10 3 11 4 12 5 13 6 14 7 15 8 16 9 7 10 6 11 5 12
REMARK SMILES IDX 4 13 3 14 2 15 1 16
REMARK H PARENT
REMARK Flexibility Score: inf
ROOT
ATOM      1  C   UNL     1      17.209   8.763 -20.654  1.00  0.00     0.000 C 
ENDROOT
BRANCH   1   2
ATOM      2  C   UNL     1      16.231   9.379 -21.668  1.00  0.00     0.000 C 
BRANCH   2   3
ATOM      3  C   UNL     1      15.176   8.372 -22.162  1.00  0.00     0.000 C 
BRANCH   3   4
ATOM      4  C   UNL     1      15.427   6.949 -21.636  1.00  0.00     0.000 C 
BRANCH   4   5
ATOM      5  C   UNL     1      14.202   6.362 -20.915  1.00  0.00     0.006 C 
BRANCH   5   6
ATOM      6  C   UNL     1      14.254   6.596 -19.399  1.00  0.00     0.053 C 
BRANCH   6   7
ATOM      7  C   UNL     1      13.222   7.585 -18.952  1.00  0.00     0.041 C 
ATOM      8  O   UNL     1      13.200   7.981 -17.758  1.00  0.00    -0.550 OA
ATOM      9  O   UNL     1      12.301   8.092 -19.862  1.00  0.00    -0.550 OA
ENDBRANCH   6   7
ENDBRANCH   5   6
ENDBRANCH   4   5
ENDBRANCH   3   4
ENDBRANCH   2   3
ENDBRANCH   1   2
BRANCH   1  10
ATOM     10  C   UNL     1      17.990   9.828 -19.866  1.00  0.00     0.000 C 
BRANCH  10  11
ATOM     11  C   UNL     1      19.497   9.820 -20.183  1.00  0.00    -0.000 C 
BRANCH  11  12
ATOM     12  C   UNL     1      20.043  11.122 -20.804  1.00  0.00    -0.000 C 
BRANCH  12  13
ATOM     13  C   UNL     1      19.995  11.185 -22.344  1.00  0.00    -0.000 C 
BRANCH  13  14
ATOM     14  C   UNL     1      18.810  11.978 -22.924  1.00  0.00    -0.000 C 
BRANCH  14  15
ATOM     15  C   UNL     1      18.563  11.679 -24.409  1.00  0.00    -0.003 C 
ATOM     16  C   UNL     1      19.878  11.465 -25.153  1.00  0.00     0.004 C 
ENDBRANCH  14  15
ENDBRANCH  13  14
ENDBRANCH  12  13
ENDBRANCH  11  12
ENDBRANCH  10  11
ENDBRANCH   1  10
TORSDOF 12
ENDMDL
MODEL 9
REMARK VINA RESULT:    -4.629      4.999      7.329
REMARK INTER + INTRA:          -9.096
REMARK INTER:                  -8.655
REMARK INTRA:                  -0.441
REMARK UNBOUND:                -1.220
REMARK SMILES CCCCCCCCCCCCCC(=O)[O-]
REMARK SMILES IDX 8 1 9 2 10 3 11 4 12 5 13 6 14 7 15 8 16 9 7 10 6 11 5 12
REMARK SMILES IDX 4 13 3 14 2 15 1 16
REMARK H PARENT
REMARK Flexibility Score: inf
ROOT
ATOM      1  C   UNL     1      11.563   9.108 -19.456  1.00  0.00     0.000 C 
ENDROOT
BRANCH   1   2
ATOM      2  C   UNL     1      12.476   8.457 -18.404  1.00  0.00     0.000 C 
BRANCH   2   3
ATOM      3  C   UNL     1      13.069   7.118 -18.882  1.00  0.00     0.000 C 
BRANCH   3   4
ATOM      4  C   UNL     1      13.495   7.154 -20.359  1.00  0.00     0.000 C 
BRANCH   4   5
ATOM      5  C   UNL     1      14.998   6.887 -20.547  1.00  0.00     0.006 C 
BRANCH   5   6
ATOM      6  C   UNL     1      15.541   7.513 -21.837  1.00  0.00     0.053 C 
BRANCH   6   7
ATOM      7  C   UNL     1      16.374   8.726 -21.561  1.00  0.00     0.041 C 
ATOM      8  O   UNL     1      16.362   9.699 -22.360  1.00  0.00    -0.550 OA
ATOM      9  O   UNL     1      17.142   8.796 -20.405  1.00  0.00    -0.550 OA
ENDBRANCH   6   7
ENDBRANCH   5   6
ENDBRANCH   4   5
ENDBRANCH   3   4
ENDBRANCH   2   3
ENDBRANCH   1   2
BRANCH   1  10
ATOM     10  C   UNL     1      10.786  10.312 -18.897  1.00  0.00     0.000 C 
BRANCH  10  11
ATOM     11  C   UNL     1      10.421  11.343 -19.982  1.00  0.00    -0.000 C 
BRANCH  11  12
ATOM     12  C   UNL     1       9.633  12.569 -19.480  1.00  0.00    -0.000 C 
BRANCH  12  13
ATOM     13  C   UNL     1       9.978  13.032 -18.050  1.00  0.00    -0.000 C 
BRANCH  13  14
ATOM     14  C   UNL     1       9.783  14.537 -17.791  1.00  0.00    -0.000 C 
BRANCH  14  15
ATOM     15  C   UNL     1       9.091  14.826 -16.452  1.00  0.00    -0.003 C 
ATOM     16  C   UNL     1      10.073  14.714 -15.289  1.00  0.00     0.004 C 
ENDBRANCH  14  15
ENDBRANCH  13  14
ENDBRANCH  12  13
ENDBRANCH  11  12
ENDBRANCH  10  11
ENDBRANCH   1  10
TORSDOF 12
ENDMDL
