MODEL 1
REMARK VINA RESULT:    -3.610      0.000      0.000
REMARK INTER + INTRA:         -11.236
REMARK INTER:                  -8.254
REMARK INTRA:                  -2.983
REMARK UNBOUND:                -2.983
REMARK SMILES CCCCCCCCCCCCCCCCCCCCCCCC(=O)[O-]
REMARK SMILES IDX 13 1 14 2 15 3 16 4 17 5 18 6 19 7 20 8 21 9 22 10 23 11
REMARK SMILES IDX 24 12 25 13 26 14 12 15 11 16 10 17 9 18 8 19 7 20 6 21 5 22
REMARK SMILES IDX 4 23 3 24 2 25 1 26
REMARK H PARENT
REMARK Flexibility Score: inf
ROOT
ATOM      1  C   UNL     1      61.264  23.829  50.686  1.00  0.00     0.000 C 
ENDROOT
BRANCH   1   2
ATOM      2  C   UNL     1      59.801  24.187  50.367  1.00  0.00     0.000 C 
BRANCH   2   3
ATOM      3  C   UNL     1      59.585  25.696  50.164  1.00  0.00     0.000 C 
BRANCH   3   4
ATOM      4  C   UNL     1      60.572  26.555  50.977  1.00  0.00     0.000 C 
BRANCH   4   5
ATOM      5  C   UNL     1      60.626  28.043  50.579  1.00  0.00     0.000 C 
BRANCH   5   6
ATOM      6  C   UNL     1      60.026  28.375  49.198  1.00  0.00     0.000 C 
BRANCH   6   7
ATOM      7  C   UNL     1      58.799  29.303  49.227  1.00  0.00     0.000 C 
BRANCH   7   8
ATOM      8  C   UNL     1      58.043  29.248  50.566  1.00  0.00     0.000 C 
BRANCH   8   9
ATOM      9  C   UNL     1      56.593  28.763  50.405  1.00  0.00     0.000 C 
BRANCH   9  10
ATOM     10  C   UNL     1      56.350  27.400  51.079  1.00  0.00     0.006 C 
BRANCH  10  11
ATOM     11  C   UNL     1      56.081  26.289  50.056  1.00  0.00     0.053 C 
BRANCH  11  12
ATOM     12  C   UNL     1      54.632  25.911  50.010  1.00  0.00     0.041 C 
ATOM     13  O   UNL     1      54.011  25.646  51.073  1.00  0.00    -0.550 OA
ATOM     14  O   UNL     1      53.976  25.825  48.790  1.00  0.00    -0.550 OA
ENDBRANCH  11  12
ENDBRANCH  10  11
ENDBRANCH   9  10
ENDBRANCH   8   9
ENDBRANCH   7   8
ENDBRANCH   6   7
ENDBRANCH   5   6
ENDBRANCH   4   5
ENDBRANCH   3   4
ENDBRANCH   2   3
ENDBRANCH   1   2
BRANCH   1  15
ATOM     15  C   UNL     1      61.735  22.460  50.154  1.00  0.00     0.000 C 
BRANCH  15  16
ATOM     16  C   UNL     1      60.860  21.849  49.041  1.00  0.00     0.000 C 
BRANCH  16  17
ATOM     17  C   UNL     1      60.082  20.582  49.441  1.00  0.00     0.000 C 
BRANCH  17  18
ATOM     18  C   UNL     1      59.824  19.640  48.253  1.00  0.00    -0.000 C 
BRANCH  18  19
ATOM     19  C   UNL     1      59.589  18.186  48.692  1.00  0.00    -0.000 C 
BRANCH  19  20
ATOM     20  C   UNL     1      59.465  18.035  50.216  1.00  0.00    -0.000 C 
BRANCH  20  21
ATOM     21  C   UNL     1      58.133  17.371  50.593  1.00  0.00    -0.000 C 
BRANCH  21  22
ATOM     22  C   UNL     1      57.578  17.858  51.945  1.00  0.00    -0.000 C 
BRANCH  22  23
ATOM     23  C   UNL     1      58.392  18.978  52.619  1.00  0.00    -0.000 C 
BRANCH  23  24
ATOM     24  C   UNL     1      57.732  20.359  52.494  1.00  0.00    -0.000 C 
BRANCH  24  25
ATOM     25  C   UNL     1      58.751  21.479  52.733  1.00  0.00    -0.003 C 
ATOM     26  C   UNL     1      60.103  20.911  53.155  1.00  0.00     0.004 C 
ENDBRANCH  24  25
ENDBRANCH  23  24
ENDBRANCH  22  23
ENDBRANCH  21  22
ENDBRANCH  20  21
ENDBRANCH  19  20
ENDBRANCH  18  19
ENDBRANCH  17  18
ENDBRANCH  16  17
ENDBRANCH  15  16
ENDBRANCH   1  15
TORSDOF 22
ENDMDL
MODEL 2
REMARK VINA RESULT:    -3.587      3.243      9.217
REMARK INTER + INTRA:         -11.182
REMARK INTER:                  -8.524
REMARK INTRA:                  -2.659
REMARK UNBOUND:                -2.983
REMARK SMILES CCCCCCCCCCCCCCCCCCCCCCCC(=O)[O-]
REMARK SMILES IDX 13 1 14 2 15 3 16 4 17 5 18 6 19 7 20 8 21 9 22 10 23 11
REMARK SMILES IDX 24 12 25 13 26 14 12 15 11 16 10 17 9 18 8 19 7 20 6 21 5 22
REMARK SMILES IDX 4 23 3 24 2 25 1 26
REMARK H PARENT
REMARK Flexibility Score: inf
ROOT
ATOM      1  C   UNL     1      55.213  27.638  50.021  1.00  0.00     0.000 C 
ENDROOT
BRANCH   1   2
ATOM      2  C   UNL     1      55.810  26.294  50.477  1.00  0.00     0.000 C 
BRANCH   2   3
ATOM      3  C   UNL     1      57.259  26.091  50.005  1.00  0.00     0.000 C 
BRANCH   3   4
ATOM      4  C   UNL     1      58.160  25.475  51.091  1.00  0.00     0.000 C 
BRANCH   4   5
ATOM      5  C   UNL     1      59.433  24.780  50.569  1.00  0.00     0.000 C 
BRANCH   5   6
ATOM      6  C   UNL     1      59.821  23.484  51.307  1.00  0.00     0.000 C 
BRANCH   6   7
ATOM      7  C   UNL     1      60.986  22.699  50.677  1.00  0.00     0.000 C 
BRANCH   7   8
ATOM      8  C   UNL     1      60.812  22.492  49.162  1.00  0.00     0.000 C 
BRANCH   8   9
ATOM      9  C   UNL     1      61.530  21.230  48.654  1.00  0.00     0.000 C 
BRANCH   9  10
ATOM     10  C   UNL     1      60.967  19.941  49.279  1.00  0.00     0.006 C 
BRANCH  10  11
ATOM     11  C   UNL     1      59.683  19.472  48.582  1.00  0.00     0.053 C 
BRANCH  11  12
ATOM     12  C   UNL     1      59.307  18.079  48.984  1.00  0.00     0.041 C 
ATOM     13  O   UNL     1      60.116  17.129  48.816  1.00  0.00    -0.550 OA
ATOM     14  O   UNL     1      58.050  17.826  49.518  1.00  0.00    -0.550 OA
ENDBRANCH  11  12
ENDBRANCH  10  11
ENDBRANCH   9  10
ENDBRANCH   8   9
ENDBRANCH   7   8
ENDBRANCH   6   7
ENDBRANCH   5   6
ENDBRANCH   4   5
ENDBRANCH   3   4
ENDBRANCH   2   3
ENDBRANCH   1   2
BRANCH   1  15
ATOM     15  C   UNL     1      53.682  27.649  49.842  1.00  0.00     0.000 C 
BRANCH  15  16
ATOM     16  C   UNL     1      52.997  29.007  50.102  1.00  0.00     0.000 C 
BRANCH  16  17
ATOM     17  C   UNL     1      53.859  30.042  50.846  1.00  0.00     0.000 C 
BRANCH  17  18
ATOM     18  C   UNL     1      53.615  30.041  52.365  1.00  0.00    -0.000 C 
BRANCH  18  19
ATOM     19  C   UNL     1      54.919  29.952  53.174  1.00  0.00    -0.000 C 
BRANCH  19  20
ATOM     20  C   UNL     1      56.152  30.385  52.367  1.00  0.00    -0.000 C 
BRANCH  20  21
ATOM     21  C   UNL     1      57.232  29.293  52.388  1.00  0.00    -0.000 C 
BRANCH  21  22
ATOM     22  C   UNL     1      58.447  29.629  51.504  1.00  0.00    -0.000 C 
BRANCH  22  23
ATOM     23  C   UNL     1      58.165  29.655  49.990  1.00  0.00    -0.000 C 
BRANCH  23  24
ATOM     24  C   UNL     1      59.325  29.092  49.154  1.00  0.00    -0.000 C 
BRANCH  24  25
ATOM     25  C   UNL     1      60.288  28.280  50.027  1.00  0.00    -0.003 C 
ATOM     26  C   UNL     1      61.705  28.310  49.460  1.00  0.00     0.004 C 
ENDBRANCH  24  25
ENDBRANCH  23  24
ENDBRANCH  22  23
ENDBRANCH  21  22
ENDBRANCH  20  21
ENDBRANCH  19  20
ENDBRANCH  18  19
ENDBRANCH  17  18
ENDBRANCH  16  17
ENDBRANCH  15  16
ENDBRANCH   1  15
TORSDOF 22
ENDMDL
MODEL 3
REMARK VINA RESULT:    -3.582      2.508      8.453
REMARK INTER + INTRA:         -11.172
REMARK INTER:                  -8.792
REMARK INTRA:                  -2.379
REMARK UNBOUND:                -2.983
REMARK SMILES CCCCCCCCCCCCCCCCCCCCCCCC(=O)[O-]
REMARK SMILES IDX 13 1 14 2 15 3 16 4 17 5 18 6 19 7 20 8 21 9 22 10 23 11
REMARK SMILES IDX 24 12 25 13 26 14 12 15 11 16 10 17 9 18 8 19 7 20 6 21 5 22
REMARK SMILES IDX 4 23 3 24 2 25 1 26
REMARK H PARENT
REMARK Flexibility Score: inf
ROOT
ATOM      1  C   UNL     1      59.088  24.061  52.217  1.00  0.00     0.000 C 
ENDROOT
BRANCH   1   2
ATOM      2  C   UNL     1      60.621  24.050  52.356  1.00  0.00     0.000 C 
BRANCH   2   3
ATOM      3  C   UNL     1      61.266  22.778  51.779  1.00  0.00     0.000 C 
BRANCH   3   4
ATOM      4  C   UNL     1      60.344  22.037  50.794  1.00  0.00     0.000 C 
BRANCH   4   5
ATOM      5  C   UNL     1      60.671  22.252  49.303  1.00  0.00     0.000 C 
BRANCH   5   6
ATOM      6  C   UNL     1      61.201  21.008  48.562  1.00  0.00     0.000 C 
BRANCH   6   7
ATOM      7  C   UNL     1      60.720  19.659  49.127  1.00  0.00     0.000 C 
BRANCH   7   8
ATOM      8  C   UNL     1      59.536  19.072  48.339  1.00  0.00     0.000 C 
BRANCH   8   9
ATOM      9  C   UNL     1      59.480  17.537  48.415  1.00  0.00     0.000 C 
BRANCH   9  10
ATOM     10  C   UNL     1      58.132  17.023  48.953  1.00  0.00     0.006 C 
BRANCH  10  11
ATOM     11  C   UNL     1      58.121  16.921  50.484  1.00  0.00     0.053 C 
BRANCH  11  12
ATOM     12  C   UNL     1      57.234  17.958  51.105  1.00  0.00     0.041 C 
ATOM     13  O   UNL     1      57.398  18.296  52.306  1.00  0.00    -0.550 OA
ATOM     14  O   UNL     1      56.208  18.528  50.363  1.00  0.00    -0.550 OA
ENDBRANCH  11  12
ENDBRANCH  10  11
ENDBRANCH   9  10
ENDBRANCH   8   9
ENDBRANCH   7   8
ENDBRANCH   6   7
ENDBRANCH   5   6
ENDBRANCH   4   5
ENDBRANCH   3   4
ENDBRANCH   2   3
ENDBRANCH   1   2
BRANCH   1  15
ATOM     15  C   UNL     1      58.511  25.243  51.414  1.00  0.00     0.000 C 
BRANCH  15  16
ATOM     16  C   UNL     1      59.383  25.731  50.239  1.00  0.00     0.000 C 
BRANCH  16  17
ATOM     17  C   UNL     1      59.934  27.161  50.383  1.00  0.00     0.000 C 
BRANCH  17  18
ATOM     18  C   UNL     1      59.711  28.016  49.123  1.00  0.00    -0.000 C 
BRANCH  18  19
ATOM     19  C   UNL     1      58.914  29.298  49.412  1.00  0.00    -0.000 C 
BRANCH  19  20
ATOM     20  C   UNL     1      57.526  29.016  50.006  1.00  0.00    -0.000 C 
BRANCH  20  21
ATOM     21  C   UNL     1      57.320  29.798  51.312  1.00  0.00    -0.000 C 
BRANCH  21  22
ATOM     22  C   UNL     1      56.489  29.026  52.353  1.00  0.00    -0.000 C 
BRANCH  22  23
ATOM     23  C   UNL     1      55.882  27.703  51.852  1.00  0.00    -0.000 C 
BRANCH  23  24
ATOM     24  C   UNL     1      54.401  27.831  51.463  1.00  0.00    -0.000 C 
BRANCH  24  25
ATOM     25  C   UNL     1      54.195  27.528  49.975  1.00  0.00    -0.003 C 
ATOM     26  C   UNL     1      54.933  26.256  49.566  1.00  0.00     0.004 C 
ENDBRANCH  24  25
ENDBRANCH  23  24
ENDBRANCH  22  23
ENDBRANCH  21  22
ENDBRANCH  20  21
ENDBRANCH  19  20
ENDBRANCH  18  19
ENDBRANCH  17  18
ENDBRANCH  16  17
ENDBRANCH  15  16
ENDBRANCH   1  15
TORSDOF 22
ENDMDL
MODEL 4
REMARK VINA RESULT:    -3.553      3.039      5.280
REMARK INTER + INTRA:         -11.106
REMARK INTER:                  -8.003
REMARK INTRA:                  -3.103
REMARK UNBOUND:                -2.983
REMARK SMILES CCCCCCCCCCCCCCCCCCCCCCCC(=O)[O-]
REMARK SMILES IDX 13 1 14 2 15 3 16 4 17 5 18 6 19 7 20 8 21 9 22 10 23 11
REMARK SMILES IDX 24 12 25 13 26 14 12 15 11 16 10 17 9 18 8 19 7 20 6 21 5 22
REMARK SMILES IDX 4 23 3 24 2 25 1 26
REMARK H PARENT
REMARK Flexibility Score: inf
ROOT
ATOM      1  C   UNL     1      57.562  25.879  50.425  1.00  0.00     0.000 C 
ENDROOT
BRANCH   1   2
ATOM      2  C   UNL     1      56.126  26.244  50.004  1.00  0.00     0.000 C 
BRANCH   2   3
ATOM      3  C   UNL     1      55.371  27.040  51.082  1.00  0.00     0.000 C 
BRANCH   3   4
ATOM      4  C   UNL     1      54.726  28.325  50.533  1.00  0.00     0.000 C 
BRANCH   4   5
ATOM      5  C   UNL     1      55.547  29.612  50.749  1.00  0.00     0.000 C 
BRANCH   5   6
ATOM      6  C   UNL     1      56.747  29.472  51.707  1.00  0.00     0.000 C 
BRANCH   6   7
ATOM      7  C   UNL     1      58.122  29.754  51.074  1.00  0.00     0.000 C 
BRANCH   7   8
ATOM      8  C   UNL     1      58.155  29.451  49.566  1.00  0.00     0.000 C 
BRANCH   8   9
ATOM      9  C   UNL     1      59.505  28.868  49.113  1.00  0.00     0.000 C 
BRANCH   9  10
ATOM     10  C   UNL     1      60.308  28.266  50.281  1.00  0.00     0.006 C 
BRANCH  10  11
ATOM     11  C   UNL     1      61.088  27.014  49.861  1.00  0.00     0.053 C 
BRANCH  11  12
ATOM     12  C   UNL     1      62.569  27.228  49.936  1.00  0.00     0.041 C 
ATOM     13  O   UNL     1      63.217  26.840  50.943  1.00  0.00    -0.550 OA
ATOM     14  O   UNL     1      63.228  27.884  48.904  1.00  0.00    -0.550 OA
ENDBRANCH  11  12
ENDBRANCH  10  11
ENDBRANCH   9  10
ENDBRANCH   8   9
ENDBRANCH   7   8
ENDBRANCH   6   7
ENDBRANCH   5   6
ENDBRANCH   4   5
ENDBRANCH   3   4
ENDBRANCH   2   3
ENDBRANCH   1   2
BRANCH   1  15
ATOM     15  C   UNL     1      57.837  25.942  51.941  1.00  0.00     0.000 C 
BRANCH  15  16
ATOM     16  C   UNL     1      59.088  25.175  52.416  1.00  0.00     0.000 C 
BRANCH  16  17
ATOM     17  C   UNL     1      59.284  23.786  51.784  1.00  0.00     0.000 C 
BRANCH  17  18
ATOM     18  C   UNL     1      60.711  23.567  51.253  1.00  0.00    -0.000 C 
BRANCH  18  19
ATOM     19  C   UNL     1      60.744  23.297  49.741  1.00  0.00    -0.000 C 
BRANCH  19  20
ATOM     20  C   UNL     1      61.476  21.996  49.383  1.00  0.00    -0.000 C 
BRANCH  20  21
ATOM     21  C   UNL     1      61.077  20.862  50.339  1.00  0.00    -0.000 C 
BRANCH  21  22
ATOM     22  C   UNL     1      60.874  19.513  49.624  1.00  0.00    -0.000 C 
BRANCH  22  23
ATOM     23  C   UNL     1      59.440  19.245  49.131  1.00  0.00    -0.000 C 
BRANCH  23  24
ATOM     24  C   UNL     1      59.305  17.916  48.372  1.00  0.00    -0.000 C 
BRANCH  24  25
ATOM     25  C   UNL     1      58.235  17.024  49.012  1.00  0.00    -0.003 C 
ATOM     26  C   UNL     1      57.444  17.787  50.070  1.00  0.00     0.004 C 
ENDBRANCH  24  25
ENDBRANCH  23  24
ENDBRANCH  22  23
ENDBRANCH  21  22
ENDBRANCH  20  21
ENDBRANCH  19  20
ENDBRANCH  18  19
ENDBRANCH  17  18
ENDBRANCH  16  17
ENDBRANCH  15  16
ENDBRANCH   1  15
TORSDOF 22
ENDMDL
MODEL 5
REMARK VINA RESULT:    -3.521      2.087      8.284
REMARK INTER + INTRA:         -11.033
REMARK INTER:                  -8.414
REMARK INTRA:                  -2.619
REMARK UNBOUND:                -2.983
REMARK SMILES CCCCCCCCCCCCCCCCCCCCCCCC(=O)[O-]
REMARK SMILES IDX 13 1 14 2 15 3 16 4 17 5 18 6 19 7 20 8 21 9 22 10 23 11
REMARK SMILES IDX 24 12 25 13 26 14 12 15 11 16 10 17 9 18 8 19 7 20 6 21 5 22
REMARK SMILES IDX 4 23 3 24 2 25 1 26
REMARK H PARENT
REMARK Flexibility Score: inf
ROOT
ATOM      1  C   UNL     1      60.679  21.666  51.155  1.00  0.00     0.000 C 
ENDROOT
BRANCH   1   2
ATOM      2  C   UNL     1      61.663  21.820  49.981  1.00  0.00     0.000 C 
BRANCH   2   3
ATOM      3  C   UNL     1      61.319  20.911  48.788  1.00  0.00     0.000 C 
BRANCH   3   4
ATOM      4  C   UNL     1      59.854  20.437  48.803  1.00  0.00     0.000 C 
BRANCH   4   5
ATOM      5  C   UNL     1      59.649  18.938  48.506  1.00  0.00     0.000 C 
BRANCH   5   6
ATOM      6  C   UNL     1      60.568  17.982  49.291  1.00  0.00     0.000 C 
BRANCH   6   7
ATOM      7  C   UNL     1      59.847  17.057  50.289  1.00  0.00     0.000 C 
BRANCH   7   8
ATOM      8  C   UNL     1      58.315  17.139  50.174  1.00  0.00     0.000 C 
BRANCH   8   9
ATOM      9  C   UNL     1      57.659  17.716  51.440  1.00  0.00     0.000 C 
BRANCH   9  10
ATOM     10  C   UNL     1      57.346  19.218  51.309  1.00  0.00     0.006 C 
BRANCH  10  11
ATOM     11  C   UNL     1      56.272  19.673  52.305  1.00  0.00     0.053 C 
BRANCH  11  12
ATOM     12  C   UNL     1      54.909  19.694  51.684  1.00  0.00     0.041 C 
ATOM     13  O   UNL     1      53.889  19.882  52.397  1.00  0.00    -0.550 OA
ATOM     14  O   UNL     1      54.764  19.475  50.320  1.00  0.00    -0.550 OA
ENDBRANCH  11  12
ENDBRANCH  10  11
ENDBRANCH   9  10
ENDBRANCH   8   9
ENDBRANCH   7   8
ENDBRANCH   6   7
ENDBRANCH   5   6
ENDBRANCH   4   5
ENDBRANCH   3   4
ENDBRANCH   2   3
ENDBRANCH   1   2
BRANCH   1  15
ATOM     15  C   UNL     1      60.030  22.977  51.643  1.00  0.00     0.000 C 
BRANCH  15  16
ATOM     16  C   UNL     1      60.265  24.205  50.741  1.00  0.00     0.000 C 
BRANCH  16  17
ATOM     17  C   UNL     1      59.027  25.089  50.503  1.00  0.00     0.000 C 
BRANCH  17  18
ATOM     18  C   UNL     1      58.078  25.123  51.713  1.00  0.00    -0.000 C 
BRANCH  18  19
ATOM     19  C   UNL     1      57.398  26.489  51.893  1.00  0.00    -0.000 C 
BRANCH  19  20
ATOM     20  C   UNL     1      56.379  26.799  50.786  1.00  0.00    -0.000 C 
BRANCH  20  21
ATOM     21  C   UNL     1      56.505  28.255  50.317  1.00  0.00    -0.000 C 
BRANCH  21  22
ATOM     22  C   UNL     1      57.407  29.108  51.230  1.00  0.00    -0.000 C 
BRANCH  22  23
ATOM     23  C   UNL     1      58.560  29.834  50.513  1.00  0.00    -0.000 C 
BRANCH  23  24
ATOM     24  C   UNL     1      58.859  29.259  49.120  1.00  0.00    -0.000 C 
BRANCH  24  25
ATOM     25  C   UNL     1      59.915  28.151  49.198  1.00  0.00    -0.003 C 
ATOM     26  C   UNL     1      61.112  28.590  50.038  1.00  0.00     0.004 C 
ENDBRANCH  24  25
ENDBRANCH  23  24
ENDBRANCH  22  23
ENDBRANCH  21  22
ENDBRANCH  20  21
ENDBRANCH  19  20
ENDBRANCH  18  19
ENDBRANCH  17  18
ENDBRANCH  16  17
ENDBRANCH  15  16
ENDBRANCH   1  15
TORSDOF 22
ENDMDL
MODEL 6
REMARK VINA RESULT:    -3.513     10.438     13.894
REMARK INTER + INTRA:         -11.014
REMARK INTER:                  -7.057
REMARK INTRA:                  -3.957
REMARK UNBOUND:                -2.983
REMARK SMILES CCCCCCCCCCCCCCCCCCCCCCCC(=O)[O-]
REMARK SMILES IDX 13 1 14 2 15 3 16 4 17 5 18 6 19 7 20 8 21 9 22 10 23 11
REMARK SMILES IDX 24 12 25 13 26 14 12 15 11 16 10 17 9 18 8 19 7 20 6 21 5 22
REMARK SMILES IDX 4 23 3 24 2 25 1 26
REMARK H PARENT
REMARK Flexibility Score: inf
ROOT
ATOM      1  C   UNL     1      60.651  29.673  61.052  1.00  0.00     0.000 C 
ENDROOT
BRANCH   1   2
ATOM      2  C   UNL     1      60.777  30.431  59.718  1.00  0.00     0.000 C 
BRANCH   2   3
ATOM      3  C   UNL     1      60.485  29.544  58.496  1.00  0.00     0.000 C 
BRANCH   3   4
ATOM      4  C   UNL     1      60.207  28.078  58.876  1.00  0.00     0.000 C 
BRANCH   4   5
ATOM      5  C   UNL     1      61.300  27.075  58.456  1.00  0.00     0.000 C 
BRANCH   5   6
ATOM      6  C   UNL     1      61.353  25.777  59.285  1.00  0.00     0.000 C 
BRANCH   6   7
ATOM      7  C   UNL     1      61.716  25.967  60.769  1.00  0.00     0.000 C 
BRANCH   7   8
ATOM      8  C   UNL     1      60.710  25.292  61.718  1.00  0.00     0.000 C 
BRANCH   8   9
ATOM      9  C   UNL     1      59.753  26.300  62.376  1.00  0.00     0.000 C 
BRANCH   9  10
ATOM     10  C   UNL     1      58.361  26.304  61.718  1.00  0.00     0.006 C 
BRANCH  10  11
ATOM     11  C   UNL     1      57.671  27.670  61.834  1.00  0.00     0.053 C 
BRANCH  11  12
ATOM     12  C   UNL     1      56.238  27.537  62.251  1.00  0.00     0.041 C 
ATOM     13  O   UNL     1      55.757  26.405  62.517  1.00  0.00    -0.550 OA
ATOM     14  O   UNL     1      55.427  28.663  62.317  1.00  0.00    -0.550 OA
ENDBRANCH  11  12
ENDBRANCH  10  11
ENDBRANCH   9  10
ENDBRANCH   8   9
ENDBRANCH   7   8
ENDBRANCH   6   7
ENDBRANCH   5   6
ENDBRANCH   4   5
ENDBRANCH   3   4
ENDBRANCH   2   3
ENDBRANCH   1   2
BRANCH   1  15
ATOM     15  C   UNL     1      61.980  29.426  61.794  1.00  0.00     0.000 C 
BRANCH  15  16
ATOM     16  C   UNL     1      63.155  30.327  61.361  1.00  0.00     0.000 C 
BRANCH  16  17
ATOM     17  C   UNL     1      64.411  29.578  60.882  1.00  0.00     0.000 C 
BRANCH  17  18
ATOM     18  C   UNL     1      64.269  29.029  59.451  1.00  0.00    -0.000 C 
BRANCH  18  19
ATOM     19  C   UNL     1      64.935  29.935  58.403  1.00  0.00    -0.000 C 
BRANCH  19  20
ATOM     20  C   UNL     1      63.948  30.908  57.741  1.00  0.00    -0.000 C 
BRANCH  20  21
ATOM     21  C   UNL     1      64.208  32.350  58.201  1.00  0.00    -0.000 C 
BRANCH  21  22
ATOM     22  C   UNL     1      62.954  33.036  58.773  1.00  0.00    -0.000 C 
BRANCH  22  23
ATOM     23  C   UNL     1      63.231  34.262  59.664  1.00  0.00    -0.000 C 
BRANCH  23  24
ATOM     24  C   UNL     1      64.323  34.007  60.714  1.00  0.00    -0.000 C 
BRANCH  24  25
ATOM     25  C   UNL     1      64.475  35.211  61.651  1.00  0.00    -0.003 C 
ATOM     26  C   UNL     1      63.265  36.137  61.558  1.00  0.00     0.004 C 
ENDBRANCH  24  25
ENDBRANCH  23  24
ENDBRANCH  22  23
ENDBRANCH  21  22
ENDBRANCH  20  21
ENDBRANCH  19  20
ENDBRANCH  18  19
ENDBRANCH  17  18
ENDBRANCH  16  17
ENDBRANCH  15  16
ENDBRANCH   1  15
TORSDOF 22
ENDMDL
MODEL 7
REMARK VINA RESULT:    -3.501      2.343      8.056
REMARK INTER + INTRA:         -10.988
REMARK INTER:                  -7.512
REMARK INTRA:                  -3.476
REMARK UNBOUND:                -2.983
REMARK SMILES CCCCCCCCCCCCCCCCCCCCCCCC(=O)[O-]
REMARK SMILES IDX 13 1 14 2 15 3 16 4 17 5 18 6 19 7 20 8 21 9 22 10 23 11
REMARK SMILES IDX 24 12 25 13 26 14 12 15 11 16 10 17 9 18 8 19 7 20 6 21 5 22
REMARK SMILES IDX 4 23 3 24 2 25 1 26
REMARK H PARENT
REMARK Flexibility Score: inf
ROOT
ATOM      1  C   UNL     1      61.869  21.841  52.360  1.00  0.00     0.000 C 
ENDROOT
BRANCH   1   2
ATOM      2  C   UNL     1      60.606  21.038  52.721  1.00  0.00     0.000 C 
BRANCH   2   3
ATOM      3  C   UNL     1      59.748  20.687  51.494  1.00  0.00     0.000 C 
BRANCH   3   4
ATOM      4  C   UNL     1      60.579  20.118  50.329  1.00  0.00     0.000 C 
BRANCH   4   5
ATOM      5  C   UNL     1      59.978  20.341  48.927  1.00  0.00     0.000 C 
BRANCH   5   6
ATOM      6  C   UNL     1      59.579  19.058  48.173  1.00  0.00     0.000 C 
BRANCH   6   7
ATOM      7  C   UNL     1      59.826  17.747  48.941  1.00  0.00     0.000 C 
BRANCH   7   8
ATOM      8  C   UNL     1      58.521  17.054  49.371  1.00  0.00     0.000 C 
BRANCH   8   9
ATOM      9  C   UNL     1      58.422  16.879  50.895  1.00  0.00     0.000 C 
BRANCH   9  10
ATOM     10  C   UNL     1      57.452  17.886  51.542  1.00  0.00     0.006 C 
BRANCH  10  11
ATOM     11  C   UNL     1      56.689  18.707  50.494  1.00  0.00     0.053 C 
BRANCH  11  12
ATOM     12  C   UNL     1      55.370  19.190  51.018  1.00  0.00     0.041 C 
ATOM     13  O   UNL     1      55.157  19.232  52.257  1.00  0.00    -0.550 OA
ATOM     14  O   UNL     1      54.368  19.564  50.133  1.00  0.00    -0.550 OA
ENDBRANCH  11  12
ENDBRANCH  10  11
ENDBRANCH   9  10
ENDBRANCH   8   9
ENDBRANCH   7   8
ENDBRANCH   6   7
ENDBRANCH   5   6
ENDBRANCH   4   5
ENDBRANCH   3   4
ENDBRANCH   2   3
ENDBRANCH   1   2
BRANCH   1  15
ATOM     15  C   UNL     1      61.660  23.362  52.216  1.00  0.00     0.000 C 
BRANCH  15  16
ATOM     16  C   UNL     1      61.700  23.899  50.770  1.00  0.00     0.000 C 
BRANCH  16  17
ATOM     17  C   UNL     1      60.329  24.256  50.167  1.00  0.00     0.000 C 
BRANCH  17  18
ATOM     18  C   UNL     1      59.190  24.196  51.199  1.00  0.00    -0.000 C 
BRANCH  18  19
ATOM     19  C   UNL     1      58.430  25.527  51.318  1.00  0.00    -0.000 C 
BRANCH  19  20
ATOM     20  C   UNL     1      58.314  26.270  49.979  1.00  0.00    -0.000 C 
BRANCH  20  21
ATOM     21  C   UNL     1      58.757  27.733  50.124  1.00  0.00    -0.000 C 
BRANCH  21  22
ATOM     22  C   UNL     1      59.901  28.115  49.168  1.00  0.00    -0.000 C 
BRANCH  22  23
ATOM     23  C   UNL     1      61.314  27.756  49.665  1.00  0.00    -0.000 C 
BRANCH  23  24
ATOM     24  C   UNL     1      61.442  27.805  51.196  1.00  0.00    -0.000 C 
BRANCH  24  25
ATOM     25  C   UNL     1      61.924  29.183  51.663  1.00  0.00    -0.003 C 
ATOM     26  C   UNL     1      60.803  29.953  52.355  1.00  0.00     0.004 C 
ENDBRANCH  24  25
ENDBRANCH  23  24
ENDBRANCH  22  23
ENDBRANCH  21  22
ENDBRANCH  20  21
ENDBRANCH  19  20
ENDBRANCH  18  19
ENDBRANCH  17  18
ENDBRANCH  16  17
ENDBRANCH  15  16
ENDBRANCH   1  15
TORSDOF 22
ENDMDL
MODEL 8
REMARK VINA RESULT:    -3.477      4.921      8.250
REMARK INTER + INTRA:         -10.931
REMARK INTER:                  -6.400
REMARK INTRA:                  -4.531
REMARK UNBOUND:                -2.983
REMARK SMILES CCCCCCCCCCCCCCCCCCCCCCCC(=O)[O-]
REMARK SMILES IDX 13 1 14 2 15 3 16 4 17 5 18 6 19 7 20 8 21 9 22 10 23 11
REMARK SMILES IDX 24 12 25 13 26 14 12 15 11 16 10 17 9 18 8 19 7 20 6 21 5 22
REMARK SMILES IDX 4 23 3 24 2 25 1 26
REMARK H PARENT
REMARK Flexibility Score: inf
ROOT
ATOM      1  C   UNL     1      56.430  26.000  50.945  1.00  0.00     0.000 C 
ENDROOT
BRANCH   1   2
ATOM      2  C   UNL     1      55.750  26.990  49.982  1.00  0.00     0.000 C 
BRANCH   2   3
ATOM      3  C   UNL     1      54.230  26.779  49.882  1.00  0.00     0.000 C 
BRANCH   3   4
ATOM      4  C   UNL     1      53.432  28.079  50.092  1.00  0.00     0.000 C 
BRANCH   4   5
ATOM      5  C   UNL     1      54.286  29.337  50.344  1.00  0.00     0.000 C 
BRANCH   5   6
ATOM      6  C   UNL     1      54.037  30.039  51.694  1.00  0.00     0.000 C 
BRANCH   6   7
ATOM      7  C   UNL     1      54.985  29.618  52.832  1.00  0.00     0.000 C 
BRANCH   7   8
ATOM      8  C   UNL     1      55.189  30.729  53.877  1.00  0.00     0.000 C 
BRANCH   8   9
ATOM      9  C   UNL     1      55.690  32.041  53.251  1.00  0.00     0.000 C 
BRANCH   9  10
ATOM     10  C   UNL     1      56.361  32.967  54.284  1.00  0.00     0.006 C 
BRANCH  10  11
ATOM     11  C   UNL     1      57.872  32.722  54.385  1.00  0.00     0.053 C 
BRANCH  11  12
ATOM     12  C   UNL     1      58.639  33.560  53.408  1.00  0.00     0.041 C 
ATOM     13  O   UNL     1      58.160  34.648  52.992  1.00  0.00    -0.550 OA
ATOM     14  O   UNL     1      59.871  33.125  52.937  1.00  0.00    -0.550 OA
ENDBRANCH  11  12
ENDBRANCH  10  11
ENDBRANCH   9  10
ENDBRANCH   8   9
ENDBRANCH   7   8
ENDBRANCH   6   7
ENDBRANCH   5   6
ENDBRANCH   4   5
ENDBRANCH   3   4
ENDBRANCH   2   3
ENDBRANCH   1   2
BRANCH   1  15
ATOM     15  C   UNL     1      56.569  26.491  52.400  1.00  0.00     0.000 C 
BRANCH  15  16
ATOM     16  C   UNL     1      58.007  26.821  52.851  1.00  0.00     0.000 C 
BRANCH  16  17
ATOM     17  C   UNL     1      58.112  27.680  54.124  1.00  0.00     0.000 C 
BRANCH  17  18
ATOM     18  C   UNL     1      58.535  29.129  53.832  1.00  0.00    -0.000 C 
BRANCH  18  19
ATOM     19  C   UNL     1      59.189  29.288  52.450  1.00  0.00    -0.000 C 
BRANCH  19  20
ATOM     20  C   UNL     1      58.443  30.282  51.547  1.00  0.00    -0.000 C 
BRANCH  20  21
ATOM     21  C   UNL     1      57.948  29.594  50.266  1.00  0.00    -0.000 C 
BRANCH  21  22
ATOM     22  C   UNL     1      59.094  29.159  49.334  1.00  0.00    -0.000 C 
BRANCH  22  23
ATOM     23  C   UNL     1      59.403  27.650  49.340  1.00  0.00    -0.000 C 
BRANCH  23  24
ATOM     24  C   UNL     1      60.854  27.336  49.735  1.00  0.00    -0.000 C 
BRANCH  24  25
ATOM     25  C   UNL     1      60.915  26.157  50.712  1.00  0.00    -0.003 C 
ATOM     26  C   UNL     1      60.015  25.014  50.251  1.00  0.00     0.004 C 
ENDBRANCH  24  25
ENDBRANCH  23  24
ENDBRANCH  22  23
ENDBRANCH  21  22
ENDBRANCH  20  21
ENDBRANCH  19  20
ENDBRANCH  18  19
ENDBRANCH  17  18
ENDBRANCH  16  17
ENDBRANCH  15  16
ENDBRANCH   1  15
TORSDOF 22
ENDMDL
MODEL 9
REMARK VINA RESULT:    -3.415      4.053      8.470
REMARK INTER + INTRA:         -10.790
REMARK INTER:                  -6.273
REMARK INTRA:                  -4.517
REMARK UNBOUND:                -2.983
REMARK SMILES CCCCCCCCCCCCCCCCCCCCCCCC(=O)[O-]
REMARK SMILES IDX 13 1 14 2 15 3 16 4 17 5 18 6 19 7 20 8 21 9 22 10 23 11
REMARK SMILES IDX 24 12 25 13 26 14 12 15 11 16 10 17 9 18 8 19 7 20 6 21 5 22
REMARK SMILES IDX 4 23 3 24 2 25 1 26
REMARK H PARENT
REMARK Flexibility Score: inf
ROOT
ATOM      1  C   UNL     1      56.823  26.563  52.392  1.00  0.00     0.000 C 
ENDROOT
BRANCH   1   2
ATOM      2  C   UNL     1      58.218  26.491  53.040  1.00  0.00     0.000 C 
BRANCH   2   3
ATOM      3  C   UNL     1      58.972  27.831  52.988  1.00  0.00     0.000 C 
BRANCH   3   4
ATOM      4  C   UNL     1      58.034  29.036  52.794  1.00  0.00     0.000 C 
BRANCH   4   5
ATOM      5  C   UNL     1      58.440  30.006  51.668  1.00  0.00     0.000 C 
BRANCH   5   6
ATOM      6  C   UNL     1      57.868  29.672  50.276  1.00  0.00     0.000 C 
BRANCH   6   7
ATOM      7  C   UNL     1      58.920  29.389  49.189  1.00  0.00     0.000 C 
BRANCH   7   8
ATOM      8  C   UNL     1      59.426  27.936  49.215  1.00  0.00     0.000 C 
BRANCH   8   9
ATOM      9  C   UNL     1      60.878  27.826  49.709  1.00  0.00     0.000 C 
BRANCH   9  10
ATOM     10  C   UNL     1      61.183  26.457  50.344  1.00  0.00     0.006 C 
BRANCH  10  11
ATOM     11  C   UNL     1      60.123  25.406  49.987  1.00  0.00     0.053 C 
BRANCH  11  12
ATOM     12  C   UNL     1      60.491  24.047  50.502  1.00  0.00     0.041 C 
ATOM     13  O   UNL     1      60.576  23.071  49.712  1.00  0.00    -0.550 OA
ATOM     14  O   UNL     1      60.710  23.855  51.860  1.00  0.00    -0.550 OA
ENDBRANCH  11  12
ENDBRANCH  10  11
ENDBRANCH   9  10
ENDBRANCH   8   9
ENDBRANCH   7   8
ENDBRANCH   6   7
ENDBRANCH   5   6
ENDBRANCH   4   5
ENDBRANCH   3   4
ENDBRANCH   2   3
ENDBRANCH   1   2
BRANCH   1  15
ATOM     15  C   UNL     1      56.710  25.901  51.004  1.00  0.00     0.000 C 
BRANCH  15  16
ATOM     16  C   UNL     1      55.844  26.661  49.979  1.00  0.00     0.000 C 
BRANCH  16  17
ATOM     17  C   UNL     1      54.540  27.258  50.539  1.00  0.00     0.000 C 
BRANCH  17  18
ATOM     18  C   UNL     1      54.458  28.783  50.361  1.00  0.00    -0.000 C 
BRANCH  18  19
ATOM     19  C   UNL     1      53.694  29.471  51.504  1.00  0.00    -0.000 C 
BRANCH  19  20
ATOM     20  C   UNL     1      54.387  29.312  52.866  1.00  0.00    -0.000 C 
BRANCH  20  21
ATOM     21  C   UNL     1      54.409  30.646  53.627  1.00  0.00    -0.000 C 
BRANCH  21  22
ATOM     22  C   UNL     1      55.394  31.667  53.028  1.00  0.00    -0.000 C 
BRANCH  22  23
ATOM     23  C   UNL     1      56.024  32.639  54.043  1.00  0.00    -0.000 C 
BRANCH  23  24
ATOM     24  C   UNL     1      57.301  32.084  54.692  1.00  0.00    -0.000 C 
BRANCH  24  25
ATOM     25  C   UNL     1      56.998  31.475  56.066  1.00  0.00    -0.003 C 
ATOM     26  C   UNL     1      57.835  30.221  56.309  1.00  0.00     0.004 C 
ENDBRANCH  24  25
ENDBRANCH  23  24
ENDBRANCH  22  23
ENDBRANCH  21  22
ENDBRANCH  20  21
ENDBRANCH  19  20
ENDBRANCH  18  19
ENDBRANCH  17  18
ENDBRANCH  16  17
ENDBRANCH  15  16
ENDBRANCH   1  15
TORSDOF 22
ENDMDL
