MODEL 1
REMARK VINA RESULT:    -5.191      0.000      0.000
REMARK INTER + INTRA:         -17.992
REMARK INTER:                 -13.081
REMARK INTRA:                  -4.911
REMARK UNBOUND:                -4.911
REMARK SMILES CCCCCCCCCCCCCCCCCCCCCCCCCCCC(=O)[O-]
REMARK SMILES IDX 15 1 16 2 17 3 18 4 19 5 20 6 21 7 22 8 23 9 24 10 25 11
REMARK SMILES IDX 26 12 27 13 28 14 29 15 30 16 14 17 13 18 12 19 11 20 10 21
REMARK SMILES IDX 9 22 8 23 7 24 6 25 5 26 4 27 3 28 2 29 1 30
REMARK H PARENT
REMARK Flexibility Score: inf
ROOT
ATOM      1  C   UNL     1      75.320  14.859  15.399  1.00  0.00     0.000 C 
ENDROOT
BRANCH   1   2
ATOM      2  C   UNL     1      74.817  13.657  16.215  1.00  0.00     0.000 C 
BRANCH   2   3
ATOM      3  C   UNL     1      74.684  13.968  17.716  1.00  0.00     0.000 C 
BRANCH   3   4
ATOM      4  C   UNL     1      73.710  13.018  18.436  1.00  0.00     0.000 C 
BRANCH   4   5
ATOM      5  C   UNL     1      74.380  11.990  19.369  1.00  0.00     0.000 C 
BRANCH   5   6
ATOM      6  C   UNL     1      75.838  12.346  19.695  1.00  0.00     0.000 C 
BRANCH   6   7
ATOM      7  C   UNL     1      76.617  11.114  20.181  1.00  0.00     0.000 C 
BRANCH   7   8
ATOM      8  C   UNL     1      77.026  10.183  19.029  1.00  0.00     0.000 C 
BRANCH   8   9
ATOM      9  C   UNL     1      77.640  10.941  17.842  1.00  0.00     0.000 C 
BRANCH   9  10
ATOM     10  C   UNL     1      77.367  10.211  16.519  1.00  0.00     0.000 C 
BRANCH  10  11
ATOM     11  C   UNL     1      77.095  11.190  15.358  1.00  0.00     0.000 C 
BRANCH  11  12
ATOM     12  C   UNL     1      78.283  11.356  14.396  1.00  0.00     0.006 C 
BRANCH  12  13
ATOM     13  C   UNL     1      78.281  12.705  13.668  1.00  0.00     0.053 C 
BRANCH  13  14
ATOM     14  C   UNL     1      78.772  12.542  12.265  1.00  0.00     0.041 C 
ATOM     15  O   UNL     1      78.487  13.401  11.387  1.00  0.00    -0.550 OA
ATOM     16  O   UNL     1      79.596  11.472  11.938  1.00  0.00    -0.550 OA
ENDBRANCH  13  14
ENDBRANCH  12  13
ENDBRANCH  11  12
ENDBRANCH  10  11
ENDBRANCH   9  10
ENDBRANCH   8   9
ENDBRANCH   7   8
ENDBRANCH   6   7
ENDBRANCH   5   6
ENDBRANCH   4   5
ENDBRANCH   3   4
ENDBRANCH   2   3
ENDBRANCH   1   2
BRANCH   1  17
ATOM     17  C   UNL     1      74.503  16.155  15.562  1.00  0.00     0.000 C 
BRANCH  17  18
ATOM     18  C   UNL     1      75.327  17.367  16.049  1.00  0.00     0.000 C 
BRANCH  18  19
ATOM     19  C   UNL     1      76.156  18.007  14.921  1.00  0.00     0.000 C 
BRANCH  19  20
ATOM     20  C   UNL     1      77.532  18.495  15.406  1.00  0.00     0.000 C 
BRANCH  20  21
ATOM     21  C   UNL     1      78.218  17.480  16.335  1.00  0.00     0.000 C 
BRANCH  21  22
ATOM     22  C   UNL     1      78.827  16.321  15.530  1.00  0.00    -0.000 C 
BRANCH  22  23
ATOM     23  C   UNL     1      79.390  15.209  16.431  1.00  0.00    -0.000 C 
BRANCH  23  24
ATOM     24  C   UNL     1      78.286  14.393  17.124  1.00  0.00    -0.000 C 
BRANCH  24  25
ATOM     25  C   UNL     1      78.166  14.717  18.622  1.00  0.00    -0.000 C 
BRANCH  25  26
ATOM     26  C   UNL     1      79.235  14.002  19.467  1.00  0.00    -0.000 C 
BRANCH  26  27
ATOM     27  C   UNL     1      80.061  14.974  20.328  1.00  0.00    -0.000 C 
BRANCH  27  28
ATOM     28  C   UNL     1      79.860  16.468  19.998  1.00  0.00    -0.000 C 
BRANCH  28  29
ATOM     29  C   UNL     1      80.904  17.067  19.040  1.00  0.00    -0.003 C 
ATOM     30  C   UNL     1      80.741  18.573  18.846  1.00  0.00     0.004 C 
ENDBRANCH  28  29
ENDBRANCH  27  28
ENDBRANCH  26  27
ENDBRANCH  25  26
ENDBRANCH  24  25
ENDBRANCH  23  24
ENDBRANCH  22  23
ENDBRANCH  21  22
ENDBRANCH  20  21
ENDBRANCH  19  20
ENDBRANCH  18  19
ENDBRANCH  17  18
ENDBRANCH   1  17
TORSDOF 26
ENDMDL
MODEL 2
REMARK VINA RESULT:    -5.115      2.360      6.444
REMARK INTER + INTRA:         -17.800
REMARK INTER:                 -12.495
REMARK INTRA:                  -5.305
REMARK UNBOUND:                -4.911
REMARK SMILES CCCCCCCCCCCCCCCCCCCCCCCCCCCC(=O)[O-]
REMARK SMILES IDX 15 1 16 2 17 3 18 4 19 5 20 6 21 7 22 8 23 9 24 10 25 11
REMARK SMILES IDX 26 12 27 13 28 14 29 15 30 16 14 17 13 18 12 19 11 20 10 21
REMARK SMILES IDX 9 22 8 23 7 24 6 25 5 26 4 27 3 28 2 29 1 30
REMARK H PARENT
REMARK Flexibility Score: inf
ROOT
ATOM      1  C   UNL     1      74.084  12.854  18.104  1.00  0.00     0.000 C 
ENDROOT
BRANCH   1   2
ATOM      2  C   UNL     1      74.550  14.221  18.630  1.00  0.00     0.000 C 
BRANCH   2   3
ATOM      3  C   UNL     1      75.196  15.092  17.539  1.00  0.00     0.000 C 
BRANCH   3   4
ATOM      4  C   UNL     1      74.873  14.600  16.116  1.00  0.00     0.000 C 
BRANCH   4   5
ATOM      5  C   UNL     1      75.370  15.520  14.985  1.00  0.00     0.000 C 
BRANCH   5   6
ATOM      6  C   UNL     1      75.065  17.002  15.246  1.00  0.00     0.000 C 
BRANCH   6   7
ATOM      7  C   UNL     1      76.325  17.866  15.092  1.00  0.00     0.000 C 
BRANCH   7   8
ATOM      8  C   UNL     1      77.617  17.080  15.367  1.00  0.00     0.000 C 
BRANCH   8   9
ATOM      9  C   UNL     1      78.156  17.302  16.789  1.00  0.00     0.000 C 
BRANCH   9  10
ATOM     10  C   UNL     1      79.010  16.111  17.248  1.00  0.00     0.000 C 
BRANCH  10  11
ATOM     11  C   UNL     1      78.570  15.575  18.626  1.00  0.00     0.000 C 
BRANCH  11  12
ATOM     12  C   UNL     1      79.484  16.017  19.782  1.00  0.00     0.006 C 
BRANCH  12  13
ATOM     13  C   UNL     1      80.097  14.836  20.545  1.00  0.00     0.053 C 
BRANCH  13  14
ATOM     14  C   UNL     1      80.805  13.916  19.601  1.00  0.00     0.041 C 
ATOM     15  O   UNL     1      81.889  14.269  19.063  1.00  0.00    -0.550 OA
ATOM     16  O   UNL     1      80.301  12.643  19.363  1.00  0.00    -0.550 OA
ENDBRANCH  13  14
ENDBRANCH  12  13
ENDBRANCH  11  12
ENDBRANCH  10  11
ENDBRANCH   9  10
ENDBRANCH   8   9
ENDBRANCH   7   8
ENDBRANCH   6   7
ENDBRANCH   5   6
ENDBRANCH   4   5
ENDBRANCH   3   4
ENDBRANCH   2   3
ENDBRANCH   1   2
BRANCH   1  17
ATOM     17  C   UNL     1      74.578  11.635  18.905  1.00  0.00     0.000 C 
BRANCH  17  18
ATOM     18  C   UNL     1      75.388  11.993  20.170  1.00  0.00     0.000 C 
BRANCH  18  19
ATOM     19  C   UNL     1      76.895  11.726  19.999  1.00  0.00     0.000 C 
BRANCH  19  20
ATOM     20  C   UNL     1      77.223  10.225  19.936  1.00  0.00     0.000 C 
BRANCH  20  21
ATOM     21  C   UNL     1      78.114   9.872  18.735  1.00  0.00     0.000 C 
BRANCH  21  22
ATOM     22  C   UNL     1      77.270   9.392  17.544  1.00  0.00    -0.000 C 
BRANCH  22  23
ATOM     23  C   UNL     1      77.610  10.136  16.241  1.00  0.00    -0.000 C 
BRANCH  23  24
ATOM     24  C   UNL     1      76.923  11.509  16.147  1.00  0.00    -0.000 C 
BRANCH  24  25
ATOM     25  C   UNL     1      77.882  12.669  16.460  1.00  0.00    -0.000 C 
BRANCH  25  26
ATOM     26  C   UNL     1      78.861  12.953  15.307  1.00  0.00    -0.000 C 
BRANCH  26  27
ATOM     27  C   UNL     1      78.147  13.335  14.000  1.00  0.00    -0.000 C 
BRANCH  27  28
ATOM     28  C   UNL     1      79.064  13.914  12.902  1.00  0.00    -0.000 C 
BRANCH  28  29
ATOM     29  C   UNL     1      80.211  14.801  13.417  1.00  0.00    -0.003 C 
ATOM     30  C   UNL     1      80.156  16.224  12.864  1.00  0.00     0.004 C 
ENDBRANCH  28  29
ENDBRANCH  27  28
ENDBRANCH  26  27
ENDBRANCH  25  26
ENDBRANCH  24  25
ENDBRANCH  23  24
ENDBRANCH  22  23
ENDBRANCH  21  22
ENDBRANCH  20  21
ENDBRANCH  19  20
ENDBRANCH  18  19
ENDBRANCH  17  18
ENDBRANCH   1  17
TORSDOF 26
ENDMDL
MODEL 3
REMARK VINA RESULT:    -5.105      0.742      2.071
REMARK INTER + INTRA:         -17.776
REMARK INTER:                 -12.534
REMARK INTRA:                  -5.242
REMARK UNBOUND:                -4.911
REMARK SMILES CCCCCCCCCCCCCCCCCCCCCCCCCCCC(=O)[O-]
REMARK SMILES IDX 15 1 16 2 17 3 18 4 19 5 20 6 21 7 22 8 23 9 24 10 25 11
REMARK SMILES IDX 26 12 27 13 28 14 29 15 30 16 14 17 13 18 12 19 11 20 10 21
REMARK SMILES IDX 9 22 8 23 7 24 6 25 5 26 4 27 3 28 2 29 1 30
REMARK H PARENT
REMARK Flexibility Score: inf
ROOT
ATOM      1  C   UNL     1      74.748  14.010  17.688  1.00  0.00     0.000 C 
ENDROOT
BRANCH   1   2
ATOM      2  C   UNL     1      73.722  13.021  18.265  1.00  0.00     0.000 C 
BRANCH   2   3
ATOM      3  C   UNL     1      74.327  12.080  19.322  1.00  0.00     0.000 C 
BRANCH   3   4
ATOM      4  C   UNL     1      75.788  12.427  19.659  1.00  0.00     0.000 C 
BRANCH   4   5
ATOM      5  C   UNL     1      76.558  11.324  20.410  1.00  0.00     0.000 C 
BRANCH   5   6
ATOM      6  C   UNL     1      77.418  10.459  19.476  1.00  0.00     0.000 C 
BRANCH   6   7
ATOM      7  C   UNL     1      78.653  11.229  18.983  1.00  0.00     0.000 C 
BRANCH   7   8
ATOM      8  C   UNL     1      78.741  11.282  17.450  1.00  0.00     0.000 C 
BRANCH   8   9
ATOM      9  C   UNL     1      77.405  10.953  16.765  1.00  0.00     0.000 C 
BRANCH   9  10
ATOM     10  C   UNL     1      77.626  10.130  15.488  1.00  0.00     0.000 C 
BRANCH  10  11
ATOM     11  C   UNL     1      78.405  10.918  14.414  1.00  0.00     0.000 C 
BRANCH  11  12
ATOM     12  C   UNL     1      77.800  12.296  14.099  1.00  0.00     0.006 C 
BRANCH  12  13
ATOM     13  C   UNL     1      78.800  13.250  13.433  1.00  0.00     0.053 C 
BRANCH  13  14
ATOM     14  C   UNL     1      79.040  12.846  12.013  1.00  0.00     0.041 C 
ATOM     15  O   UNL     1      78.164  13.065  11.133  1.00  0.00    -0.550 OA
ATOM     16  O   UNL     1      80.257  12.282  11.648  1.00  0.00    -0.550 OA
ENDBRANCH  13  14
ENDBRANCH  12  13
ENDBRANCH  11  12
ENDBRANCH  10  11
ENDBRANCH   9  10
ENDBRANCH   8   9
ENDBRANCH   7   8
ENDBRANCH   6   7
ENDBRANCH   5   6
ENDBRANCH   4   5
ENDBRANCH   3   4
ENDBRANCH   2   3
ENDBRANCH   1   2
BRANCH   1  17
ATOM     17  C   UNL     1      75.169  13.748  16.231  1.00  0.00     0.000 C 
BRANCH  17  18
ATOM     18  C   UNL     1      75.209  15.012  15.345  1.00  0.00     0.000 C 
BRANCH  18  19
ATOM     19  C   UNL     1      74.299  16.133  15.878  1.00  0.00     0.000 C 
BRANCH  19  20
ATOM     20  C   UNL     1      75.083  17.407  16.236  1.00  0.00     0.000 C 
BRANCH  20  21
ATOM     21  C   UNL     1      76.321  17.601  15.346  1.00  0.00     0.000 C 
BRANCH  21  22
ATOM     22  C   UNL     1      77.416  18.383  16.089  1.00  0.00    -0.000 C 
BRANCH  22  23
ATOM     23  C   UNL     1      78.612  17.497  16.479  1.00  0.00    -0.000 C 
BRANCH  23  24
ATOM     24  C   UNL     1      78.575  16.119  15.797  1.00  0.00    -0.000 C 
BRANCH  24  25
ATOM     25  C   UNL     1      78.695  14.961  16.801  1.00  0.00    -0.000 C 
BRANCH  25  26
ATOM     26  C   UNL     1      78.014  15.274  18.145  1.00  0.00    -0.000 C 
BRANCH  26  27
ATOM     27  C   UNL     1      78.903  14.939  19.355  1.00  0.00    -0.000 C 
BRANCH  27  28
ATOM     28  C   UNL     1      79.544  16.159  20.049  1.00  0.00    -0.000 C 
BRANCH  28  29
ATOM     29  C   UNL     1      80.775  16.741  19.332  1.00  0.00    -0.003 C 
ATOM     30  C   UNL     1      81.723  15.664  18.808  1.00  0.00     0.004 C 
ENDBRANCH  28  29
ENDBRANCH  27  28
ENDBRANCH  26  27
ENDBRANCH  25  26
ENDBRANCH  24  25
ENDBRANCH  23  24
ENDBRANCH  22  23
ENDBRANCH  21  22
ENDBRANCH  20  21
ENDBRANCH  19  20
ENDBRANCH  18  19
ENDBRANCH  17  18
ENDBRANCH   1  17
TORSDOF 26
ENDMDL
MODEL 4
REMARK VINA RESULT:    -5.095      2.277      5.050
REMARK INTER + INTRA:         -17.752
REMARK INTER:                 -12.489
REMARK INTRA:                  -5.263
REMARK UNBOUND:                -4.911
REMARK SMILES CCCCCCCCCCCCCCCCCCCCCCCCCCCC(=O)[O-]
REMARK SMILES IDX 15 1 16 2 17 3 18 4 19 5 20 6 21 7 22 8 23 9 24 10 25 11
REMARK SMILES IDX 26 12 27 13 28 14 29 15 30 16 14 17 13 18 12 19 11 20 10 21
REMARK SMILES IDX 9 22 8 23 7 24 6 25 5 26 4 27 3 28 2 29 1 30
REMARK H PARENT
REMARK Flexibility Score: inf
ROOT
ATOM      1  C   UNL     1      75.662  14.573  17.424  1.00  0.00     0.000 C 
ENDROOT
BRANCH   1   2
ATOM      2  C   UNL     1      74.725  14.406  18.631  1.00  0.00     0.000 C 
BRANCH   2   3
ATOM      3  C   UNL     1      73.869  13.130  18.550  1.00  0.00     0.000 C 
BRANCH   3   4
ATOM      4  C   UNL     1      74.355  12.026  19.508  1.00  0.00     0.000 C 
BRANCH   4   5
ATOM      5  C   UNL     1      75.490  11.144  18.954  1.00  0.00     0.000 C 
BRANCH   5   6
ATOM      6  C   UNL     1      76.630  10.939  19.963  1.00  0.00     0.000 C 
BRANCH   6   7
ATOM      7  C   UNL     1      77.323  12.268  20.299  1.00  0.00     0.000 C 
BRANCH   7   8
ATOM      8  C   UNL     1      78.632  12.464  19.518  1.00  0.00     0.000 C 
BRANCH   8   9
ATOM      9  C   UNL     1      78.909  13.938  19.182  1.00  0.00     0.000 C 
BRANCH   9  10
ATOM     10  C   UNL     1      79.673  14.630  20.320  1.00  0.00     0.000 C 
BRANCH  10  11
ATOM     11  C   UNL     1      79.863  16.139  20.061  1.00  0.00     0.000 C 
BRANCH  11  12
ATOM     12  C   UNL     1      79.350  16.600  18.686  1.00  0.00     0.006 C 
BRANCH  12  13
ATOM     13  C   UNL     1      79.915  17.962  18.263  1.00  0.00     0.053 C 
BRANCH  13  14
ATOM     14  C   UNL     1      81.121  17.779  17.397  1.00  0.00     0.041 C 
ATOM     15  O   UNL     1      81.491  16.623  17.057  1.00  0.00    -0.550 OA
ATOM     16  O   UNL     1      81.802  18.889  16.912  1.00  0.00    -0.550 OA
ENDBRANCH  13  14
ENDBRANCH  12  13
ENDBRANCH  11  12
ENDBRANCH  10  11
ENDBRANCH   9  10
ENDBRANCH   8   9
ENDBRANCH   7   8
ENDBRANCH   6   7
ENDBRANCH   5   6
ENDBRANCH   4   5
ENDBRANCH   3   4
ENDBRANCH   2   3
ENDBRANCH   1   2
BRANCH   1  17
ATOM     17  C   UNL     1      75.079  14.130  16.069  1.00  0.00     0.000 C 
BRANCH  17  18
ATOM     18  C   UNL     1      75.100  15.226  14.981  1.00  0.00     0.000 C 
BRANCH  18  19
ATOM     19  C   UNL     1      74.660  16.599  15.519  1.00  0.00     0.000 C 
BRANCH  19  20
ATOM     20  C   UNL     1      75.658  17.716  15.169  1.00  0.00     0.000 C 
BRANCH  20  21
ATOM     21  C   UNL     1      77.038  17.487  15.804  1.00  0.00     0.000 C 
BRANCH  21  22
ATOM     22  C   UNL     1      78.164  17.834  14.816  1.00  0.00    -0.000 C 
BRANCH  22  23
ATOM     23  C   UNL     1      79.054  16.624  14.486  1.00  0.00    -0.000 C 
BRANCH  23  24
ATOM     24  C   UNL     1      78.672  15.371  15.293  1.00  0.00    -0.000 C 
BRANCH  24  25
ATOM     25  C   UNL     1      79.601  14.181  15.005  1.00  0.00    -0.000 C 
BRANCH  25  26
ATOM     26  C   UNL     1      78.825  12.888  14.697  1.00  0.00    -0.000 C 
BRANCH  26  27
ATOM     27  C   UNL     1      78.116  12.311  15.935  1.00  0.00    -0.000 C 
BRANCH  27  28
ATOM     28  C   UNL     1      77.135  11.156  15.644  1.00  0.00    -0.000 C 
BRANCH  28  29
ATOM     29  C   UNL     1      77.777   9.758  15.588  1.00  0.00    -0.003 C 
ATOM     30  C   UNL     1      77.908   9.108  16.963  1.00  0.00     0.004 C 
ENDBRANCH  28  29
ENDBRANCH  27  28
ENDBRANCH  26  27
ENDBRANCH  25  26
ENDBRANCH  24  25
ENDBRANCH  23  24
ENDBRANCH  22  23
ENDBRANCH  21  22
ENDBRANCH  20  21
ENDBRANCH  19  20
ENDBRANCH  18  19
ENDBRANCH  17  18
ENDBRANCH   1  17
TORSDOF 26
ENDMDL
MODEL 5
REMARK VINA RESULT:    -5.091      1.420      5.126
REMARK INTER + INTRA:         -17.741
REMARK INTER:                 -13.142
REMARK INTRA:                  -4.599
REMARK UNBOUND:                -4.911
REMARK SMILES CCCCCCCCCCCCCCCCCCCCCCCCCCCC(=O)[O-]
REMARK SMILES IDX 15 1 16 2 17 3 18 4 19 5 20 6 21 7 22 8 23 9 24 10 25 11
REMARK SMILES IDX 26 12 27 13 28 14 29 15 30 16 14 17 13 18 12 19 11 20 10 21
REMARK SMILES IDX 9 22 8 23 7 24 6 25 5 26 4 27 3 28 2 29 1 30
REMARK H PARENT
REMARK Flexibility Score: inf
ROOT
ATOM      1  C   UNL     1      75.074  13.344  16.439  1.00  0.00     0.000 C 
ENDROOT
BRANCH   1   2
ATOM      2  C   UNL     1      75.318  14.472  15.423  1.00  0.00     0.000 C 
BRANCH   2   3
ATOM      3  C   UNL     1      74.653  15.798  15.831  1.00  0.00     0.000 C 
BRANCH   3   4
ATOM      4  C   UNL     1      75.256  17.014  15.103  1.00  0.00     0.000 C 
BRANCH   4   5
ATOM      5  C   UNL     1      76.276  17.821  15.929  1.00  0.00     0.000 C 
BRANCH   5   6
ATOM      6  C   UNL     1      77.205  18.676  15.054  1.00  0.00     0.000 C 
BRANCH   6   7
ATOM      7  C   UNL     1      78.533  18.966  15.769  1.00  0.00     0.000 C 
BRANCH   7   8
ATOM      8  C   UNL     1      79.731  18.289  15.085  1.00  0.00     0.000 C 
BRANCH   8   9
ATOM      9  C   UNL     1      79.308  17.283  14.003  1.00  0.00     0.000 C 
BRANCH   9  10
ATOM     10  C   UNL     1      79.789  15.866  14.348  1.00  0.00     0.000 C 
BRANCH  10  11
ATOM     11  C   UNL     1      78.617  14.874  14.501  1.00  0.00     0.000 C 
BRANCH  11  12
ATOM     12  C   UNL     1      78.558  13.811  13.391  1.00  0.00     0.006 C 
BRANCH  12  13
ATOM     13  C   UNL     1      79.719  13.922  12.394  1.00  0.00     0.053 C 
BRANCH  13  14
ATOM     14  C   UNL     1      79.256  13.573  11.015  1.00  0.00     0.041 C 
ATOM     15  O   UNL     1      78.083  13.152  10.825  1.00  0.00    -0.550 OA
ATOM     16  O   UNL     1      80.101  13.770   9.929  1.00  0.00    -0.550 OA
ENDBRANCH  13  14
ENDBRANCH  12  13
ENDBRANCH  11  12
ENDBRANCH  10  11
ENDBRANCH   9  10
ENDBRANCH   8   9
ENDBRANCH   7   8
ENDBRANCH   6   7
ENDBRANCH   5   6
ENDBRANCH   4   5
ENDBRANCH   3   4
ENDBRANCH   2   3
ENDBRANCH   1   2
BRANCH   1  17
ATOM     17  C   UNL     1      74.802  13.804  17.883  1.00  0.00     0.000 C 
BRANCH  17  18
ATOM     18  C   UNL     1      73.627  13.076  18.571  1.00  0.00     0.000 C 
BRANCH  18  19
ATOM     19  C   UNL     1      74.101  11.968  19.529  1.00  0.00     0.000 C 
BRANCH  19  20
ATOM     20  C   UNL     1      75.551  12.176  19.997  1.00  0.00     0.000 C 
BRANCH  20  21
ATOM     21  C   UNL     1      76.438  10.953  19.716  1.00  0.00     0.000 C 
BRANCH  21  22
ATOM     22  C   UNL     1      77.876  11.381  19.381  1.00  0.00    -0.000 C 
BRANCH  22  23
ATOM     23  C   UNL     1      78.087  11.612  17.875  1.00  0.00    -0.000 C 
BRANCH  23  24
ATOM     24  C   UNL     1      78.642  13.013  17.564  1.00  0.00    -0.000 C 
BRANCH  24  25
ATOM     25  C   UNL     1      78.359  14.022  18.688  1.00  0.00    -0.000 C 
BRANCH  25  26
ATOM     26  C   UNL     1      78.098  15.442  18.155  1.00  0.00    -0.000 C 
BRANCH  26  27
ATOM     27  C   UNL     1      79.272  16.401  18.419  1.00  0.00    -0.000 C 
BRANCH  27  28
ATOM     28  C   UNL     1      79.904  16.285  19.821  1.00  0.00    -0.000 C 
BRANCH  28  29
ATOM     29  C   UNL     1      81.251  15.543  19.866  1.00  0.00    -0.003 C 
ATOM     30  C   UNL     1      81.287  14.436  20.919  1.00  0.00     0.004 C 
ENDBRANCH  28  29
ENDBRANCH  27  28
ENDBRANCH  26  27
ENDBRANCH  25  26
ENDBRANCH  24  25
ENDBRANCH  23  24
ENDBRANCH  22  23
ENDBRANCH  21  22
ENDBRANCH  20  21
ENDBRANCH  19  20
ENDBRANCH  18  19
ENDBRANCH  17  18
ENDBRANCH   1  17
TORSDOF 26
ENDMDL
MODEL 6
REMARK VINA RESULT:    -5.086      1.398      1.994
REMARK INTER + INTRA:         -17.727
REMARK INTER:                 -13.238
REMARK INTRA:                  -4.489
REMARK UNBOUND:                -4.911
REMARK SMILES CCCCCCCCCCCCCCCCCCCCCCCCCCCC(=O)[O-]
REMARK SMILES IDX 15 1 16 2 17 3 18 4 19 5 20 6 21 7 22 8 23 9 24 10 25 11
REMARK SMILES IDX 26 12 27 13 28 14 29 15 30 16 14 17 13 18 12 19 11 20 10 21
REMARK SMILES IDX 9 22 8 23 7 24 6 25 5 26 4 27 3 28 2 29 1 30
REMARK H PARENT
REMARK Flexibility Score: inf
ROOT
ATOM      1  C   UNL     1      76.390  15.235  15.672  1.00  0.00     0.000 C 
ENDROOT
BRANCH   1   2
ATOM      2  C   UNL     1      76.458  14.543  17.043  1.00  0.00     0.000 C 
BRANCH   2   3
ATOM      3  C   UNL     1      75.452  15.121  18.054  1.00  0.00     0.000 C 
BRANCH   3   4
ATOM      4  C   UNL     1      74.403  14.089  18.506  1.00  0.00     0.000 C 
BRANCH   4   5
ATOM      5  C   UNL     1      74.844  12.619  18.374  1.00  0.00     0.000 C 
BRANCH   5   6
ATOM      6  C   UNL     1      75.043  11.933  19.734  1.00  0.00     0.000 C 
BRANCH   6   7
ATOM      7  C   UNL     1      76.517  11.965  20.164  1.00  0.00     0.000 C 
BRANCH   7   8
ATOM      8  C   UNL     1      77.172  10.575  20.127  1.00  0.00     0.000 C 
BRANCH   8   9
ATOM      9  C   UNL     1      78.258  10.459  19.045  1.00  0.00     0.000 C 
BRANCH   9  10
ATOM     10  C   UNL     1      77.635  10.309  17.650  1.00  0.00     0.000 C 
BRANCH  10  11
ATOM     11  C   UNL     1      77.970  11.502  16.731  1.00  0.00     0.000 C 
BRANCH  11  12
ATOM     12  C   UNL     1      77.350  11.394  15.327  1.00  0.00     0.006 C 
BRANCH  12  13
ATOM     13  C   UNL     1      77.727  10.094  14.605  1.00  0.00     0.053 C 
BRANCH  13  14
ATOM     14  C   UNL     1      78.049  10.368  13.170  1.00  0.00     0.041 C 
ATOM     15  O   UNL     1      78.494  11.495  12.823  1.00  0.00    -0.550 OA
ATOM     16  O   UNL     1      77.915   9.360  12.224  1.00  0.00    -0.550 OA
ENDBRANCH  13  14
ENDBRANCH  12  13
ENDBRANCH  11  12
ENDBRANCH  10  11
ENDBRANCH   9  10
ENDBRANCH   8   9
ENDBRANCH   7   8
ENDBRANCH   6   7
ENDBRANCH   5   6
ENDBRANCH   4   5
ENDBRANCH   3   4
ENDBRANCH   2   3
ENDBRANCH   1   2
BRANCH   1  17
ATOM     17  C   UNL     1      75.120  16.067  15.414  1.00  0.00     0.000 C 
BRANCH  17  18
ATOM     18  C   UNL     1      75.389  17.555  15.098  1.00  0.00     0.000 C 
BRANCH  18  19
ATOM     19  C   UNL     1      76.890  17.894  15.095  1.00  0.00     0.000 C 
BRANCH  19  20
ATOM     20  C   UNL     1      77.303  18.748  16.307  1.00  0.00     0.000 C 
BRANCH  20  21
ATOM     21  C   UNL     1      78.816  18.700  16.568  1.00  0.00     0.000 C 
BRANCH  21  22
ATOM     22  C   UNL     1      79.401  17.336  16.170  1.00  0.00    -0.000 C 
BRANCH  22  23
ATOM     23  C   UNL     1      79.686  16.437  17.385  1.00  0.00    -0.000 C 
BRANCH  23  24
ATOM     24  C   UNL     1      79.791  17.233  18.698  1.00  0.00    -0.000 C 
BRANCH  24  25
ATOM     25  C   UNL     1      79.529  16.362  19.937  1.00  0.00    -0.000 C 
BRANCH  25  26
ATOM     26  C   UNL     1      79.147  14.917  19.572  1.00  0.00    -0.000 C 
BRANCH  26  27
ATOM     27  C   UNL     1      79.794  13.877  20.503  1.00  0.00    -0.000 C 
BRANCH  27  28
ATOM     28  C   UNL     1      81.214  14.236  20.992  1.00  0.00    -0.000 C 
BRANCH  28  29
ATOM     29  C   UNL     1      82.354  13.771  20.070  1.00  0.00    -0.003 C 
ATOM     30  C   UNL     1      82.925  14.900  19.213  1.00  0.00     0.004 C 
ENDBRANCH  28  29
ENDBRANCH  27  28
ENDBRANCH  26  27
ENDBRANCH  25  26
ENDBRANCH  24  25
ENDBRANCH  23  24
ENDBRANCH  22  23
ENDBRANCH  21  22
ENDBRANCH  20  21
ENDBRANCH  19  20
ENDBRANCH  18  19
ENDBRANCH  17  18
ENDBRANCH   1  17
TORSDOF 26
ENDMDL
MODEL 7
REMARK VINA RESULT:    -5.083      1.423      3.786
REMARK INTER + INTRA:         -17.721
REMARK INTER:                 -12.447
REMARK INTRA:                  -5.274
REMARK UNBOUND:                -4.911
REMARK SMILES CCCCCCCCCCCCCCCCCCCCCCCCCCCC(=O)[O-]
REMARK SMILES IDX 15 1 16 2 17 3 18 4 19 5 20 6 21 7 22 8 23 9 24 10 25 11
REMARK SMILES IDX 26 12 27 13 28 14 29 15 30 16 14 17 13 18 12 19 11 20 10 21
REMARK SMILES IDX 9 22 8 23 7 24 6 25 5 26 4 27 3 28 2 29 1 30
REMARK H PARENT
REMARK Flexibility Score: inf
ROOT
ATOM      1  C   UNL     1      75.536  15.054  17.894  1.00  0.00     0.000 C 
ENDROOT
BRANCH   1   2
ATOM      2  C   UNL     1      74.791  14.187  16.866  1.00  0.00     0.000 C 
BRANCH   2   3
ATOM      3  C   UNL     1      73.849  13.161  17.520  1.00  0.00     0.000 C 
BRANCH   3   4
ATOM      4  C   UNL     1      74.104  12.998  19.030  1.00  0.00     0.000 C 
BRANCH   4   5
ATOM      5  C   UNL     1      74.763  11.665  19.434  1.00  0.00     0.000 C 
BRANCH   5   6
ATOM      6  C   UNL     1      75.961  11.856  20.375  1.00  0.00     0.000 C 
BRANCH   6   7
ATOM      7  C   UNL     1      76.977  10.713  20.224  1.00  0.00     0.000 C 
BRANCH   7   8
ATOM      8  C   UNL     1      76.737   9.875  18.958  1.00  0.00     0.000 C 
BRANCH   8   9
ATOM      9  C   UNL     1      78.041   9.502  18.237  1.00  0.00     0.000 C 
BRANCH   9  10
ATOM     10  C   UNL     1      78.087  10.110  16.827  1.00  0.00     0.000 C 
BRANCH  10  11
ATOM     11  C   UNL     1      76.980  11.163  16.610  1.00  0.00     0.000 C 
BRANCH  11  12
ATOM     12  C   UNL     1      76.851  11.633  15.152  1.00  0.00     0.006 C 
BRANCH  12  13
ATOM     13  C   UNL     1      78.187  12.081  14.547  1.00  0.00     0.053 C 
BRANCH  13  14
ATOM     14  C   UNL     1      78.150  13.542  14.228  1.00  0.00     0.041 C 
ATOM     15  O   UNL     1      79.193  14.134  13.836  1.00  0.00    -0.550 OA
ATOM     16  O   UNL     1      76.951  14.239  14.303  1.00  0.00    -0.550 OA
ENDBRANCH  13  14
ENDBRANCH  12  13
ENDBRANCH  11  12
ENDBRANCH  10  11
ENDBRANCH   9  10
ENDBRANCH   8   9
ENDBRANCH   7   8
ENDBRANCH   6   7
ENDBRANCH   5   6
ENDBRANCH   4   5
ENDBRANCH   3   4
ENDBRANCH   2   3
ENDBRANCH   1   2
BRANCH   1  17
ATOM     17  C   UNL     1      77.071  15.053  17.769  1.00  0.00     0.000 C 
BRANCH  17  18
ATOM     18  C   UNL     1      77.798  14.284  18.893  1.00  0.00     0.000 C 
BRANCH  18  19
ATOM     19  C   UNL     1      78.936  13.397  18.358  1.00  0.00     0.000 C 
BRANCH  19  20
ATOM     20  C   UNL     1      79.902  12.946  19.468  1.00  0.00     0.000 C 
BRANCH  20  21
ATOM     21  C   UNL     1      80.649  14.126  20.108  1.00  0.00     0.000 C 
BRANCH  21  22
ATOM     22  C   UNL     1      81.733  14.669  19.164  1.00  0.00    -0.000 C 
BRANCH  22  23
ATOM     23  C   UNL     1      81.644  16.193  18.977  1.00  0.00    -0.000 C 
BRANCH  23  24
ATOM     24  C   UNL     1      80.291  16.767  19.432  1.00  0.00    -0.000 C 
BRANCH  24  25
ATOM     25  C   UNL     1      79.886  18.020  18.639  1.00  0.00    -0.000 C 
BRANCH  25  26
ATOM     26  C   UNL     1      79.503  17.697  17.183  1.00  0.00    -0.000 C 
BRANCH  26  27
ATOM     27  C   UNL     1      78.804  18.872  16.478  1.00  0.00    -0.000 C 
BRANCH  27  28
ATOM     28  C   UNL     1      77.288  18.691  16.257  1.00  0.00    -0.000 C 
BRANCH  28  29
ATOM     29  C   UNL     1      76.908  17.688  15.154  1.00  0.00    -0.003 C 
ATOM     30  C   UNL     1      75.410  17.398  15.102  1.00  0.00     0.004 C 
ENDBRANCH  28  29
ENDBRANCH  27  28
ENDBRANCH  26  27
ENDBRANCH  25  26
ENDBRANCH  24  25
ENDBRANCH  23  24
ENDBRANCH  22  23
ENDBRANCH  21  22
ENDBRANCH  20  21
ENDBRANCH  19  20
ENDBRANCH  18  19
ENDBRANCH  17  18
ENDBRANCH   1  17
TORSDOF 26
ENDMDL
MODEL 8
REMARK VINA RESULT:    -5.082      1.709      5.043
REMARK INTER + INTRA:         -17.718
REMARK INTER:                 -12.846
REMARK INTRA:                  -4.871
REMARK UNBOUND:                -4.911
REMARK SMILES CCCCCCCCCCCCCCCCCCCCCCCCCCCC(=O)[O-]
REMARK SMILES IDX 15 1 16 2 17 3 18 4 19 5 20 6 21 7 22 8 23 9 24 10 25 11
REMARK SMILES IDX 26 12 27 13 28 14 29 15 30 16 14 17 13 18 12 19 11 20 10 21
REMARK SMILES IDX 9 22 8 23 7 24 6 25 5 26 4 27 3 28 2 29 1 30
REMARK H PARENT
REMARK Flexibility Score: inf
ROOT
ATOM      1  C   UNL     1      75.046  13.911  16.213  1.00  0.00     0.000 C 
ENDROOT
BRANCH   1   2
ATOM      2  C   UNL     1      75.552  15.089  15.365  1.00  0.00     0.000 C 
BRANCH   2   3
ATOM      3  C   UNL     1      74.576  16.278  15.351  1.00  0.00     0.000 C 
BRANCH   3   4
ATOM      4  C   UNL     1      75.168  17.541  16.003  1.00  0.00     0.000 C 
BRANCH   4   5
ATOM      5  C   UNL     1      76.662  17.442  16.365  1.00  0.00     0.000 C 
BRANCH   5   6
ATOM      6  C   UNL     1      77.583  17.875  15.214  1.00  0.00     0.000 C 
BRANCH   6   7
ATOM      7  C   UNL     1      78.952  17.186  15.307  1.00  0.00     0.000 C 
BRANCH   7   8
ATOM      8  C   UNL     1      79.224  16.252  14.117  1.00  0.00     0.000 C 
BRANCH   8   9
ATOM      9  C   UNL     1      79.860  14.919  14.541  1.00  0.00     0.000 C 
BRANCH   9  10
ATOM     10  C   UNL     1      78.813  13.977  15.153  1.00  0.00     0.000 C 
BRANCH  10  11
ATOM     11  C   UNL     1      78.971  12.526  14.651  1.00  0.00     0.000 C 
BRANCH  11  12
ATOM     12  C   UNL     1      77.635  11.784  14.479  1.00  0.00     0.006 C 
BRANCH  12  13
ATOM     13  C   UNL     1      77.215  11.009  15.734  1.00  0.00     0.053 C 
BRANCH  13  14
ATOM     14  C   UNL     1      77.869   9.664  15.760  1.00  0.00     0.041 C 
ATOM     15  O   UNL     1      78.166   9.122  16.859  1.00  0.00    -0.550 OA
ATOM     16  O   UNL     1      78.097   8.980  14.572  1.00  0.00    -0.550 OA
ENDBRANCH  13  14
ENDBRANCH  12  13
ENDBRANCH  11  12
ENDBRANCH  10  11
ENDBRANCH   9  10
ENDBRANCH   8   9
ENDBRANCH   7   8
ENDBRANCH   6   7
ENDBRANCH   5   6
ENDBRANCH   4   5
ENDBRANCH   3   4
ENDBRANCH   2   3
ENDBRANCH   1   2
BRANCH   1  17
ATOM     17  C   UNL     1      74.666  14.259  17.665  1.00  0.00     0.000 C 
BRANCH  17  18
ATOM     18  C   UNL     1      73.638  13.297  18.299  1.00  0.00     0.000 C 
BRANCH  18  19
ATOM     19  C   UNL     1      74.271  12.367  19.350  1.00  0.00     0.000 C 
BRANCH  19  20
ATOM     20  C   UNL     1      74.921  11.124  18.720  1.00  0.00     0.000 C 
BRANCH  20  21
ATOM     21  C   UNL     1      76.317  10.838  19.296  1.00  0.00     0.000 C 
BRANCH  21  22
ATOM     22  C   UNL     1      76.714  11.902  20.330  1.00  0.00    -0.000 C 
BRANCH  22  23
ATOM     23  C   UNL     1      78.060  12.571  20.002  1.00  0.00    -0.000 C 
BRANCH  23  24
ATOM     24  C   UNL     1      78.040  13.309  18.653  1.00  0.00    -0.000 C 
BRANCH  24  25
ATOM     25  C   UNL     1      77.978  14.836  18.817  1.00  0.00    -0.000 C 
BRANCH  25  26
ATOM     26  C   UNL     1      79.338  15.512  18.570  1.00  0.00    -0.000 C 
BRANCH  26  27
ATOM     27  C   UNL     1      79.992  16.025  19.864  1.00  0.00    -0.000 C 
BRANCH  27  28
ATOM     28  C   UNL     1      80.397  14.925  20.868  1.00  0.00    -0.000 C 
BRANCH  28  29
ATOM     29  C   UNL     1      81.851  14.439  20.746  1.00  0.00    -0.003 C 
ATOM     30  C   UNL     1      81.975  13.110  20.003  1.00  0.00     0.004 C 
ENDBRANCH  28  29
ENDBRANCH  27  28
ENDBRANCH  26  27
ENDBRANCH  25  26
ENDBRANCH  24  25
ENDBRANCH  23  24
ENDBRANCH  22  23
ENDBRANCH  21  22
ENDBRANCH  20  21
ENDBRANCH  19  20
ENDBRANCH  18  19
ENDBRANCH  17  18
ENDBRANCH   1  17
TORSDOF 26
ENDMDL
MODEL 9
REMARK VINA RESULT:    -5.042      1.454      2.698
REMARK INTER + INTRA:         -17.616
REMARK INTER:                 -13.021
REMARK INTRA:                  -4.595
REMARK UNBOUND:                -4.911
REMARK SMILES CCCCCCCCCCCCCCCCCCCCCCCCCCCC(=O)[O-]
REMARK SMILES IDX 15 1 16 2 17 3 18 4 19 5 20 6 21 7 22 8 23 9 24 10 25 11
REMARK SMILES IDX 26 12 27 13 28 14 29 15 30 16 14 17 13 18 12 19 11 20 10 21
REMARK SMILES IDX 9 22 8 23 7 24 6 25 5 26 4 27 3 28 2 29 1 30
REMARK H PARENT
REMARK Flexibility Score: inf
ROOT
ATOM      1  C   UNL     1      74.748  14.120  17.603  1.00  0.00     0.000 C 
ENDROOT
BRANCH   1   2
ATOM      2  C   UNL     1      73.682  13.195  18.212  1.00  0.00     0.000 C 
BRANCH   2   3
ATOM      3  C   UNL     1      74.233  12.312  19.345  1.00  0.00     0.000 C 
BRANCH   3   4
ATOM      4  C   UNL     1      75.745  12.505  19.567  1.00  0.00     0.000 C 
BRANCH   4   5
ATOM      5  C   UNL     1      76.404  11.454  20.480  1.00  0.00     0.000 C 
BRANCH   5   6
ATOM      6  C   UNL     1      77.431  10.584  19.741  1.00  0.00     0.000 C 
BRANCH   6   7
ATOM      7  C   UNL     1      76.759   9.724  18.660  1.00  0.00     0.000 C 
BRANCH   7   8
ATOM      8  C   UNL     1      77.346   9.970  17.261  1.00  0.00     0.000 C 
BRANCH   8   9
ATOM      9  C   UNL     1      78.153  11.275  17.176  1.00  0.00     0.000 C 
BRANCH   9  10
ATOM     10  C   UNL     1      78.662  11.518  15.748  1.00  0.00     0.000 C 
BRANCH  10  11
ATOM     11  C   UNL     1      77.548  11.348  14.694  1.00  0.00     0.000 C 
BRANCH  11  12
ATOM     12  C   UNL     1      77.979  10.531  13.465  1.00  0.00     0.006 C 
BRANCH  12  13
ATOM     13  C   UNL     1      78.465   9.121  13.824  1.00  0.00     0.053 C 
BRANCH  13  14
ATOM     14  C   UNL     1      79.843   8.892  13.288  1.00  0.00     0.041 C 
ATOM     15  O   UNL     1      80.529   9.861  12.865  1.00  0.00    -0.550 OA
ATOM     16  O   UNL     1      80.394   7.617  13.314  1.00  0.00    -0.550 OA
ENDBRANCH  13  14
ENDBRANCH  12  13
ENDBRANCH  11  12
ENDBRANCH  10  11
ENDBRANCH   9  10
ENDBRANCH   8   9
ENDBRANCH   7   8
ENDBRANCH   6   7
ENDBRANCH   5   6
ENDBRANCH   4   5
ENDBRANCH   3   4
ENDBRANCH   2   3
ENDBRANCH   1   2
BRANCH   1  17
ATOM     17  C   UNL     1      75.148  13.801  16.151  1.00  0.00     0.000 C 
BRANCH  17  18
ATOM     18  C   UNL     1      75.389  15.047  15.271  1.00  0.00     0.000 C 
BRANCH  18  19
ATOM     19  C   UNL     1      74.416  16.195  15.596  1.00  0.00     0.000 C 
BRANCH  19  20
ATOM     20  C   UNL     1      75.145  17.478  16.031  1.00  0.00     0.000 C 
BRANCH  20  21
ATOM     21  C   UNL     1      76.214  17.915  15.017  1.00  0.00     0.000 C 
BRANCH  21  22
ATOM     22  C   UNL     1      77.442  18.502  15.731  1.00  0.00    -0.000 C 
BRANCH  22  23
ATOM     23  C   UNL     1      78.055  17.528  16.751  1.00  0.00    -0.000 C 
BRANCH  23  24
ATOM     24  C   UNL     1      78.708  16.305  16.084  1.00  0.00    -0.000 C 
BRANCH  24  25
ATOM     25  C   UNL     1      78.665  15.055  16.976  1.00  0.00    -0.000 C 
BRANCH  25  26
ATOM     26  C   UNL     1      78.019  15.329  18.346  1.00  0.00    -0.000 C 
BRANCH  26  27
ATOM     27  C   UNL     1      79.030  15.271  19.503  1.00  0.00    -0.000 C 
BRANCH  27  28
ATOM     28  C   UNL     1      79.377  13.850  19.993  1.00  0.00    -0.000 C 
BRANCH  28  29
ATOM     29  C   UNL     1      80.871  13.486  19.921  1.00  0.00    -0.003 C 
ATOM     30  C   UNL     1      81.717  14.235  20.949  1.00  0.00     0.004 C 
ENDBRANCH  28  29
ENDBRANCH  27  28
ENDBRANCH  26  27
ENDBRANCH  25  26
ENDBRANCH  24  25
ENDBRANCH  23  24
ENDBRANCH  22  23
ENDBRANCH  21  22
ENDBRANCH  20  21
ENDBRANCH  19  20
ENDBRANCH  18  19
ENDBRANCH  17  18
ENDBRANCH   1  17
TORSDOF 26
ENDMDL
