MODEL 1
REMARK VINA RESULT:    -5.250      0.000      0.000
REMARK INTER + INTRA:         -10.015
REMARK INTER:                  -8.933
REMARK INTRA:                  -1.082
REMARK UNBOUND:                -1.082
REMARK SMILES CCCCCCCCCCCCCC(=O)[O-]
REMARK SMILES IDX 8 1 9 2 10 3 11 4 12 5 13 6 14 7 15 8 16 9 7 10 6 11 5 12
REMARK SMILES IDX 4 13 3 14 2 15 1 16
REMARK H PARENT
REMARK Flexibility Score: inf
ROOT
ATOM      1  C   UNL     1       0.083 -29.982   1.958  1.00  0.00     0.000 C 
ENDROOT
BRANCH   1   2
ATOM      2  C   UNL     1      -0.118 -28.486   1.668  1.00  0.00     0.000 C 
BRANCH   2   3
ATOM      3  C   UNL     1      -1.564 -28.025   1.916  1.00  0.00     0.000 C 
BRANCH   3   4
ATOM      4  C   UNL     1      -1.648 -26.551   2.346  1.00  0.00     0.000 C 
BRANCH   4   5
ATOM      5  C   UNL     1      -2.426 -25.683   1.341  1.00  0.00     0.006 C 
BRANCH   5   6
ATOM      6  C   UNL     1      -1.840 -25.771  -0.074  1.00  0.00     0.053 C 
BRANCH   6   7
ATOM      7  C   UNL     1      -2.673 -25.018  -1.067  1.00  0.00     0.041 C 
ATOM      8  O   UNL     1      -2.460 -23.794  -1.275  1.00  0.00    -0.550 OA
ATOM      9  O   UNL     1      -3.662 -25.676  -1.786  1.00  0.00    -0.550 OA
ENDBRANCH   6   7
ENDBRANCH   5   6
ENDBRANCH   4   5
ENDBRANCH   3   4
ENDBRANCH   2   3
ENDBRANCH   1   2
BRANCH   1  10
ATOM     10  C   UNL     1       1.219 -30.246   2.956  1.00  0.00     0.000 C 
BRANCH  10  11
ATOM     11  C   UNL     1       1.627 -28.955   3.677  1.00  0.00    -0.000 C 
BRANCH  11  12
ATOM     12  C   UNL     1       1.342 -29.050   5.184  1.00  0.00    -0.000 C 
BRANCH  12  13
ATOM     13  C   UNL     1      -0.129 -28.732   5.521  1.00  0.00    -0.000 C 
BRANCH  13  14
ATOM     14  C   UNL     1      -0.356 -27.285   5.990  1.00  0.00    -0.000 C 
BRANCH  14  15
ATOM     15  C   UNL     1      -0.440 -27.158   7.517  1.00  0.00    -0.003 C 
ATOM     16  C   UNL     1       0.919 -26.804   8.115  1.00  0.00     0.004 C 
ENDBRANCH  14  15
ENDBRANCH  13  14
ENDBRANCH  12  13
ENDBRANCH  11  12
ENDBRANCH  10  11
ENDBRANCH   1  10
TORSDOF 12
ENDMDL
MODEL 2
REMARK VINA RESULT:    -5.246      4.616      7.213
REMARK INTER + INTRA:         -10.008
REMARK INTER:                  -8.851
REMARK INTRA:                  -1.158
REMARK UNBOUND:                -1.082
REMARK SMILES CCCCCCCCCCCCCC(=O)[O-]
REMARK SMILES IDX 8 1 9 2 10 3 11 4 12 5 13 6 14 7 15 8 16 9 7 10 6 11 5 12
REMARK SMILES IDX 4 13 3 14 2 15 1 16
REMARK H PARENT
REMARK Flexibility Score: inf
ROOT
ATOM      1  C   UNL     1      -0.068 -29.454   5.444  1.00  0.00     0.000 C 
ENDROOT
BRANCH   1   2
ATOM      2  C   UNL     1      -0.297 -29.013   6.899  1.00  0.00     0.000 C 
BRANCH   2   3
ATOM      3  C   UNL     1      -0.482 -27.492   7.033  1.00  0.00     0.000 C 
BRANCH   3   4
ATOM      4  C   UNL     1       0.538 -26.855   7.991  1.00  0.00     0.000 C 
BRANCH   4   5
ATOM      5  C   UNL     1      -0.036 -26.620   9.399  1.00  0.00     0.006 C 
BRANCH   5   6
ATOM      6  C   UNL     1      -1.544 -26.895   9.463  1.00  0.00     0.053 C 
BRANCH   6   7
ATOM      7  C   UNL     1      -2.212 -26.077  10.526  1.00  0.00     0.041 C 
ATOM      8  O   UNL     1      -3.350 -25.579  10.322  1.00  0.00    -0.550 OA
ATOM      9  O   UNL     1      -1.591 -25.895  11.755  1.00  0.00    -0.550 OA
ENDBRANCH   6   7
ENDBRANCH   5   6
ENDBRANCH   4   5
ENDBRANCH   3   4
ENDBRANCH   2   3
ENDBRANCH   1   2
BRANCH   1  10
ATOM     10  C   UNL     1       1.414 -29.434   5.044  1.00  0.00     0.000 C 
BRANCH  10  11
ATOM     11  C   UNL     1       1.570 -29.327   3.521  1.00  0.00    -0.000 C 
BRANCH  11  12
ATOM     12  C   UNL     1       0.504 -30.163   2.796  1.00  0.00    -0.000 C 
BRANCH  12  13
ATOM     13  C   UNL     1      -0.007 -29.471   1.515  1.00  0.00    -0.000 C 
BRANCH  13  14
ATOM     14  C   UNL     1      -0.209 -27.954   1.672  1.00  0.00    -0.000 C 
BRANCH  14  15
ATOM     15  C   UNL     1      -1.493 -27.598   2.431  1.00  0.00    -0.003 C 
ATOM     16  C   UNL     1      -1.241 -26.488   3.449  1.00  0.00     0.004 C 
ENDBRANCH  14  15
ENDBRANCH  13  14
ENDBRANCH  12  13
ENDBRANCH  11  12
ENDBRANCH  10  11
ENDBRANCH   1  10
TORSDOF 12
ENDMDL
MODEL 3
REMARK VINA RESULT:    -5.229      1.282      2.078
REMARK INTER + INTRA:          -9.980
REMARK INTER:                  -8.137
REMARK INTRA:                  -1.843
REMARK UNBOUND:                -1.082
REMARK SMILES CCCCCCCCCCCCCC(=O)[O-]
REMARK SMILES IDX 8 1 9 2 10 3 11 4 12 5 13 6 14 7 15 8 16 9 7 10 6 11 5 12
REMARK SMILES IDX 4 13 3 14 2 15 1 16
REMARK H PARENT
REMARK Flexibility Score: inf
ROOT
ATOM      1  C   UNL     1       1.316 -29.424   2.748  1.00  0.00     0.000 C 
ENDROOT
BRANCH   1   2
ATOM      2  C   UNL     1      -0.116 -29.387   2.190  1.00  0.00     0.000 C 
BRANCH   2   3
ATOM      3  C   UNL     1      -0.406 -28.106   1.389  1.00  0.00     0.000 C 
BRANCH   3   4
ATOM      4  C   UNL     1      -1.904 -27.766   1.342  1.00  0.00     0.000 C 
BRANCH   4   5
ATOM      5  C   UNL     1      -2.166 -26.254   1.224  1.00  0.00     0.006 C 
BRANCH   5   6
ATOM      6  C   UNL     1      -1.407 -25.625   0.048  1.00  0.00     0.053 C 
BRANCH   6   7
ATOM      7  C   UNL     1      -2.343 -25.069  -0.981  1.00  0.00     0.041 C 
ATOM      8  O   UNL     1      -2.131 -23.935  -1.484  1.00  0.00    -0.550 OA
ATOM      9  O   UNL     1      -3.431 -25.819  -1.409  1.00  0.00    -0.550 OA
ENDBRANCH   6   7
ENDBRANCH   5   6
ENDBRANCH   4   5
ENDBRANCH   3   4
ENDBRANCH   2   3
ENDBRANCH   1   2
BRANCH   1  10
ATOM     10  C   UNL     1       1.355 -29.404   4.282  1.00  0.00     0.000 C 
BRANCH  10  11
ATOM     11  C   UNL     1      -0.061 -29.470   4.869  1.00  0.00    -0.000 C 
BRANCH  11  12
ATOM     12  C   UNL     1      -0.259 -28.403   5.956  1.00  0.00    -0.000 C 
BRANCH  12  13
ATOM     13  C   UNL     1       0.251 -27.016   5.512  1.00  0.00    -0.000 C 
BRANCH  13  14
ATOM     14  C   UNL     1      -0.676 -26.310   4.508  1.00  0.00    -0.000 C 
BRANCH  14  15
ATOM     15  C   UNL     1       0.041 -25.230   3.689  1.00  0.00    -0.003 C 
ATOM     16  C   UNL     1       1.451 -25.675   3.307  1.00  0.00     0.004 C 
ENDBRANCH  14  15
ENDBRANCH  13  14
ENDBRANCH  12  13
ENDBRANCH  11  12
ENDBRANCH  10  11
ENDBRANCH   1  10
TORSDOF 12
ENDMDL
MODEL 4
REMARK VINA RESULT:    -5.226      4.057      6.103
REMARK INTER + INTRA:          -9.974
REMARK INTER:                  -8.470
REMARK INTRA:                  -1.504
REMARK UNBOUND:                -1.082
REMARK SMILES CCCCCCCCCCCCCC(=O)[O-]
REMARK SMILES IDX 8 1 9 2 10 3 11 4 12 5 13 6 14 7 15 8 16 9 7 10 6 11 5 12
REMARK SMILES IDX 4 13 3 14 2 15 1 16
REMARK H PARENT
REMARK Flexibility Score: inf
ROOT
ATOM      1  C   UNL     1       0.321 -30.367   2.716  1.00  0.00     0.000 C 
ENDROOT
BRANCH   1   2
ATOM      2  C   UNL     1       1.647 -30.048   3.427  1.00  0.00     0.000 C 
BRANCH   2   3
ATOM      3  C   UNL     1       1.439 -29.509   4.852  1.00  0.00     0.000 C 
BRANCH   3   4
ATOM      4  C   UNL     1      -0.018 -29.098   5.120  1.00  0.00     0.000 C 
BRANCH   4   5
ATOM      5  C   UNL     1      -0.271 -28.735   6.595  1.00  0.00     0.006 C 
BRANCH   5   6
ATOM      6  C   UNL     1      -0.313 -27.218   6.818  1.00  0.00     0.053 C 
BRANCH   6   7
ATOM      7  C   UNL     1      -0.345 -26.873   8.276  1.00  0.00     0.041 C 
ATOM      8  O   UNL     1      -1.402 -27.032   8.942  1.00  0.00    -0.550 OA
ATOM      9  O   UNL     1       0.802 -26.408   8.906  1.00  0.00    -0.550 OA
ENDBRANCH   6   7
ENDBRANCH   5   6
ENDBRANCH   4   5
ENDBRANCH   3   4
ENDBRANCH   2   3
ENDBRANCH   1   2
BRANCH   1  10
ATOM     10  C   UNL     1       0.203 -29.684   1.346  1.00  0.00     0.000 C 
BRANCH  10  11
ATOM     11  C   UNL     1      -0.154 -28.200   1.501  1.00  0.00    -0.000 C 
BRANCH  11  12
ATOM     12  C   UNL     1      -1.660 -28.016   1.741  1.00  0.00    -0.000 C 
BRANCH  12  13
ATOM     13  C   UNL     1      -2.024 -26.552   2.067  1.00  0.00    -0.000 C 
BRANCH  13  14
ATOM     14  C   UNL     1      -1.485 -26.071   3.425  1.00  0.00    -0.000 C 
BRANCH  14  15
ATOM     15  C   UNL     1      -0.455 -24.942   3.293  1.00  0.00    -0.003 C 
ATOM     16  C   UNL     1       0.960 -25.455   3.547  1.00  0.00     0.004 C 
ENDBRANCH  14  15
ENDBRANCH  13  14
ENDBRANCH  12  13
ENDBRANCH  11  12
ENDBRANCH  10  11
ENDBRANCH   1  10
TORSDOF 12
ENDMDL
MODEL 5
REMARK VINA RESULT:    -5.217      2.577      4.311
REMARK INTER + INTRA:          -9.959
REMARK INTER:                  -9.317
REMARK INTRA:                  -0.641
REMARK UNBOUND:                -1.082
REMARK SMILES CCCCCCCCCCCCCC(=O)[O-]
REMARK SMILES IDX 8 1 9 2 10 3 11 4 12 5 13 6 14 7 15 8 16 9 7 10 6 11 5 12
REMARK SMILES IDX 4 13 3 14 2 15 1 16
REMARK H PARENT
REMARK Flexibility Score: inf
ROOT
ATOM      1  C   UNL     1      -0.492 -27.268   6.507  1.00  0.00     0.000 C 
ENDROOT
BRANCH   1   2
ATOM      2  C   UNL     1      -0.173 -27.453   5.014  1.00  0.00     0.000 C 
BRANCH   2   3
ATOM      3  C   UNL     1      -0.322 -26.149   4.213  1.00  0.00     0.000 C 
BRANCH   3   4
ATOM      4  C   UNL     1      -1.606 -26.120   3.367  1.00  0.00     0.000 C 
BRANCH   4   5
ATOM      5  C   UNL     1      -1.670 -27.268   2.344  1.00  0.00     0.006 C 
BRANCH   5   6
ATOM      6  C   UNL     1      -0.784 -27.000   1.120  1.00  0.00     0.053 C 
BRANCH   6   7
ATOM      7  C   UNL     1      -1.332 -25.894   0.270  1.00  0.00     0.041 C 
ATOM      8  O   UNL     1      -2.466 -26.008  -0.266  1.00  0.00    -0.550 OA
ATOM      9  O   UNL     1      -0.605 -24.723   0.100  1.00  0.00    -0.550 OA
ENDBRANCH   6   7
ENDBRANCH   5   6
ENDBRANCH   4   5
ENDBRANCH   3   4
ENDBRANCH   2   3
ENDBRANCH   1   2
BRANCH   1  10
ATOM     10  C   UNL     1       0.765 -27.036   7.357  1.00  0.00     0.000 C 
BRANCH  10  11
ATOM     11  C   UNL     1       0.394 -26.546   8.763  1.00  0.00    -0.000 C 
BRANCH  11  12
ATOM     12  C   UNL     1      -1.074 -26.861   9.089  1.00  0.00    -0.000 C 
BRANCH  12  13
ATOM     13  C   UNL     1      -1.356 -26.821  10.605  1.00  0.00    -0.000 C 
BRANCH  13  14
ATOM     14  C   UNL     1      -2.343 -25.717  11.020  1.00  0.00    -0.000 C 
BRANCH  14  15
ATOM     15  C   UNL     1      -3.705 -25.841  10.325  1.00  0.00    -0.003 C 
ATOM     16  C   UNL     1      -4.569 -24.609  10.583  1.00  0.00     0.004 C 
ENDBRANCH  14  15
ENDBRANCH  13  14
ENDBRANCH  12  13
ENDBRANCH  11  12
ENDBRANCH  10  11
ENDBRANCH   1  10
TORSDOF 12
ENDMDL
MODEL 6
REMARK VINA RESULT:    -5.201      3.065      5.042
REMARK INTER + INTRA:          -9.932
REMARK INTER:                  -9.332
REMARK INTRA:                  -0.600
REMARK UNBOUND:                -1.082
REMARK SMILES CCCCCCCCCCCCCC(=O)[O-]
REMARK SMILES IDX 8 1 9 2 10 3 11 4 12 5 13 6 14 7 15 8 16 9 7 10 6 11 5 12
REMARK SMILES IDX 4 13 3 14 2 15 1 16
REMARK H PARENT
REMARK Flexibility Score: inf
ROOT
ATOM      1  C   UNL     1      -0.280 -27.273   6.660  1.00  0.00     0.000 C 
ENDROOT
BRANCH   1   2
ATOM      2  C   UNL     1      -0.166 -28.789   6.433  1.00  0.00     0.000 C 
BRANCH   2   3
ATOM      3  C   UNL     1      -0.104 -29.161   4.942  1.00  0.00     0.000 C 
BRANCH   3   4
ATOM      4  C   UNL     1       0.089 -27.934   4.036  1.00  0.00     0.000 C 
BRANCH   4   5
ATOM      5  C   UNL     1       0.026 -28.286   2.539  1.00  0.00     0.006 C 
BRANCH   5   6
ATOM      6  C   UNL     1      -1.361 -28.018   1.941  1.00  0.00     0.053 C 
BRANCH   6   7
ATOM      7  C   UNL     1      -1.544 -26.572   1.593  1.00  0.00     0.041 C 
ATOM      8  O   UNL     1      -2.696 -26.063   1.580  1.00  0.00    -0.550 OA
ATOM      9  O   UNL     1      -0.438 -25.778   1.315  1.00  0.00    -0.550 OA
ENDBRANCH   6   7
ENDBRANCH   5   6
ENDBRANCH   4   5
ENDBRANCH   3   4
ENDBRANCH   2   3
ENDBRANCH   1   2
BRANCH   1  10
ATOM     10  C   UNL     1       0.003 -26.867   8.113  1.00  0.00     0.000 C 
BRANCH  10  11
ATOM     11  C   UNL     1      -1.248 -27.037   8.985  1.00  0.00    -0.000 C 
BRANCH  11  12
ATOM     12  C   UNL     1      -1.013 -26.493  10.402  1.00  0.00    -0.000 C 
BRANCH  12  13
ATOM     13  C   UNL     1      -2.260 -25.785  10.969  1.00  0.00    -0.000 C 
BRANCH  13  14
ATOM     14  C   UNL     1      -3.559 -26.130  10.221  1.00  0.00    -0.000 C 
BRANCH  14  15
ATOM     15  C   UNL     1      -4.673 -25.100  10.450  1.00  0.00    -0.003 C 
ATOM     16  C   UNL     1      -4.167 -23.917  11.272  1.00  0.00     0.004 C 
ENDBRANCH  14  15
ENDBRANCH  13  14
ENDBRANCH  12  13
ENDBRANCH  11  12
ENDBRANCH  10  11
ENDBRANCH   1  10
TORSDOF 12
ENDMDL
MODEL 7
REMARK VINA RESULT:    -5.193      1.408      3.622
REMARK INTER + INTRA:          -9.918
REMARK INTER:                  -8.292
REMARK INTRA:                  -1.626
REMARK UNBOUND:                -1.082
REMARK SMILES CCCCCCCCCCCCCC(=O)[O-]
REMARK SMILES IDX 8 1 9 2 10 3 11 4 12 5 13 6 14 7 15 8 16 9 7 10 6 11 5 12
REMARK SMILES IDX 4 13 3 14 2 15 1 16
REMARK H PARENT
REMARK Flexibility Score: inf
ROOT
ATOM      1  C   UNL     1      -0.471 -26.445   4.534  1.00  0.00     0.000 C 
ENDROOT
BRANCH   1   2
ATOM      2  C   UNL     1       0.885 -25.919   4.037  1.00  0.00     0.000 C 
BRANCH   2   3
ATOM      3  C   UNL     1       0.749 -24.991   2.819  1.00  0.00     0.000 C 
BRANCH   3   4
ATOM      4  C   UNL     1      -0.707 -24.843   2.350  1.00  0.00     0.000 C 
BRANCH   4   5
ATOM      5  C   UNL     1      -0.819 -24.219   0.947  1.00  0.00     0.006 C 
BRANCH   5   6
ATOM      6  C   UNL     1      -1.103 -25.271  -0.133  1.00  0.00     0.053 C 
BRANCH   6   7
ATOM      7  C   UNL     1      -2.241 -24.862  -1.019  1.00  0.00     0.041 C 
ATOM      8  O   UNL     1      -3.193 -25.657  -1.236  1.00  0.00    -0.550 OA
ATOM      9  O   UNL     1      -2.265 -23.590  -1.577  1.00  0.00    -0.550 OA
ENDBRANCH   6   7
ENDBRANCH   5   6
ENDBRANCH   4   5
ENDBRANCH   3   4
ENDBRANCH   2   3
ENDBRANCH   1   2
BRANCH   1  10
ATOM     10  C   UNL     1      -0.349 -27.289   5.810  1.00  0.00     0.000 C 
BRANCH  10  11
ATOM     11  C   UNL     1       0.736 -28.363   5.657  1.00  0.00    -0.000 C 
BRANCH  11  12
ATOM     12  C   UNL     1       0.265 -29.496   4.732  1.00  0.00    -0.000 C 
BRANCH  12  13
ATOM     13  C   UNL     1       1.150 -29.629   3.475  1.00  0.00    -0.000 C 
BRANCH  13  14
ATOM     14  C   UNL     1       0.352 -29.845   2.178  1.00  0.00    -0.000 C 
BRANCH  14  15
ATOM     15  C   UNL     1      -0.097 -28.530   1.527  1.00  0.00    -0.003 C 
ATOM     16  C   UNL     1      -1.598 -28.314   1.702  1.00  0.00     0.004 C 
ENDBRANCH  14  15
ENDBRANCH  13  14
ENDBRANCH  12  13
ENDBRANCH  11  12
ENDBRANCH  10  11
ENDBRANCH   1  10
TORSDOF 12
ENDMDL
MODEL 8
REMARK VINA RESULT:    -5.171      1.426      2.164
REMARK INTER + INTRA:          -9.880
REMARK INTER:                  -8.719
REMARK INTRA:                  -1.161
REMARK UNBOUND:                -1.082
REMARK SMILES CCCCCCCCCCCCCC(=O)[O-]
REMARK SMILES IDX 8 1 9 2 10 3 11 4 12 5 13 6 14 7 15 8 16 9 7 10 6 11 5 12
REMARK SMILES IDX 4 13 3 14 2 15 1 16
REMARK H PARENT
REMARK Flexibility Score: inf
ROOT
ATOM      1  C   UNL     1      -0.692 -26.540   4.856  1.00  0.00     0.000 C 
ENDROOT
BRANCH   1   2
ATOM      2  C   UNL     1      -1.024 -25.797   3.552  1.00  0.00     0.000 C 
BRANCH   2   3
ATOM      3  C   UNL     1      -1.896 -26.633   2.601  1.00  0.00     0.000 C 
BRANCH   3   4
ATOM      4  C   UNL     1      -1.114 -27.146   1.381  1.00  0.00     0.000 C 
BRANCH   4   5
ATOM      5  C   UNL     1      -1.220 -26.204   0.168  1.00  0.00     0.006 C 
BRANCH   5   6
ATOM      6  C   UNL     1      -2.544 -25.428   0.154  1.00  0.00     0.053 C 
BRANCH   6   7
ATOM      7  C   UNL     1      -2.958 -25.066  -1.241  1.00  0.00     0.041 C 
ATOM      8  O   UNL     1      -2.582 -23.979  -1.752  1.00  0.00    -0.550 OA
ATOM      9  O   UNL     1      -3.733 -25.946  -1.986  1.00  0.00    -0.550 OA
ENDBRANCH   6   7
ENDBRANCH   5   6
ENDBRANCH   4   5
ENDBRANCH   3   4
ENDBRANCH   2   3
ENDBRANCH   1   2
BRANCH   1  10
ATOM     10  C   UNL     1       0.794 -26.907   4.969  1.00  0.00     0.000 C 
BRANCH  10  11
ATOM     11  C   UNL     1       0.971 -28.412   5.213  1.00  0.00    -0.000 C 
BRANCH  11  12
ATOM     12  C   UNL     1      -0.245 -29.000   5.944  1.00  0.00    -0.000 C 
BRANCH  12  13
ATOM     13  C   UNL     1       0.000 -29.144   7.461  1.00  0.00    -0.000 C 
BRANCH  13  14
ATOM     14  C   UNL     1      -1.023 -28.388   8.325  1.00  0.00    -0.000 C 
BRANCH  14  15
ATOM     15  C   UNL     1      -0.678 -26.903   8.497  1.00  0.00    -0.003 C 
ATOM     16  C   UNL     1       0.820 -26.708   8.715  1.00  0.00     0.004 C 
ENDBRANCH  14  15
ENDBRANCH  13  14
ENDBRANCH  12  13
ENDBRANCH  11  12
ENDBRANCH  10  11
ENDBRANCH   1  10
TORSDOF 12
ENDMDL
MODEL 9
REMARK VINA RESULT:    -5.130      4.758      7.720
REMARK INTER + INTRA:          -9.810
REMARK INTER:                  -9.002
REMARK INTRA:                  -0.808
REMARK UNBOUND:                -1.082
REMARK SMILES CCCCCCCCCCCCCC(=O)[O-]
REMARK SMILES IDX 8 1 9 2 10 3 11 4 12 5 13 6 14 7 15 8 16 9 7 10 6 11 5 12
REMARK SMILES IDX 4 13 3 14 2 15 1 16
REMARK H PARENT
REMARK Flexibility Score: inf
ROOT
ATOM      1  C   UNL     1      -0.359 -28.534   6.770  1.00  0.00     0.000 C 
ENDROOT
BRANCH   1   2
ATOM      2  C   UNL     1      -0.827 -27.375   7.665  1.00  0.00     0.000 C 
BRANCH   2   3
ATOM      3  C   UNL     1       0.162 -27.071   8.803  1.00  0.00     0.000 C 
BRANCH   3   4
ATOM      4  C   UNL     1      -0.534 -26.524  10.059  1.00  0.00     0.000 C 
BRANCH   4   5
ATOM      5  C   UNL     1      -2.064 -26.445   9.904  1.00  0.00     0.006 C 
BRANCH   5   6
ATOM      6  C   UNL     1      -2.709 -25.568  10.984  1.00  0.00     0.053 C 
BRANCH   6   7
ATOM      7  C   UNL     1      -4.122 -25.208  10.634  1.00  0.00     0.041 C 
ATOM      8  O   UNL     1      -4.543 -24.036  10.821  1.00  0.00    -0.550 OA
ATOM      9  O   UNL     1      -4.962 -26.159  10.069  1.00  0.00    -0.550 OA
ENDBRANCH   6   7
ENDBRANCH   5   6
ENDBRANCH   4   5
ENDBRANCH   3   4
ENDBRANCH   2   3
ENDBRANCH   1   2
BRANCH   1  10
ATOM     10  C   UNL     1      -0.036 -28.084   5.337  1.00  0.00     0.000 C 
BRANCH  10  11
ATOM     11  C   UNL     1      -0.457 -26.626   5.112  1.00  0.00    -0.000 C 
BRANCH  11  12
ATOM     12  C   UNL     1      -0.794 -26.370   3.635  1.00  0.00    -0.000 C 
BRANCH  12  13
ATOM     13  C   UNL     1      -1.215 -27.660   2.900  1.00  0.00    -0.000 C 
BRANCH  13  14
ATOM     14  C   UNL     1      -0.322 -28.004   1.697  1.00  0.00    -0.000 C 
BRANCH  14  15
ATOM     15  C   UNL     1      -0.067 -29.510   1.553  1.00  0.00    -0.003 C 
ATOM     16  C   UNL     1       1.063 -29.967   2.472  1.00  0.00     0.004 C 
ENDBRANCH  14  15
ENDBRANCH  13  14
ENDBRANCH  12  13
ENDBRANCH  11  12
ENDBRANCH  10  11
ENDBRANCH   1  10
TORSDOF 12
ENDMDL
