MODEL 1
REMARK VINA RESULT:    33.365      0.000      0.000
REMARK INTER + INTRA:          48.601
REMARK INTER:                  44.093
REMARK INTRA:                   4.507
REMARK UNBOUND:                 4.507
REMARK SMILES CC[C@@H](C=C[C@H](C)[C@@H]1CC[C@H]2C3=CC[C@H]4C[C@@H](O)CC[C@@]4(C)[C@@H]3CC[C@]21C)C(C)C
REMARK SMILES IDX 6 1 7 2 5 3 4 4 3 5 2 6 1 7 28 8 29 9 30 10 8 11 9 12 26 13
REMARK SMILES IDX 10 14 11 15 25 16 27 17 12 18 24 19 23 20 13 21 21 22 14 23
REMARK SMILES IDX 15 24 20 25 22 26 16 27 19 28 17 29 18 30
REMARK H PARENT 18 31
REMARK Flexibility Score: inf
ROOT
ATOM      1  C   UNL     1      15.854  12.734  42.133  1.00  0.00     0.012 C 
ATOM      2  C   UNL     1      16.412  11.454  42.771  1.00  0.00     0.012 C 
ENDROOT
BRANCH   1   3
ATOM      3  C   UNL     1      16.468  13.930  42.852  1.00  0.00    -0.028 C 
ATOM      4  C   UNL     1      17.714  14.111  43.363  1.00  0.00    -0.027 C 
BRANCH   4   5
ATOM      5  C   UNL     1      19.009  13.293  43.284  1.00  0.00     0.014 C 
BRANCH   5   6
ATOM      6  C   UNL     1      20.135  14.030  44.057  1.00  0.00     0.004 C 
ATOM      7  C   UNL     1      21.526  13.873  43.450  1.00  0.00     0.004 C 
ENDBRANCH   5   6
BRANCH   5   8
ATOM      8  C   UNL     1      19.430  12.701  41.904  1.00  0.00    -0.011 C 
ATOM      9  C   UNL     1      19.534  13.816  40.843  1.00  0.00     0.008 C 
ATOM     10  C   UNL     1      18.434  11.646  41.384  1.00  0.00     0.008 C 
ENDBRANCH   5   8
ENDBRANCH   4   5
ENDBRANCH   1   3
BRANCH   1  11
ATOM     11  C   UNL     1      16.180  12.795  40.597  1.00  0.00     0.002 C 
ATOM     12  C   UNL     1      16.974  14.044  40.215  1.00  0.00     0.005 C 
ATOM     13  C   UNL     1      14.986  12.754  39.561  1.00  0.00    -0.023 C 
ATOM     14  C   UNL     1      16.857  14.124  38.713  1.00  0.00     0.009 C 
ATOM     15  C   UNL     1      15.410  13.738  38.411  1.00  0.00     0.021 C 
ATOM     16  C   UNL     1      14.811  11.296  39.042  1.00  0.00     0.008 C 
ATOM     17  C   UNL     1      13.650  13.278  40.162  1.00  0.00     0.012 C 
ATOM     18  C   UNL     1      15.229  13.267  36.964  1.00  0.00    -0.067 C 
ATOM     19  C   UNL     1      13.947  11.224  37.789  1.00  0.00     0.009 C 
ATOM     20  C   UNL     1      14.645  11.903  36.596  1.00  0.00     0.021 C 
ATOM     21  C   UNL     1      15.696  14.050  35.968  1.00  0.00    -0.027 C 
ATOM     22  C   UNL     1      13.794  11.882  35.234  1.00  0.00    -0.023 C 
ATOM     23  C   UNL     1      15.536  13.637  34.537  1.00  0.00     0.031 C 
ATOM     24  C   UNL     1      14.092  13.155  34.350  1.00  0.00     0.002 C 
ATOM     25  C   UNL     1      14.180  10.577  34.465  1.00  0.00     0.010 C 
ATOM     26  C   UNL     1      12.265  11.866  35.515  1.00  0.00     0.012 C 
ATOM     27  C   UNL     1      13.703  13.019  32.854  1.00  0.00     0.036 C 
ATOM     28  C   UNL     1      13.652  10.512  33.030  1.00  0.00     0.032 C 
ATOM     29  C   UNL     1      14.148  11.705  32.206  1.00  0.00     0.114 C 
BRANCH  29  30
ATOM     30  O   UNL     1      15.546  11.680  32.078  1.00  0.00    -0.393 OA
ATOM     31  H   UNL     1      15.749  11.176  31.247  1.00  0.00     0.210 HD
ENDBRANCH  29  30
ENDBRANCH   1  11
TORSDOF 6
ENDMDL
MODEL 2
REMARK VINA RESULT:    34.357      1.228      2.047
REMARK INTER + INTRA:          49.911
REMARK INTER:                  47.971
REMARK INTRA:                   1.940
REMARK UNBOUND:                 4.507
REMARK SMILES CC[C@@H](C=C[C@H](C)[C@@H]1CC[C@H]2C3=CC[C@H]4C[C@@H](O)CC[C@@]4(C)[C@@H]3CC[C@]21C)C(C)C
REMARK SMILES IDX 6 1 7 2 5 3 4 4 3 5 2 6 1 7 28 8 29 9 30 10 8 11 9 12 26 13
REMARK SMILES IDX 10 14 11 15 25 16 27 17 12 18 24 19 23 20 13 21 21 22 14 23
REMARK SMILES IDX 15 24 20 25 22 26 16 27 19 28 17 29 18 30
REMARK H PARENT 18 31
REMARK Flexibility Score: inf
ROOT
ATOM      1  C   UNL     1      15.937  13.483  40.357  1.00  0.00     0.012 C 
ATOM      2  C   UNL     1      14.556  14.080  40.656  1.00  0.00     0.012 C 
ENDROOT
BRANCH   1   3
ATOM      3  C   UNL     1      16.114  12.237  41.217  1.00  0.00    -0.028 C 
ATOM      4  C   UNL     1      17.219  11.728  41.821  1.00  0.00    -0.027 C 
BRANCH   4   5
ATOM      5  C   UNL     1      18.644  12.260  42.020  1.00  0.00     0.014 C 
BRANCH   5   6
ATOM      6  C   UNL     1      18.965  12.328  43.537  1.00  0.00     0.004 C 
ATOM      7  C   UNL     1      18.940  13.736  44.125  1.00  0.00     0.004 C 
ENDBRANCH   5   6
BRANCH   5   8
ATOM      8  C   UNL     1      19.096  13.501  41.190  1.00  0.00    -0.011 C 
ATOM      9  C   UNL     1      19.322  13.114  39.713  1.00  0.00     0.008 C 
ATOM     10  C   UNL     1      20.401  14.125  41.720  1.00  0.00     0.008 C 
ENDBRANCH   5   8
ENDBRANCH   4   5
ENDBRANCH   1   3
BRANCH   1  11
ATOM     11  C   UNL     1      16.086  13.121  38.835  1.00  0.00     0.002 C 
ATOM     12  C   UNL     1      16.975  14.110  38.081  1.00  0.00     0.005 C 
ATOM     13  C   UNL     1      14.782  13.005  37.947  1.00  0.00    -0.023 C 
ATOM     14  C   UNL     1      16.692  13.839  36.623  1.00  0.00     0.009 C 
ATOM     15  C   UNL     1      15.184  13.607  36.552  1.00  0.00     0.021 C 
ATOM     16  C   UNL     1      14.373  11.507  37.835  1.00  0.00     0.008 C 
ATOM     17  C   UNL     1      13.599  13.850  38.502  1.00  0.00     0.012 C 
ATOM     18  C   UNL     1      14.780  12.831  35.294  1.00  0.00    -0.067 C 
ATOM     19  C   UNL     1      13.366  11.260  36.719  1.00  0.00     0.009 C 
ATOM     20  C   UNL     1      13.996  11.518  35.338  1.00  0.00     0.021 C 
ATOM     21  C   UNL     1      15.217  13.271  34.095  1.00  0.00    -0.027 C 
ATOM     22  C   UNL     1      12.995  11.293  34.103  1.00  0.00    -0.023 C 
ATOM     23  C   UNL     1      14.842  12.551  32.836  1.00  0.00     0.031 C 
ATOM     24  C   UNL     1      13.339  12.255  32.900  1.00  0.00     0.002 C 
ATOM     25  C   UNL     1      13.128   9.797  33.665  1.00  0.00     0.010 C 
ATOM     26  C   UNL     1      11.518  11.569  34.504  1.00  0.00     0.012 C 
ATOM     27  C   UNL     1      12.764  11.818  31.527  1.00  0.00     0.036 C 
ATOM     28  C   UNL     1      12.431   9.465  32.343  1.00  0.00     0.032 C 
ATOM     29  C   UNL     1      12.968  10.336  31.203  1.00  0.00     0.114 C 
BRANCH  29  30
ATOM     30  O   UNL     1      14.328  10.076  30.970  1.00  0.00    -0.393 OA
ATOM     31  H   UNL     1      14.835  10.844  31.343  1.00  0.00     0.210 HD
ENDBRANCH  29  30
ENDBRANCH   1  11
TORSDOF 6
ENDMDL
MODEL 3
REMARK VINA RESULT:    35.671      2.624      8.720
REMARK INTER + INTRA:          51.648
REMARK INTER:                  51.640
REMARK INTRA:                   0.008
REMARK UNBOUND:                 4.507
REMARK SMILES CC[C@@H](C=C[C@H](C)[C@@H]1CC[C@H]2C3=CC[C@H]4C[C@@H](O)CC[C@@]4(C)[C@@H]3CC[C@]21C)C(C)C
REMARK SMILES IDX 6 1 7 2 5 3 4 4 3 5 2 6 1 7 28 8 29 9 30 10 8 11 9 12 26 13
REMARK SMILES IDX 10 14 11 15 25 16 27 17 12 18 24 19 23 20 13 21 21 22 14 23
REMARK SMILES IDX 15 24 20 25 22 26 16 27 19 28 17 29 18 30
REMARK H PARENT 18 31
REMARK Flexibility Score: inf
ROOT
ATOM      1  C   UNL     1      13.182  12.433  34.530  1.00  0.00     0.012 C 
ATOM      2  C   UNL     1      12.322  13.651  34.168  1.00  0.00     0.012 C 
ENDROOT
BRANCH   1   3
ATOM      3  C   UNL     1      14.497  12.535  33.767  1.00  0.00    -0.028 C 
ATOM      4  C   UNL     1      15.121  11.642  32.957  1.00  0.00    -0.027 C 
BRANCH   4   5
ATOM      5  C   UNL     1      14.701  10.289  32.367  1.00  0.00     0.014 C 
BRANCH   5   6
ATOM      6  C   UNL     1      15.454  10.050  31.031  1.00  0.00     0.004 C 
ATOM      7  C   UNL     1      16.812   9.373  31.184  1.00  0.00     0.004 C 
ENDBRANCH   5   6
BRANCH   5   8
ATOM      8  C   UNL     1      13.184   9.928  32.347  1.00  0.00    -0.011 C 
ATOM      9  C   UNL     1      12.990   8.397  32.309  1.00  0.00     0.008 C 
ATOM     10  C   UNL     1      12.448  10.527  31.133  1.00  0.00     0.008 C 
ENDBRANCH   5   8
ENDBRANCH   4   5
ENDBRANCH   1   3
BRANCH   1  11
ATOM     11  C   UNL     1      13.452  12.366  36.077  1.00  0.00     0.002 C 
ATOM     12  C   UNL     1      12.340  13.021  36.896  1.00  0.00     0.005 C 
ATOM     13  C   UNL     1      14.786  12.996  36.647  1.00  0.00    -0.023 C 
ATOM     14  C   UNL     1      12.937  13.202  38.270  1.00  0.00     0.009 C 
ATOM     15  C   UNL     1      14.376  13.647  38.018  1.00  0.00     0.021 C 
ATOM     16  C   UNL     1      15.843  11.868  36.835  1.00  0.00     0.008 C 
ATOM     17  C   UNL     1      15.354  14.125  35.739  1.00  0.00     0.012 C 
ATOM     18  C   UNL     1      15.279  13.392  39.229  1.00  0.00    -0.067 C 
ATOM     19  C   UNL     1      17.012  12.304  37.709  1.00  0.00     0.009 C 
ATOM     20  C   UNL     1      16.556  12.553  39.159  1.00  0.00     0.021 C 
ATOM     21  C   UNL     1      14.881  13.844  40.438  1.00  0.00    -0.027 C 
ATOM     22  C   UNL     1      17.728  13.030  40.147  1.00  0.00    -0.023 C 
ATOM     23  C   UNL     1      15.732  13.626  41.651  1.00  0.00     0.031 C 
ATOM     24  C   UNL     1      17.175  13.985  41.277  1.00  0.00     0.002 C 
ATOM     25  C   UNL     1      18.359  11.745  40.774  1.00  0.00     0.010 C 
ATOM     26  C   UNL     1      18.835  13.814  39.386  1.00  0.00     0.012 C 
ATOM     27  C   UNL     1      18.091  14.124  42.521  1.00  0.00     0.036 C 
ATOM     28  C   UNL     1      19.326  12.017  41.928  1.00  0.00     0.032 C 
ATOM     29  C   UNL     1      18.636  12.796  43.053  1.00  0.00     0.114 C 
BRANCH  29  30
ATOM     30  O   UNL     1      17.598  12.042  43.622  1.00  0.00    -0.393 OA
ATOM     31  H   UNL     1      17.730  11.103  43.328  1.00  0.00     0.210 HD
ENDBRANCH  29  30
ENDBRANCH   1  11
TORSDOF 6
ENDMDL
