MODEL 1
REMARK VINA RESULT:    -5.239      0.000      0.000
REMARK INTER + INTRA:          -6.454
REMARK INTER:                  -6.158
REMARK INTRA:                  -0.296
REMARK UNBOUND:                -0.296
REMARK SMILES O=c1c(O)c(-c2ccc(O)cc2)oc2cc(O)cc(O)c12
REMARK SMILES IDX 5 1 3 2 2 3 1 4 21 5 19 6 18 7 16 8 15 9 14 10 13 11 6 12
REMARK SMILES IDX 7 13 8 14 9 15 12 16 11 17 10 18 4 20 20 22 17 24
REMARK H PARENT 10 19 4 21 20 23 17 25
REMARK Flexibility Score: inf
ROOT
ATOM      1  C   UNL     1      16.856  -6.408  27.138  1.00  0.00     0.180 A 
ATOM      2  C   UNL     1      15.812  -5.784  27.842  1.00  0.00     0.208 A 
ATOM      3  C   UNL     1      16.093  -4.637  28.603  1.00  0.00     0.238 A 
ATOM      4  O   UNL     1      15.166  -4.116  29.275  1.00  0.00    -0.285 OA
ATOM      5  C   UNL     1      17.410  -4.120  28.636  1.00  0.00     0.111 A 
ATOM      6  C   UNL     1      17.800  -2.942  29.341  1.00  0.00     0.134 A 
ATOM      7  C   UNL     1      19.156  -2.596  29.412  1.00  0.00     0.093 A 
ATOM      8  C   UNL     1      20.126  -3.347  28.749  1.00  0.00     0.123 A 
ATOM      9  C   UNL     1      19.748  -4.467  28.008  1.00  0.00     0.094 A 
ATOM     10  C   UNL     1      18.409  -4.858  27.949  1.00  0.00     0.146 A 
ATOM     11  O   UNL     1      18.092  -5.936  27.242  1.00  0.00    -0.452 OA
ENDROOT
BRANCH   1  12
ATOM     12  C   UNL     1      16.632  -7.605  26.295  1.00  0.00     0.021 A 
ATOM     13  C   UNL     1      16.310  -7.490  24.930  1.00  0.00     0.016 A 
ATOM     14  C   UNL     1      16.128  -8.635  24.149  1.00  0.00     0.047 A 
ATOM     15  C   UNL     1      16.278  -9.907  24.717  1.00  0.00     0.115 A 
ATOM     16  C   UNL     1      16.802  -8.883  26.850  1.00  0.00     0.016 A 
ATOM     17  C   UNL     1      16.618 -10.026  26.067  1.00  0.00     0.047 A 
BRANCH  15  18
ATOM     18  O   UNL     1      16.097 -11.054  23.947  1.00  0.00    -0.508 OA
ATOM     19  H   UNL     1      15.594 -11.857  24.304  1.00  0.00     0.293 HD
ENDBRANCH  15  18
ENDBRANCH   1  12
BRANCH   2  20
ATOM     20  O   UNL     1      14.523  -6.325  27.814  1.00  0.00    -0.502 OA
ATOM     21  H   UNL     1      13.808  -6.061  28.482  1.00  0.00     0.293 HD
ENDBRANCH   2  20
BRANCH   6  22
ATOM     22  O   UNL     1      16.901  -2.069  29.961  1.00  0.00    -0.507 OA
ATOM     23  H   UNL     1      17.154  -1.376  30.649  1.00  0.00     0.293 HD
ENDBRANCH   6  22
BRANCH   8  24
ATOM     24  O   UNL     1      21.463  -2.965  28.827  1.00  0.00    -0.508 OA
ATOM     25  H   UNL     1      22.027  -2.834  27.995  1.00  0.00     0.293 HD
ENDBRANCH   8  24
TORSDOF 5
ENDMDL
MODEL 2
REMARK VINA RESULT:    -5.022      9.335     12.524
REMARK INTER + INTRA:          -6.199
REMARK INTER:                  -6.076
REMARK INTRA:                  -0.124
REMARK UNBOUND:                -0.296
REMARK SMILES O=c1c(O)c(-c2ccc(O)cc2)oc2cc(O)cc(O)c12
REMARK SMILES IDX 5 1 3 2 2 3 1 4 21 5 19 6 18 7 16 8 15 9 14 10 13 11 6 12
REMARK SMILES IDX 7 13 8 14 9 15 12 16 11 17 10 18 4 20 20 22 17 24
REMARK H PARENT 10 19 4 21 20 23 17 25
REMARK Flexibility Score: inf
ROOT
ATOM      1  C   UNL     1      23.679   4.030  25.637  1.00  0.00     0.180 A 
ATOM      2  C   UNL     1      22.477   4.589  26.103  1.00  0.00     0.208 A 
ATOM      3  C   UNL     1      21.803   3.966  27.166  1.00  0.00     0.238 A 
ATOM      4  O   UNL     1      20.699   4.439  27.542  1.00  0.00    -0.285 OA
ATOM      5  C   UNL     1      22.349   2.802  27.760  1.00  0.00     0.111 A 
ATOM      6  C   UNL     1      21.771   2.112  28.868  1.00  0.00     0.134 A 
ATOM      7  C   UNL     1      22.327   0.897  29.290  1.00  0.00     0.093 A 
ATOM      8  C   UNL     1      23.475   0.383  28.689  1.00  0.00     0.123 A 
ATOM      9  C   UNL     1      24.081   1.080  27.643  1.00  0.00     0.094 A 
ATOM     10  C   UNL     1      23.530   2.275  27.176  1.00  0.00     0.146 A 
ATOM     11  O   UNL     1      24.131   2.902  26.172  1.00  0.00    -0.452 OA
ENDROOT
BRANCH   1  12
ATOM     12  C   UNL     1      24.459   4.644  24.538  1.00  0.00     0.021 A 
ATOM     13  C   UNL     1      24.616   3.995  23.299  1.00  0.00     0.016 A 
ATOM     14  C   UNL     1      25.336   4.606  22.268  1.00  0.00     0.047 A 
ATOM     15  C   UNL     1      25.897   5.876  22.457  1.00  0.00     0.115 A 
ATOM     16  C   UNL     1      25.006   5.926  24.710  1.00  0.00     0.016 A 
ATOM     17  C   UNL     1      25.727   6.534  23.678  1.00  0.00     0.047 A 
BRANCH  15  18
ATOM     18  O   UNL     1      26.618   6.492  21.437  1.00  0.00    -0.508 OA
ATOM     19  H   UNL     1      27.631   6.464  21.412  1.00  0.00     0.293 HD
ENDBRANCH  15  18
ENDBRANCH   1  12
BRANCH   2  20
ATOM     20  O   UNL     1      21.944   5.725  25.487  1.00  0.00    -0.502 OA
ATOM     21  H   UNL     1      21.415   6.422  25.997  1.00  0.00     0.293 HD
ENDBRANCH   2  20
BRANCH   6  22
ATOM     22  O   UNL     1      20.679   2.586  29.600  1.00  0.00    -0.507 OA
ATOM     23  H   UNL     1      20.537   3.549  29.862  1.00  0.00     0.293 HD
ENDBRANCH   6  22
BRANCH   8  24
ATOM     24  O   UNL     1      24.009  -0.820  29.144  1.00  0.00    -0.508 OA
ATOM     25  H   UNL     1      23.775  -1.704  28.708  1.00  0.00     0.293 HD
ENDBRANCH   8  24
TORSDOF 5
ENDMDL
MODEL 3
REMARK VINA RESULT:    -4.806      7.744     10.196
REMARK INTER + INTRA:          -5.945
REMARK INTER:                  -5.714
REMARK INTRA:                  -0.232
REMARK UNBOUND:                -0.296
REMARK SMILES O=c1c(O)c(-c2ccc(O)cc2)oc2cc(O)cc(O)c12
REMARK SMILES IDX 5 1 3 2 2 3 1 4 21 5 19 6 18 7 16 8 15 9 14 10 13 11 6 12
REMARK SMILES IDX 7 13 8 14 9 15 12 16 11 17 10 18 4 20 20 22 17 24
REMARK H PARENT 10 19 4 21 20 23 17 25
REMARK Flexibility Score: inf
ROOT
ATOM      1  C   UNL     1      22.212   1.520  28.602  1.00  0.00     0.180 A 
ATOM      2  C   UNL     1      21.358   2.556  29.018  1.00  0.00     0.208 A 
ATOM      3  C   UNL     1      21.174   3.666  28.177  1.00  0.00     0.238 A 
ATOM      4  O   UNL     1      20.451   4.614  28.578  1.00  0.00    -0.285 OA
ATOM      5  C   UNL     1      21.833   3.717  26.925  1.00  0.00     0.111 A 
ATOM      6  C   UNL     1      21.688   4.774  25.976  1.00  0.00     0.134 A 
ATOM      7  C   UNL     1      22.488   4.785  24.827  1.00  0.00     0.093 A 
ATOM      8  C   UNL     1      23.379   3.746  24.559  1.00  0.00     0.123 A 
ATOM      9  C   UNL     1      23.485   2.678  25.452  1.00  0.00     0.094 A 
ATOM     10  C   UNL     1      22.727   2.657  26.624  1.00  0.00     0.146 A 
ATOM     11  O   UNL     1      22.866   1.629  27.451  1.00  0.00    -0.452 OA
ENDROOT
BRANCH   1  12
ATOM     12  C   UNL     1      22.436   0.307  29.422  1.00  0.00     0.021 A 
ATOM     13  C   UNL     1      23.260   0.335  30.563  1.00  0.00     0.016 A 
ATOM     14  C   UNL     1      23.436  -0.816  31.335  1.00  0.00     0.047 A 
ATOM     15  C   UNL     1      22.784  -2.006  30.986  1.00  0.00     0.115 A 
ATOM     16  C   UNL     1      21.770  -0.884  29.092  1.00  0.00     0.016 A 
ATOM     17  C   UNL     1      21.949  -2.034  29.865  1.00  0.00     0.047 A 
BRANCH  15  18
ATOM     18  O   UNL     1      22.955  -3.160  31.747  1.00  0.00    -0.508 OA
ATOM     19  H   UNL     1      23.823  -3.350  32.233  1.00  0.00     0.293 HD
ENDBRANCH  15  18
ENDBRANCH   1  12
BRANCH   2  20
ATOM     20  O   UNL     1      20.735   2.495  30.268  1.00  0.00    -0.502 OA
ATOM     21  H   UNL     1      20.298   1.650  30.617  1.00  0.00     0.293 HD
ENDBRANCH   2  20
BRANCH   6  22
ATOM     22  O   UNL     1      20.760   5.813  26.101  1.00  0.00    -0.507 OA
ATOM     23  H   UNL     1      20.697   6.604  25.478  1.00  0.00     0.293 HD
ENDBRANCH   6  22
BRANCH   8  24
ATOM     24  O   UNL     1      24.148   3.782  23.399  1.00  0.00    -0.508 OA
ATOM     25  H   UNL     1      24.973   4.366  23.327  1.00  0.00     0.293 HD
ENDBRANCH   8  24
TORSDOF 5
ENDMDL
MODEL 4
REMARK VINA RESULT:    -4.758      1.695      6.907
REMARK INTER + INTRA:          -5.889
REMARK INTER:                  -5.601
REMARK INTRA:                  -0.288
REMARK UNBOUND:                -0.296
REMARK SMILES O=c1c(O)c(-c2ccc(O)cc2)oc2cc(O)cc(O)c12
REMARK SMILES IDX 5 1 3 2 2 3 1 4 21 5 19 6 18 7 16 8 15 9 14 10 13 11 6 12
REMARK SMILES IDX 7 13 8 14 9 15 12 16 11 17 10 18 4 20 20 22 17 24
REMARK H PARENT 10 19 4 21 20 23 17 25
REMARK Flexibility Score: inf
ROOT
ATOM      1  C   UNL     1      17.682  -6.567  27.719  1.00  0.00     0.180 A 
ATOM      2  C   UNL     1      17.784  -7.723  28.513  1.00  0.00     0.208 A 
ATOM      3  C   UNL     1      17.314  -8.944  28.001  1.00  0.00     0.238 A 
ATOM      4  O   UNL     1      17.358  -9.964  28.737  1.00  0.00    -0.285 OA
ATOM      5  C   UNL     1      16.765  -8.996  26.698  1.00  0.00     0.111 A 
ATOM      6  C   UNL     1      16.295 -10.186  26.064  1.00  0.00     0.134 A 
ATOM      7  C   UNL     1      15.651 -10.099  24.823  1.00  0.00     0.093 A 
ATOM      8  C   UNL     1      15.518  -8.878  24.164  1.00  0.00     0.123 A 
ATOM      9  C   UNL     1      16.026  -7.717  24.749  1.00  0.00     0.094 A 
ATOM     10  C   UNL     1      16.641  -7.766  26.002  1.00  0.00     0.146 A 
ATOM     11  O   UNL     1      17.102  -6.637  26.527  1.00  0.00    -0.452 OA
ENDROOT
BRANCH   1  12
ATOM     12  C   UNL     1      18.177  -5.250  28.179  1.00  0.00     0.021 A 
ATOM     13  C   UNL     1      17.343  -4.355  28.876  1.00  0.00     0.016 A 
ATOM     14  C   UNL     1      17.841  -3.127  29.321  1.00  0.00     0.047 A 
ATOM     15  C   UNL     1      19.179  -2.783  29.090  1.00  0.00     0.115 A 
ATOM     16  C   UNL     1      19.523  -4.905  27.971  1.00  0.00     0.016 A 
ATOM     17  C   UNL     1      20.017  -3.676  28.417  1.00  0.00     0.047 A 
BRANCH  15  18
ATOM     18  O   UNL     1      19.685  -1.561  29.528  1.00  0.00    -0.508 OA
ATOM     19  H   UNL     1      19.333  -1.111  30.365  1.00  0.00     0.293 HD
ENDBRANCH  15  18
ENDBRANCH   1  12
BRANCH   2  20
ATOM     20  O   UNL     1      18.309  -7.644  29.806  1.00  0.00    -0.502 OA
ATOM     21  H   UNL     1      19.216  -7.236  30.000  1.00  0.00     0.293 HD
ENDBRANCH   2  20
BRANCH   6  22
ATOM     22  O   UNL     1      16.460 -11.470  26.593  1.00  0.00    -0.507 OA
ATOM     23  H   UNL     1      16.184 -11.748  27.522  1.00  0.00     0.293 HD
ENDBRANCH   6  22
BRANCH   8  24
ATOM     24  O   UNL     1      14.886  -8.831  22.925  1.00  0.00    -0.508 OA
ATOM     25  H   UNL     1      13.875  -8.830  22.844  1.00  0.00     0.293 HD
ENDBRANCH   8  24
TORSDOF 5
ENDMDL
MODEL 5
REMARK VINA RESULT:    -4.756     10.551     13.474
REMARK INTER + INTRA:          -5.887
REMARK INTER:                  -5.656
REMARK INTRA:                  -0.231
REMARK UNBOUND:                -0.296
REMARK SMILES O=c1c(O)c(-c2ccc(O)cc2)oc2cc(O)cc(O)c12
REMARK SMILES IDX 5 1 3 2 2 3 1 4 21 5 19 6 18 7 16 8 15 9 14 10 13 11 6 12
REMARK SMILES IDX 7 13 8 14 9 15 12 16 11 17 10 18 4 20 20 22 17 24
REMARK H PARENT 10 19 4 21 20 23 17 25
REMARK Flexibility Score: inf
ROOT
ATOM      1  C   UNL     1      24.273   4.557  25.597  1.00  0.00     0.180 A 
ATOM      2  C   UNL     1      24.810   3.454  26.281  1.00  0.00     0.208 A 
ATOM      3  C   UNL     1      24.090   2.901  27.353  1.00  0.00     0.238 A 
ATOM      4  O   UNL     1      24.601   1.948  27.997  1.00  0.00    -0.285 OA
ATOM      5  C   UNL     1      22.836   3.448  27.715  1.00  0.00     0.111 A 
ATOM      6  C   UNL     1      22.003   2.943  28.759  1.00  0.00     0.134 A 
ATOM      7  C   UNL     1      20.843   3.643  29.116  1.00  0.00     0.093 A 
ATOM      8  C   UNL     1      20.452   4.790  28.427  1.00  0.00     0.123 A 
ATOM      9  C   UNL     1      21.229   5.259  27.366  1.00  0.00     0.094 A 
ATOM     10  C   UNL     1      22.410   4.603  27.010  1.00  0.00     0.146 A 
ATOM     11  O   UNL     1      23.125   5.088  26.003  1.00  0.00    -0.452 OA
ENDROOT
BRANCH   1  12
ATOM     12  C   UNL     1      24.961   5.178  24.442  1.00  0.00     0.021 A 
ATOM     13  C   UNL     1      25.013   4.539  23.189  1.00  0.00     0.016 A 
ATOM     14  C   UNL     1      25.647   5.156  22.107  1.00  0.00     0.047 A 
ATOM     15  C   UNL     1      26.224   6.424  22.258  1.00  0.00     0.115 A 
ATOM     16  C   UNL     1      25.523   6.458  24.578  1.00  0.00     0.016 A 
ATOM     17  C   UNL     1      26.157   7.072  23.494  1.00  0.00     0.047 A 
BRANCH  15  18
ATOM     18  O   UNL     1      26.859   7.047  21.186  1.00  0.00    -0.508 OA
ATOM     19  H   UNL     1      27.664   7.648  21.324  1.00  0.00     0.293 HD
ENDBRANCH  15  18
ENDBRANCH   1  12
BRANCH   2  20
ATOM     20  O   UNL     1      26.061   2.943  25.922  1.00  0.00    -0.502 OA
ATOM     21  H   UNL     1      26.201   1.971  25.675  1.00  0.00     0.293 HD
ENDBRANCH   2  20
BRANCH   6  22
ATOM     22  O   UNL     1      22.252   1.753  29.450  1.00  0.00    -0.507 OA
ATOM     23  H   UNL     1      22.659   1.699  30.371  1.00  0.00     0.293 HD
ENDBRANCH   6  22
BRANCH   8  24
ATOM     24  O   UNL     1      19.285   5.451  28.799  1.00  0.00    -0.508 OA
ATOM     25  H   UNL     1      18.531   4.970  29.275  1.00  0.00     0.293 HD
ENDBRANCH   8  24
TORSDOF 5
ENDMDL
MODEL 6
REMARK VINA RESULT:    -4.750      8.030     11.733
REMARK INTER + INTRA:          -5.879
REMARK INTER:                  -5.643
REMARK INTRA:                  -0.236
REMARK UNBOUND:                -0.296
REMARK SMILES O=c1c(O)c(-c2ccc(O)cc2)oc2cc(O)cc(O)c12
REMARK SMILES IDX 5 1 3 2 2 3 1 4 21 5 19 6 18 7 16 8 15 9 14 10 13 11 6 12
REMARK SMILES IDX 7 13 8 14 9 15 12 16 11 17 10 18 4 20 20 22 17 24
REMARK H PARENT 10 19 4 21 20 23 17 25
REMARK Flexibility Score: inf
ROOT
ATOM      1  C   UNL     1      23.855   2.409  27.548  1.00  0.00     0.180 A 
ATOM      2  C   UNL     1      24.120   3.591  28.260  1.00  0.00     0.208 A 
ATOM      3  C   UNL     1      24.502   4.742  27.552  1.00  0.00     0.238 A 
ATOM      4  O   UNL     1      24.792   5.781  28.199  1.00  0.00    -0.285 OA
ATOM      5  C   UNL     1      24.598   4.699  26.140  1.00  0.00     0.111 A 
ATOM      6  C   UNL     1      24.938   5.816  25.318  1.00  0.00     0.134 A 
ATOM      7  C   UNL     1      25.131   5.628  23.943  1.00  0.00     0.093 A 
ATOM      8  C   UNL     1      24.933   4.382  23.352  1.00  0.00     0.123 A 
ATOM      9  C   UNL     1      24.542   3.296  24.138  1.00  0.00     0.094 A 
ATOM     10  C   UNL     1      24.378   3.444  25.517  1.00  0.00     0.146 A 
ATOM     11  O   UNL     1      24.016   2.385  26.230  1.00  0.00    -0.452 OA
ENDROOT
BRANCH   1  12
ATOM     12  C   UNL     1      23.422   1.163  28.222  1.00  0.00     0.021 A 
ATOM     13  C   UNL     1      22.121   1.023  28.740  1.00  0.00     0.016 A 
ATOM     14  C   UNL     1      21.728  -0.172  29.350  1.00  0.00     0.047 A 
ATOM     15  C   UNL     1      22.624  -1.245  29.439  1.00  0.00     0.115 A 
ATOM     16  C   UNL     1      24.306   0.074  28.297  1.00  0.00     0.016 A 
ATOM     17  C   UNL     1      23.911  -1.119  28.909  1.00  0.00     0.047 A 
BRANCH  15  18
ATOM     18  O   UNL     1      22.244  -2.439  30.047  1.00  0.00    -0.508 OA
ATOM     19  H   UNL     1      22.747  -3.303  29.880  1.00  0.00     0.293 HD
ENDBRANCH  15  18
ENDBRANCH   1  12
BRANCH   2  20
ATOM     20  O   UNL     1      24.041   3.604  29.656  1.00  0.00    -0.502 OA
ATOM     21  H   UNL     1      24.742   3.168  30.244  1.00  0.00     0.293 HD
ENDBRANCH   2  20
BRANCH   6  22
ATOM     22  O   UNL     1      25.069   7.125  25.793  1.00  0.00    -0.507 OA
ATOM     23  H   UNL     1      25.611   7.391  26.601  1.00  0.00     0.293 HD
ENDBRANCH   6  22
BRANCH   8  24
ATOM     24  O   UNL     1      25.118   4.234  21.980  1.00  0.00    -0.508 OA
ATOM     25  H   UNL     1      24.817   3.399  21.490  1.00  0.00     0.293 HD
ENDBRANCH   8  24
TORSDOF 5
ENDMDL
MODEL 7
REMARK VINA RESULT:    -4.747      1.841      7.018
REMARK INTER + INTRA:          -5.875
REMARK INTER:                  -5.675
REMARK INTRA:                  -0.201
REMARK UNBOUND:                -0.296
REMARK SMILES O=c1c(O)c(-c2ccc(O)cc2)oc2cc(O)cc(O)c12
REMARK SMILES IDX 5 1 3 2 2 3 1 4 21 5 19 6 18 7 16 8 15 9 14 10 13 11 6 12
REMARK SMILES IDX 7 13 8 14 9 15 12 16 11 17 10 18 4 20 20 22 17 24
REMARK H PARENT 10 19 4 21 20 23 17 25
REMARK Flexibility Score: inf
ROOT
ATOM      1  C   UNL     1      16.740  -7.525  26.612  1.00  0.00     0.180 A 
ATOM      2  C   UNL     1      16.154  -7.653  25.341  1.00  0.00     0.208 A 
ATOM      3  C   UNL     1      16.145  -8.912  24.719  1.00  0.00     0.238 A 
ATOM      4  O   UNL     1      15.669  -9.009  23.559  1.00  0.00    -0.285 OA
ATOM      5  C   UNL     1      16.706 -10.029  25.384  1.00  0.00     0.111 A 
ATOM      6  C   UNL     1      16.716 -11.359  24.864  1.00  0.00     0.134 A 
ATOM      7  C   UNL     1      17.414 -12.362  25.548  1.00  0.00     0.093 A 
ATOM      8  C   UNL     1      18.046 -12.100  26.763  1.00  0.00     0.123 A 
ATOM      9  C   UNL     1      17.992 -10.816  27.309  1.00  0.00     0.094 A 
ATOM     10  C   UNL     1      17.334  -9.786  26.632  1.00  0.00     0.146 A 
ATOM     11  O   UNL     1      17.315  -8.578  27.180  1.00  0.00    -0.452 OA
ENDROOT
BRANCH   1  12
ATOM     12  C   UNL     1      16.765  -6.236  27.342  1.00  0.00     0.021 A 
ATOM     13  C   UNL     1      15.587  -5.659  27.852  1.00  0.00     0.016 A 
ATOM     14  C   UNL     1      15.640  -4.454  28.559  1.00  0.00     0.047 A 
ATOM     15  C   UNL     1      16.869  -3.818  28.776  1.00  0.00     0.115 A 
ATOM     16  C   UNL     1      17.995  -5.602  27.583  1.00  0.00     0.016 A 
ATOM     17  C   UNL     1      18.044  -4.396  28.289  1.00  0.00     0.047 A 
BRANCH  15  18
ATOM     18  O   UNL     1      16.933  -2.616  29.477  1.00  0.00    -0.508 OA
ATOM     19  H   UNL     1      16.248  -2.379  30.186  1.00  0.00     0.293 HD
ENDBRANCH  15  18
ENDBRANCH   1  12
BRANCH   2  20
ATOM     20  O   UNL     1      15.626  -6.532  24.694  1.00  0.00    -0.502 OA
ATOM     21  H   UNL     1      15.904  -6.264  23.757  1.00  0.00     0.293 HD
ENDBRANCH   2  20
BRANCH   6  22
ATOM     22  O   UNL     1      16.038 -11.750  23.705  1.00  0.00    -0.507 OA
ATOM     23  H   UNL     1      16.485 -12.056  22.855  1.00  0.00     0.293 HD
ENDBRANCH   6  22
BRANCH   8  24
ATOM     24  O   UNL     1      18.717 -13.125  27.424  1.00  0.00    -0.508 OA
ATOM     25  H   UNL     1      18.822 -14.044  27.010  1.00  0.00     0.293 HD
ENDBRANCH   8  24
TORSDOF 5
ENDMDL
MODEL 8
REMARK VINA RESULT:    -4.635      8.665     11.410
REMARK INTER + INTRA:          -5.745
REMARK INTER:                  -5.480
REMARK INTRA:                  -0.265
REMARK UNBOUND:                -0.296
REMARK SMILES O=c1c(O)c(-c2ccc(O)cc2)oc2cc(O)cc(O)c12
REMARK SMILES IDX 5 1 3 2 2 3 1 4 21 5 19 6 18 7 16 8 15 9 14 10 13 11 6 12
REMARK SMILES IDX 7 13 8 14 9 15 12 16 11 17 10 18 4 20 20 22 17 24
REMARK H PARENT 10 19 4 21 20 23 17 25
REMARK Flexibility Score: inf
ROOT
ATOM      1  C   UNL     1      22.892   2.239  27.945  1.00  0.00     0.180 A 
ATOM      2  C   UNL     1      24.050   2.359  27.158  1.00  0.00     0.208 A 
ATOM      3  C   UNL     1      24.052   3.264  26.083  1.00  0.00     0.238 A 
ATOM      4  O   UNL     1      25.072   3.327  25.349  1.00  0.00    -0.285 OA
ATOM      5  C   UNL     1      22.902   4.048  25.821  1.00  0.00     0.111 A 
ATOM      6  C   UNL     1      22.807   5.024  24.784  1.00  0.00     0.134 A 
ATOM      7  C   UNL     1      21.578   5.648  24.533  1.00  0.00     0.093 A 
ATOM      8  C   UNL     1      20.460   5.380  25.322  1.00  0.00     0.123 A 
ATOM      9  C   UNL     1      20.559   4.470  26.376  1.00  0.00     0.094 A 
ATOM     10  C   UNL     1      21.761   3.805  26.628  1.00  0.00     0.146 A 
ATOM     11  O   UNL     1      21.809   2.941  27.634  1.00  0.00    -0.452 OA
ENDROOT
BRANCH   1  12
ATOM     12  C   UNL     1      22.823   1.326  29.109  1.00  0.00     0.021 A 
ATOM     13  C   UNL     1      22.971   1.803  30.425  1.00  0.00     0.016 A 
ATOM     14  C   UNL     1      22.877   0.925  31.509  1.00  0.00     0.047 A 
ATOM     15  C   UNL     1      22.621  -0.436  31.294  1.00  0.00     0.115 A 
ATOM     16  C   UNL     1      22.545  -0.036  28.905  1.00  0.00     0.016 A 
ATOM     17  C   UNL     1      22.453  -0.911  29.991  1.00  0.00     0.047 A 
BRANCH  15  18
ATOM     18  O   UNL     1      22.527  -1.319  32.367  1.00  0.00    -0.508 OA
ATOM     19  H   UNL     1      21.636  -1.538  32.797  1.00  0.00     0.293 HD
ENDBRANCH  15  18
ENDBRANCH   1  12
BRANCH   2  20
ATOM     20  O   UNL     1      25.166   1.559  27.420  1.00  0.00    -0.502 OA
ATOM     21  H   UNL     1      25.502   1.387  28.360  1.00  0.00     0.293 HD
ENDBRANCH   2  20
BRANCH   6  22
ATOM     22  O   UNL     1      23.887   5.435  23.997  1.00  0.00    -0.507 OA
ATOM     23  H   UNL     1      24.448   4.821  23.425  1.00  0.00     0.293 HD
ENDBRANCH   6  22
BRANCH   8  24
ATOM     24  O   UNL     1      19.258   6.029  25.054  1.00  0.00    -0.508 OA
ATOM     25  H   UNL     1      19.211   7.037  24.949  1.00  0.00     0.293 HD
ENDBRANCH   8  24
TORSDOF 5
ENDMDL
MODEL 9
REMARK VINA RESULT:    -4.507      8.297     10.960
REMARK INTER + INTRA:          -5.593
REMARK INTER:                  -5.300
REMARK INTRA:                  -0.293
REMARK UNBOUND:                -0.296
REMARK SMILES O=c1c(O)c(-c2ccc(O)cc2)oc2cc(O)cc(O)c12
REMARK SMILES IDX 5 1 3 2 2 3 1 4 21 5 19 6 18 7 16 8 15 9 14 10 13 11 6 12
REMARK SMILES IDX 7 13 8 14 9 15 12 16 11 17 10 18 4 20 20 22 17 24
REMARK H PARENT 10 19 4 21 20 23 17 25
REMARK Flexibility Score: inf
ROOT
ATOM      1  C   UNL     1      23.325   1.710  28.001  1.00  0.00     0.180 A 
ATOM      2  C   UNL     1      23.872   0.438  28.244  1.00  0.00     0.208 A 
ATOM      3  C   UNL     1      23.299  -0.371  29.239  1.00  0.00     0.238 A 
ATOM      4  O   UNL     1      23.828  -1.485  29.490  1.00  0.00    -0.285 OA
ATOM      5  C   UNL     1      22.177   0.095  29.964  1.00  0.00     0.111 A 
ATOM      6  C   UNL     1      21.492  -0.657  30.966  1.00  0.00     0.134 A 
ATOM      7  C   UNL     1      20.474  -0.048  31.712  1.00  0.00     0.093 A 
ATOM      8  C   UNL     1      20.073   1.261  31.448  1.00  0.00     0.123 A 
ATOM      9  C   UNL     1      20.697   1.985  30.431  1.00  0.00     0.094 A 
ATOM     10  C   UNL     1      21.739   1.417  29.695  1.00  0.00     0.146 A 
ATOM     11  O   UNL     1      22.313   2.143  28.743  1.00  0.00    -0.452 OA
ENDROOT
BRANCH   1  12
ATOM     12  C   UNL     1      23.858   2.609  26.952  1.00  0.00     0.021 A 
ATOM     13  C   UNL     1      23.330   2.608  25.647  1.00  0.00     0.016 A 
ATOM     14  C   UNL     1      23.834   3.484  24.681  1.00  0.00     0.047 A 
ATOM     15  C   UNL     1      24.860   4.380  25.009  1.00  0.00     0.115 A 
ATOM     16  C   UNL     1      24.872   3.525  27.277  1.00  0.00     0.016 A 
ATOM     17  C   UNL     1      25.374   4.399  26.308  1.00  0.00     0.047 A 
BRANCH  15  18
ATOM     18  O   UNL     1      25.370   5.256  24.053  1.00  0.00    -0.508 OA
ATOM     19  H   UNL     1      26.090   5.931  24.283  1.00  0.00     0.293 HD
ENDBRANCH  15  18
ENDBRANCH   1  12
BRANCH   2  20
ATOM     20  O   UNL     1      24.995   0.008  27.531  1.00  0.00    -0.502 OA
ATOM     21  H   UNL     1      24.923  -0.534  26.679  1.00  0.00     0.293 HD
ENDBRANCH   2  20
BRANCH   6  22
ATOM     22  O   UNL     1      21.750  -2.002  31.247  1.00  0.00    -0.507 OA
ATOM     23  H   UNL     1      22.629  -2.466  31.076  1.00  0.00     0.293 HD
ENDBRANCH   6  22
BRANCH   8  24
ATOM     24  O   UNL     1      19.047   1.830  32.198  1.00  0.00    -0.508 OA
ATOM     25  H   UNL     1      19.142   1.984  33.196  1.00  0.00     0.293 HD
ENDBRANCH   8  24
TORSDOF 5
ENDMDL
