MODEL 1
REMARK VINA RESULT:    -2.143      0.000      0.000
REMARK INTER + INTRA:          -2.599
REMARK INTER:                  -2.456
REMARK INTRA:                  -0.143
REMARK UNBOUND:                -0.143
REMARK SMILES O=C([O-])C=Cc1ccc(O)cc1
REMARK SMILES IDX 6 1 7 2 12 3 8 4 11 5 9 6 5 7 4 8 2 9 1 10 3 11 10 12
REMARK H PARENT 10 13
REMARK Flexibility Score: inf
ROOT
ATOM      1  C   UNL     1      11.748   9.900  26.291  1.00  0.00    -0.025 A 
ATOM      2  C   UNL     1      12.135   9.890  24.936  1.00  0.00     0.012 A 
ATOM      3  C   UNL     1      10.379   9.878  26.605  1.00  0.00     0.012 A 
ATOM      4  C   UNL     1      11.169   9.885  23.924  1.00  0.00     0.047 A 
ATOM      5  C   UNL     1       9.416   9.875  25.591  1.00  0.00     0.047 A 
ATOM      6  C   UNL     1       9.808   9.880  24.250  1.00  0.00     0.115 A 
ENDROOT
BRANCH   1   7
ATOM      7  C   UNL     1      12.731   9.892  27.403  1.00  0.00     0.010 C 
ATOM      8  C   UNL     1      12.635  10.674  28.487  1.00  0.00     0.025 C 
BRANCH   8   9
ATOM      9  C   UNL     1      13.629  10.625  29.572  1.00  0.00     0.064 C 
ATOM     10  O   UNL     1      14.834  10.887  29.322  1.00  0.00    -0.545 OA
ATOM     11  O   UNL     1      13.258  10.291  30.870  1.00  0.00    -0.545 OA
ENDBRANCH   8   9
ENDBRANCH   1   7
BRANCH   6  12
ATOM     12  O   UNL     1       8.836   9.876  23.250  1.00  0.00    -0.508 OA
ATOM     13  H   UNL     1       8.365   9.022  22.974  1.00  0.00     0.293 HD
ENDBRANCH   6  12
TORSDOF 3
ENDMDL
MODEL 2
REMARK VINA RESULT:    -1.953      1.903      2.573
REMARK INTER + INTRA:          -2.382
REMARK INTER:                  -2.235
REMARK INTRA:                  -0.146
REMARK UNBOUND:                -0.143
REMARK SMILES O=C([O-])C=Cc1ccc(O)cc1
REMARK SMILES IDX 6 1 7 2 12 3 8 4 11 5 9 6 5 7 4 8 2 9 1 10 3 11 10 12
REMARK H PARENT 10 13
REMARK Flexibility Score: inf
ROOT
ATOM      1  C   UNL     1      13.143   9.904  26.726  1.00  0.00    -0.025 A 
ATOM      2  C   UNL     1      14.353   9.888  26.003  1.00  0.00     0.012 A 
ATOM      3  C   UNL     1      11.930   9.887  26.017  1.00  0.00     0.012 A 
ATOM      4  C   UNL     1      14.341   9.881  24.604  1.00  0.00     0.047 A 
ATOM      5  C   UNL     1      11.922   9.882  24.619  1.00  0.00     0.047 A 
ATOM      6  C   UNL     1      13.126   9.880  23.910  1.00  0.00     0.115 A 
ENDROOT
BRANCH   1   7
ATOM      7  C   UNL     1      13.099   9.899  28.209  1.00  0.00     0.010 C 
ATOM      8  C   UNL     1      12.188  10.569  28.930  1.00  0.00     0.025 C 
BRANCH   8   9
ATOM      9  C   UNL     1      12.175  10.525  30.400  1.00  0.00     0.064 C 
ATOM     10  O   UNL     1      11.107  10.774  31.019  1.00  0.00    -0.545 OA
ATOM     11  O   UNL     1      13.323  10.215  31.120  1.00  0.00    -0.545 OA
ENDBRANCH   8   9
ENDBRANCH   1   7
BRANCH   6  12
ATOM     12  O   UNL     1      13.102   9.875  22.516  1.00  0.00    -0.508 OA
ATOM     13  H   UNL     1      13.580   9.158  21.982  1.00  0.00     0.293 HD
ENDBRANCH   6  12
TORSDOF 3
ENDMDL
MODEL 3
REMARK VINA RESULT:    -1.859      1.302      5.918
REMARK INTER + INTRA:          -2.274
REMARK INTER:                  -2.138
REMARK INTRA:                  -0.136
REMARK UNBOUND:                -0.143
REMARK SMILES O=C([O-])C=Cc1ccc(O)cc1
REMARK SMILES IDX 6 1 7 2 12 3 8 4 11 5 9 6 5 7 4 8 2 9 1 10 3 11 10 12
REMARK H PARENT 10 13
REMARK Flexibility Score: inf
ROOT
ATOM      1  C   UNL     1      13.040  10.224  27.221  1.00  0.00    -0.025 A 
ATOM      2  C   UNL     1      12.452   9.970  28.477  1.00  0.00     0.012 A 
ATOM      3  C   UNL     1      14.323  10.795  27.177  1.00  0.00     0.012 A 
ATOM      4  C   UNL     1      13.127  10.305  29.655  1.00  0.00     0.047 A 
ATOM      5  C   UNL     1      14.994  11.131  28.357  1.00  0.00     0.047 A 
ATOM      6  C   UNL     1      14.399  10.889  29.597  1.00  0.00     0.115 A 
ENDROOT
BRANCH   1   7
ATOM      7  C   UNL     1      12.373   9.876  25.942  1.00  0.00     0.010 C 
ATOM      8  C   UNL     1      11.231  10.437  25.521  1.00  0.00     0.025 C 
BRANCH   8   9
ATOM      9  C   UNL     1      10.611  10.069  24.238  1.00  0.00     0.064 C 
ATOM     10  O   UNL     1      11.336   9.912  23.221  1.00  0.00    -0.545 OA
ATOM     11  O   UNL     1       9.236   9.893  24.129  1.00  0.00    -0.545 OA
ENDBRANCH   8   9
ENDBRANCH   1   7
BRANCH   6  12
ATOM     12  O   UNL     1      15.080  11.229  30.765  1.00  0.00    -0.508 OA
ATOM     13  H   UNL     1      15.052  10.634  31.585  1.00  0.00     0.293 HD
ENDBRANCH   6  12
TORSDOF 3
ENDMDL
MODEL 4
REMARK VINA RESULT:    -1.755      1.092      5.708
REMARK INTER + INTRA:          -2.154
REMARK INTER:                  -2.004
REMARK INTRA:                  -0.150
REMARK UNBOUND:                -0.143
REMARK SMILES O=C([O-])C=Cc1ccc(O)cc1
REMARK SMILES IDX 6 1 7 2 12 3 8 4 11 5 9 6 5 7 4 8 2 9 1 10 3 11 10 12
REMARK H PARENT 10 13
REMARK Flexibility Score: inf
ROOT
ATOM      1  C   UNL     1      12.110  10.077  27.097  1.00  0.00    -0.025 A 
ATOM      2  C   UNL     1      13.432  10.443  27.423  1.00  0.00     0.012 A 
ATOM      3  C   UNL     1      11.187   9.875  28.137  1.00  0.00     0.012 A 
ATOM      4  C   UNL     1      13.820  10.577  28.760  1.00  0.00     0.047 A 
ATOM      5  C   UNL     1      11.579  10.008  29.473  1.00  0.00     0.047 A 
ATOM      6  C   UNL     1      12.895  10.357  29.787  1.00  0.00     0.115 A 
ENDROOT
BRANCH   1   7
ATOM      7  C   UNL     1      11.643   9.934  25.696  1.00  0.00     0.010 C 
ATOM      8  C   UNL     1      10.365  10.083  25.318  1.00  0.00     0.025 C 
BRANCH   8   9
ATOM      9  C   UNL     1       9.949   9.944  23.913  1.00  0.00     0.064 C 
ATOM     10  O   UNL     1       8.723   9.884  23.632  1.00  0.00    -0.545 OA
ATOM     11  O   UNL     1      10.887   9.875  22.890  1.00  0.00    -0.545 OA
ENDBRANCH   8   9
ENDBRANCH   1   7
BRANCH   6  12
ATOM     12  O   UNL     1      13.271  10.486  31.123  1.00  0.00    -0.508 OA
ATOM     13  H   UNL     1      13.396  11.396  31.551  1.00  0.00     0.293 HD
ENDBRANCH   6  12
TORSDOF 3
ENDMDL
MODEL 5
REMARK VINA RESULT:    -1.754      2.546      5.462
REMARK INTER + INTRA:          -2.154
REMARK INTER:                  -2.015
REMARK INTRA:                  -0.139
REMARK UNBOUND:                -0.143
REMARK SMILES O=C([O-])C=Cc1ccc(O)cc1
REMARK SMILES IDX 6 1 7 2 12 3 8 4 11 5 9 6 5 7 4 8 2 9 1 10 3 11 10 12
REMARK H PARENT 10 13
REMARK Flexibility Score: inf
ROOT
ATOM      1  C   UNL     1      12.874  10.259  26.725  1.00  0.00    -0.025 A 
ATOM      2  C   UNL     1      13.956  10.716  27.504  1.00  0.00     0.012 A 
ATOM      3  C   UNL     1      11.687   9.876  27.372  1.00  0.00     0.012 A 
ATOM      4  C   UNL     1      13.854  10.762  28.899  1.00  0.00     0.047 A 
ATOM      5  C   UNL     1      11.589   9.922  28.766  1.00  0.00     0.047 A 
ATOM      6  C   UNL     1      12.671  10.363  29.532  1.00  0.00     0.115 A 
ENDROOT
BRANCH   1   7
ATOM      7  C   UNL     1      12.925  10.202  25.243  1.00  0.00     0.010 C 
ATOM      8  C   UNL     1      14.061  10.268  24.533  1.00  0.00     0.025 C 
BRANCH   8   9
ATOM      9  C   UNL     1      14.064  10.195  23.064  1.00  0.00     0.064 C 
ATOM     10  O   UNL     1      15.122   9.876  22.460  1.00  0.00    -0.545 OA
ATOM     11  O   UNL     1      12.918  10.475  22.329  1.00  0.00    -0.545 OA
ENDBRANCH   8   9
ENDBRANCH   1   7
BRANCH   6  12
ATOM     12  O   UNL     1      12.559  10.404  30.921  1.00  0.00    -0.508 OA
ATOM     13  H   UNL     1      12.982   9.693  31.506  1.00  0.00     0.293 HD
ENDBRANCH   6  12
TORSDOF 3
ENDMDL
MODEL 6
REMARK VINA RESULT:    -1.645      1.737      5.761
REMARK INTER + INTRA:          -2.029
REMARK INTER:                  -1.891
REMARK INTRA:                  -0.138
REMARK UNBOUND:                -0.143
REMARK SMILES O=C([O-])C=Cc1ccc(O)cc1
REMARK SMILES IDX 6 1 7 2 12 3 8 4 11 5 9 6 5 7 4 8 2 9 1 10 3 11 10 12
REMARK H PARENT 10 13
REMARK Flexibility Score: inf
ROOT
ATOM      1  C   UNL     1      11.638  10.425  26.071  1.00  0.00    -0.025 A 
ATOM      2  C   UNL     1      12.912   9.918  25.748  1.00  0.00     0.012 A 
ATOM      3  C   UNL     1      11.539  11.453  27.025  1.00  0.00     0.012 A 
ATOM      4  C   UNL     1      14.055  10.415  26.385  1.00  0.00     0.047 A 
ATOM      5  C   UNL     1      12.683  11.946  27.661  1.00  0.00     0.047 A 
ATOM      6  C   UNL     1      13.941  11.428  27.344  1.00  0.00     0.115 A 
ENDROOT
BRANCH   1   7
ATOM      7  C   UNL     1      10.396   9.943  25.417  1.00  0.00     0.010 C 
ATOM      8  C   UNL     1       9.727  10.637  24.485  1.00  0.00     0.025 C 
BRANCH   8   9
ATOM      9  C   UNL     1       8.505  10.114  23.854  1.00  0.00     0.064 C 
ATOM     10  O   UNL     1       7.493   9.875  24.564  1.00  0.00    -0.545 OA
ATOM     11  O   UNL     1       8.449   9.878  22.485  1.00  0.00    -0.545 OA
ENDBRANCH   8   9
ENDBRANCH   1   7
BRANCH   6  12
ATOM     12  O   UNL     1      15.072  11.930  27.986  1.00  0.00    -0.508 OA
ATOM     13  H   UNL     1      15.498  11.441  28.765  1.00  0.00     0.293 HD
ENDBRANCH   6  12
TORSDOF 3
ENDMDL
MODEL 7
REMARK VINA RESULT:    -1.118      1.613      2.358
REMARK INTER + INTRA:          -1.425
REMARK INTER:                  -1.288
REMARK INTRA:                  -0.137
REMARK UNBOUND:                -0.143
REMARK SMILES O=C([O-])C=Cc1ccc(O)cc1
REMARK SMILES IDX 6 1 7 2 12 3 8 4 11 5 9 6 5 7 4 8 2 9 1 10 3 11 10 12
REMARK H PARENT 10 13
REMARK Flexibility Score: inf
ROOT
ATOM      1  C   UNL     1      10.967   9.994  25.536  1.00  0.00    -0.025 A 
ATOM      2  C   UNL     1       9.948   9.917  26.506  1.00  0.00     0.012 A 
ATOM      3  C   UNL     1      10.607  10.054  24.178  1.00  0.00     0.012 A 
ATOM      4  C   UNL     1       8.604   9.875  26.119  1.00  0.00     0.047 A 
ATOM      5  C   UNL     1       9.263  10.010  23.795  1.00  0.00     0.047 A 
ATOM      6  C   UNL     1       8.259   9.919  24.763  1.00  0.00     0.115 A 
ENDROOT
BRANCH   1   7
ATOM      7  C   UNL     1      12.406  10.055  25.891  1.00  0.00     0.010 C 
ATOM      8  C   UNL     1      12.907  10.866  26.834  1.00  0.00     0.025 C 
BRANCH   8   9
ATOM      9  C   UNL     1      14.341  10.884  27.162  1.00  0.00     0.064 C 
ATOM     10  O   UNL     1      15.112  11.659  26.537  1.00  0.00    -0.545 OA
ATOM     11  O   UNL     1      14.861  10.057  28.151  1.00  0.00    -0.545 OA
ENDBRANCH   8   9
ENDBRANCH   1   7
BRANCH   6  12
ATOM     12  O   UNL     1       6.924   9.876  24.366  1.00  0.00    -0.508 OA
ATOM     13  H   UNL     1       6.620   9.290  23.597  1.00  0.00     0.293 HD
ENDBRANCH   6  12
TORSDOF 3
ENDMDL
MODEL 8
REMARK VINA RESULT:     0.256     21.540     22.481
REMARK INTER + INTRA:           0.150
REMARK INTER:                   0.299
REMARK INTRA:                  -0.149
REMARK UNBOUND:                -0.143
REMARK SMILES O=C([O-])C=Cc1ccc(O)cc1
REMARK SMILES IDX 6 1 7 2 12 3 8 4 11 5 9 6 5 7 4 8 2 9 1 10 3 11 10 12
REMARK H PARENT 10 13
REMARK Flexibility Score: inf
ROOT
ATOM      1  C   UNL     1      -3.074  27.330  28.272  1.00  0.00    -0.025 A 
ATOM      2  C   UNL     1      -4.183  28.180  28.457  1.00  0.00     0.012 A 
ATOM      3  C   UNL     1      -2.530  27.197  26.983  1.00  0.00     0.012 A 
ATOM      4  C   UNL     1      -4.745  28.858  27.370  1.00  0.00     0.047 A 
ATOM      5  C   UNL     1      -3.096  27.874  25.898  1.00  0.00     0.047 A 
ATOM      6  C   UNL     1      -4.204  28.704  26.088  1.00  0.00     0.115 A 
ENDROOT
BRANCH   1   7
ATOM      7  C   UNL     1      -2.432  26.599  29.392  1.00  0.00     0.010 C 
ATOM      8  C   UNL     1      -1.114  26.368  29.472  1.00  0.00     0.025 C 
BRANCH   8   9
ATOM      9  C   UNL     1      -0.519  25.648  30.609  1.00  0.00     0.064 C 
ATOM     10  O   UNL     1      -1.139  24.681  31.125  1.00  0.00    -0.545 OA
ATOM     11  O   UNL     1       0.718  26.018  31.125  1.00  0.00    -0.545 OA
ENDBRANCH   8   9
ENDBRANCH   1   7
BRANCH   6  12
ATOM     12  O   UNL     1      -4.756  29.373  24.997  1.00  0.00    -0.508 OA
ATOM     13  H   UNL     1      -5.519  28.973  24.463  1.00  0.00     0.293 HD
ENDBRANCH   6  12
TORSDOF 3
ENDMDL
