MODEL 1
REMARK VINA RESULT:    -7.072      0.000      0.000
REMARK INTER + INTRA:          -8.631
REMARK INTER:                  -8.312
REMARK INTRA:                  -0.318
REMARK UNBOUND:                -0.318
REMARK SMILES O=c1cc(-c2ccc(O)c(O)c2)oc2cc(O)cc(O)c12
REMARK SMILES IDX 4 1 3 2 2 3 1 4 21 5 19 6 18 7 16 8 15 9 14 10 13 11 5 12
REMARK SMILES IDX 6 13 7 14 8 15 12 16 10 17 9 18 11 20 20 22 17 24
REMARK H PARENT 9 19 11 21 20 23 17 25
REMARK Flexibility Score: inf
ROOT
ATOM      1  C   UNL     1      10.931  -7.135  -9.175  1.00  0.00     0.138 A 
ATOM      2  C   UNL     1      10.209  -8.335  -9.205  1.00  0.00     0.100 A 
ATOM      3  C   UNL     1       9.182  -8.547  -8.284  1.00  0.00     0.197 A 
ATOM      4  O   UNL     1       8.589  -9.657  -8.301  1.00  0.00    -0.289 OA
ATOM      5  C   UNL     1       8.854  -7.535  -7.350  1.00  0.00     0.107 A 
ATOM      6  C   UNL     1       7.805  -7.626  -6.386  1.00  0.00     0.134 A 
ATOM      7  C   UNL     1       7.639  -6.598  -5.449  1.00  0.00     0.093 A 
ATOM      8  C   UNL     1       8.443  -5.461  -5.476  1.00  0.00     0.123 A 
ATOM      9  C   UNL     1       9.439  -5.338  -6.446  1.00  0.00     0.094 A 
ATOM     10  C   UNL     1       9.653  -6.361  -7.373  1.00  0.00     0.146 A 
ATOM     11  O   UNL     1      10.624  -6.214  -8.268  1.00  0.00    -0.456 OA
ENDROOT
BRANCH   1  12
ATOM     12  C   UNL     1      12.030  -6.856 -10.133  1.00  0.00     0.021 A 
ATOM     13  C   UNL     1      12.393  -7.777 -11.134  1.00  0.00     0.016 A 
ATOM     14  C   UNL     1      13.439  -7.490 -12.015  1.00  0.00     0.051 A 
ATOM     15  C   UNL     1      14.145  -6.285 -11.909  1.00  0.00     0.157 A 
ATOM     16  C   UNL     1      12.753  -5.653 -10.024  1.00  0.00     0.062 A 
ATOM     17  C   UNL     1      13.800  -5.365 -10.907  1.00  0.00     0.158 A 
BRANCH  15  18
ATOM     18  O   UNL     1      15.186  -6.003 -12.790  1.00  0.00    -0.504 OA
ATOM     19  H   UNL     1      15.239  -5.120 -13.285  1.00  0.00     0.293 HD
ENDBRANCH  15  18
BRANCH  17  20
ATOM     20  O   UNL     1      14.486  -4.157 -10.771  1.00  0.00    -0.504 OA
ATOM     21  H   UNL     1      15.365  -4.090 -10.273  1.00  0.00     0.293 HD
ENDBRANCH  17  20
ENDBRANCH   1  12
BRANCH   6  22
ATOM     22  O   UNL     1       6.890  -8.682  -6.319  1.00  0.00    -0.507 OA
ATOM     23  H   UNL     1       6.647  -9.184  -5.479  1.00  0.00     0.293 HD
ENDBRANCH   6  22
BRANCH   8  24
ATOM     24  O   UNL     1       8.240  -4.451  -4.537  1.00  0.00    -0.508 OA
ATOM     25  H   UNL     1       8.148  -4.656  -3.549  1.00  0.00     0.293 HD
ENDBRANCH   8  24
TORSDOF 5
ENDMDL
MODEL 2
REMARK VINA RESULT:    -6.914      2.497      6.683
REMARK INTER + INTRA:          -8.445
REMARK INTER:                  -8.133
REMARK INTRA:                  -0.312
REMARK UNBOUND:                -0.318
REMARK SMILES O=c1cc(-c2ccc(O)c(O)c2)oc2cc(O)cc(O)c12
REMARK SMILES IDX 4 1 3 2 2 3 1 4 21 5 19 6 18 7 16 8 15 9 14 10 13 11 5 12
REMARK SMILES IDX 6 13 7 14 8 15 12 16 10 17 9 18 11 20 20 22 17 24
REMARK H PARENT 9 19 11 21 20 23 17 25
REMARK Flexibility Score: inf
ROOT
ATOM      1  C   UNL     1       9.048  -7.080  -9.417  1.00  0.00     0.138 A 
ATOM      2  C   UNL     1       8.022  -7.349 -10.332  1.00  0.00     0.100 A 
ATOM      3  C   UNL     1       8.331  -7.906 -11.573  1.00  0.00     0.197 A 
ATOM      4  O   UNL     1       7.394  -8.084 -12.394  1.00  0.00    -0.289 OA
ATOM      5  C   UNL     1       9.674  -8.229 -11.885  1.00  0.00     0.107 A 
ATOM      6  C   UNL     1      10.104  -8.832 -13.106  1.00  0.00     0.134 A 
ATOM      7  C   UNL     1      11.474  -9.014 -13.340  1.00  0.00     0.093 A 
ATOM      8  C   UNL     1      12.422  -8.669 -12.379  1.00  0.00     0.123 A 
ATOM      9  C   UNL     1      12.009  -8.126 -11.161  1.00  0.00     0.094 A 
ATOM     10  C   UNL     1      10.653  -7.900 -10.911  1.00  0.00     0.146 A 
ATOM     11  O   UNL     1      10.304  -7.363  -9.746  1.00  0.00    -0.456 OA
ENDROOT
BRANCH   1  12
ATOM     12  C   UNL     1       8.776  -6.491  -8.082  1.00  0.00     0.021 A 
ATOM     13  C   UNL     1       7.498  -6.547  -7.494  1.00  0.00     0.016 A 
ATOM     14  C   UNL     1       7.270  -5.975  -6.239  1.00  0.00     0.051 A 
ATOM     15  C   UNL     1       8.308  -5.332  -5.554  1.00  0.00     0.157 A 
ATOM     16  C   UNL     1       9.811  -5.832  -7.392  1.00  0.00     0.062 A 
ATOM     17  C   UNL     1       9.583  -5.259  -6.136  1.00  0.00     0.158 A 
BRANCH  15  18
ATOM     18  O   UNL     1       8.075  -4.764  -4.303  1.00  0.00    -0.504 OA
ATOM     19  H   UNL     1       7.148  -4.473  -4.016  1.00  0.00     0.293 HD
ENDBRANCH  15  18
BRANCH  17  20
ATOM     20  O   UNL     1      10.638  -4.623  -5.481  1.00  0.00    -0.504 OA
ATOM     21  H   UNL     1      11.472  -5.121  -5.193  1.00  0.00     0.293 HD
ENDBRANCH  17  20
ENDBRANCH   1  12
BRANCH   6  22
ATOM     22  O   UNL     1       9.237  -9.288 -14.104  1.00  0.00    -0.507 OA
ATOM     23  H   UNL     1       8.246  -9.434 -13.988  1.00  0.00     0.293 HD
ENDBRANCH   6  22
BRANCH   8  24
ATOM     24  O   UNL     1      13.774  -8.879 -12.640  1.00  0.00    -0.508 OA
ATOM     25  H   UNL     1      14.380  -8.123 -12.935  1.00  0.00     0.293 HD
ENDBRANCH   8  24
TORSDOF 5
ENDMDL
MODEL 3
REMARK VINA RESULT:    -6.231      8.649     12.536
REMARK INTER + INTRA:          -7.642
REMARK INTER:                  -7.378
REMARK INTRA:                  -0.265
REMARK UNBOUND:                -0.318
REMARK SMILES O=c1cc(-c2ccc(O)c(O)c2)oc2cc(O)cc(O)c12
REMARK SMILES IDX 4 1 3 2 2 3 1 4 21 5 19 6 18 7 16 8 15 9 14 10 13 11 5 12
REMARK SMILES IDX 6 13 7 14 8 15 12 16 10 17 9 18 11 20 20 22 17 24
REMARK H PARENT 9 19 11 21 20 23 17 25
REMARK Flexibility Score: inf
ROOT
ATOM      1  C   UNL     1      18.486  -1.082 -16.768  1.00  0.00     0.138 A 
ATOM      2  C   UNL     1      17.820  -0.257 -15.852  1.00  0.00     0.100 A 
ATOM      3  C   UNL     1      17.121  -0.829 -14.788  1.00  0.00     0.197 A 
ATOM      4  O   UNL     1      16.488  -0.064 -14.015  1.00  0.00    -0.289 OA
ATOM      5  C   UNL     1      17.121  -2.235 -14.620  1.00  0.00     0.107 A 
ATOM      6  C   UNL     1      16.472  -2.927 -13.554  1.00  0.00     0.134 A 
ATOM      7  C   UNL     1      16.458  -4.328 -13.549  1.00  0.00     0.093 A 
ATOM      8  C   UNL     1      17.115  -5.059 -14.536  1.00  0.00     0.123 A 
ATOM      9  C   UNL     1      17.796  -4.392 -15.556  1.00  0.00     0.094 A 
ATOM     10  C   UNL     1      17.799  -2.996 -15.609  1.00  0.00     0.146 A 
ATOM     11  O   UNL     1      18.443  -2.401 -16.606  1.00  0.00    -0.456 OA
ENDROOT
BRANCH   1  12
ATOM     12  C   UNL     1      19.246  -0.528 -17.916  1.00  0.00     0.021 A 
ATOM     13  C   UNL     1      18.847  -0.753 -19.247  1.00  0.00     0.016 A 
ATOM     14  C   UNL     1      19.589  -0.226 -20.308  1.00  0.00     0.051 A 
ATOM     15  C   UNL     1      20.743   0.526 -20.060  1.00  0.00     0.157 A 
ATOM     16  C   UNL     1      20.415   0.218 -17.676  1.00  0.00     0.062 A 
ATOM     17  C   UNL     1      21.158   0.747 -18.738  1.00  0.00     0.158 A 
BRANCH  15  18
ATOM     18  O   UNL     1      21.479   1.050 -21.122  1.00  0.00    -0.504 OA
ATOM     19  H   UNL     1      21.027   1.455 -21.933  1.00  0.00     0.293 HD
ENDBRANCH  15  18
BRANCH  17  20
ATOM     20  O   UNL     1      22.306   1.489 -18.457  1.00  0.00    -0.504 OA
ATOM     21  H   UNL     1      22.606   2.258 -19.043  1.00  0.00     0.293 HD
ENDBRANCH  17  20
ENDBRANCH   1  12
BRANCH   6  22
ATOM     22  O   UNL     1      15.850  -2.296 -12.472  1.00  0.00    -0.507 OA
ATOM     23  H   UNL     1      15.863  -1.303 -12.295  1.00  0.00     0.293 HD
ENDBRANCH   6  22
BRANCH   8  24
ATOM     24  O   UNL     1      17.093  -6.452 -14.491  1.00  0.00    -0.508 OA
ATOM     25  H   UNL     1      17.239  -7.012 -15.322  1.00  0.00     0.293 HD
ENDBRANCH   8  24
TORSDOF 5
ENDMDL
MODEL 4
REMARK VINA RESULT:    -6.125      1.482      6.946
REMARK INTER + INTRA:          -7.518
REMARK INTER:                  -7.211
REMARK INTRA:                  -0.307
REMARK UNBOUND:                -0.318
REMARK SMILES O=c1cc(-c2ccc(O)c(O)c2)oc2cc(O)cc(O)c12
REMARK SMILES IDX 4 1 3 2 2 3 1 4 21 5 19 6 18 7 16 8 15 9 14 10 13 11 5 12
REMARK SMILES IDX 6 13 7 14 8 15 12 16 10 17 9 18 11 20 20 22 17 24
REMARK H PARENT 9 19 11 21 20 23 17 25
REMARK Flexibility Score: inf
ROOT
ATOM      1  C   UNL     1      11.457  -7.023  -9.711  1.00  0.00     0.138 A 
ATOM      2  C   UNL     1      11.493  -7.941 -10.768  1.00  0.00     0.100 A 
ATOM      3  C   UNL     1      12.488  -7.837 -11.741  1.00  0.00     0.197 A 
ATOM      4  O   UNL     1      12.460  -8.642 -12.707  1.00  0.00    -0.289 OA
ATOM      5  C   UNL     1      13.476  -6.829 -11.632  1.00  0.00     0.107 A 
ATOM      6  C   UNL     1      14.559  -6.647 -12.545  1.00  0.00     0.134 A 
ATOM      7  C   UNL     1      15.418  -5.552 -12.388  1.00  0.00     0.093 A 
ATOM      8  C   UNL     1      15.269  -4.666 -11.323  1.00  0.00     0.123 A 
ATOM      9  C   UNL     1      14.244  -4.862 -10.395  1.00  0.00     0.094 A 
ATOM     10  C   UNL     1      13.350  -5.925 -10.544  1.00  0.00     0.146 A 
ATOM     11  O   UNL     1      12.378  -6.066  -9.649  1.00  0.00    -0.456 OA
ENDROOT
BRANCH   1  12
ATOM     12  C   UNL     1      10.423  -7.088  -8.648  1.00  0.00     0.021 A 
ATOM     13  C   UNL     1       9.809  -8.302  -8.286  1.00  0.00     0.016 A 
ATOM     14  C   UNL     1       8.831  -8.330  -7.287  1.00  0.00     0.051 A 
ATOM     15  C   UNL     1       8.445  -7.151  -6.640  1.00  0.00     0.157 A 
ATOM     16  C   UNL     1      10.020  -5.905  -8.001  1.00  0.00     0.062 A 
ATOM     17  C   UNL     1       9.042  -5.933  -7.001  1.00  0.00     0.158 A 
BRANCH  15  18
ATOM     18  O   UNL     1       7.471  -7.185  -5.644  1.00  0.00    -0.504 OA
ATOM     19  H   UNL     1       7.639  -7.633  -4.751  1.00  0.00     0.293 HD
ENDBRANCH  15  18
BRANCH  17  20
ATOM     20  O   UNL     1       8.677  -4.739  -6.378  1.00  0.00    -0.504 OA
ATOM     21  H   UNL     1       8.797  -4.593  -5.383  1.00  0.00     0.293 HD
ENDBRANCH  17  20
ENDBRANCH   1  12
BRANCH   6  22
ATOM     22  O   UNL     1      14.849  -7.518 -13.601  1.00  0.00    -0.507 OA
ATOM     23  H   UNL     1      15.439  -8.333 -13.534  1.00  0.00     0.293 HD
ENDBRANCH   6  22
BRANCH   8  24
ATOM     24  O   UNL     1      16.151  -3.596 -11.190  1.00  0.00    -0.508 OA
ATOM     25  H   UNL     1      15.917  -2.782 -10.635  1.00  0.00     0.293 HD
ENDBRANCH   8  24
TORSDOF 5
ENDMDL
MODEL 5
REMARK VINA RESULT:    -6.085      2.333      3.029
REMARK INTER + INTRA:          -7.471
REMARK INTER:                  -7.198
REMARK INTRA:                  -0.272
REMARK UNBOUND:                -0.318
REMARK SMILES O=c1cc(-c2ccc(O)c(O)c2)oc2cc(O)cc(O)c12
REMARK SMILES IDX 4 1 3 2 2 3 1 4 21 5 19 6 18 7 16 8 15 9 14 10 13 11 5 12
REMARK SMILES IDX 6 13 7 14 8 15 12 16 10 17 9 18 11 20 20 22 17 24
REMARK H PARENT 9 19 11 21 20 23 17 25
REMARK Flexibility Score: inf
ROOT
ATOM      1  C   UNL     1      10.447  -7.270 -10.426  1.00  0.00     0.138 A 
ATOM      2  C   UNL     1       9.732  -6.286 -11.122  1.00  0.00     0.100 A 
ATOM      3  C   UNL     1       8.701  -5.597 -10.480  1.00  0.00     0.197 A 
ATOM      4  O   UNL     1       8.041  -4.760 -11.149  1.00  0.00    -0.289 OA
ATOM      5  C   UNL     1       8.411  -5.870  -9.122  1.00  0.00     0.107 A 
ATOM      6  C   UNL     1       7.406  -5.207  -8.355  1.00  0.00     0.134 A 
ATOM      7  C   UNL     1       7.144  -5.633  -7.046  1.00  0.00     0.093 A 
ATOM      8  C   UNL     1       7.886  -6.656  -6.458  1.00  0.00     0.123 A 
ATOM      9  C   UNL     1       8.905  -7.277  -7.182  1.00  0.00     0.094 A 
ATOM     10  C   UNL     1       9.168  -6.899  -8.501  1.00  0.00     0.146 A 
ATOM     11  O   UNL     1      10.134  -7.529  -9.161  1.00  0.00    -0.456 OA
ENDROOT
BRANCH   1  12
ATOM     12  C   UNL     1      11.554  -8.030 -11.058  1.00  0.00     0.021 A 
ATOM     13  C   UNL     1      11.627  -9.434 -10.980  1.00  0.00     0.016 A 
ATOM     14  C   UNL     1      12.687 -10.123 -11.577  1.00  0.00     0.051 A 
ATOM     15  C   UNL     1      13.694  -9.424 -12.254  1.00  0.00     0.157 A 
ATOM     16  C   UNL     1      12.577  -7.335 -11.729  1.00  0.00     0.062 A 
ATOM     17  C   UNL     1      13.638  -8.023 -12.327  1.00  0.00     0.158 A 
BRANCH  15  18
ATOM     18  O   UNL     1      14.748 -10.115 -12.849  1.00  0.00    -0.504 OA
ATOM     19  H   UNL     1      15.490  -9.631 -13.340  1.00  0.00     0.293 HD
ENDBRANCH  15  18
BRANCH  17  20
ATOM     20  O   UNL     1      14.627  -7.297 -12.991  1.00  0.00    -0.504 OA
ATOM     21  H   UNL     1      14.664  -7.237 -14.002  1.00  0.00     0.293 HD
ENDBRANCH  17  20
ENDBRANCH   1  12
BRANCH   6  22
ATOM     22  O   UNL     1       6.658  -4.120  -8.816  1.00  0.00    -0.507 OA
ATOM     23  H   UNL     1       6.075  -4.125  -9.638  1.00  0.00     0.293 HD
ENDBRANCH   6  22
BRANCH   8  24
ATOM     24  O   UNL     1       7.608  -7.043  -5.149  1.00  0.00    -0.508 OA
ATOM     25  H   UNL     1       6.735  -7.494  -4.903  1.00  0.00     0.293 HD
ENDBRANCH   8  24
TORSDOF 5
ENDMDL
MODEL 6
REMARK VINA RESULT:    -5.972      2.360      3.937
REMARK INTER + INTRA:          -7.338
REMARK INTER:                  -7.051
REMARK INTRA:                  -0.287
REMARK UNBOUND:                -0.318
REMARK SMILES O=c1cc(-c2ccc(O)c(O)c2)oc2cc(O)cc(O)c12
REMARK SMILES IDX 4 1 3 2 2 3 1 4 21 5 19 6 18 7 16 8 15 9 14 10 13 11 5 12
REMARK SMILES IDX 6 13 7 14 8 15 12 16 10 17 9 18 11 20 20 22 17 24
REMARK H PARENT 9 19 11 21 20 23 17 25
REMARK Flexibility Score: inf
ROOT
ATOM      1  C   UNL     1      12.199  -6.253 -10.650  1.00  0.00     0.138 A 
ATOM      2  C   UNL     1      11.809  -6.098  -9.313  1.00  0.00     0.100 A 
ATOM      3  C   UNL     1      10.511  -6.436  -8.929  1.00  0.00     0.197 A 
ATOM      4  O   UNL     1      10.174  -6.234  -7.733  1.00  0.00    -0.289 OA
ATOM      5  C   UNL     1       9.609  -6.967  -9.883  1.00  0.00     0.107 A 
ATOM      6  C   UNL     1       8.272  -7.378  -9.599  1.00  0.00     0.134 A 
ATOM      7  C   UNL     1       7.441  -7.796 -10.647  1.00  0.00     0.093 A 
ATOM      8  C   UNL     1       7.915  -7.871 -11.956  1.00  0.00     0.123 A 
ATOM      9  C   UNL     1       9.236  -7.520 -12.237  1.00  0.00     0.094 A 
ATOM     10  C   UNL     1      10.079  -7.066 -11.219  1.00  0.00     0.146 A 
ATOM     11  O   UNL     1      11.324  -6.723 -11.533  1.00  0.00    -0.456 OA
ENDROOT
BRANCH   1  12
ATOM     12  C   UNL     1      13.568  -5.913 -11.114  1.00  0.00     0.021 A 
ATOM     13  C   UNL     1      14.162  -6.567 -12.209  1.00  0.00     0.016 A 
ATOM     14  C   UNL     1      15.457  -6.231 -12.616  1.00  0.00     0.051 A 
ATOM     15  C   UNL     1      16.181  -5.245 -11.935  1.00  0.00     0.157 A 
ATOM     16  C   UNL     1      14.307  -4.932 -10.427  1.00  0.00     0.062 A 
ATOM     17  C   UNL     1      15.602  -4.595 -10.834  1.00  0.00     0.158 A 
BRANCH  15  18
ATOM     18  O   UNL     1      17.470  -4.913 -12.346  1.00  0.00    -0.504 OA
ATOM     19  H   UNL     1      17.636  -4.240 -13.085  1.00  0.00     0.293 HD
ENDBRANCH  15  18
BRANCH  17  20
ATOM     20  O   UNL     1      16.298  -3.610 -10.132  1.00  0.00    -0.504 OA
ATOM     21  H   UNL     1      15.913  -3.163  -9.308  1.00  0.00     0.293 HD
ENDBRANCH  17  20
ENDBRANCH   1  12
BRANCH   6  22
ATOM     22  O   UNL     1       7.719  -7.418  -8.315  1.00  0.00    -0.507 OA
ATOM     23  H   UNL     1       7.322  -8.237  -7.881  1.00  0.00     0.293 HD
ENDBRANCH   6  22
BRANCH   8  24
ATOM     24  O   UNL     1       7.065  -8.305 -12.971  1.00  0.00    -0.508 OA
ATOM     25  H   UNL     1       6.204  -7.818 -13.187  1.00  0.00     0.293 HD
ENDBRANCH   8  24
TORSDOF 5
ENDMDL
MODEL 7
REMARK VINA RESULT:    -5.886      1.562      2.139
REMARK INTER + INTRA:          -7.237
REMARK INTER:                  -6.922
REMARK INTRA:                  -0.315
REMARK UNBOUND:                -0.318
REMARK SMILES O=c1cc(-c2ccc(O)c(O)c2)oc2cc(O)cc(O)c12
REMARK SMILES IDX 4 1 3 2 2 3 1 4 21 5 19 6 18 7 16 8 15 9 14 10 13 11 5 12
REMARK SMILES IDX 6 13 7 14 8 15 12 16 10 17 9 18 11 20 20 22 17 24
REMARK H PARENT 9 19 11 21 20 23 17 25
REMARK Flexibility Score: inf
ROOT
ATOM      1  C   UNL     1      11.955  -6.526 -10.522  1.00  0.00     0.138 A 
ATOM      2  C   UNL     1      11.151  -7.403 -11.262  1.00  0.00     0.100 A 
ATOM      3  C   UNL     1       9.909  -7.792 -10.760  1.00  0.00     0.197 A 
ATOM      4  O   UNL     1       9.235  -8.624 -11.422  1.00  0.00    -0.289 OA
ATOM      5  C   UNL     1       9.454  -7.271  -9.525  1.00  0.00     0.107 A 
ATOM      6  C   UNL     1       8.191  -7.570  -8.930  1.00  0.00     0.134 A 
ATOM      7  C   UNL     1       7.893  -7.070  -7.655  1.00  0.00     0.093 A 
ATOM      8  C   UNL     1       8.784  -6.239  -6.980  1.00  0.00     0.123 A 
ATOM      9  C   UNL     1      10.001  -5.899  -7.574  1.00  0.00     0.094 A 
ATOM     10  C   UNL     1      10.343  -6.409  -8.829  1.00  0.00     0.146 A 
ATOM     11  O   UNL     1      11.518  -6.076  -9.350  1.00  0.00    -0.456 OA
ENDROOT
BRANCH   1  12
ATOM     12  C   UNL     1      13.283  -6.077 -11.010  1.00  0.00     0.021 A 
ATOM     13  C   UNL     1      13.960  -6.752 -12.043  1.00  0.00     0.016 A 
ATOM     14  C   UNL     1      15.214  -6.311 -12.475  1.00  0.00     0.051 A 
ATOM     15  C   UNL     1      15.816  -5.196 -11.879  1.00  0.00     0.157 A 
ATOM     16  C   UNL     1      13.901  -4.965 -10.408  1.00  0.00     0.062 A 
ATOM     17  C   UNL     1      15.156  -4.523 -10.840  1.00  0.00     0.158 A 
BRANCH  15  18
ATOM     18  O   UNL     1      17.066  -4.760 -12.314  1.00  0.00    -0.504 OA
ATOM     19  H   UNL     1      17.861  -5.387 -12.363  1.00  0.00     0.293 HD
ENDBRANCH  15  18
BRANCH  17  20
ATOM     20  O   UNL     1      15.730  -3.410 -10.223  1.00  0.00    -0.504 OA
ATOM     21  H   UNL     1      15.732  -3.294  -9.217  1.00  0.00     0.293 HD
ENDBRANCH  17  20
ENDBRANCH   1  12
BRANCH   6  22
ATOM     22  O   UNL     1       7.191  -8.327  -9.550  1.00  0.00    -0.507 OA
ATOM     23  H   UNL     1       6.895  -8.220 -10.508  1.00  0.00     0.293 HD
ENDBRANCH   6  22
BRANCH   8  24
ATOM     24  O   UNL     1       8.448  -5.748  -5.721  1.00  0.00    -0.508 OA
ATOM     25  H   UNL     1       8.744  -4.831  -5.413  1.00  0.00     0.293 HD
ENDBRANCH   8  24
TORSDOF 5
ENDMDL
MODEL 8
REMARK VINA RESULT:    -5.836     13.136     15.296
REMARK INTER + INTRA:          -7.178
REMARK INTER:                  -6.905
REMARK INTRA:                  -0.273
REMARK UNBOUND:                -0.318
REMARK SMILES O=c1cc(-c2ccc(O)c(O)c2)oc2cc(O)cc(O)c12
REMARK SMILES IDX 4 1 3 2 2 3 1 4 21 5 19 6 18 7 16 8 15 9 14 10 13 11 5 12
REMARK SMILES IDX 6 13 7 14 8 15 12 16 10 17 9 18 11 20 20 22 17 24
REMARK H PARENT 9 19 11 21 20 23 17 25
REMARK Flexibility Score: inf
ROOT
ATOM      1  C   UNL     1       5.110   5.840 -10.307  1.00  0.00     0.138 A 
ATOM      2  C   UNL     1       5.181   7.229 -10.145  1.00  0.00     0.100 A 
ATOM      3  C   UNL     1       4.976   8.065 -11.244  1.00  0.00     0.197 A 
ATOM      4  O   UNL     1       5.102   9.306 -11.077  1.00  0.00    -0.289 OA
ATOM      5  C   UNL     1       4.661   7.505 -12.505  1.00  0.00     0.107 A 
ATOM      6  C   UNL     1       4.399   8.260 -13.689  1.00  0.00     0.134 A 
ATOM      7  C   UNL     1       4.196   7.590 -14.903  1.00  0.00     0.093 A 
ATOM      8  C   UNL     1       4.189   6.198 -14.966  1.00  0.00     0.123 A 
ATOM      9  C   UNL     1       4.394   5.450 -13.806  1.00  0.00     0.094 A 
ATOM     10  C   UNL     1       4.635   6.087 -12.586  1.00  0.00     0.146 A 
ATOM     11  O   UNL     1       4.844   5.338 -11.509  1.00  0.00    -0.456 OA
ENDROOT
BRANCH   1  12
ATOM     12  C   UNL     1       5.316   4.904  -9.173  1.00  0.00     0.021 A 
ATOM     13  C   UNL     1       4.411   4.834  -8.098  1.00  0.00     0.016 A 
ATOM     14  C   UNL     1       4.637   3.950  -7.038  1.00  0.00     0.051 A 
ATOM     15  C   UNL     1       5.770   3.129  -7.031  1.00  0.00     0.157 A 
ATOM     16  C   UNL     1       6.460   4.085  -9.151  1.00  0.00     0.062 A 
ATOM     17  C   UNL     1       6.687   3.199  -8.092  1.00  0.00     0.158 A 
BRANCH  15  18
ATOM     18  O   UNL     1       5.991   2.248  -5.973  1.00  0.00    -0.504 OA
ATOM     19  H   UNL     1       6.586   2.496  -5.191  1.00  0.00     0.293 HD
ENDBRANCH  15  18
BRANCH  17  20
ATOM     20  O   UNL     1       7.828   2.397  -8.113  1.00  0.00    -0.504 OA
ATOM     21  H   UNL     1       8.682   2.664  -7.637  1.00  0.00     0.293 HD
ENDBRANCH  17  20
ENDBRANCH   1  12
BRANCH   6  22
ATOM     22  O   UNL     1       4.304   9.654 -13.725  1.00  0.00    -0.507 OA
ATOM     23  H   UNL     1       3.731  10.179 -14.367  1.00  0.00     0.293 HD
ENDBRANCH   6  22
BRANCH   8  24
ATOM     24  O   UNL     1       3.969   5.567 -16.188  1.00  0.00    -0.508 OA
ATOM     25  H   UNL     1       4.256   4.609 -16.350  1.00  0.00     0.293 HD
ENDBRANCH   8  24
TORSDOF 5
ENDMDL
MODEL 9
REMARK VINA RESULT:    -5.832      8.814     14.428
REMARK INTER + INTRA:          -7.173
REMARK INTER:                  -6.909
REMARK INTRA:                  -0.264
REMARK UNBOUND:                -0.318
REMARK SMILES O=c1cc(-c2ccc(O)c(O)c2)oc2cc(O)cc(O)c12
REMARK SMILES IDX 4 1 3 2 2 3 1 4 21 5 19 6 18 7 16 8 15 9 14 10 13 11 5 12
REMARK SMILES IDX 6 13 7 14 8 15 12 16 10 17 9 18 11 20 20 22 17 24
REMARK H PARENT 9 19 11 21 20 23 17 25
REMARK Flexibility Score: inf
ROOT
ATOM      1  C   UNL     1      18.103  -0.211 -15.678  1.00  0.00     0.138 A 
ATOM      2  C   UNL     1      19.172   0.565 -15.209  1.00  0.00     0.100 A 
ATOM      3  C   UNL     1      20.206   0.913 -16.079  1.00  0.00     0.197 A 
ATOM      4  O   UNL     1      21.179   1.563 -15.614  1.00  0.00    -0.289 OA
ATOM      5  C   UNL     1      20.150   0.514 -17.436  1.00  0.00     0.107 A 
ATOM      6  C   UNL     1      21.130   0.840 -18.422  1.00  0.00     0.134 A 
ATOM      7  C   UNL     1      21.016   0.303 -19.711  1.00  0.00     0.093 A 
ATOM      8  C   UNL     1      19.932  -0.498 -20.066  1.00  0.00     0.123 A 
ATOM      9  C   UNL     1      18.942  -0.782 -19.124  1.00  0.00     0.094 A 
ATOM     10  C   UNL     1      19.045  -0.291 -17.820  1.00  0.00     0.146 A 
ATOM     11  O   UNL     1      18.090  -0.600 -16.949  1.00  0.00    -0.456 OA
ENDROOT
BRANCH   1  12
ATOM     12  C   UNL     1      16.976  -0.608 -14.798  1.00  0.00     0.021 A 
ATOM     13  C   UNL     1      15.924   0.277 -14.497  1.00  0.00     0.016 A 
ATOM     14  C   UNL     1      14.880  -0.122 -13.657  1.00  0.00     0.051 A 
ATOM     15  C   UNL     1      14.872  -1.406 -13.098  1.00  0.00     0.157 A 
ATOM     16  C   UNL     1      16.967  -1.892 -14.222  1.00  0.00     0.062 A 
ATOM     17  C   UNL     1      15.923  -2.293 -13.381  1.00  0.00     0.158 A 
BRANCH  15  18
ATOM     18  O   UNL     1      13.829  -1.800 -12.262  1.00  0.00    -0.504 OA
ATOM     19  H   UNL     1      13.908  -2.612 -11.661  1.00  0.00     0.293 HD
ENDBRANCH  15  18
BRANCH  17  20
ATOM     20  O   UNL     1      15.947  -3.577 -12.838  1.00  0.00    -0.504 OA
ATOM     21  H   UNL     1      16.006  -4.406 -13.417  1.00  0.00     0.293 HD
ENDBRANCH  17  20
ENDBRANCH   1  12
BRANCH   6  22
ATOM     22  O   UNL     1      22.213   1.696 -18.199  1.00  0.00    -0.507 OA
ATOM     23  H   UNL     1      22.800   2.086 -18.919  1.00  0.00     0.293 HD
ENDBRANCH   6  22
BRANCH   8  24
ATOM     24  O   UNL     1      19.843  -1.002 -21.362  1.00  0.00    -0.508 OA
ATOM     25  H   UNL     1      20.661  -1.095 -21.951  1.00  0.00     0.293 HD
ENDBRANCH   8  24
TORSDOF 5
ENDMDL
