MODEL 1
REMARK VINA RESULT:    -0.838      0.000      0.000
REMARK INTER + INTRA:          -3.157
REMARK INTER:                  -1.915
REMARK INTRA:                  -1.242
REMARK UNBOUND:                -1.242
REMARK SMILES CCCCCCCCCCCCCCCCCCCCCCCC(=O)[O-]
REMARK SMILES IDX 13 1 14 2 15 3 16 4 17 5 18 6 19 7 20 8 21 9 22 10 23 11
REMARK SMILES IDX 24 12 25 13 26 14 12 15 11 16 10 17 9 18 8 19 7 20 6 21 5 22
REMARK SMILES IDX 4 23 3 24 2 25 1 26
REMARK H PARENT
REMARK Flexibility Score: inf
ROOT
ATOM      1  C   UNL     1      31.145  -0.546  -2.183  1.00  0.00     0.000 C 
ENDROOT
BRANCH   1   2
ATOM      2  C   UNL     1      31.615  -0.029  -0.814  1.00  0.00     0.000 C 
BRANCH   2   3
ATOM      3  C   UNL     1      30.764   1.158  -0.317  1.00  0.00     0.000 C 
BRANCH   3   4
ATOM      4  C   UNL     1      29.751   0.776   0.774  1.00  0.00     0.000 C 
BRANCH   4   5
ATOM      5  C   UNL     1      29.610   1.854   1.862  1.00  0.00     0.000 C 
BRANCH   5   6
ATOM      6  C   UNL     1      30.889   2.707   2.012  1.00  0.00     0.000 C 
BRANCH   6   7
ATOM      7  C   UNL     1      30.994   3.439   3.364  1.00  0.00     0.000 C 
BRANCH   7   8
ATOM      8  C   UNL     1      30.593   4.923   3.331  1.00  0.00     0.000 C 
BRANCH   8   9
ATOM      9  C   UNL     1      31.120   5.712   4.538  1.00  0.00     0.000 C 
BRANCH   9  10
ATOM     10  C   UNL     1      30.216   6.911   4.846  1.00  0.00     0.006 C 
BRANCH  10  11
ATOM     11  C   UNL     1      29.955   7.032   6.351  1.00  0.00     0.053 C 
BRANCH  11  12
ATOM     12  C   UNL     1      30.113   8.449   6.808  1.00  0.00     0.041 C 
ATOM     13  O   UNL     1      29.990   9.398   5.990  1.00  0.00    -0.550 OA
ATOM     14  O   UNL     1      30.405   8.722   8.140  1.00  0.00    -0.550 OA
ENDBRANCH  11  12
ENDBRANCH  10  11
ENDBRANCH   9  10
ENDBRANCH   8   9
ENDBRANCH   7   8
ENDBRANCH   6   7
ENDBRANCH   5   6
ENDBRANCH   4   5
ENDBRANCH   3   4
ENDBRANCH   2   3
ENDBRANCH   1   2
BRANCH   1  15
ATOM     15  C   UNL     1      32.063  -0.103  -3.335  1.00  0.00     0.000 C 
BRANCH  15  16
ATOM     16  C   UNL     1      31.565   1.168  -4.055  1.00  0.00     0.000 C 
BRANCH  16  17
ATOM     17  C   UNL     1      32.589   2.317  -3.985  1.00  0.00     0.000 C 
BRANCH  17  18
ATOM     18  C   UNL     1      31.951   3.659  -3.600  1.00  0.00    -0.000 C 
BRANCH  18  19
ATOM     19  C   UNL     1      32.986   4.769  -3.370  1.00  0.00    -0.000 C 
BRANCH  19  20
ATOM     20  C   UNL     1      32.306   6.141  -3.280  1.00  0.00    -0.000 C 
BRANCH  20  21
ATOM     21  C   UNL     1      31.201   6.144  -2.214  1.00  0.00    -0.000 C 
BRANCH  21  22
ATOM     22  C   UNL     1      30.450   7.486  -2.140  1.00  0.00    -0.000 C 
BRANCH  22  23
ATOM     23  C   UNL     1      30.487   8.328  -3.432  1.00  0.00    -0.000 C 
BRANCH  23  24
ATOM     24  C   UNL     1      29.460   9.471  -3.492  1.00  0.00    -0.000 C 
BRANCH  24  25
ATOM     25  C   UNL     1      29.168  10.084  -2.115  1.00  0.00    -0.003 C 
ATOM     26  C   UNL     1      27.756   9.740  -1.649  1.00  0.00     0.004 C 
ENDBRANCH  24  25
ENDBRANCH  23  24
ENDBRANCH  22  23
ENDBRANCH  21  22
ENDBRANCH  20  21
ENDBRANCH  19  20
ENDBRANCH  18  19
ENDBRANCH  17  18
ENDBRANCH  16  17
ENDBRANCH  15  16
ENDBRANCH   1  15
TORSDOF 22
ENDMDL
MODEL 2
REMARK VINA RESULT:    -0.453      2.640      7.090
REMARK INTER + INTRA:          -2.279
REMARK INTER:                  -1.003
REMARK INTRA:                  -1.276
REMARK UNBOUND:                -1.242
REMARK SMILES CCCCCCCCCCCCCCCCCCCCCCCC(=O)[O-]
REMARK SMILES IDX 13 1 14 2 15 3 16 4 17 5 18 6 19 7 20 8 21 9 22 10 23 11
REMARK SMILES IDX 24 12 25 13 26 14 12 15 11 16 10 17 9 18 8 19 7 20 6 21 5 22
REMARK SMILES IDX 4 23 3 24 2 25 1 26
REMARK H PARENT
REMARK Flexibility Score: inf
ROOT
ATOM      1  C   UNL     1      32.479  -0.299  -1.419  1.00  0.00     0.000 C 
ENDROOT
BRANCH   1   2
ATOM      2  C   UNL     1      32.631  -0.805  -2.862  1.00  0.00     0.000 C 
BRANCH   2   3
ATOM      3  C   UNL     1      32.556   0.341  -3.892  1.00  0.00     0.000 C 
BRANCH   3   4
ATOM      4  C   UNL     1      31.130   0.868  -4.124  1.00  0.00     0.000 C 
BRANCH   4   5
ATOM      5  C   UNL     1      31.050   2.404  -4.100  1.00  0.00     0.000 C 
BRANCH   5   6
ATOM      6  C   UNL     1      32.135   3.034  -3.199  1.00  0.00     0.000 C 
BRANCH   6   7
ATOM      7  C   UNL     1      32.331   4.546  -3.424  1.00  0.00     0.000 C 
BRANCH   7   8
ATOM      8  C   UNL     1      31.478   5.451  -2.521  1.00  0.00     0.000 C 
BRANCH   8   9
ATOM      9  C   UNL     1      31.462   6.915  -2.987  1.00  0.00     0.000 C 
BRANCH   9  10
ATOM     10  C   UNL     1      30.274   7.670  -2.379  1.00  0.00     0.006 C 
BRANCH  10  11
ATOM     11  C   UNL     1      30.073   9.026  -3.065  1.00  0.00     0.053 C 
BRANCH  11  12
ATOM     12  C   UNL     1      28.686   9.540  -2.834  1.00  0.00     0.041 C 
ATOM     13  O   UNL     1      28.175   9.495  -1.684  1.00  0.00    -0.550 OA
ATOM     14  O   UNL     1      27.954  10.065  -3.893  1.00  0.00    -0.550 OA
ENDBRANCH  11  12
ENDBRANCH  10  11
ENDBRANCH   9  10
ENDBRANCH   8   9
ENDBRANCH   7   8
ENDBRANCH   6   7
ENDBRANCH   5   6
ENDBRANCH   4   5
ENDBRANCH   3   4
ENDBRANCH   2   3
ENDBRANCH   1   2
BRANCH   1  15
ATOM     15  C   UNL     1      31.025   0.048  -1.058  1.00  0.00     0.000 C 
BRANCH  15  16
ATOM     16  C   UNL     1      30.912   1.084   0.081  1.00  0.00     0.000 C 
BRANCH  16  17
ATOM     17  C   UNL     1      29.608   0.924   0.886  1.00  0.00     0.000 C 
BRANCH  17  18
ATOM     18  C   UNL     1      29.651   1.655   2.236  1.00  0.00    -0.000 C 
BRANCH  18  19
ATOM     19  C   UNL     1      30.353   3.017   2.155  1.00  0.00    -0.000 C 
BRANCH  19  20
ATOM     20  C   UNL     1      31.075   3.339   3.470  1.00  0.00    -0.000 C 
BRANCH  20  21
ATOM     21  C   UNL     1      31.458   4.825   3.544  1.00  0.00    -0.000 C 
BRANCH  21  22
ATOM     22  C   UNL     1      30.259   5.760   3.305  1.00  0.00    -0.000 C 
BRANCH  22  23
ATOM     23  C   UNL     1      30.038   6.830   4.394  1.00  0.00    -0.000 C 
BRANCH  23  24
ATOM     24  C   UNL     1      30.419   6.395   5.820  1.00  0.00    -0.000 C 
BRANCH  24  25
ATOM     25  C   UNL     1      29.815   7.301   6.902  1.00  0.00    -0.003 C 
ATOM     26  C   UNL     1      30.139   8.768   6.634  1.00  0.00     0.004 C 
ENDBRANCH  24  25
ENDBRANCH  23  24
ENDBRANCH  22  23
ENDBRANCH  21  22
ENDBRANCH  20  21
ENDBRANCH  19  20
ENDBRANCH  18  19
ENDBRANCH  17  18
ENDBRANCH  16  17
ENDBRANCH  15  16
ENDBRANCH   1  15
TORSDOF 22
ENDMDL
MODEL 3
REMARK VINA RESULT:    -0.437      4.425      8.858
REMARK INTER + INTRA:          -2.240
REMARK INTER:                  -1.272
REMARK INTRA:                  -0.969
REMARK UNBOUND:                -1.242
REMARK SMILES CCCCCCCCCCCCCCCCCCCCCCCC(=O)[O-]
REMARK SMILES IDX 13 1 14 2 15 3 16 4 17 5 18 6 19 7 20 8 21 9 22 10 23 11
REMARK SMILES IDX 24 12 25 13 26 14 12 15 11 16 10 17 9 18 8 19 7 20 6 21 5 22
REMARK SMILES IDX 4 23 3 24 2 25 1 26
REMARK H PARENT
REMARK Flexibility Score: inf
ROOT
ATOM      1  C   UNL     1      30.723  -0.713  -2.627  1.00  0.00     0.000 C 
ENDROOT
BRANCH   1   2
ATOM      2  C   UNL     1      30.779   0.619  -1.862  1.00  0.00     0.000 C 
BRANCH   2   3
ATOM      3  C   UNL     1      30.930   0.411  -0.341  1.00  0.00     0.000 C 
BRANCH   3   4
ATOM      4  C   UNL     1      29.684   0.816   0.463  1.00  0.00     0.000 C 
BRANCH   4   5
ATOM      5  C   UNL     1      30.031   1.461   1.816  1.00  0.00     0.000 C 
BRANCH   5   6
ATOM      6  C   UNL     1      30.221   2.990   1.706  1.00  0.00     0.000 C 
BRANCH   6   7
ATOM      7  C   UNL     1      30.742   3.647   2.998  1.00  0.00     0.000 C 
BRANCH   7   8
ATOM      8  C   UNL     1      31.215   5.101   2.840  1.00  0.00     0.000 C 
BRANCH   8   9
ATOM      9  C   UNL     1      30.312   6.106   3.572  1.00  0.00     0.000 C 
BRANCH   9  10
ATOM     10  C   UNL     1      31.001   6.645   4.831  1.00  0.00     0.006 C 
BRANCH  10  11
ATOM     11  C   UNL     1      30.122   7.682   5.539  1.00  0.00     0.053 C 
BRANCH  11  12
ATOM     12  C   UNL     1      30.022   7.387   7.003  1.00  0.00     0.041 C 
ATOM     13  O   UNL     1      29.990   8.328   7.840  1.00  0.00    -0.550 OA
ATOM     14  O   UNL     1      29.972   6.071   7.446  1.00  0.00    -0.550 OA
ENDBRANCH  11  12
ENDBRANCH  10  11
ENDBRANCH   9  10
ENDBRANCH   8   9
ENDBRANCH   7   8
ENDBRANCH   6   7
ENDBRANCH   5   6
ENDBRANCH   4   5
ENDBRANCH   3   4
ENDBRANCH   2   3
ENDBRANCH   1   2
BRANCH   1  15
ATOM     15  C   UNL     1      32.056  -1.480  -2.590  1.00  0.00     0.000 C 
BRANCH  15  16
ATOM     16  C   UNL     1      32.784  -1.501  -3.951  1.00  0.00     0.000 C 
BRANCH  16  17
ATOM     17  C   UNL     1      34.022  -0.585  -3.965  1.00  0.00     0.000 C 
BRANCH  17  18
ATOM     18  C   UNL     1      35.285  -1.285  -3.443  1.00  0.00    -0.000 C 
BRANCH  18  19
ATOM     19  C   UNL     1      35.460  -2.700  -4.011  1.00  0.00    -0.000 C 
BRANCH  19  20
ATOM     20  C   UNL     1      36.929  -3.138  -3.944  1.00  0.00    -0.000 C 
BRANCH  20  21
ATOM     21  C   UNL     1      37.065  -4.657  -4.125  1.00  0.00    -0.000 C 
BRANCH  21  22
ATOM     22  C   UNL     1      35.741  -5.405  -3.886  1.00  0.00    -0.000 C 
BRANCH  22  23
ATOM     23  C   UNL     1      35.888  -6.906  -3.563  1.00  0.00    -0.000 C 
BRANCH  23  24
ATOM     24  C   UNL     1      36.293  -7.223  -2.113  1.00  0.00    -0.000 C 
BRANCH  24  25
ATOM     25  C   UNL     1      35.797  -8.596  -1.642  1.00  0.00    -0.003 C 
ATOM     26  C   UNL     1      36.558  -9.723  -2.334  1.00  0.00     0.004 C 
ENDBRANCH  24  25
ENDBRANCH  23  24
ENDBRANCH  22  23
ENDBRANCH  21  22
ENDBRANCH  20  21
ENDBRANCH  19  20
ENDBRANCH  18  19
ENDBRANCH  17  18
ENDBRANCH  16  17
ENDBRANCH  15  16
ENDBRANCH   1  15
TORSDOF 22
ENDMDL
MODEL 4
REMARK VINA RESULT:    -0.347      2.771      7.320
REMARK INTER + INTRA:          -2.034
REMARK INTER:                  -0.674
REMARK INTRA:                  -1.361
REMARK UNBOUND:                -1.242
REMARK SMILES CCCCCCCCCCCCCCCCCCCCCCCC(=O)[O-]
REMARK SMILES IDX 13 1 14 2 15 3 16 4 17 5 18 6 19 7 20 8 21 9 22 10 23 11
REMARK SMILES IDX 24 12 25 13 26 14 12 15 11 16 10 17 9 18 8 19 7 20 6 21 5 22
REMARK SMILES IDX 4 23 3 24 2 25 1 26
REMARK H PARENT
REMARK Flexibility Score: inf
ROOT
ATOM      1  C   UNL     1      30.749   0.257  -1.250  1.00  0.00     0.000 C 
ENDROOT
BRANCH   1   2
ATOM      2  C   UNL     1      32.103  -0.436  -1.474  1.00  0.00     0.000 C 
BRANCH   2   3
ATOM      3  C   UNL     1      32.125  -1.261  -2.778  1.00  0.00     0.000 C 
BRANCH   3   4
ATOM      4  C   UNL     1      31.682  -0.467  -4.017  1.00  0.00     0.000 C 
BRANCH   4   5
ATOM      5  C   UNL     1      32.289   0.946  -4.069  1.00  0.00     0.000 C 
BRANCH   5   6
ATOM      6  C   UNL     1      31.208   2.048  -4.123  1.00  0.00     0.000 C 
BRANCH   6   7
ATOM      7  C   UNL     1      31.628   3.366  -3.445  1.00  0.00     0.000 C 
BRANCH   7   8
ATOM      8  C   UNL     1      32.975   3.938  -3.916  1.00  0.00     0.000 C 
BRANCH   8   9
ATOM      9  C   UNL     1      33.213   5.378  -3.437  1.00  0.00     0.000 C 
BRANCH   9  10
ATOM     10  C   UNL     1      31.996   5.908  -2.671  1.00  0.00     0.006 C 
BRANCH  10  11
ATOM     11  C   UNL     1      31.356   7.093  -3.404  1.00  0.00     0.053 C 
BRANCH  11  12
ATOM     12  C   UNL     1      30.441   7.852  -2.495  1.00  0.00     0.041 C 
ATOM     13  O   UNL     1      29.698   7.239  -1.685  1.00  0.00    -0.550 OA
ATOM     14  O   UNL     1      30.404   9.241  -2.548  1.00  0.00    -0.550 OA
ENDBRANCH  11  12
ENDBRANCH  10  11
ENDBRANCH   9  10
ENDBRANCH   8   9
ENDBRANCH   7   8
ENDBRANCH   6   7
ENDBRANCH   5   6
ENDBRANCH   4   5
ENDBRANCH   3   4
ENDBRANCH   2   3
ENDBRANCH   1   2
BRANCH   1  15
ATOM     15  C   UNL     1      30.754   1.195  -0.031  1.00  0.00     0.000 C 
BRANCH  15  16
ATOM     16  C   UNL     1      29.539   0.990   0.899  1.00  0.00     0.000 C 
BRANCH  16  17
ATOM     17  C   UNL     1      29.794   1.531   2.318  1.00  0.00     0.000 C 
BRANCH  17  18
ATOM     18  C   UNL     1      30.307   2.979   2.319  1.00  0.00    -0.000 C 
BRANCH  18  19
ATOM     19  C   UNL     1      30.712   3.467   3.717  1.00  0.00    -0.000 C 
BRANCH  19  20
ATOM     20  C   UNL     1      31.369   4.851   3.643  1.00  0.00    -0.000 C 
BRANCH  20  21
ATOM     21  C   UNL     1      30.389   5.903   3.103  1.00  0.00    -0.000 C 
BRANCH  21  22
ATOM     22  C   UNL     1      29.720   6.722   4.222  1.00  0.00    -0.000 C 
BRANCH  22  23
ATOM     23  C   UNL     1      30.647   7.108   5.393  1.00  0.00    -0.000 C 
BRANCH  23  24
ATOM     24  C   UNL     1      30.044   6.905   6.793  1.00  0.00    -0.000 C 
BRANCH  24  25
ATOM     25  C   UNL     1      29.705   8.228   7.494  1.00  0.00    -0.003 C 
ATOM     26  C   UNL     1      30.131   9.424   6.648  1.00  0.00     0.004 C 
ENDBRANCH  24  25
ENDBRANCH  23  24
ENDBRANCH  22  23
ENDBRANCH  21  22
ENDBRANCH  20  21
ENDBRANCH  19  20
ENDBRANCH  18  19
ENDBRANCH  17  18
ENDBRANCH  16  17
ENDBRANCH  15  16
ENDBRANCH   1  15
TORSDOF 22
ENDMDL
MODEL 5
REMARK VINA RESULT:     0.230      1.767      2.968
REMARK INTER + INTRA:          -0.716
REMARK INTER:                   0.539
REMARK INTRA:                  -1.255
REMARK UNBOUND:                -1.242
REMARK SMILES CCCCCCCCCCCCCCCCCCCCCCCC(=O)[O-]
REMARK SMILES IDX 13 1 14 2 15 3 16 4 17 5 18 6 19 7 20 8 21 9 22 10 23 11
REMARK SMILES IDX 24 12 25 13 26 14 12 15 11 16 10 17 9 18 8 19 7 20 6 21 5 22
REMARK SMILES IDX 4 23 3 24 2 25 1 26
REMARK H PARENT
REMARK Flexibility Score: inf
ROOT
ATOM      1  C   UNL     1      33.515  -0.226  -3.211  1.00  0.00     0.000 C 
ENDROOT
BRANCH   1   2
ATOM      2  C   UNL     1      32.705  -1.272  -3.993  1.00  0.00     0.000 C 
BRANCH   2   3
ATOM      3  C   UNL     1      31.246  -1.366  -3.499  1.00  0.00     0.000 C 
BRANCH   3   4
ATOM      4  C   UNL     1      31.087  -1.099  -1.994  1.00  0.00     0.000 C 
BRANCH   4   5
ATOM      5  C   UNL     1      30.746   0.368  -1.681  1.00  0.00     0.000 C 
BRANCH   5   6
ATOM      6  C   UNL     1      31.136   0.767  -0.240  1.00  0.00     0.000 C 
BRANCH   6   7
ATOM      7  C   UNL     1      29.981   1.390   0.567  1.00  0.00     0.000 C 
BRANCH   7   8
ATOM      8  C   UNL     1      30.218   1.465   2.085  1.00  0.00     0.000 C 
BRANCH   8   9
ATOM      9  C   UNL     1      29.896   2.848   2.672  1.00  0.00     0.000 C 
BRANCH   9  10
ATOM     10  C   UNL     1      31.175   3.560   3.126  1.00  0.00     0.006 C 
BRANCH  10  11
ATOM     11  C   UNL     1      30.878   4.564   4.247  1.00  0.00     0.053 C 
BRANCH  11  12
ATOM     12  C   UNL     1      30.788   5.957   3.706  1.00  0.00     0.041 C 
ATOM     13  O   UNL     1      29.698   6.587   3.752  1.00  0.00    -0.550 OA
ATOM     14  O   UNL     1      31.907   6.558   3.143  1.00  0.00    -0.550 OA
ENDBRANCH  11  12
ENDBRANCH  10  11
ENDBRANCH   9  10
ENDBRANCH   8   9
ENDBRANCH   7   8
ENDBRANCH   6   7
ENDBRANCH   5   6
ENDBRANCH   4   5
ENDBRANCH   3   4
ENDBRANCH   2   3
ENDBRANCH   1   2
BRANCH   1  15
ATOM     15  C   UNL     1      34.339   0.697  -4.125  1.00  0.00     0.000 C 
BRANCH  15  16
ATOM     16  C   UNL     1      33.868   2.166  -4.090  1.00  0.00     0.000 C 
BRANCH  16  17
ATOM     17  C   UNL     1      32.359   2.287  -3.806  1.00  0.00     0.000 C 
BRANCH  17  18
ATOM     18  C   UNL     1      31.847   3.730  -3.924  1.00  0.00    -0.000 C 
BRANCH  18  19
ATOM     19  C   UNL     1      32.605   4.709  -3.017  1.00  0.00    -0.000 C 
BRANCH  19  20
ATOM     20  C   UNL     1      32.312   6.161  -3.416  1.00  0.00    -0.000 C 
BRANCH  20  21
ATOM     21  C   UNL     1      30.984   6.645  -2.815  1.00  0.00    -0.000 C 
BRANCH  21  22
ATOM     22  C   UNL     1      30.620   8.075  -3.252  1.00  0.00    -0.000 C 
BRANCH  22  23
ATOM     23  C   UNL     1      30.355   9.063  -2.098  1.00  0.00    -0.000 C 
BRANCH  23  24
ATOM     24  C   UNL     1      29.147   9.994  -2.303  1.00  0.00    -0.000 C 
BRANCH  24  25
ATOM     25  C   UNL     1      27.855   9.232  -2.630  1.00  0.00    -0.003 C 
ATOM     26  C   UNL     1      27.051   9.951  -3.709  1.00  0.00     0.004 C 
ENDBRANCH  24  25
ENDBRANCH  23  24
ENDBRANCH  22  23
ENDBRANCH  21  22
ENDBRANCH  20  21
ENDBRANCH  19  20
ENDBRANCH  18  19
ENDBRANCH  17  18
ENDBRANCH  16  17
ENDBRANCH  15  16
ENDBRANCH   1  15
TORSDOF 22
ENDMDL
MODEL 6
REMARK VINA RESULT:     0.363      6.532     10.525
REMARK INTER + INTRA:          -0.413
REMARK INTER:                   0.444
REMARK INTRA:                  -0.857
REMARK UNBOUND:                -1.242
REMARK SMILES CCCCCCCCCCCCCCCCCCCCCCCC(=O)[O-]
REMARK SMILES IDX 13 1 14 2 15 3 16 4 17 5 18 6 19 7 20 8 21 9 22 10 23 11
REMARK SMILES IDX 24 12 25 13 26 14 12 15 11 16 10 17 9 18 8 19 7 20 6 21 5 22
REMARK SMILES IDX 4 23 3 24 2 25 1 26
REMARK H PARENT
REMARK Flexibility Score: inf
ROOT
ATOM      1  C   UNL     1      30.718   0.088  -0.086  1.00  0.00     0.000 C 
ENDROOT
BRANCH   1   2
ATOM      2  C   UNL     1      31.016   0.156  -1.592  1.00  0.00     0.000 C 
BRANCH   2   3
ATOM      3  C   UNL     1      31.147  -1.246  -2.223  1.00  0.00     0.000 C 
BRANCH   3   4
ATOM      4  C   UNL     1      32.040  -1.278  -3.474  1.00  0.00     0.000 C 
BRANCH   4   5
ATOM      5  C   UNL     1      32.636   0.099  -3.816  1.00  0.00     0.000 C 
BRANCH   5   6
ATOM      6  C   UNL     1      34.178   0.112  -3.716  1.00  0.00     0.000 C 
BRANCH   6   7
ATOM      7  C   UNL     1      34.773  -1.172  -3.107  1.00  0.00     0.000 C 
BRANCH   7   8
ATOM      8  C   UNL     1      35.133  -2.266  -4.125  1.00  0.00     0.000 C 
BRANCH   8   9
ATOM      9  C   UNL     1      36.451  -2.982  -3.792  1.00  0.00     0.000 C 
BRANCH   9  10
ATOM     10  C   UNL     1      36.320  -4.495  -3.998  1.00  0.00     0.006 C 
BRANCH  10  11
ATOM     11  C   UNL     1      36.513  -5.250  -2.678  1.00  0.00     0.053 C 
BRANCH  11  12
ATOM     12  C   UNL     1      36.092  -6.680  -2.814  1.00  0.00     0.041 C 
ATOM     13  O   UNL     1      35.578  -7.092  -3.888  1.00  0.00    -0.550 OA
ATOM     14  O   UNL     1      36.260  -7.559  -1.751  1.00  0.00    -0.550 OA
ENDBRANCH  11  12
ENDBRANCH  10  11
ENDBRANCH   9  10
ENDBRANCH   8   9
ENDBRANCH   7   8
ENDBRANCH   6   7
ENDBRANCH   5   6
ENDBRANCH   4   5
ENDBRANCH   3   4
ENDBRANCH   2   3
ENDBRANCH   1   2
BRANCH   1  15
ATOM     15  C   UNL     1      30.655   1.476   0.574  1.00  0.00     0.000 C 
BRANCH  15  16
ATOM     16  C   UNL     1      29.626   1.559   1.721  1.00  0.00     0.000 C 
BRANCH  16  17
ATOM     17  C   UNL     1      30.248   2.089   3.026  1.00  0.00     0.000 C 
BRANCH  17  18
ATOM     18  C   UNL     1      30.839   3.498   2.873  1.00  0.00    -0.000 C 
BRANCH  18  19
ATOM     19  C   UNL     1      29.848   4.497   2.258  1.00  0.00    -0.000 C 
BRANCH  19  20
ATOM     20  C   UNL     1      30.025   5.891   2.873  1.00  0.00    -0.000 C 
BRANCH  20  21
ATOM     21  C   UNL     1      31.437   6.068   3.450  1.00  0.00    -0.000 C 
BRANCH  21  22
ATOM     22  C   UNL     1      31.469   5.963   4.985  1.00  0.00    -0.000 C 
BRANCH  22  23
ATOM     23  C   UNL     1      30.165   6.378   5.696  1.00  0.00    -0.000 C 
BRANCH  23  24
ATOM     24  C   UNL     1      29.976   7.894   5.877  1.00  0.00    -0.000 C 
BRANCH  24  25
ATOM     25  C   UNL     1      29.702   8.292   7.334  1.00  0.00    -0.003 C 
ATOM     26  C   UNL     1      30.115   9.737   7.596  1.00  0.00     0.004 C 
ENDBRANCH  24  25
ENDBRANCH  23  24
ENDBRANCH  22  23
ENDBRANCH  21  22
ENDBRANCH  20  21
ENDBRANCH  19  20
ENDBRANCH  18  19
ENDBRANCH  17  18
ENDBRANCH  16  17
ENDBRANCH  15  16
ENDBRANCH   1  15
TORSDOF 22
ENDMDL
MODEL 7
REMARK VINA RESULT:     0.508      0.865      2.013
REMARK INTER + INTRA:          -0.080
REMARK INTER:                   1.405
REMARK INTRA:                  -1.485
REMARK UNBOUND:                -1.242
REMARK SMILES CCCCCCCCCCCCCCCCCCCCCCCC(=O)[O-]
REMARK SMILES IDX 13 1 14 2 15 3 16 4 17 5 18 6 19 7 20 8 21 9 22 10 23 11
REMARK SMILES IDX 24 12 25 13 26 14 12 15 11 16 10 17 9 18 8 19 7 20 6 21 5 22
REMARK SMILES IDX 4 23 3 24 2 25 1 26
REMARK H PARENT
REMARK Flexibility Score: inf
ROOT
ATOM      1  C   UNL     1      30.705   1.278  -0.296  1.00  0.00     0.000 C 
ENDROOT
BRANCH   1   2
ATOM      2  C   UNL     1      30.004   1.046   1.051  1.00  0.00     0.000 C 
BRANCH   2   3
ATOM      3  C   UNL     1      29.842   2.353   1.855  1.00  0.00     0.000 C 
BRANCH   3   4
ATOM      4  C   UNL     1      30.424   2.278   3.277  1.00  0.00     0.000 C 
BRANCH   4   5
ATOM      5  C   UNL     1      30.798   3.659   3.842  1.00  0.00     0.000 C 
BRANCH   5   6
ATOM      6  C   UNL     1      31.133   4.677   2.730  1.00  0.00     0.000 C 
BRANCH   6   7
ATOM      7  C   UNL     1      30.868   6.142   3.126  1.00  0.00     0.000 C 
BRANCH   7   8
ATOM      8  C   UNL     1      29.967   6.327   4.358  1.00  0.00     0.000 C 
BRANCH   8   9
ATOM      9  C   UNL     1      30.717   6.912   5.564  1.00  0.00     0.000 C 
BRANCH   9  10
ATOM     10  C   UNL     1      30.063   6.474   6.880  1.00  0.00     0.006 C 
BRANCH  10  11
ATOM     11  C   UNL     1      29.283   7.628   7.518  1.00  0.00     0.053 C 
BRANCH  11  12
ATOM     12  C   UNL     1      30.104   8.880   7.542  1.00  0.00     0.041 C 
ATOM     13  O   UNL     1      31.107   8.967   8.300  1.00  0.00    -0.550 OA
ATOM     14  O   UNL     1      29.759   9.954   6.732  1.00  0.00    -0.550 OA
ENDBRANCH  11  12
ENDBRANCH  10  11
ENDBRANCH   9  10
ENDBRANCH   8   9
ENDBRANCH   7   8
ENDBRANCH   6   7
ENDBRANCH   5   6
ENDBRANCH   4   5
ENDBRANCH   3   4
ENDBRANCH   2   3
ENDBRANCH   1   2
BRANCH   1  15
ATOM     15  C   UNL     1      30.755   0.012  -1.170  1.00  0.00     0.000 C 
BRANCH  15  16
ATOM     16  C   UNL     1      31.219   0.288  -2.615  1.00  0.00     0.000 C 
BRANCH  16  17
ATOM     17  C   UNL     1      31.140   1.783  -2.977  1.00  0.00     0.000 C 
BRANCH  17  18
ATOM     18  C   UNL     1      32.085   2.167  -4.125  1.00  0.00    -0.000 C 
BRANCH  18  19
ATOM     19  C   UNL     1      32.588   3.614  -4.025  1.00  0.00    -0.000 C 
BRANCH  19  20
ATOM     20  C   UNL     1      32.116   4.268  -2.720  1.00  0.00    -0.000 C 
BRANCH  20  21
ATOM     21  C   UNL     1      31.557   5.675  -2.974  1.00  0.00    -0.000 C 
BRANCH  21  22
ATOM     22  C   UNL     1      31.174   6.406  -1.675  1.00  0.00    -0.000 C 
BRANCH  22  23
ATOM     23  C   UNL     1      30.039   7.441  -1.817  1.00  0.00    -0.000 C 
BRANCH  23  24
ATOM     24  C   UNL     1      30.225   8.457  -2.957  1.00  0.00    -0.000 C 
BRANCH  24  25
ATOM     25  C   UNL     1      29.344   9.703  -2.794  1.00  0.00    -0.003 C 
ATOM     26  C   UNL     1      27.952   9.331  -2.292  1.00  0.00     0.004 C 
ENDBRANCH  24  25
ENDBRANCH  23  24
ENDBRANCH  22  23
ENDBRANCH  21  22
ENDBRANCH  20  21
ENDBRANCH  19  20
ENDBRANCH  18  19
ENDBRANCH  17  18
ENDBRANCH  16  17
ENDBRANCH  15  16
ENDBRANCH   1  15
TORSDOF 22
ENDMDL
MODEL 8
REMARK VINA RESULT:     0.737      3.805      7.803
REMARK INTER + INTRA:           0.442
REMARK INTER:                   1.584
REMARK INTRA:                  -1.142
REMARK UNBOUND:                -1.242
REMARK SMILES CCCCCCCCCCCCCCCCCCCCCCCC(=O)[O-]
REMARK SMILES IDX 13 1 14 2 15 3 16 4 17 5 18 6 19 7 20 8 21 9 22 10 23 11
REMARK SMILES IDX 24 12 25 13 26 14 12 15 11 16 10 17 9 18 8 19 7 20 6 21 5 22
REMARK SMILES IDX 4 23 3 24 2 25 1 26
REMARK H PARENT
REMARK Flexibility Score: inf
ROOT
ATOM      1  C   UNL     1      30.561   0.702   0.720  1.00  0.00     0.000 C 
ENDROOT
BRANCH   1   2
ATOM      2  C   UNL     1      29.813   1.929   1.264  1.00  0.00     0.000 C 
BRANCH   2   3
ATOM      3  C   UNL     1      29.928   2.048   2.798  1.00  0.00     0.000 C 
BRANCH   3   4
ATOM      4  C   UNL     1      30.944   3.106   3.259  1.00  0.00     0.000 C 
BRANCH   4   5
ATOM      5  C   UNL     1      30.759   4.459   2.550  1.00  0.00     0.000 C 
BRANCH   5   6
ATOM      6  C   UNL     1      31.811   5.501   2.990  1.00  0.00     0.000 C 
BRANCH   6   7
ATOM      7  C   UNL     1      31.204   6.774   3.609  1.00  0.00     0.000 C 
BRANCH   7   8
ATOM      8  C   UNL     1      29.916   6.551   4.419  1.00  0.00     0.000 C 
BRANCH   8   9
ATOM      9  C   UNL     1      30.165   5.825   5.750  1.00  0.00     0.000 C 
BRANCH   9  10
ATOM     10  C   UNL     1      30.652   6.804   6.825  1.00  0.00     0.006 C 
BRANCH  10  11
ATOM     11  C   UNL     1      29.487   7.623   7.392  1.00  0.00     0.053 C 
BRANCH  11  12
ATOM     12  C   UNL     1      29.934   9.004   7.757  1.00  0.00     0.041 C 
ATOM     13  O   UNL     1      31.011   9.178   8.387  1.00  0.00    -0.550 OA
ATOM     14  O   UNL     1      29.157  10.102   7.408  1.00  0.00    -0.550 OA
ENDBRANCH  11  12
ENDBRANCH  10  11
ENDBRANCH   9  10
ENDBRANCH   8   9
ENDBRANCH   7   8
ENDBRANCH   6   7
ENDBRANCH   5   6
ENDBRANCH   4   5
ENDBRANCH   3   4
ENDBRANCH   2   3
ENDBRANCH   1   2
BRANCH   1  15
ATOM     15  C   UNL     1      30.421   0.545  -0.804  1.00  0.00     0.000 C 
BRANCH  15  16
ATOM     16  C   UNL     1      31.145  -0.701  -1.356  1.00  0.00     0.000 C 
BRANCH  16  17
ATOM     17  C   UNL     1      31.223  -0.696  -2.895  1.00  0.00     0.000 C 
BRANCH  17  18
ATOM     18  C   UNL     1      32.566  -1.219  -3.424  1.00  0.00    -0.000 C 
BRANCH  18  19
ATOM     19  C   UNL     1      33.717  -0.224  -3.217  1.00  0.00    -0.000 C 
BRANCH  19  20
ATOM     20  C   UNL     1      34.942  -0.626  -4.047  1.00  0.00    -0.000 C 
BRANCH  20  21
ATOM     21  C   UNL     1      35.110  -2.152  -4.087  1.00  0.00    -0.000 C 
BRANCH  21  22
ATOM     22  C   UNL     1      36.020  -2.679  -2.963  1.00  0.00    -0.000 C 
BRANCH  22  23
ATOM     23  C   UNL     1      37.124  -3.655  -3.419  1.00  0.00    -0.000 C 
BRANCH  23  24
ATOM     24  C   UNL     1      36.636  -5.071  -3.768  1.00  0.00    -0.000 C 
BRANCH  24  25
ATOM     25  C   UNL     1      36.229  -5.884  -2.531  1.00  0.00    -0.003 C 
ATOM     26  C   UNL     1      36.397  -7.381  -2.776  1.00  0.00     0.004 C 
ENDBRANCH  24  25
ENDBRANCH  23  24
ENDBRANCH  22  23
ENDBRANCH  21  22
ENDBRANCH  20  21
ENDBRANCH  19  20
ENDBRANCH  18  19
ENDBRANCH  17  18
ENDBRANCH  16  17
ENDBRANCH  15  16
ENDBRANCH   1  15
TORSDOF 22
ENDMDL
MODEL 9
REMARK VINA RESULT:     0.807      2.824      7.526
REMARK INTER + INTRA:           0.603
REMARK INTER:                   2.051
REMARK INTRA:                  -1.448
REMARK UNBOUND:                -1.242
REMARK SMILES CCCCCCCCCCCCCCCCCCCCCCCC(=O)[O-]
REMARK SMILES IDX 13 1 14 2 15 3 16 4 17 5 18 6 19 7 20 8 21 9 22 10 23 11
REMARK SMILES IDX 24 12 25 13 26 14 12 15 11 16 10 17 9 18 8 19 7 20 6 21 5 22
REMARK SMILES IDX 4 23 3 24 2 25 1 26
REMARK H PARENT
REMARK Flexibility Score: inf
ROOT
ATOM      1  C   UNL     1      30.764   1.156   0.531  1.00  0.00     0.000 C 
ENDROOT
BRANCH   1   2
ATOM      2  C   UNL     1      30.493   0.505  -0.834  1.00  0.00     0.000 C 
BRANCH   2   3
ATOM      3  C   UNL     1      31.568  -0.537  -1.206  1.00  0.00     0.000 C 
BRANCH   3   4
ATOM      4  C   UNL     1      32.363  -0.177  -2.472  1.00  0.00     0.000 C 
BRANCH   4   5
ATOM      5  C   UNL     1      31.465   0.017  -3.705  1.00  0.00     0.000 C 
BRANCH   5   6
ATOM      6  C   UNL     1      31.355   1.500  -4.124  1.00  0.00     0.000 C 
BRANCH   6   7
ATOM      7  C   UNL     1      32.176   2.459  -3.241  1.00  0.00     0.000 C 
BRANCH   7   8
ATOM      8  C   UNL     1      32.985   3.516  -4.009  1.00  0.00     0.000 C 
BRANCH   8   9
ATOM      9  C   UNL     1      33.010   4.880  -3.303  1.00  0.00     0.000 C 
BRANCH   9  10
ATOM     10  C   UNL     1      31.639   5.562  -3.380  1.00  0.00     0.006 C 
BRANCH  10  11
ATOM     11  C   UNL     1      31.312   6.290  -2.072  1.00  0.00     0.053 C 
BRANCH  11  12
ATOM     12  C   UNL     1      30.560   7.557  -2.341  1.00  0.00     0.041 C 
ATOM     13  O   UNL     1      29.434   7.752  -1.812  1.00  0.00    -0.550 OA
ATOM     14  O   UNL     1      31.102   8.522  -3.181  1.00  0.00    -0.550 OA
ENDBRANCH  11  12
ENDBRANCH  10  11
ENDBRANCH   9  10
ENDBRANCH   8   9
ENDBRANCH   7   8
ENDBRANCH   6   7
ENDBRANCH   5   6
ENDBRANCH   4   5
ENDBRANCH   3   4
ENDBRANCH   2   3
ENDBRANCH   1   2
BRANCH   1  15
ATOM     15  C   UNL     1      29.525   1.171   1.443  1.00  0.00     0.000 C 
BRANCH  15  16
ATOM     16  C   UNL     1      29.406   2.455   2.289  1.00  0.00     0.000 C 
BRANCH  16  17
ATOM     17  C   UNL     1      30.544   2.580   3.321  1.00  0.00     0.000 C 
BRANCH  17  18
ATOM     18  C   UNL     1      31.330   3.892   3.183  1.00  0.00    -0.000 C 
BRANCH  18  19
ATOM     19  C   UNL     1      30.462   5.058   2.689  1.00  0.00    -0.000 C 
BRANCH  19  20
ATOM     20  C   UNL     1      31.110   6.405   3.034  1.00  0.00    -0.000 C 
BRANCH  20  21
ATOM     21  C   UNL     1      31.122   6.643   4.551  1.00  0.00    -0.000 C 
BRANCH  21  22
ATOM     22  C   UNL     1      30.022   5.855   5.285  1.00  0.00    -0.000 C 
BRANCH  22  23
ATOM     23  C   UNL     1      29.884   6.171   6.789  1.00  0.00    -0.000 C 
BRANCH  23  24
ATOM     24  C   UNL     1      30.691   7.388   7.274  1.00  0.00    -0.000 C 
BRANCH  24  25
ATOM     25  C   UNL     1      29.819   8.631   7.497  1.00  0.00    -0.003 C 
ATOM     26  C   UNL     1      30.002   9.641   6.368  1.00  0.00     0.004 C 
ENDBRANCH  24  25
ENDBRANCH  23  24
ENDBRANCH  22  23
ENDBRANCH  21  22
ENDBRANCH  20  21
ENDBRANCH  19  20
ENDBRANCH  18  19
ENDBRANCH  17  18
ENDBRANCH  16  17
ENDBRANCH  15  16
ENDBRANCH   1  15
TORSDOF 22
ENDMDL
