MODEL 1
REMARK VINA RESULT:    -3.154      0.000      0.000
REMARK INTER + INTRA:          -7.746
REMARK INTER:                  -5.736
REMARK INTRA:                  -2.010
REMARK UNBOUND:                -2.010
REMARK SMILES CCCCCCCCCCCCCCCC(=O)[O-]
REMARK SMILES IDX 9 1 10 2 11 3 12 4 13 5 14 6 15 7 16 8 17 9 18 10 8 11 7 12
REMARK SMILES IDX 6 13 5 14 4 15 3 16 2 17 1 18
REMARK H PARENT
REMARK Flexibility Score: inf
ROOT
ATOM      1  C   UNL     1     -10.090  -6.544  -3.342  1.00  0.00     0.000 C 
ENDROOT
BRANCH   1   2
ATOM      2  C   UNL     1      -9.435  -5.702  -4.453  1.00  0.00     0.000 C 
BRANCH   2   3
ATOM      3  C   UNL     1      -9.685  -4.184  -4.355  1.00  0.00     0.000 C 
BRANCH   3   4
ATOM      4  C   UNL     1      -8.384  -3.363  -4.377  1.00  0.00     0.000 C 
BRANCH   4   5
ATOM      5  C   UNL     1      -7.188  -4.139  -3.800  1.00  0.00     0.000 C 
BRANCH   5   6
ATOM      6  C   UNL     1      -5.886  -3.318  -3.814  1.00  0.00     0.006 C 
BRANCH   6   7
ATOM      7  C   UNL     1      -6.052  -1.984  -4.555  1.00  0.00     0.053 C 
BRANCH   7   8
ATOM      8  C   UNL     1      -5.009  -1.800  -5.614  1.00  0.00     0.041 C 
ATOM      9  O   UNL     1      -5.274  -1.146  -6.657  1.00  0.00    -0.550 OA
ATOM     10  O   UNL     1      -3.755  -2.378  -5.465  1.00  0.00    -0.550 OA
ENDBRANCH   7   8
ENDBRANCH   6   7
ENDBRANCH   5   6
ENDBRANCH   4   5
ENDBRANCH   3   4
ENDBRANCH   2   3
ENDBRANCH   1   2
BRANCH   1  11
ATOM     11  C   UNL     1      -9.873  -6.017  -1.911  1.00  0.00     0.000 C 
BRANCH  11  12
ATOM     12  C   UNL     1      -8.960  -6.916  -1.050  1.00  0.00    -0.000 C 
BRANCH  12  13
ATOM     13  C   UNL     1      -7.593  -6.265  -0.770  1.00  0.00    -0.000 C 
BRANCH  13  14
ATOM     14  C   UNL     1      -6.467  -6.860  -1.630  1.00  0.00    -0.000 C 
BRANCH  14  15
ATOM     15  C   UNL     1      -6.852  -8.213  -2.256  1.00  0.00    -0.000 C 
BRANCH  15  16
ATOM     16  C   UNL     1      -6.702  -8.219  -3.786  1.00  0.00    -0.000 C 
BRANCH  16  17
ATOM     17  C   UNL     1      -7.141  -9.549  -4.415  1.00  0.00    -0.003 C 
ATOM     18  C   UNL     1      -8.271  -9.334  -5.418  1.00  0.00     0.004 C 
ENDBRANCH  16  17
ENDBRANCH  15  16
ENDBRANCH  14  15
ENDBRANCH  13  14
ENDBRANCH  12  13
ENDBRANCH  11  12
ENDBRANCH   1  11
TORSDOF 14
ENDMDL
MODEL 2
REMARK VINA RESULT:    -3.115     14.628     17.453
REMARK INTER + INTRA:          -7.675
REMARK INTER:                  -6.158
REMARK INTRA:                  -1.517
REMARK UNBOUND:                -2.010
REMARK SMILES CCCCCCCCCCCCCCCC(=O)[O-]
REMARK SMILES IDX 9 1 10 2 11 3 12 4 13 5 14 6 15 7 16 8 17 9 18 10 8 11 7 12
REMARK SMILES IDX 6 13 5 14 4 15 3 16 2 17 1 18
REMARK H PARENT
REMARK Flexibility Score: inf
ROOT
ATOM      1  C   UNL     1      -1.446   9.000   4.711  1.00  0.00     0.000 C 
ENDROOT
BRANCH   1   2
ATOM      2  C   UNL     1      -0.230   9.201   3.787  1.00  0.00     0.000 C 
BRANCH   2   3
ATOM      3  C   UNL     1       1.076   9.598   4.503  1.00  0.00     0.000 C 
BRANCH   3   4
ATOM      4  C   UNL     1       0.939   9.596   6.036  1.00  0.00     0.000 C 
BRANCH   4   5
ATOM      5  C   UNL     1       1.953   8.660   6.715  1.00  0.00     0.000 C 
BRANCH   5   6
ATOM      6  C   UNL     1       2.819   7.889   5.704  1.00  0.00     0.006 C 
BRANCH   6   7
ATOM      7  C   UNL     1       2.965   6.408   6.077  1.00  0.00     0.053 C 
BRANCH   7   8
ATOM      8  C   UNL     1       1.850   5.578   5.518  1.00  0.00     0.041 C 
ATOM      9  O   UNL     1       1.170   6.002   4.548  1.00  0.00    -0.550 OA
ATOM     10  O   UNL     1       1.541   4.350   6.091  1.00  0.00    -0.550 OA
ENDBRANCH   7   8
ENDBRANCH   6   7
ENDBRANCH   5   6
ENDBRANCH   4   5
ENDBRANCH   3   4
ENDBRANCH   2   3
ENDBRANCH   1   2
BRANCH   1  11
ATOM     11  C   UNL     1      -2.535  10.084   4.600  1.00  0.00     0.000 C 
BRANCH  11  12
ATOM     12  C   UNL     1      -3.327  10.036   3.276  1.00  0.00    -0.000 C 
BRANCH  12  13
ATOM     13  C   UNL     1      -4.845   9.934   3.505  1.00  0.00    -0.000 C 
BRANCH  13  14
ATOM     14  C   UNL     1      -5.415   8.568   3.090  1.00  0.00    -0.000 C 
BRANCH  14  15
ATOM     15  C   UNL     1      -4.545   7.393   3.571  1.00  0.00    -0.000 C 
BRANCH  15  16
ATOM     16  C   UNL     1      -4.326   6.335   2.477  1.00  0.00    -0.000 C 
BRANCH  16  17
ATOM     17  C   UNL     1      -3.127   5.422   2.773  1.00  0.00    -0.003 C 
ATOM     18  C   UNL     1      -1.815   6.093   2.377  1.00  0.00     0.004 C 
ENDBRANCH  16  17
ENDBRANCH  15  16
ENDBRANCH  14  15
ENDBRANCH  13  14
ENDBRANCH  12  13
ENDBRANCH  11  12
ENDBRANCH   1  11
TORSDOF 14
ENDMDL
MODEL 3
REMARK VINA RESULT:    -3.085      1.807      2.324
REMARK INTER + INTRA:          -7.620
REMARK INTER:                  -5.028
REMARK INTRA:                  -2.592
REMARK UNBOUND:                -2.010
REMARK SMILES CCCCCCCCCCCCCCCC(=O)[O-]
REMARK SMILES IDX 9 1 10 2 11 3 12 4 13 5 14 6 15 7 16 8 17 9 18 10 8 11 7 12
REMARK SMILES IDX 6 13 5 14 4 15 3 16 2 17 1 18
REMARK H PARENT
REMARK Flexibility Score: inf
ROOT
ATOM      1  C   UNL     1      -9.918  -6.268  -3.009  1.00  0.00     0.000 C 
ENDROOT
BRANCH   1   2
ATOM      2  C   UNL     1      -9.229  -5.387  -4.069  1.00  0.00     0.000 C 
BRANCH   2   3
ATOM      3  C   UNL     1      -8.710  -4.032  -3.553  1.00  0.00     0.000 C 
BRANCH   3   4
ATOM      4  C   UNL     1      -7.273  -3.729  -4.015  1.00  0.00     0.000 C 
BRANCH   4   5
ATOM      5  C   UNL     1      -6.275  -4.817  -3.587  1.00  0.00     0.000 C 
BRANCH   5   6
ATOM      6  C   UNL     1      -5.064  -4.246  -2.828  1.00  0.00     0.006 C 
BRANCH   6   7
ATOM      7  C   UNL     1      -3.920  -5.262  -2.718  1.00  0.00     0.053 C 
BRANCH   7   8
ATOM      8  C   UNL     1      -3.336  -5.594  -4.057  1.00  0.00     0.041 C 
ATOM      9  O   UNL     1      -2.851  -4.685  -4.779  1.00  0.00    -0.550 OA
ATOM     10  O   UNL     1      -3.358  -6.903  -4.521  1.00  0.00    -0.550 OA
ENDBRANCH   7   8
ENDBRANCH   6   7
ENDBRANCH   5   6
ENDBRANCH   4   5
ENDBRANCH   3   4
ENDBRANCH   2   3
ENDBRANCH   1   2
BRANCH   1  11
ATOM     11  C   UNL     1      -9.735  -5.800  -1.553  1.00  0.00     0.000 C 
BRANCH  11  12
ATOM     12  C   UNL     1      -8.987  -6.816  -0.664  1.00  0.00    -0.000 C 
BRANCH  12  13
ATOM     13  C   UNL     1      -7.665  -6.253  -0.114  1.00  0.00    -0.000 C 
BRANCH  13  14
ATOM     14  C   UNL     1      -6.432  -6.971  -0.686  1.00  0.00    -0.000 C 
BRANCH  14  15
ATOM     15  C   UNL     1      -6.802  -8.227  -1.496  1.00  0.00    -0.000 C 
BRANCH  15  16
ATOM     16  C   UNL     1      -5.896  -8.425  -2.722  1.00  0.00    -0.000 C 
BRANCH  16  17
ATOM     17  C   UNL     1      -6.663  -8.300  -4.046  1.00  0.00    -0.003 C 
ATOM     18  C   UNL     1      -7.857  -9.250  -4.081  1.00  0.00     0.004 C 
ENDBRANCH  16  17
ENDBRANCH  15  16
ENDBRANCH  14  15
ENDBRANCH  13  14
ENDBRANCH  12  13
ENDBRANCH  11  12
ENDBRANCH   1  11
TORSDOF 14
ENDMDL
MODEL 4
REMARK VINA RESULT:    -3.078      3.099      5.171
REMARK INTER + INTRA:          -7.608
REMARK INTER:                  -5.257
REMARK INTRA:                  -2.351
REMARK UNBOUND:                -2.010
REMARK SMILES CCCCCCCCCCCCCCCC(=O)[O-]
REMARK SMILES IDX 9 1 10 2 11 3 12 4 13 5 14 6 15 7 16 8 17 9 18 10 8 11 7 12
REMARK SMILES IDX 6 13 5 14 4 15 3 16 2 17 1 18
REMARK H PARENT
REMARK Flexibility Score: inf
ROOT
ATOM      1  C   UNL     1      -6.101  -4.556  -3.640  1.00  0.00     0.000 C 
ENDROOT
BRANCH   1   2
ATOM      2  C   UNL     1      -7.485  -3.899  -3.483  1.00  0.00     0.000 C 
BRANCH   2   3
ATOM      3  C   UNL     1      -8.669  -4.743  -3.994  1.00  0.00     0.000 C 
BRANCH   3   4
ATOM      4  C   UNL     1      -9.610  -5.196  -2.863  1.00  0.00     0.000 C 
BRANCH   4   5
ATOM      5  C   UNL     1      -9.894  -6.707  -2.904  1.00  0.00     0.000 C 
BRANCH   5   6
ATOM      6  C   UNL     1      -8.965  -7.459  -3.873  1.00  0.00     0.006 C 
BRANCH   6   7
ATOM      7  C   UNL     1      -7.918  -8.302  -3.132  1.00  0.00     0.053 C 
BRANCH   7   8
ATOM      8  C   UNL     1      -6.886  -8.857  -4.065  1.00  0.00     0.041 C 
ATOM      9  O   UNL     1      -5.679  -8.911  -3.714  1.00  0.00    -0.550 OA
ATOM     10  O   UNL     1      -7.253  -9.285  -5.335  1.00  0.00    -0.550 OA
ENDBRANCH   7   8
ENDBRANCH   6   7
ENDBRANCH   5   6
ENDBRANCH   4   5
ENDBRANCH   3   4
ENDBRANCH   2   3
ENDBRANCH   1   2
BRANCH   1  11
ATOM     11  C   UNL     1      -5.711  -5.531  -2.513  1.00  0.00     0.000 C 
BRANCH  11  12
ATOM     12  C   UNL     1      -6.207  -5.098  -1.117  1.00  0.00    -0.000 C 
BRANCH  12  13
ATOM     13  C   UNL     1      -6.616  -6.297  -0.243  1.00  0.00    -0.000 C 
BRANCH  13  14
ATOM     14  C   UNL     1      -8.014  -6.129   0.374  1.00  0.00    -0.000 C 
BRANCH  14  15
ATOM     15  C   UNL     1      -8.747  -7.470   0.555  1.00  0.00    -0.000 C 
BRANCH  15  16
ATOM     16  C   UNL     1      -7.796  -8.676   0.477  1.00  0.00    -0.000 C 
BRANCH  16  17
ATOM     17  C   UNL     1      -7.987  -9.652   1.647  1.00  0.00    -0.003 C 
ATOM     18  C   UNL     1      -8.831  -9.025   2.753  1.00  0.00     0.004 C 
ENDBRANCH  16  17
ENDBRANCH  15  16
ENDBRANCH  14  15
ENDBRANCH  13  14
ENDBRANCH  12  13
ENDBRANCH  11  12
ENDBRANCH   1  11
TORSDOF 14
ENDMDL
MODEL 5
REMARK VINA RESULT:    -3.047     10.449     13.853
REMARK INTER + INTRA:          -7.550
REMARK INTER:                  -5.211
REMARK INTRA:                  -2.339
REMARK UNBOUND:                -2.010
REMARK SMILES CCCCCCCCCCCCCCCC(=O)[O-]
REMARK SMILES IDX 9 1 10 2 11 3 12 4 13 5 14 6 15 7 16 8 17 9 18 10 8 11 7 12
REMARK SMILES IDX 6 13 5 14 4 15 3 16 2 17 1 18
REMARK H PARENT
REMARK Flexibility Score: inf
ROOT
ATOM      1  C   UNL     1       5.787  -2.939  -5.133  1.00  0.00     0.000 C 
ENDROOT
BRANCH   1   2
ATOM      2  C   UNL     1       7.308  -2.918  -4.884  1.00  0.00     0.000 C 
BRANCH   2   3
ATOM      3  C   UNL     1       8.170  -2.642  -6.131  1.00  0.00     0.000 C 
BRANCH   3   4
ATOM      4  C   UNL     1       8.462  -1.144  -6.333  1.00  0.00     0.000 C 
BRANCH   4   5
ATOM      5  C   UNL     1       7.727  -0.561  -7.551  1.00  0.00     0.000 C 
BRANCH   5   6
ATOM      6  C   UNL     1       6.702   0.520  -7.163  1.00  0.00     0.006 C 
BRANCH   6   7
ATOM      7  C   UNL     1       7.041   1.183  -5.821  1.00  0.00     0.053 C 
BRANCH   7   8
ATOM      8  C   UNL     1       5.904   1.092  -4.851  1.00  0.00     0.041 C 
ATOM      9  O   UNL     1       4.860   1.771  -5.033  1.00  0.00    -0.550 OA
ATOM     10  O   UNL     1       6.010   0.283  -3.727  1.00  0.00    -0.550 OA
ENDBRANCH   7   8
ENDBRANCH   6   7
ENDBRANCH   5   6
ENDBRANCH   4   5
ENDBRANCH   3   4
ENDBRANCH   2   3
ENDBRANCH   1   2
BRANCH   1  11
ATOM     11  C   UNL     1       5.354  -3.584  -6.463  1.00  0.00     0.000 C 
BRANCH  11  12
ATOM     12  C   UNL     1       4.506  -2.655  -7.357  1.00  0.00    -0.000 C 
BRANCH  12  13
ATOM     13  C   UNL     1       3.879  -1.493  -6.566  1.00  0.00    -0.000 C 
BRANCH  13  14
ATOM     14  C   UNL     1       2.469  -1.133  -7.062  1.00  0.00    -0.000 C 
BRANCH  14  15
ATOM     15  C   UNL     1       1.362  -1.847  -6.266  1.00  0.00    -0.000 C 
BRANCH  15  16
ATOM     16  C   UNL     1       1.773  -2.136  -4.813  1.00  0.00    -0.000 C 
BRANCH  16  17
ATOM     17  C   UNL     1       1.392  -3.554  -4.365  1.00  0.00    -0.003 C 
ATOM     18  C   UNL     1       2.596  -4.287  -3.780  1.00  0.00     0.004 C 
ENDBRANCH  16  17
ENDBRANCH  15  16
ENDBRANCH  14  15
ENDBRANCH  13  14
ENDBRANCH  12  13
ENDBRANCH  11  12
ENDBRANCH   1  11
TORSDOF 14
ENDMDL
MODEL 6
REMARK VINA RESULT:    -3.035     15.775     17.911
REMARK INTER + INTRA:          -7.530
REMARK INTER:                  -5.854
REMARK INTRA:                  -1.676
REMARK UNBOUND:                -2.010
REMARK SMILES CCCCCCCCCCCCCCCC(=O)[O-]
REMARK SMILES IDX 9 1 10 2 11 3 12 4 13 5 14 6 15 7 16 8 17 9 18 10 8 11 7 12
REMARK SMILES IDX 6 13 5 14 4 15 3 16 2 17 1 18
REMARK H PARENT
REMARK Flexibility Score: inf
ROOT
ATOM      1  C   UNL     1       0.821   8.515   3.233  1.00  0.00     0.000 C 
ENDROOT
BRANCH   1   2
ATOM      2  C   UNL     1      -0.293   7.532   3.641  1.00  0.00     0.000 C 
BRANCH   2   3
ATOM      3  C   UNL     1      -1.709   7.920   3.173  1.00  0.00     0.000 C 
BRANCH   3   4
ATOM      4  C   UNL     1      -2.531   8.614   4.273  1.00  0.00     0.000 C 
BRANCH   4   5
ATOM      5  C   UNL     1      -3.024  10.008   3.849  1.00  0.00     0.000 C 
BRANCH   5   6
ATOM      6  C   UNL     1      -4.559  10.125   3.870  1.00  0.00     0.006 C 
BRANCH   6   7
ATOM      7  C   UNL     1      -5.170   9.966   2.471  1.00  0.00     0.053 C 
BRANCH   7   8
ATOM      8  C   UNL     1      -6.118   8.809   2.404  1.00  0.00     0.041 C 
ATOM      9  O   UNL     1      -7.350   9.007   2.242  1.00  0.00    -0.550 OA
ATOM     10  O   UNL     1      -5.644   7.511   2.552  1.00  0.00    -0.550 OA
ENDBRANCH   7   8
ENDBRANCH   6   7
ENDBRANCH   5   6
ENDBRANCH   4   5
ENDBRANCH   3   4
ENDBRANCH   2   3
ENDBRANCH   1   2
BRANCH   1  11
ATOM     11  C   UNL     1       0.966   9.750   4.143  1.00  0.00     0.000 C 
BRANCH  11  12
ATOM     12  C   UNL     1       0.785   9.441   5.644  1.00  0.00    -0.000 C 
BRANCH  12  13
ATOM     13  C   UNL     1       1.978   9.920   6.489  1.00  0.00    -0.000 C 
BRANCH  13  14
ATOM     14  C   UNL     1       2.758   8.758   7.125  1.00  0.00    -0.000 C 
BRANCH  14  15
ATOM     15  C   UNL     1       2.459   7.407   6.451  1.00  0.00    -0.000 C 
BRANCH  15  16
ATOM     16  C   UNL     1       3.584   6.959   5.504  1.00  0.00    -0.000 C 
BRANCH  16  17
ATOM     17  C   UNL     1       3.268   5.631   4.802  1.00  0.00    -0.003 C 
ATOM     18  C   UNL     1       1.954   5.042   5.307  1.00  0.00     0.004 C 
ENDBRANCH  16  17
ENDBRANCH  15  16
ENDBRANCH  14  15
ENDBRANCH  13  14
ENDBRANCH  12  13
ENDBRANCH  11  12
ENDBRANCH   1  11
TORSDOF 14
ENDMDL
MODEL 7
REMARK VINA RESULT:    -3.006      4.594      7.115
REMARK INTER + INTRA:          -7.476
REMARK INTER:                  -5.847
REMARK INTRA:                  -1.629
REMARK UNBOUND:                -2.010
REMARK SMILES CCCCCCCCCCCCCCCC(=O)[O-]
REMARK SMILES IDX 9 1 10 2 11 3 12 4 13 5 14 6 15 7 16 8 17 9 18 10 8 11 7 12
REMARK SMILES IDX 6 13 5 14 4 15 3 16 2 17 1 18
REMARK H PARENT
REMARK Flexibility Score: inf
ROOT
ATOM      1  C   UNL     1      -6.180  -7.377  -1.504  1.00  0.00     0.000 C 
ENDROOT
BRANCH   1   2
ATOM      2  C   UNL     1      -7.116  -8.108  -0.523  1.00  0.00     0.000 C 
BRANCH   2   3
ATOM      3  C   UNL     1      -8.615  -7.797  -0.697  1.00  0.00     0.000 C 
BRANCH   3   4
ATOM      4  C   UNL     1      -8.928  -6.294  -0.599  1.00  0.00     0.000 C 
BRANCH   4   5
ATOM      5  C   UNL     1      -9.611  -5.921   0.728  1.00  0.00     0.000 C 
BRANCH   5   6
ATOM      6  C   UNL     1      -8.831  -6.420   1.957  1.00  0.00     0.006 C 
BRANCH   6   7
ATOM      7  C   UNL     1      -9.745  -7.109   2.980  1.00  0.00     0.053 C 
BRANCH   7   8
ATOM      8  C   UNL     1      -9.009  -8.140   3.780  1.00  0.00     0.041 C 
ATOM      9  O   UNL     1      -9.318  -8.347   4.982  1.00  0.00    -0.550 OA
ATOM     10  O   UNL     1      -7.961  -8.849   3.207  1.00  0.00    -0.550 OA
ENDBRANCH   7   8
ENDBRANCH   6   7
ENDBRANCH   5   6
ENDBRANCH   4   5
ENDBRANCH   3   4
ENDBRANCH   2   3
ENDBRANCH   1   2
BRANCH   1  11
ATOM     11  C   UNL     1      -5.635  -8.246  -2.654  1.00  0.00     0.000 C 
BRANCH  11  12
ATOM     12  C   UNL     1      -6.364  -8.027  -3.997  1.00  0.00    -0.000 C 
BRANCH  12  13
ATOM     13  C   UNL     1      -7.192  -9.253  -4.421  1.00  0.00    -0.000 C 
BRANCH  13  14
ATOM     14  C   UNL     1      -8.582  -8.872  -4.957  1.00  0.00    -0.000 C 
BRANCH  14  15
ATOM     15  C   UNL     1      -9.214  -7.702  -4.183  1.00  0.00    -0.000 C 
BRANCH  15  16
ATOM     16  C   UNL     1     -10.055  -6.784  -5.085  1.00  0.00    -0.000 C 
BRANCH  16  17
ATOM     17  C   UNL     1      -9.979  -5.310  -4.660  1.00  0.00    -0.003 C 
ATOM     18  C   UNL     1      -8.626  -4.990  -4.032  1.00  0.00     0.004 C 
ENDBRANCH  16  17
ENDBRANCH  15  16
ENDBRANCH  14  15
ENDBRANCH  13  14
ENDBRANCH  12  13
ENDBRANCH  11  12
ENDBRANCH   1  11
TORSDOF 14
ENDMDL
MODEL 8
REMARK VINA RESULT:    -2.952     15.708     18.145
REMARK INTER + INTRA:          -7.378
REMARK INTER:                  -6.557
REMARK INTRA:                  -0.822
REMARK UNBOUND:                -2.010
REMARK SMILES CCCCCCCCCCCCCCCC(=O)[O-]
REMARK SMILES IDX 9 1 10 2 11 3 12 4 13 5 14 6 15 7 16 8 17 9 18 10 8 11 7 12
REMARK SMILES IDX 6 13 5 14 4 15 3 16 2 17 1 18
REMARK H PARENT
REMARK Flexibility Score: inf
ROOT
ATOM      1  C   UNL     1      -1.253   9.194   4.000  1.00  0.00     0.000 C 
ENDROOT
BRANCH   1   2
ATOM      2  C   UNL     1       0.242   9.382   4.322  1.00  0.00     0.000 C 
BRANCH   2   3
ATOM      3  C   UNL     1       0.548   9.825   5.766  1.00  0.00     0.000 C 
BRANCH   3   4
ATOM      4  C   UNL     1       2.052  10.033   6.020  1.00  0.00     0.000 C 
BRANCH   4   5
ATOM      5  C   UNL     1       2.640   8.977   6.970  1.00  0.00     0.000 C 
BRANCH   5   6
ATOM      6  C   UNL     1       2.217   7.544   6.598  1.00  0.00     0.006 C 
BRANCH   6   7
ATOM      7  C   UNL     1       3.317   6.798   5.830  1.00  0.00     0.053 C 
BRANCH   7   8
ATOM      8  C   UNL     1       2.928   5.382   5.533  1.00  0.00     0.041 C 
ATOM      9  O   UNL     1       2.085   4.792   6.257  1.00  0.00    -0.550 OA
ATOM     10  O   UNL     1       3.523   4.703   4.477  1.00  0.00    -0.550 OA
ENDBRANCH   7   8
ENDBRANCH   6   7
ENDBRANCH   5   6
ENDBRANCH   4   5
ENDBRANCH   3   4
ENDBRANCH   2   3
ENDBRANCH   1   2
BRANCH   1  11
ATOM     11  C   UNL     1      -2.223   9.799   5.033  1.00  0.00     0.000 C 
BRANCH  11  12
ATOM     12  C   UNL     1      -3.704   9.738   4.603  1.00  0.00    -0.000 C 
BRANCH  12  13
ATOM     13  C   UNL     1      -4.151   8.310   4.241  1.00  0.00    -0.000 C 
BRANCH  13  14
ATOM     14  C   UNL     1      -5.148   8.281   3.072  1.00  0.00    -0.000 C 
BRANCH  14  15
ATOM     15  C   UNL     1      -5.466   9.686   2.530  1.00  0.00    -0.000 C 
BRANCH  15  16
ATOM     16  C   UNL     1      -6.798   9.736   1.764  1.00  0.00    -0.000 C 
BRANCH  16  17
ATOM     17  C   UNL     1      -8.015   9.744   2.701  1.00  0.00    -0.003 C 
ATOM     18  C   UNL     1      -9.009   8.652   2.318  1.00  0.00     0.004 C 
ENDBRANCH  16  17
ENDBRANCH  15  16
ENDBRANCH  14  15
ENDBRANCH  13  14
ENDBRANCH  12  13
ENDBRANCH  11  12
ENDBRANCH   1  11
TORSDOF 14
ENDMDL
