MODEL 1
REMARK VINA RESULT:     5.577      0.000      0.000
REMARK INTER + INTRA:          13.381
REMARK INTER:                  14.706
REMARK INTRA:                  -1.325
REMARK UNBOUND:                -1.325
REMARK SMILES CCCCCCCCCCCCCCCCCCCCCCCCCCCCCC(=O)[O-]
REMARK SMILES IDX 16 1 17 2 18 3 19 4 20 5 21 6 22 7 23 8 24 9 25 10 26 11
REMARK SMILES IDX 27 12 28 13 29 14 30 15 31 16 32 17 15 18 14 19 13 20 12 21
REMARK SMILES IDX 11 22 10 23 9 24 8 25 7 26 6 27 5 28 4 29 3 30 2 31 1 32
REMARK H PARENT
REMARK Flexibility Score: inf
ROOT
ATOM      1  C   UNL     1      19.338 -17.170  11.847  1.00  0.00     0.000 C 
ENDROOT
BRANCH   1   2
ATOM      2  C   UNL     1      20.608 -17.993  12.111  1.00  0.00     0.000 C 
BRANCH   2   3
ATOM      3  C   UNL     1      21.612 -17.919  10.948  1.00  0.00     0.000 C 
BRANCH   3   4
ATOM      4  C   UNL     1      23.045 -17.618  11.418  1.00  0.00     0.000 C 
BRANCH   4   5
ATOM      5  C   UNL     1      23.122 -17.105  12.873  1.00  0.00     0.000 C 
BRANCH   5   6
ATOM      6  C   UNL     1      23.115 -15.570  12.947  1.00  0.00     0.000 C 
BRANCH   6   7
ATOM      7  C   UNL     1      23.079 -15.091  14.407  1.00  0.00     0.000 C 
BRANCH   7   8
ATOM      8  C   UNL     1      21.647 -14.931  14.941  1.00  0.00     0.000 C 
BRANCH   8   9
ATOM      9  C   UNL     1      21.404 -15.734  16.231  1.00  0.00     0.000 C 
BRANCH   9  10
ATOM     10  C   UNL     1      22.321 -16.963  16.339  1.00  0.00     0.000 C 
BRANCH  10  11
ATOM     11  C   UNL     1      21.667 -18.117  17.120  1.00  0.00     0.000 C 
BRANCH  11  12
ATOM     12  C   UNL     1      20.129 -18.097  17.047  1.00  0.00     0.000 C 
BRANCH  12  13
ATOM     13  C   UNL     1      19.552 -17.686  15.680  1.00  0.00     0.006 C 
BRANCH  13  14
ATOM     14  C   UNL     1      18.022 -17.557  15.693  1.00  0.00     0.053 C 
BRANCH  14  15
ATOM     15  C   UNL     1      17.608 -16.147  15.410  1.00  0.00     0.041 C 
ATOM     16  O   UNL     1      17.614 -15.709  14.228  1.00  0.00    -0.550 OA
ATOM     17  O   UNL     1      17.208 -15.316  16.451  1.00  0.00    -0.550 OA
ENDBRANCH  14  15
ENDBRANCH  13  14
ENDBRANCH  12  13
ENDBRANCH  11  12
ENDBRANCH  10  11
ENDBRANCH   9  10
ENDBRANCH   8   9
ENDBRANCH   7   8
ENDBRANCH   6   7
ENDBRANCH   5   6
ENDBRANCH   4   5
ENDBRANCH   3   4
ENDBRANCH   2   3
ENDBRANCH   1   2
BRANCH   1  18
ATOM     18  C   UNL     1      18.251 -17.983  11.130  1.00  0.00     0.000 C 
BRANCH  18  19
ATOM     19  C   UNL     1      17.390 -17.088  10.232  1.00  0.00     0.000 C 
BRANCH  19  20
ATOM     20  C   UNL     1      18.159 -16.679   8.969  1.00  0.00     0.000 C 
BRANCH  20  21
ATOM     21  C   UNL     1      19.057 -15.465   9.236  1.00  0.00     0.000 C 
BRANCH  21  22
ATOM     22  C   UNL     1      18.439 -14.554  10.307  1.00  0.00     0.000 C 
BRANCH  22  23
ATOM     23  C   UNL     1      18.005 -13.185   9.754  1.00  0.00     0.000 C 
BRANCH  23  24
ATOM     24  C   UNL     1      17.972 -12.043  10.791  1.00  0.00    -0.000 C 
BRANCH  24  25
ATOM     25  C   UNL     1      17.260 -10.757  10.327  1.00  0.00    -0.000 C 
BRANCH  25  26
ATOM     26  C   UNL     1      18.096  -9.830   9.418  1.00  0.00    -0.000 C 
BRANCH  26  27
ATOM     27  C   UNL     1      17.514  -8.418   9.204  1.00  0.00    -0.000 C 
BRANCH  27  28
ATOM     28  C   UNL     1      15.985  -8.320   9.405  1.00  0.00    -0.000 C 
BRANCH  28  29
ATOM     29  C   UNL     1      15.199  -8.036   8.111  1.00  0.00    -0.000 C 
BRANCH  29  30
ATOM     30  C   UNL     1      14.048  -7.022   8.285  1.00  0.00    -0.000 C 
BRANCH  30  31
ATOM     31  C   UNL     1      14.194  -5.770   7.403  1.00  0.00    -0.003 C 
ATOM     32  C   UNL     1      15.180  -4.759   7.987  1.00  0.00     0.004 C 
ENDBRANCH  30  31
ENDBRANCH  29  30
ENDBRANCH  28  29
ENDBRANCH  27  28
ENDBRANCH  26  27
ENDBRANCH  25  26
ENDBRANCH  24  25
ENDBRANCH  23  24
ENDBRANCH  22  23
ENDBRANCH  21  22
ENDBRANCH  20  21
ENDBRANCH  19  20
ENDBRANCH  18  19
ENDBRANCH   1  18
TORSDOF 28
ENDMDL
MODEL 2
REMARK VINA RESULT:     6.471      3.149      9.439
REMARK INTER + INTRA:          15.738
REMARK INTER:                  13.831
REMARK INTRA:                   1.908
REMARK UNBOUND:                -1.325
REMARK SMILES CCCCCCCCCCCCCCCCCCCCCCCCCCCCCC(=O)[O-]
REMARK SMILES IDX 16 1 17 2 18 3 19 4 20 5 21 6 22 7 23 8 24 9 25 10 26 11
REMARK SMILES IDX 27 12 28 13 29 14 30 15 31 16 32 17 15 18 14 19 13 20 12 21
REMARK SMILES IDX 11 22 10 23 9 24 8 25 7 26 6 27 5 28 4 29 3 30 2 31 1 32
REMARK H PARENT
REMARK Flexibility Score: inf
ROOT
ATOM      1  C   UNL     1      19.197 -16.945  11.989  1.00  0.00     0.000 C 
ENDROOT
BRANCH   1   2
ATOM      2  C   UNL     1      17.965 -17.791  12.343  1.00  0.00     0.000 C 
BRANCH   2   3
ATOM      3  C   UNL     1      16.856 -17.694  11.282  1.00  0.00     0.000 C 
BRANCH   3   4
ATOM      4  C   UNL     1      17.384 -17.884   9.850  1.00  0.00     0.000 C 
BRANCH   4   5
ATOM      5  C   UNL     1      17.685 -16.554   9.123  1.00  0.00     0.000 C 
BRANCH   5   6
ATOM      6  C   UNL     1      18.441 -15.562  10.020  1.00  0.00     0.000 C 
BRANCH   6   7
ATOM      7  C   UNL     1      18.584 -14.197   9.329  1.00  0.00     0.000 C 
BRANCH   7   8
ATOM      8  C   UNL     1      18.569 -13.026  10.325  1.00  0.00     0.000 C 
BRANCH   8   9
ATOM      9  C   UNL     1      17.664 -11.871   9.865  1.00  0.00     0.000 C 
BRANCH   9  10
ATOM     10  C   UNL     1      18.116 -10.512  10.422  1.00  0.00     0.000 C 
BRANCH  10  11
ATOM     11  C   UNL     1      16.929  -9.615  10.818  1.00  0.00     0.000 C 
BRANCH  11  12
ATOM     12  C   UNL     1      15.577 -10.151  10.316  1.00  0.00     0.000 C 
BRANCH  12  13
ATOM     13  C   UNL     1      14.802  -9.191   9.395  1.00  0.00     0.006 C 
BRANCH  13  14
ATOM     14  C   UNL     1      15.465  -7.812   9.275  1.00  0.00     0.053 C 
BRANCH  14  15
ATOM     15  C   UNL     1      14.747  -6.966   8.270  1.00  0.00     0.041 C 
ATOM     16  O   UNL     1      13.836  -7.465   7.555  1.00  0.00    -0.550 OA
ATOM     17  O   UNL     1      15.078  -5.623   8.126  1.00  0.00    -0.550 OA
ENDBRANCH  14  15
ENDBRANCH  13  14
ENDBRANCH  12  13
ENDBRANCH  11  12
ENDBRANCH  10  11
ENDBRANCH   9  10
ENDBRANCH   8   9
ENDBRANCH   7   8
ENDBRANCH   6   7
ENDBRANCH   5   6
ENDBRANCH   4   5
ENDBRANCH   3   4
ENDBRANCH   2   3
ENDBRANCH   1   2
BRANCH   1  18
ATOM     18  C   UNL     1      20.162 -17.681  11.049  1.00  0.00     0.000 C 
BRANCH  18  19
ATOM     19  C   UNL     1      21.622 -17.374  11.402  1.00  0.00     0.000 C 
BRANCH  19  20
ATOM     20  C   UNL     1      21.857 -17.496  12.912  1.00  0.00     0.000 C 
BRANCH  20  21
ATOM     21  C   UNL     1      22.604 -16.272  13.457  1.00  0.00     0.000 C 
BRANCH  21  22
ATOM     22  C   UNL     1      21.633 -15.110  13.715  1.00  0.00     0.000 C 
BRANCH  22  23
ATOM     23  C   UNL     1      21.931 -14.356  15.023  1.00  0.00     0.000 C 
BRANCH  23  24
ATOM     24  C   UNL     1      22.152 -15.253  16.258  1.00  0.00    -0.000 C 
BRANCH  24  25
ATOM     25  C   UNL     1      23.124 -16.431  16.047  1.00  0.00    -0.000 C 
BRANCH  25  26
ATOM     26  C   UNL     1      22.890 -17.653  16.961  1.00  0.00    -0.000 C 
BRANCH  26  27
ATOM     27  C   UNL     1      21.425 -18.125  17.065  1.00  0.00    -0.000 C 
BRANCH  27  28
ATOM     28  C   UNL     1      20.385 -16.983  17.072  1.00  0.00    -0.000 C 
BRANCH  28  29
ATOM     29  C   UNL     1      19.272 -17.142  16.018  1.00  0.00    -0.000 C 
BRANCH  29  30
ATOM     30  C   UNL     1      18.206 -16.027  16.057  1.00  0.00    -0.000 C 
BRANCH  30  31
ATOM     31  C   UNL     1      16.778 -16.533  15.788  1.00  0.00    -0.003 C 
ATOM     32  C   UNL     1      15.755 -15.924  16.747  1.00  0.00     0.004 C 
ENDBRANCH  30  31
ENDBRANCH  29  30
ENDBRANCH  28  29
ENDBRANCH  27  28
ENDBRANCH  26  27
ENDBRANCH  25  26
ENDBRANCH  24  25
ENDBRANCH  23  24
ENDBRANCH  22  23
ENDBRANCH  21  22
ENDBRANCH  20  21
ENDBRANCH  19  20
ENDBRANCH  18  19
ENDBRANCH   1  18
TORSDOF 28
ENDMDL
MODEL 3
REMARK VINA RESULT:     6.473      3.130      9.346
REMARK INTER + INTRA:          15.744
REMARK INTER:                  14.564
REMARK INTRA:                   1.181
REMARK UNBOUND:                -1.325
REMARK SMILES CCCCCCCCCCCCCCCCCCCCCCCCCCCCCC(=O)[O-]
REMARK SMILES IDX 16 1 17 2 18 3 19 4 20 5 21 6 22 7 23 8 24 9 25 10 26 11
REMARK SMILES IDX 27 12 28 13 29 14 30 15 31 16 32 17 15 18 14 19 13 20 12 21
REMARK SMILES IDX 11 22 10 23 9 24 8 25 7 26 6 27 5 28 4 29 3 30 2 31 1 32
REMARK H PARENT
REMARK Flexibility Score: inf
ROOT
ATOM      1  C   UNL     1      19.406 -17.124  11.855  1.00  0.00     0.000 C 
ENDROOT
BRANCH   1   2
ATOM      2  C   UNL     1      18.254 -18.089  12.175  1.00  0.00     0.000 C 
BRANCH   2   3
ATOM      3  C   UNL     1      17.097 -17.983  11.168  1.00  0.00     0.000 C 
BRANCH   3   4
ATOM      4  C   UNL     1      17.574 -18.029   9.707  1.00  0.00     0.000 C 
BRANCH   4   5
ATOM      5  C   UNL     1      17.503 -16.661   8.993  1.00  0.00     0.000 C 
BRANCH   5   6
ATOM      6  C   UNL     1      18.890 -16.022   8.825  1.00  0.00     0.000 C 
BRANCH   6   7
ATOM      7  C   UNL     1      18.772 -14.513   8.560  1.00  0.00     0.000 C 
BRANCH   7   8
ATOM      8  C   UNL     1      18.055 -13.768   9.697  1.00  0.00     0.000 C 
BRANCH   8   9
ATOM      9  C   UNL     1      17.847 -12.276   9.386  1.00  0.00     0.000 C 
BRANCH   9  10
ATOM     10  C   UNL     1      17.940 -11.394  10.642  1.00  0.00     0.000 C 
BRANCH  10  11
ATOM     11  C   UNL     1      16.867 -10.291  10.667  1.00  0.00     0.000 C 
BRANCH  11  12
ATOM     12  C   UNL     1      17.381  -8.941  10.134  1.00  0.00     0.000 C 
BRANCH  12  13
ATOM     13  C   UNL     1      16.297  -7.862   9.955  1.00  0.00     0.006 C 
BRANCH  13  14
ATOM     14  C   UNL     1      14.991  -8.418   9.369  1.00  0.00     0.053 C 
BRANCH  14  15
ATOM     15  C   UNL     1      14.568  -7.623   8.174  1.00  0.00     0.041 C 
ATOM     16  O   UNL     1      14.971  -6.438   8.025  1.00  0.00    -0.550 OA
ATOM     17  O   UNL     1      13.734  -8.192   7.219  1.00  0.00    -0.550 OA
ENDBRANCH  14  15
ENDBRANCH  13  14
ENDBRANCH  12  13
ENDBRANCH  11  12
ENDBRANCH  10  11
ENDBRANCH   9  10
ENDBRANCH   8   9
ENDBRANCH   7   8
ENDBRANCH   6   7
ENDBRANCH   5   6
ENDBRANCH   4   5
ENDBRANCH   3   4
ENDBRANCH   2   3
ENDBRANCH   1   2
BRANCH   1  18
ATOM     18  C   UNL     1      20.400 -17.713  10.843  1.00  0.00     0.000 C 
BRANCH  18  19
ATOM     19  C   UNL     1      21.842 -17.333  11.197  1.00  0.00     0.000 C 
BRANCH  19  20
ATOM     20  C   UNL     1      22.295 -18.040  12.481  1.00  0.00     0.000 C 
BRANCH  20  21
ATOM     21  C   UNL     1      22.835 -17.034  13.505  1.00  0.00     0.000 C 
BRANCH  21  22
ATOM     22  C   UNL     1      21.714 -16.546  14.434  1.00  0.00     0.000 C 
BRANCH  22  23
ATOM     23  C   UNL     1      22.220 -16.159  15.836  1.00  0.00     0.000 C 
BRANCH  23  24
ATOM     24  C   UNL     1      21.286 -16.552  16.998  1.00  0.00    -0.000 C 
BRANCH  24  25
ATOM     25  C   UNL     1      20.737 -17.992  16.941  1.00  0.00    -0.000 C 
BRANCH  25  26
ATOM     26  C   UNL     1      19.210 -18.125  17.124  1.00  0.00    -0.000 C 
BRANCH  26  27
ATOM     27  C   UNL     1      18.360 -17.145  16.289  1.00  0.00    -0.000 C 
BRANCH  27  28
ATOM     28  C   UNL     1      17.122 -17.783  15.620  1.00  0.00    -0.000 C 
BRANCH  28  29
ATOM     29  C   UNL     1      16.645 -17.048  14.353  1.00  0.00    -0.000 C 
BRANCH  29  30
ATOM     30  C   UNL     1      15.263 -17.508  13.842  1.00  0.00    -0.000 C 
BRANCH  30  31
ATOM     31  C   UNL     1      14.276 -17.854  14.971  1.00  0.00    -0.003 C 
ATOM     32  C   UNL     1      14.863 -17.589  16.357  1.00  0.00     0.004 C 
ENDBRANCH  30  31
ENDBRANCH  29  30
ENDBRANCH  28  29
ENDBRANCH  27  28
ENDBRANCH  26  27
ENDBRANCH  25  26
ENDBRANCH  24  25
ENDBRANCH  23  24
ENDBRANCH  22  23
ENDBRANCH  21  22
ENDBRANCH  20  21
ENDBRANCH  19  20
ENDBRANCH  18  19
ENDBRANCH   1  18
TORSDOF 28
ENDMDL
MODEL 4
REMARK VINA RESULT:     7.334      1.643      3.958
REMARK INTER + INTRA:          18.013
REMARK INTER:                  20.506
REMARK INTRA:                  -2.493
REMARK UNBOUND:                -1.325
REMARK SMILES CCCCCCCCCCCCCCCCCCCCCCCCCCCCCC(=O)[O-]
REMARK SMILES IDX 16 1 17 2 18 3 19 4 20 5 21 6 22 7 23 8 24 9 25 10 26 11
REMARK SMILES IDX 27 12 28 13 29 14 30 15 31 16 32 17 15 18 14 19 13 20 12 21
REMARK SMILES IDX 11 22 10 23 9 24 8 25 7 26 6 27 5 28 4 29 3 30 2 31 1 32
REMARK H PARENT
REMARK Flexibility Score: inf
ROOT
ATOM      1  C   UNL     1      18.192 -14.681   8.984  1.00  0.00     0.000 C 
ENDROOT
BRANCH   1   2
ATOM      2  C   UNL     1      18.385 -16.160   9.349  1.00  0.00     0.000 C 
BRANCH   2   3
ATOM      3  C   UNL     1      19.313 -16.354  10.560  1.00  0.00     0.000 C 
BRANCH   3   4
ATOM      4  C   UNL     1      18.598 -16.992  11.763  1.00  0.00     0.000 C 
BRANCH   4   5
ATOM      5  C   UNL     1      19.446 -18.057  12.491  1.00  0.00     0.000 C 
BRANCH   5   6
ATOM      6  C   UNL     1      20.908 -18.055  12.020  1.00  0.00     0.000 C 
BRANCH   6   7
ATOM      7  C   UNL     1      21.826 -17.418  13.075  1.00  0.00     0.000 C 
BRANCH   7   8
ATOM      8  C   UNL     1      21.839 -15.883  12.996  1.00  0.00     0.000 C 
BRANCH   8   9
ATOM      9  C   UNL     1      21.425 -15.220  14.321  1.00  0.00     0.000 C 
BRANCH   9  10
ATOM     10  C   UNL     1      21.939 -15.988  15.550  1.00  0.00     0.000 C 
BRANCH  10  11
ATOM     11  C   UNL     1      20.992 -15.868  16.756  1.00  0.00     0.000 C 
BRANCH  11  12
ATOM     12  C   UNL     1      20.315 -17.200  17.125  1.00  0.00     0.000 C 
BRANCH  12  13
ATOM     13  C   UNL     1      19.256 -17.688  16.120  1.00  0.00     0.006 C 
BRANCH  13  14
ATOM     14  C   UNL     1      18.357 -16.556  15.602  1.00  0.00     0.053 C 
BRANCH  14  15
ATOM     15  C   UNL     1      17.101 -16.466  16.411  1.00  0.00     0.041 C 
ATOM     16  O   UNL     1      16.615 -15.341  16.705  1.00  0.00    -0.550 OA
ATOM     17  O   UNL     1      16.462 -17.626  16.835  1.00  0.00    -0.550 OA
ENDBRANCH  14  15
ENDBRANCH  13  14
ENDBRANCH  12  13
ENDBRANCH  11  12
ENDBRANCH  10  11
ENDBRANCH   9  10
ENDBRANCH   8   9
ENDBRANCH   7   8
ENDBRANCH   6   7
ENDBRANCH   5   6
ENDBRANCH   4   5
ENDBRANCH   3   4
ENDBRANCH   2   3
ENDBRANCH   1   2
BRANCH   1  18
ATOM     18  C   UNL     1      18.284 -13.758  10.208  1.00  0.00     0.000 C 
BRANCH  18  19
ATOM     19  C   UNL     1      17.413 -12.510  10.028  1.00  0.00     0.000 C 
BRANCH  19  20
ATOM     20  C   UNL     1      18.257 -11.233  10.132  1.00  0.00     0.000 C 
BRANCH  20  21
ATOM     21  C   UNL     1      17.468 -10.102  10.802  1.00  0.00     0.000 C 
BRANCH  21  22
ATOM     22  C   UNL     1      15.979 -10.185  10.439  1.00  0.00     0.000 C 
BRANCH  22  23
ATOM     23  C   UNL     1      15.330  -8.803  10.240  1.00  0.00     0.000 C 
BRANCH  23  24
ATOM     24  C   UNL     1      16.065  -7.873   9.254  1.00  0.00    -0.000 C 
BRANCH  24  25
ATOM     25  C   UNL     1      15.384  -7.705   7.880  1.00  0.00    -0.000 C 
BRANCH  25  26
ATOM     26  C   UNL     1      14.352  -6.561   7.789  1.00  0.00    -0.000 C 
BRANCH  26  27
ATOM     27  C   UNL     1      14.627  -5.354   8.709  1.00  0.00    -0.000 C 
BRANCH  27  28
ATOM     28  C   UNL     1      14.711  -3.997   7.976  1.00  0.00    -0.000 C 
BRANCH  28  29
ATOM     29  C   UNL     1      15.591  -2.952   8.688  1.00  0.00    -0.000 C 
BRANCH  29  30
ATOM     30  C   UNL     1      14.954  -2.358   9.963  1.00  0.00    -0.000 C 
BRANCH  30  31
ATOM     31  C   UNL     1      15.557  -1.005  10.377  1.00  0.00    -0.003 C 
ATOM     32  C   UNL     1      16.820  -0.665   9.587  1.00  0.00     0.004 C 
ENDBRANCH  30  31
ENDBRANCH  29  30
ENDBRANCH  28  29
ENDBRANCH  27  28
ENDBRANCH  26  27
ENDBRANCH  25  26
ENDBRANCH  24  25
ENDBRANCH  23  24
ENDBRANCH  22  23
ENDBRANCH  21  22
ENDBRANCH  20  21
ENDBRANCH  19  20
ENDBRANCH  18  19
ENDBRANCH   1  18
TORSDOF 28
ENDMDL
MODEL 5
REMARK VINA RESULT:     7.631      3.986     11.102
REMARK INTER + INTRA:          18.796
REMARK INTER:                  21.246
REMARK INTRA:                  -2.451
REMARK UNBOUND:                -1.325
REMARK SMILES CCCCCCCCCCCCCCCCCCCCCCCCCCCCCC(=O)[O-]
REMARK SMILES IDX 16 1 17 2 18 3 19 4 20 5 21 6 22 7 23 8 24 9 25 10 26 11
REMARK SMILES IDX 27 12 28 13 29 14 30 15 31 16 32 17 15 18 14 19 13 20 12 21
REMARK SMILES IDX 11 22 10 23 9 24 8 25 7 26 6 27 5 28 4 29 3 30 2 31 1 32
REMARK H PARENT
REMARK Flexibility Score: inf
ROOT
ATOM      1  C   UNL     1      18.611 -15.628  10.342  1.00  0.00     0.000 C 
ENDROOT
BRANCH   1   2
ATOM      2  C   UNL     1      18.307 -14.544   9.297  1.00  0.00     0.000 C 
BRANCH   2   3
ATOM      3  C   UNL     1      17.912 -13.202   9.935  1.00  0.00     0.000 C 
BRANCH   3   4
ATOM      4  C   UNL     1      18.717 -12.017   9.374  1.00  0.00     0.000 C 
BRANCH   4   5
ATOM      5  C   UNL     1      18.380 -10.669  10.050  1.00  0.00     0.000 C 
BRANCH   5   6
ATOM      6  C   UNL     1      16.962 -10.654  10.639  1.00  0.00     0.000 C 
BRANCH   6   7
ATOM      7  C   UNL     1      16.400  -9.225  10.683  1.00  0.00     0.000 C 
BRANCH   7   8
ATOM      8  C   UNL     1      15.651  -8.844   9.396  1.00  0.00     0.000 C 
BRANCH   8   9
ATOM      9  C   UNL     1      15.293  -7.349   9.342  1.00  0.00     0.000 C 
BRANCH   9  10
ATOM     10  C   UNL     1      14.778  -6.917   7.960  1.00  0.00     0.000 C 
BRANCH  10  11
ATOM     11  C   UNL     1      13.872  -5.676   8.032  1.00  0.00     0.000 C 
BRANCH  11  12
ATOM     12  C   UNL     1      14.460  -4.458   7.296  1.00  0.00     0.000 C 
BRANCH  12  13
ATOM     13  C   UNL     1      15.646  -3.782   8.008  1.00  0.00     0.006 C 
BRANCH  13  14
ATOM     14  C   UNL     1      15.386  -3.539   9.502  1.00  0.00     0.053 C 
BRANCH  14  15
ATOM     15  C   UNL     1      15.137  -2.087   9.765  1.00  0.00     0.041 C 
ATOM     16  O   UNL     1      13.964  -1.627   9.730  1.00  0.00    -0.550 OA
ATOM     17  O   UNL     1      16.201  -1.241  10.059  1.00  0.00    -0.550 OA
ENDBRANCH  14  15
ENDBRANCH  13  14
ENDBRANCH  12  13
ENDBRANCH  11  12
ENDBRANCH  10  11
ENDBRANCH   9  10
ENDBRANCH   8   9
ENDBRANCH   7   8
ENDBRANCH   6   7
ENDBRANCH   5   6
ENDBRANCH   4   5
ENDBRANCH   3   4
ENDBRANCH   2   3
ENDBRANCH   1   2
BRANCH   1  18
ATOM     18  C   UNL     1      19.481 -16.760   9.777  1.00  0.00     0.000 C 
BRANCH  18  19
ATOM     19  C   UNL     1      19.717 -17.854  10.824  1.00  0.00     0.000 C 
BRANCH  19  20
ATOM     20  C   UNL     1      21.209 -17.978  11.159  1.00  0.00     0.000 C 
BRANCH  20  21
ATOM     21  C   UNL     1      21.436 -17.986  12.676  1.00  0.00     0.000 C 
BRANCH  21  22
ATOM     22  C   UNL     1      22.834 -17.455  13.022  1.00  0.00     0.000 C 
BRANCH  22  23
ATOM     23  C   UNL     1      22.850 -15.942  13.308  1.00  0.00     0.000 C 
BRANCH  23  24
ATOM     24  C   UNL     1      23.106 -15.560  14.780  1.00  0.00    -0.000 C 
BRANCH  24  25
ATOM     25  C   UNL     1      21.850 -15.167  15.584  1.00  0.00    -0.000 C 
BRANCH  25  26
ATOM     26  C   UNL     1      21.385 -16.203  16.631  1.00  0.00    -0.000 C 
BRANCH  26  27
ATOM     27  C   UNL     1      20.375 -17.249  16.117  1.00  0.00    -0.000 C 
BRANCH  27  28
ATOM     28  C   UNL     1      18.926 -17.034  16.608  1.00  0.00    -0.000 C 
BRANCH  28  29
ATOM     29  C   UNL     1      18.217 -15.827  15.964  1.00  0.00    -0.000 C 
BRANCH  29  30
ATOM     30  C   UNL     1      17.819 -16.046  14.489  1.00  0.00    -0.000 C 
BRANCH  30  31
ATOM     31  C   UNL     1      17.354 -17.481  14.186  1.00  0.00    -0.003 C 
ATOM     32  C   UNL     1      16.730 -17.608  12.796  1.00  0.00     0.004 C 
ENDBRANCH  30  31
ENDBRANCH  29  30
ENDBRANCH  28  29
ENDBRANCH  27  28
ENDBRANCH  26  27
ENDBRANCH  25  26
ENDBRANCH  24  25
ENDBRANCH  23  24
ENDBRANCH  22  23
ENDBRANCH  21  22
ENDBRANCH  20  21
ENDBRANCH  19  20
ENDBRANCH  18  19
ENDBRANCH   1  18
TORSDOF 28
ENDMDL
MODEL 6
REMARK VINA RESULT:     8.121      1.877      4.459
REMARK INTER + INTRA:          20.089
REMARK INTER:                  21.557
REMARK INTRA:                  -1.468
REMARK UNBOUND:                -1.325
REMARK SMILES CCCCCCCCCCCCCCCCCCCCCCCCCCCCCC(=O)[O-]
REMARK SMILES IDX 16 1 17 2 18 3 19 4 20 5 21 6 22 7 23 8 24 9 25 10 26 11
REMARK SMILES IDX 27 12 28 13 29 14 30 15 31 16 32 17 15 18 14 19 13 20 12 21
REMARK SMILES IDX 11 22 10 23 9 24 8 25 7 26 6 27 5 28 4 29 3 30 2 31 1 32
REMARK H PARENT
REMARK Flexibility Score: inf
ROOT
ATOM      1  C   UNL     1      18.578 -16.648   9.368  1.00  0.00     0.000 C 
ENDROOT
BRANCH   1   2
ATOM      2  C   UNL     1      18.277 -16.963  10.841  1.00  0.00     0.000 C 
BRANCH   2   3
ATOM      3  C   UNL     1      16.806 -17.344  11.075  1.00  0.00     0.000 C 
BRANCH   3   4
ATOM      4  C   UNL     1      16.594 -18.125  12.383  1.00  0.00     0.000 C 
BRANCH   4   5
ATOM      5  C   UNL     1      16.652 -17.238  13.647  1.00  0.00     0.000 C 
BRANCH   5   6
ATOM      6  C   UNL     1      17.643 -17.777  14.689  1.00  0.00     0.000 C 
BRANCH   6   7
ATOM      7  C   UNL     1      17.103 -17.583  16.114  1.00  0.00     0.000 C 
BRANCH   7   8
ATOM      8  C   UNL     1      18.122 -16.906  17.045  1.00  0.00     0.000 C 
BRANCH   8   9
ATOM      9  C   UNL     1      19.559 -16.984  16.502  1.00  0.00     0.000 C 
BRANCH   9  10
ATOM     10  C   UNL     1      20.250 -15.611  16.468  1.00  0.00     0.000 C 
BRANCH  10  11
ATOM     11  C   UNL     1      21.769 -15.722  16.249  1.00  0.00     0.000 C 
BRANCH  11  12
ATOM     12  C   UNL     1      22.300 -14.726  15.202  1.00  0.00     0.000 C 
BRANCH  12  13
ATOM     13  C   UNL     1      23.104 -15.360  14.053  1.00  0.00     0.006 C 
BRANCH  13  14
ATOM     14  C   UNL     1      22.782 -16.848  13.850  1.00  0.00     0.053 C 
BRANCH  14  15
ATOM     15  C   UNL     1      21.661 -17.017  12.873  1.00  0.00     0.041 C 
ATOM     16  O   UNL     1      21.772 -17.826  11.913  1.00  0.00    -0.550 OA
ATOM     17  O   UNL     1      20.488 -16.287  13.026  1.00  0.00    -0.550 OA
ENDBRANCH  14  15
ENDBRANCH  13  14
ENDBRANCH  12  13
ENDBRANCH  11  12
ENDBRANCH  10  11
ENDBRANCH   9  10
ENDBRANCH   8   9
ENDBRANCH   7   8
ENDBRANCH   6   7
ENDBRANCH   5   6
ENDBRANCH   4   5
ENDBRANCH   3   4
ENDBRANCH   2   3
ENDBRANCH   1   2
BRANCH   1  18
ATOM     18  C   UNL     1      18.504 -15.145   9.063  1.00  0.00     0.000 C 
BRANCH  18  19
ATOM     19  C   UNL     1      18.032 -14.354  10.288  1.00  0.00     0.000 C 
BRANCH  19  20
ATOM     20  C   UNL     1      18.653 -12.951  10.307  1.00  0.00     0.000 C 
BRANCH  20  21
ATOM     21  C   UNL     1      17.775 -11.947   9.549  1.00  0.00     0.000 C 
BRANCH  21  22
ATOM     22  C   UNL     1      17.407 -10.758  10.447  1.00  0.00     0.000 C 
BRANCH  22  23
ATOM     23  C   UNL     1      16.856  -9.556   9.658  1.00  0.00     0.000 C 
BRANCH  23  24
ATOM     24  C   UNL     1      15.914  -8.630  10.454  1.00  0.00    -0.000 C 
BRANCH  24  25
ATOM     25  C   UNL     1      14.829  -7.923   9.616  1.00  0.00    -0.000 C 
BRANCH  25  26
ATOM     26  C   UNL     1      15.356  -6.959   8.531  1.00  0.00    -0.000 C 
BRANCH  26  27
ATOM     27  C   UNL     1      14.304  -5.998   7.940  1.00  0.00    -0.000 C 
BRANCH  27  28
ATOM     28  C   UNL     1      14.795  -4.544   7.762  1.00  0.00    -0.000 C 
BRANCH  28  29
ATOM     29  C   UNL     1      15.085  -3.813   9.088  1.00  0.00    -0.000 C 
BRANCH  29  30
ATOM     30  C   UNL     1      14.662  -2.329   9.092  1.00  0.00    -0.000 C 
BRANCH  30  31
ATOM     31  C   UNL     1      15.350  -1.498  10.189  1.00  0.00    -0.003 C 
ATOM     32  C   UNL     1      16.871  -1.483  10.039  1.00  0.00     0.004 C 
ENDBRANCH  30  31
ENDBRANCH  29  30
ENDBRANCH  28  29
ENDBRANCH  27  28
ENDBRANCH  26  27
ENDBRANCH  25  26
ENDBRANCH  24  25
ENDBRANCH  23  24
ENDBRANCH  22  23
ENDBRANCH  21  22
ENDBRANCH  20  21
ENDBRANCH  19  20
ENDBRANCH  18  19
ENDBRANCH   1  18
TORSDOF 28
ENDMDL
