MODEL 1
REMARK VINA RESULT:    -1.561      0.000      0.000
REMARK INTER + INTRA:          -4.253
REMARK INTER:                  -3.386
REMARK INTRA:                  -0.867
REMARK UNBOUND:                -0.867
REMARK SMILES CCCCCCCCCCCCCCCCCCCCCC(=O)[O-]
REMARK SMILES IDX 12 1 11 2 10 3 9 4 8 5 7 6 6 7 5 8 4 9 3 10 2 11 1 12 13 13
REMARK SMILES IDX 14 14 15 15 16 16 17 17 18 18 19 19 20 20 21 21 22 22 23 23
REMARK SMILES IDX 24 24
REMARK H PARENT
REMARK Flexibility Score: inf
ROOT
ATOM      1  C   UNL     1     -16.705  -6.277 -20.754  1.00  0.00     0.000 C 
ENDROOT
BRANCH   1   2
ATOM      2  C   UNL     1     -17.058  -5.844 -22.185  1.00  0.00     0.000 C 
BRANCH   2   3
ATOM      3  C   UNL     1     -16.852  -6.978 -23.213  1.00  0.00     0.000 C 
BRANCH   3   4
ATOM      4  C   UNL     1     -16.864  -6.498 -24.676  1.00  0.00    -0.000 C 
BRANCH   4   5
ATOM      5  C   UNL     1     -16.052  -7.370 -25.650  1.00  0.00    -0.000 C 
BRANCH   5   6
ATOM      6  C   UNL     1     -15.516  -8.690 -25.057  1.00  0.00    -0.000 C 
BRANCH   6   7
ATOM      7  C   UNL     1     -16.309  -9.948 -25.450  1.00  0.00    -0.000 C 
BRANCH   7   8
ATOM      8  C   UNL     1     -15.601 -11.253 -25.044  1.00  0.00    -0.000 C 
BRANCH   8   9
ATOM      9  C   UNL     1     -16.425 -12.504 -25.386  1.00  0.00    -0.000 C 
BRANCH   9  10
ATOM     10  C   UNL     1     -15.565 -13.773 -25.472  1.00  0.00    -0.000 C 
BRANCH  10  11
ATOM     11  C   UNL     1     -14.088 -13.453 -25.212  1.00  0.00    -0.003 C 
ATOM     12  C   UNL     1     -13.181 -14.556 -25.748  1.00  0.00     0.004 C 
ENDBRANCH  10  11
ENDBRANCH   9  10
ENDBRANCH   8   9
ENDBRANCH   7   8
ENDBRANCH   6   7
ENDBRANCH   5   6
ENDBRANCH   4   5
ENDBRANCH   3   4
ENDBRANCH   2   3
ENDBRANCH   1   2
BRANCH   1  13
ATOM     13  C   UNL     1     -15.573  -5.419 -20.179  1.00  0.00     0.000 C 
BRANCH  13  14
ATOM     14  C   UNL     1     -14.556  -6.288 -19.425  1.00  0.00     0.000 C 
BRANCH  14  15
ATOM     15  C   UNL     1     -13.549  -5.459 -18.613  1.00  0.00     0.000 C 
BRANCH  15  16
ATOM     16  C   UNL     1     -14.089  -5.055 -17.233  1.00  0.00     0.000 C 
BRANCH  16  17
ATOM     17  C   UNL     1     -13.643  -3.636 -16.862  1.00  0.00     0.000 C 
BRANCH  17  18
ATOM     18  C   UNL     1     -13.985  -3.316 -15.398  1.00  0.00     0.000 C 
BRANCH  18  19
ATOM     19  C   UNL     1     -12.996  -2.328 -14.761  1.00  0.00     0.000 C 
BRANCH  19  20
ATOM     20  C   UNL     1     -12.389  -2.864 -13.453  1.00  0.00     0.006 C 
BRANCH  20  21
ATOM     21  C   UNL     1     -13.363  -3.778 -12.695  1.00  0.00     0.053 C 
BRANCH  21  22
ATOM     22  C   UNL     1     -13.066  -3.807 -11.226  1.00  0.00     0.041 C 
ATOM     23  O   UNL     1     -13.710  -4.575 -10.465  1.00  0.00    -0.550 OA
ATOM     24  O   UNL     1     -12.100  -2.961 -10.696  1.00  0.00    -0.550 OA
ENDBRANCH  21  22
ENDBRANCH  20  21
ENDBRANCH  19  20
ENDBRANCH  18  19
ENDBRANCH  17  18
ENDBRANCH  16  17
ENDBRANCH  15  16
ENDBRANCH  14  15
ENDBRANCH  13  14
ENDBRANCH   1  13
TORSDOF 20
ENDMDL
MODEL 2
REMARK VINA RESULT:    -1.359      1.125      2.698
REMARK INTER + INTRA:          -3.814
REMARK INTER:                  -2.937
REMARK INTRA:                  -0.877
REMARK UNBOUND:                -0.867
REMARK SMILES CCCCCCCCCCCCCCCCCCCCCC(=O)[O-]
REMARK SMILES IDX 12 1 11 2 10 3 9 4 8 5 7 6 6 7 5 8 4 9 3 10 2 11 1 12 13 13
REMARK SMILES IDX 14 14 15 15 16 16 17 17 18 18 19 19 20 20 21 21 22 22 23 23
REMARK SMILES IDX 24 24
REMARK H PARENT
REMARK Flexibility Score: inf
ROOT
ATOM      1  C   UNL     1     -16.812  -6.047 -23.504  1.00  0.00     0.000 C 
ENDROOT
BRANCH   1   2
ATOM      2  C   UNL     1     -17.097  -7.284 -24.369  1.00  0.00     0.000 C 
BRANCH   2   3
ATOM      3  C   UNL     1     -15.991  -7.540 -25.415  1.00  0.00     0.000 C 
BRANCH   3   4
ATOM      4  C   UNL     1     -15.306  -8.912 -25.270  1.00  0.00    -0.000 C 
BRANCH   4   5
ATOM      5  C   UNL     1     -16.253 -10.122 -25.362  1.00  0.00    -0.000 C 
BRANCH   5   6
ATOM      6  C   UNL     1     -15.608 -11.485 -25.034  1.00  0.00    -0.000 C 
BRANCH   6   7
ATOM      7  C   UNL     1     -16.394 -12.711 -25.531  1.00  0.00    -0.000 C 
BRANCH   7   8
ATOM      8  C   UNL     1     -15.635 -14.033 -25.320  1.00  0.00    -0.000 C 
BRANCH   8   9
ATOM      9  C   UNL     1     -14.147 -13.817 -25.001  1.00  0.00    -0.000 C 
BRANCH   9  10
ATOM     10  C   UNL     1     -13.284 -15.037 -25.351  1.00  0.00    -0.000 C 
BRANCH  10  11
ATOM     11  C   UNL     1     -11.989 -14.610 -26.052  1.00  0.00    -0.003 C 
ATOM     12  C   UNL     1     -11.907 -13.093 -26.188  1.00  0.00     0.004 C 
ENDBRANCH  10  11
ENDBRANCH   9  10
ENDBRANCH   8   9
ENDBRANCH   7   8
ENDBRANCH   6   7
ENDBRANCH   5   6
ENDBRANCH   4   5
ENDBRANCH   3   4
ENDBRANCH   2   3
ENDBRANCH   1   2
BRANCH   1  13
ATOM     13  C   UNL     1     -16.796  -6.405 -22.014  1.00  0.00     0.000 C 
BRANCH  13  14
ATOM     14  C   UNL     1     -16.071  -5.323 -21.199  1.00  0.00     0.000 C 
BRANCH  14  15
ATOM     15  C   UNL     1     -15.779  -5.760 -19.756  1.00  0.00     0.000 C 
BRANCH  15  16
ATOM     16  C   UNL     1     -14.380  -6.373 -19.593  1.00  0.00     0.000 C 
BRANCH  16  17
ATOM     17  C   UNL     1     -13.781  -6.023 -18.226  1.00  0.00     0.000 C 
BRANCH  17  18
ATOM     18  C   UNL     1     -14.243  -4.633 -17.762  1.00  0.00     0.000 C 
BRANCH  18  19
ATOM     19  C   UNL     1     -13.842  -4.330 -16.310  1.00  0.00     0.000 C 
BRANCH  19  20
ATOM     20  C   UNL     1     -13.808  -2.821 -16.011  1.00  0.00     0.006 C 
BRANCH  20  21
ATOM     21  C   UNL     1     -12.997  -2.500 -14.748  1.00  0.00     0.053 C 
BRANCH  21  22
ATOM     22  C   UNL     1     -13.545  -3.204 -13.543  1.00  0.00     0.041 C 
ATOM     23  O   UNL     1     -12.764  -3.683 -12.679  1.00  0.00    -0.550 OA
ATOM     24  O   UNL     1     -14.917  -3.357 -13.392  1.00  0.00    -0.550 OA
ENDBRANCH  21  22
ENDBRANCH  20  21
ENDBRANCH  19  20
ENDBRANCH  18  19
ENDBRANCH  17  18
ENDBRANCH  16  17
ENDBRANCH  15  16
ENDBRANCH  14  15
ENDBRANCH  13  14
ENDBRANCH   1  13
TORSDOF 20
ENDMDL
MODEL 3
REMARK VINA RESULT:    -1.309      5.352     12.468
REMARK INTER + INTRA:          -3.706
REMARK INTER:                  -2.800
REMARK INTRA:                  -0.906
REMARK UNBOUND:                -0.867
REMARK SMILES CCCCCCCCCCCCCCCCCCCCCC(=O)[O-]
REMARK SMILES IDX 12 1 11 2 10 3 9 4 8 5 7 6 6 7 5 8 4 9 3 10 2 11 1 12 13 13
REMARK SMILES IDX 14 14 15 15 16 16 17 17 18 18 19 19 20 20 21 21 22 22 23 23
REMARK SMILES IDX 24 24
REMARK H PARENT
REMARK Flexibility Score: inf
ROOT
ATOM      1  C   UNL     1     -17.229  -6.541 -21.417  1.00  0.00     0.000 C 
ENDROOT
BRANCH   1   2
ATOM      2  C   UNL     1     -16.625  -5.695 -20.287  1.00  0.00     0.000 C 
BRANCH   2   3
ATOM      3  C   UNL     1     -15.088  -5.581 -20.392  1.00  0.00     0.000 C 
BRANCH   3   4
ATOM      4  C   UNL     1     -14.331  -6.430 -19.354  1.00  0.00    -0.000 C 
BRANCH   4   5
ATOM      5  C   UNL     1     -13.603  -5.623 -18.265  1.00  0.00    -0.000 C 
BRANCH   5   6
ATOM      6  C   UNL     1     -14.436  -4.496 -17.618  1.00  0.00    -0.000 C 
BRANCH   6   7
ATOM      7  C   UNL     1     -13.930  -4.021 -16.245  1.00  0.00    -0.000 C 
BRANCH   7   8
ATOM      8  C   UNL     1     -13.495  -2.544 -16.245  1.00  0.00    -0.000 C 
BRANCH   8   9
ATOM      9  C   UNL     1     -12.596  -2.191 -15.050  1.00  0.00    -0.000 C 
BRANCH   9  10
ATOM     10  C   UNL     1     -13.109  -2.782 -13.729  1.00  0.00    -0.000 C 
BRANCH  10  11
ATOM     11  C   UNL     1     -11.996  -2.819 -12.676  1.00  0.00    -0.003 C 
ATOM     12  C   UNL     1     -12.256  -3.902 -11.634  1.00  0.00     0.004 C 
ENDBRANCH  10  11
ENDBRANCH   9  10
ENDBRANCH   8   9
ENDBRANCH   7   8
ENDBRANCH   6   7
ENDBRANCH   5   6
ENDBRANCH   4   5
ENDBRANCH   3   4
ENDBRANCH   2   3
ENDBRANCH   1   2
BRANCH   1  13
ATOM     13  C   UNL     1     -16.720  -6.080 -22.787  1.00  0.00     0.000 C 
BRANCH  13  14
ATOM     14  C   UNL     1     -17.124  -7.076 -23.884  1.00  0.00     0.000 C 
BRANCH  14  15
ATOM     15  C   UNL     1     -16.350  -6.865 -25.194  1.00  0.00     0.000 C 
BRANCH  15  16
ATOM     16  C   UNL     1     -15.972  -8.187 -25.880  1.00  0.00     0.000 C 
BRANCH  16  17
ATOM     17  C   UNL     1     -15.749  -9.298 -24.848  1.00  0.00     0.000 C 
BRANCH  17  18
ATOM     18  C   UNL     1     -16.132 -10.670 -25.423  1.00  0.00     0.000 C 
BRANCH  18  19
ATOM     19  C   UNL     1     -15.201 -11.795 -24.943  1.00  0.00     0.000 C 
BRANCH  19  20
ATOM     20  C   UNL     1     -15.697 -13.189 -25.365  1.00  0.00     0.006 C 
BRANCH  20  21
ATOM     21  C   UNL     1     -14.670 -14.287 -25.054  1.00  0.00     0.053 C 
BRANCH  21  22
ATOM     22  C   UNL     1     -13.412 -14.110 -25.849  1.00  0.00     0.041 C 
ATOM     23  O   UNL     1     -13.373 -14.449 -27.060  1.00  0.00    -0.550 OA
ATOM     24  O   UNL     1     -12.272 -13.597 -25.241  1.00  0.00    -0.550 OA
ENDBRANCH  21  22
ENDBRANCH  20  21
ENDBRANCH  19  20
ENDBRANCH  18  19
ENDBRANCH  17  18
ENDBRANCH  16  17
ENDBRANCH  15  16
ENDBRANCH  14  15
ENDBRANCH  13  14
ENDBRANCH   1  13
TORSDOF 20
ENDMDL
MODEL 4
REMARK VINA RESULT:    -1.118      5.064     12.720
REMARK INTER + INTRA:          -3.291
REMARK INTER:                  -2.454
REMARK INTRA:                  -0.837
REMARK UNBOUND:                -0.867
REMARK SMILES CCCCCCCCCCCCCCCCCCCCCC(=O)[O-]
REMARK SMILES IDX 12 1 11 2 10 3 9 4 8 5 7 6 6 7 5 8 4 9 3 10 2 11 1 12 13 13
REMARK SMILES IDX 14 14 15 15 16 16 17 17 18 18 19 19 20 20 21 21 22 22 23 23
REMARK SMILES IDX 24 24
REMARK H PARENT
REMARK Flexibility Score: inf
ROOT
ATOM      1  C   UNL     1     -14.887  -6.462 -19.751  1.00  0.00     0.000 C 
ENDROOT
BRANCH   1   2
ATOM      2  C   UNL     1     -13.750  -5.700 -19.056  1.00  0.00     0.000 C 
BRANCH   2   3
ATOM      3  C   UNL     1     -14.110  -5.290 -17.611  1.00  0.00     0.000 C 
BRANCH   3   4
ATOM      4  C   UNL     1     -13.414  -3.999 -17.141  1.00  0.00    -0.000 C 
BRANCH   4   5
ATOM      5  C   UNL     1     -14.119  -3.269 -15.984  1.00  0.00    -0.000 C 
BRANCH   5   6
ATOM      6  C   UNL     1     -13.249  -2.238 -15.234  1.00  0.00    -0.000 C 
BRANCH   6   7
ATOM      7  C   UNL     1     -12.773  -2.682 -13.839  1.00  0.00    -0.000 C 
BRANCH   7   8
ATOM      8  C   UNL     1     -13.658  -3.783 -13.228  1.00  0.00    -0.000 C 
BRANCH   8   9
ATOM      9  C   UNL     1     -13.190  -4.209 -11.828  1.00  0.00    -0.000 C 
BRANCH   9  10
ATOM     10  C   UNL     1     -13.909  -3.447 -10.706  1.00  0.00    -0.000 C 
BRANCH  10  11
ATOM     11  C   UNL     1     -13.790  -4.193  -9.372  1.00  0.00    -0.003 C 
ATOM     12  C   UNL     1     -13.639  -5.695  -9.589  1.00  0.00     0.004 C 
ENDBRANCH  10  11
ENDBRANCH   9  10
ENDBRANCH   8   9
ENDBRANCH   7   8
ENDBRANCH   6   7
ENDBRANCH   5   6
ENDBRANCH   4   5
ENDBRANCH   3   4
ENDBRANCH   2   3
ENDBRANCH   1   2
BRANCH   1  13
ATOM     13  C   UNL     1     -15.960  -5.500 -20.274  1.00  0.00     0.000 C 
BRANCH  13  14
ATOM     14  C   UNL     1     -16.954  -6.233 -21.188  1.00  0.00     0.000 C 
BRANCH  14  15
ATOM     15  C   UNL     1     -16.774  -5.878 -22.671  1.00  0.00     0.000 C 
BRANCH  15  16
ATOM     16  C   UNL     1     -17.090  -7.055 -23.606  1.00  0.00     0.000 C 
BRANCH  16  17
ATOM     17  C   UNL     1     -16.468  -6.841 -24.991  1.00  0.00     0.000 C 
BRANCH  17  18
ATOM     18  C   UNL     1     -15.563  -8.021 -25.377  1.00  0.00     0.000 C 
BRANCH  18  19
ATOM     19  C   UNL     1     -16.339  -9.339 -25.523  1.00  0.00     0.000 C 
BRANCH  19  20
ATOM     20  C   UNL     1     -15.560 -10.545 -24.969  1.00  0.00     0.006 C 
BRANCH  20  21
ATOM     21  C   UNL     1     -16.231 -11.879 -25.323  1.00  0.00     0.053 C 
BRANCH  21  22
ATOM     22  C   UNL     1     -15.271 -13.026 -25.226  1.00  0.00     0.041 C 
ATOM     23  O   UNL     1     -15.698 -14.200 -25.072  1.00  0.00    -0.550 OA
ATOM     24  O   UNL     1     -13.902 -12.792 -25.274  1.00  0.00    -0.550 OA
ENDBRANCH  21  22
ENDBRANCH  20  21
ENDBRANCH  19  20
ENDBRANCH  18  19
ENDBRANCH  17  18
ENDBRANCH  16  17
ENDBRANCH  15  16
ENDBRANCH  14  15
ENDBRANCH  13  14
ENDBRANCH   1  13
TORSDOF 20
ENDMDL
MODEL 5
REMARK VINA RESULT:    -1.092      0.870      1.688
REMARK INTER + INTRA:          -3.237
REMARK INTER:                  -2.413
REMARK INTRA:                  -0.823
REMARK UNBOUND:                -0.867
REMARK SMILES CCCCCCCCCCCCCCCCCCCCCC(=O)[O-]
REMARK SMILES IDX 12 1 11 2 10 3 9 4 8 5 7 6 6 7 5 8 4 9 3 10 2 11 1 12 13 13
REMARK SMILES IDX 14 14 15 15 16 16 17 17 18 18 19 19 20 20 21 21 22 22 23 23
REMARK SMILES IDX 24 24
REMARK H PARENT
REMARK Flexibility Score: inf
ROOT
ATOM      1  C   UNL     1     -15.527  -5.392 -20.163  1.00  0.00     0.000 C 
ENDROOT
BRANCH   1   2
ATOM      2  C   UNL     1     -16.646  -6.254 -20.765  1.00  0.00     0.000 C 
BRANCH   2   3
ATOM      3  C   UNL     1     -16.963  -5.871 -22.228  1.00  0.00     0.000 C 
BRANCH   3   4
ATOM      4  C   UNL     1     -16.775  -7.029 -23.226  1.00  0.00    -0.000 C 
BRANCH   4   5
ATOM      5  C   UNL     1     -16.821  -6.619 -24.709  1.00  0.00    -0.000 C 
BRANCH   5   6
ATOM      6  C   UNL     1     -16.322  -7.692 -25.701  1.00  0.00    -0.000 C 
BRANCH   6   7
ATOM      7  C   UNL     1     -15.611  -8.893 -25.054  1.00  0.00    -0.000 C 
BRANCH   7   8
ATOM      8  C   UNL     1     -16.344 -10.224 -25.297  1.00  0.00    -0.000 C 
BRANCH   8   9
ATOM      9  C   UNL     1     -15.480 -11.447 -24.953  1.00  0.00    -0.000 C 
BRANCH   9  10
ATOM     10  C   UNL     1     -16.110 -12.767 -25.419  1.00  0.00    -0.000 C 
BRANCH  10  11
ATOM     11  C   UNL     1     -15.353 -13.970 -24.843  1.00  0.00    -0.003 C 
ATOM     12  C   UNL     1     -14.081 -14.254 -25.636  1.00  0.00     0.004 C 
ENDBRANCH  10  11
ENDBRANCH   9  10
ENDBRANCH   8   9
ENDBRANCH   7   8
ENDBRANCH   6   7
ENDBRANCH   5   6
ENDBRANCH   4   5
ENDBRANCH   3   4
ENDBRANCH   2   3
ENDBRANCH   1   2
BRANCH   1  13
ATOM     13  C   UNL     1     -14.795  -6.139 -19.042  1.00  0.00     0.000 C 
BRANCH  13  14
ATOM     14  C   UNL     1     -13.692  -5.264 -18.430  1.00  0.00     0.000 C 
BRANCH  14  15
ATOM     15  C   UNL     1     -14.008  -4.824 -16.993  1.00  0.00     0.000 C 
BRANCH  15  16
ATOM     16  C   UNL     1     -13.826  -3.314 -16.780  1.00  0.00     0.000 C 
BRANCH  16  17
ATOM     17  C   UNL     1     -13.542  -2.995 -15.308  1.00  0.00     0.000 C 
BRANCH  17  18
ATOM     18  C   UNL     1     -14.243  -4.000 -14.381  1.00  0.00     0.000 C 
BRANCH  18  19
ATOM     19  C   UNL     1     -14.097  -3.637 -12.895  1.00  0.00     0.000 C 
BRANCH  19  20
ATOM     20  C   UNL     1     -12.738  -4.066 -12.316  1.00  0.00     0.006 C 
BRANCH  20  21
ATOM     21  C   UNL     1     -12.586  -3.667 -10.842  1.00  0.00     0.053 C 
BRANCH  21  22
ATOM     22  C   UNL     1     -13.579  -4.374  -9.970  1.00  0.00     0.041 C 
ATOM     23  O   UNL     1     -14.379  -3.714  -9.255  1.00  0.00    -0.550 OA
ATOM     24  O   UNL     1     -13.599  -5.763  -9.924  1.00  0.00    -0.550 OA
ENDBRANCH  21  22
ENDBRANCH  20  21
ENDBRANCH  19  20
ENDBRANCH  18  19
ENDBRANCH  17  18
ENDBRANCH  16  17
ENDBRANCH  15  16
ENDBRANCH  14  15
ENDBRANCH  13  14
ENDBRANCH   1  13
TORSDOF 20
ENDMDL
MODEL 6
REMARK VINA RESULT:    -0.495      1.560      4.312
REMARK INTER + INTRA:          -1.941
REMARK INTER:                  -1.117
REMARK INTRA:                  -0.825
REMARK UNBOUND:                -0.867
REMARK SMILES CCCCCCCCCCCCCCCCCCCCCC(=O)[O-]
REMARK SMILES IDX 12 1 11 2 10 3 9 4 8 5 7 6 6 7 5 8 4 9 3 10 2 11 1 12 13 13
REMARK SMILES IDX 14 14 15 15 16 16 17 17 18 18 19 19 20 20 21 21 22 22 23 23
REMARK SMILES IDX 24 24
REMARK H PARENT
REMARK Flexibility Score: inf
ROOT
ATOM      1  C   UNL     1     -14.364  -5.065 -17.345  1.00  0.00     0.000 C 
ENDROOT
BRANCH   1   2
ATOM      2  C   UNL     1     -13.807  -5.397 -18.737  1.00  0.00     0.000 C 
BRANCH   2   3
ATOM      3  C   UNL     1     -14.754  -6.306 -19.550  1.00  0.00     0.000 C 
BRANCH   3   4
ATOM      4  C   UNL     1     -16.045  -5.603 -20.010  1.00  0.00    -0.000 C 
BRANCH   4   5
ATOM      5  C   UNL     1     -16.858  -6.369 -21.069  1.00  0.00    -0.000 C 
BRANCH   5   6
ATOM      6  C   UNL     1     -16.741  -5.820 -22.507  1.00  0.00    -0.000 C 
BRANCH   6   7
ATOM      7  C   UNL     1     -17.160  -6.805 -23.613  1.00  0.00    -0.000 C 
BRANCH   7   8
ATOM      8  C   UNL     1     -16.268  -6.713 -24.864  1.00  0.00    -0.000 C 
BRANCH   8   9
ATOM      9  C   UNL     1     -16.412  -7.935 -25.785  1.00  0.00    -0.000 C 
BRANCH   9  10
ATOM     10  C   UNL     1     -15.516  -9.106 -25.357  1.00  0.00    -0.000 C 
BRANCH  10  11
ATOM     11  C   UNL     1     -16.327 -10.402 -25.238  1.00  0.00    -0.003 C 
ATOM     12  C   UNL     1     -15.424 -11.594 -24.936  1.00  0.00     0.004 C 
ENDBRANCH  10  11
ENDBRANCH   9  10
ENDBRANCH   8   9
ENDBRANCH   7   8
ENDBRANCH   6   7
ENDBRANCH   5   6
ENDBRANCH   4   5
ENDBRANCH   3   4
ENDBRANCH   2   3
ENDBRANCH   1   2
BRANCH   1  13
ATOM     13  C   UNL     1     -13.404  -4.157 -16.567  1.00  0.00     0.000 C 
BRANCH  13  14
ATOM     14  C   UNL     1     -14.136  -2.917 -16.033  1.00  0.00     0.000 C 
BRANCH  14  15
ATOM     15  C   UNL     1     -13.528  -2.383 -14.727  1.00  0.00     0.000 C 
BRANCH  15  16
ATOM     16  C   UNL     1     -13.175  -3.502 -13.735  1.00  0.00     0.000 C 
BRANCH  16  17
ATOM     17  C   UNL     1     -12.127  -3.028 -12.721  1.00  0.00     0.000 C 
BRANCH  17  18
ATOM     18  C   UNL     1     -12.266  -3.784 -11.391  1.00  0.00     0.000 C 
BRANCH  18  19
ATOM     19  C   UNL     1     -13.479  -3.321 -10.570  1.00  0.00     0.000 C 
BRANCH  19  20
ATOM     20  C   UNL     1     -13.381  -3.731  -9.091  1.00  0.00     0.006 C 
BRANCH  20  21
ATOM     21  C   UNL     1     -12.453  -4.936  -8.886  1.00  0.00     0.053 C 
BRANCH  21  22
ATOM     22  C   UNL     1     -13.208  -6.231  -8.924  1.00  0.00     0.041 C 
ATOM     23  O   UNL     1     -14.466  -6.231  -8.934  1.00  0.00    -0.550 OA
ATOM     24  O   UNL     1     -12.518  -7.437  -8.918  1.00  0.00    -0.550 OA
ENDBRANCH  21  22
ENDBRANCH  20  21
ENDBRANCH  19  20
ENDBRANCH  18  19
ENDBRANCH  17  18
ENDBRANCH  16  17
ENDBRANCH  15  16
ENDBRANCH  14  15
ENDBRANCH  13  14
ENDBRANCH   1  13
TORSDOF 20
ENDMDL
MODEL 7
REMARK VINA RESULT:    -0.312      5.311     12.722
REMARK INTER + INTRA:          -1.543
REMARK INTER:                  -1.104
REMARK INTRA:                  -0.439
REMARK UNBOUND:                -0.867
REMARK SMILES CCCCCCCCCCCCCCCCCCCCCC(=O)[O-]
REMARK SMILES IDX 12 1 11 2 10 3 9 4 8 5 7 6 6 7 5 8 4 9 3 10 2 11 1 12 13 13
REMARK SMILES IDX 14 14 15 15 16 16 17 17 18 18 19 19 20 20 21 21 22 22 23 23
REMARK SMILES IDX 24 24
REMARK H PARENT
REMARK Flexibility Score: inf
ROOT
ATOM      1  C   UNL     1     -13.760  -5.655 -16.617  1.00  0.00     0.000 C 
ENDROOT
BRANCH   1   2
ATOM      2  C   UNL     1     -13.818  -4.636 -15.470  1.00  0.00     0.000 C 
BRANCH   2   3
ATOM      3  C   UNL     1     -14.013  -3.189 -15.976  1.00  0.00     0.000 C 
BRANCH   3   4
ATOM      4  C   UNL     1     -12.879  -2.231 -15.566  1.00  0.00    -0.000 C 
BRANCH   4   5
ATOM      5  C   UNL     1     -12.633  -2.130 -14.050  1.00  0.00    -0.000 C 
BRANCH   5   6
ATOM      6  C   UNL     1     -13.257  -3.262 -13.208  1.00  0.00    -0.000 C 
BRANCH   6   7
ATOM      7  C   UNL     1     -12.310  -3.904 -12.179  1.00  0.00    -0.000 C 
BRANCH   7   8
ATOM      8  C   UNL     1     -11.933  -2.946 -11.035  1.00  0.00    -0.000 C 
BRANCH   8   9
ATOM      9  C   UNL     1     -12.443  -3.427  -9.668  1.00  0.00    -0.000 C 
BRANCH   9  10
ATOM     10  C   UNL     1     -13.954  -3.697  -9.662  1.00  0.00    -0.000 C 
BRANCH  10  11
ATOM     11  C   UNL     1     -14.275  -5.008  -8.935  1.00  0.00    -0.003 C 
ATOM     12  C   UNL     1     -13.081  -5.957  -8.952  1.00  0.00     0.004 C 
ENDBRANCH  10  11
ENDBRANCH   9  10
ENDBRANCH   8   9
ENDBRANCH   7   8
ENDBRANCH   6   7
ENDBRANCH   5   6
ENDBRANCH   4   5
ENDBRANCH   3   4
ENDBRANCH   2   3
ENDBRANCH   1   2
BRANCH   1  13
ATOM     13  C   UNL     1     -13.882  -4.964 -17.980  1.00  0.00     0.000 C 
BRANCH  13  14
ATOM     14  C   UNL     1     -13.449  -5.906 -19.112  1.00  0.00     0.000 C 
BRANCH  14  15
ATOM     15  C   UNL     1     -14.562  -6.150 -20.143  1.00  0.00     0.000 C 
BRANCH  15  16
ATOM     16  C   UNL     1     -15.928  -5.623 -19.677  1.00  0.00     0.000 C 
BRANCH  16  17
ATOM     17  C   UNL     1     -17.042  -6.063 -20.634  1.00  0.00     0.000 C 
BRANCH  17  18
ATOM     18  C   UNL     1     -16.611  -5.892 -22.099  1.00  0.00     0.000 C 
BRANCH  18  19
ATOM     19  C   UNL     1     -17.375  -6.823 -23.053  1.00  0.00     0.000 C 
BRANCH  19  20
ATOM     20  C   UNL     1     -17.064  -6.533 -24.532  1.00  0.00     0.006 C 
BRANCH  20  21
ATOM     21  C   UNL     1     -15.722  -7.137 -24.970  1.00  0.00     0.053 C 
BRANCH  21  22
ATOM     22  C   UNL     1     -15.913  -8.291 -25.907  1.00  0.00     0.041 C 
ATOM     23  O   UNL     1     -16.096  -8.088 -27.136  1.00  0.00    -0.550 OA
ATOM     24  O   UNL     1     -15.919  -9.591 -25.416  1.00  0.00    -0.550 OA
ENDBRANCH  21  22
ENDBRANCH  20  21
ENDBRANCH  19  20
ENDBRANCH  18  19
ENDBRANCH  17  18
ENDBRANCH  16  17
ENDBRANCH  15  16
ENDBRANCH  14  15
ENDBRANCH  13  14
ENDBRANCH   1  13
TORSDOF 20
ENDMDL
