MODEL 1
REMARK VINA RESULT:    -6.293      0.000      0.000
REMARK INTER + INTRA:          -8.076
REMARK INTER:                  -7.765
REMARK INTRA:                  -0.311
REMARK UNBOUND:                -0.311
REMARK SMILES Oc1cc(O)c2cc(O)c(-c3cc(O)c(O)c(O)c3)[o+]c2c1.[Cl-]
REMARK SMILES IDX 10 1 20 2 21 3 22 4 2 5 3 6 4 7 6 8 7 9 8 10 11 11 12 12
REMARK SMILES IDX 13 13 19 14 15 15 17 16 14 17 16 19 18 21 9 23 1 25 5 27
REMARK H PARENT 14 18 16 20 18 22 9 24 1 26 5 28
REMARK Flexibility Score: inf
ROOT
ATOM      1  C   UNL     1      20.786  33.242  31.166  1.00  0.00     0.402 A 
ATOM      2  O   UNL     1      21.517  34.012  31.967  1.00  0.00    -0.202 OA
ATOM      3  C   UNL     1      21.694  33.759  33.260  1.00  0.00     0.368 A 
ATOM      4  C   UNL     1      22.478  34.628  34.022  1.00  0.00     0.162 A 
ATOM      5  C   UNL     1      22.679  34.389  35.382  1.00  0.00     0.128 A 
ATOM      6  C   UNL     1      22.091  33.273  35.987  1.00  0.00     0.093 A 
ATOM      7  C   UNL     1      21.301  32.387  35.246  1.00  0.00     0.136 A 
ATOM      8  C   UNL     1      21.097  32.624  33.862  1.00  0.00     0.125 A 
ATOM      9  C   UNL     1      20.331  31.783  33.038  1.00  0.00     0.078 A 
ATOM     10  C   UNL     1      20.179  32.081  31.680  1.00  0.00     0.223 A 
ENDROOT
BRANCH   1  11
ATOM     11  C   UNL     1      20.654  33.636  29.745  1.00  0.00     0.091 A 
ATOM     12  C   UNL     1      19.442  34.120  29.228  1.00  0.00     0.068 A 
ATOM     13  C   UNL     1      19.344  34.509  27.884  1.00  0.00     0.162 A 
ATOM     14  C   UNL     1      21.779  33.577  28.906  1.00  0.00     0.068 A 
ATOM     15  C   UNL     1      20.469  34.426  27.047  1.00  0.00     0.200 A 
ATOM     16  C   UNL     1      21.690  33.961  27.565  1.00  0.00     0.162 A 
BRANCH  13  17
ATOM     17  O   UNL     1      18.133  34.982  27.381  1.00  0.00    -0.504 OA
ATOM     18  H   UNL     1      18.088  35.517  26.521  1.00  0.00     0.293 HD
ENDBRANCH  13  17
BRANCH  15  19
ATOM     19  O   UNL     1      20.388  34.803  25.706  1.00  0.00    -0.502 OA
ATOM     20  H   UNL     1      20.317  35.773  25.422  1.00  0.00     0.293 HD
ENDBRANCH  15  19
BRANCH  16  21
ATOM     21  O   UNL     1      22.827  33.875  26.762  1.00  0.00    -0.504 OA
ATOM     22  H   UNL     1      23.123  33.003  26.339  1.00  0.00     0.293 HD
ENDBRANCH  16  21
ENDBRANCH   1  11
BRANCH  10  23
ATOM     23  O   UNL     1      19.461  31.219  30.852  1.00  0.00    -0.500 OA
ATOM     24  H   UNL     1      19.233  30.274  31.135  1.00  0.00     0.294 HD
ENDBRANCH  10  23
BRANCH   5  25
ATOM     25  O   UNL     1      23.465  35.268  36.125  1.00  0.00    -0.507 OA
ATOM     26  H   UNL     1      23.057  35.893  36.811  1.00  0.00     0.293 HD
ENDBRANCH   5  25
BRANCH   7  27
ATOM     27  O   UNL     1      20.747  31.297  35.924  1.00  0.00    -0.507 OA
ATOM     28  H   UNL     1      19.767  31.202  36.147  1.00  0.00     0.293 HD
ENDBRANCH   7  27
TORSDOF 7
ENDMDL
MODEL 2
REMARK VINA RESULT:    -5.915     15.112     18.106
REMARK INTER + INTRA:          -7.609
REMARK INTER:                  -7.708
REMARK INTRA:                   0.099
REMARK UNBOUND:                -0.311
REMARK SMILES Oc1cc(O)c2cc(O)c(-c3cc(O)c(O)c(O)c3)[o+]c2c1.[Cl-]
REMARK SMILES IDX 10 1 20 2 21 3 22 4 2 5 3 6 4 7 6 8 7 9 8 10 11 11 12 12
REMARK SMILES IDX 13 13 19 14 15 15 17 16 14 17 16 19 18 21 9 23 1 25 5 27
REMARK H PARENT 14 18 16 20 18 22 9 24 1 26 5 28
REMARK Flexibility Score: inf
ROOT
ATOM      1  C   UNL     1      18.045  21.282  20.926  1.00  0.00     0.402 A 
ATOM      2  O   UNL     1      18.418  20.186  20.272  1.00  0.00    -0.202 OA
ATOM      3  C   UNL     1      18.536  20.129  18.949  1.00  0.00     0.368 A 
ATOM      4  C   UNL     1      18.931  18.930  18.352  1.00  0.00     0.162 A 
ATOM      5  C   UNL     1      19.060  18.840  16.966  1.00  0.00     0.128 A 
ATOM      6  C   UNL     1      18.790  19.958  16.168  1.00  0.00     0.093 A 
ATOM      7  C   UNL     1      18.392  21.171  16.741  1.00  0.00     0.136 A 
ATOM      8  C   UNL     1      18.263  21.267  18.151  1.00  0.00     0.125 A 
ATOM      9  C   UNL     1      17.882  22.446  18.813  1.00  0.00     0.078 A 
ATOM     10  C   UNL     1      17.781  22.464  20.208  1.00  0.00     0.223 A 
ENDROOT
BRANCH   1  11
ATOM     11  C   UNL     1      17.941  21.217  22.401  1.00  0.00     0.091 A 
ATOM     12  C   UNL     1      16.954  21.933  23.098  1.00  0.00     0.068 A 
ATOM     13  C   UNL     1      16.857  21.841  24.494  1.00  0.00     0.162 A 
ATOM     14  C   UNL     1      18.809  20.379  23.118  1.00  0.00     0.068 A 
ATOM     15  C   UNL     1      17.745  21.017  25.205  1.00  0.00     0.200 A 
ATOM     16  C   UNL     1      18.721  20.281  24.510  1.00  0.00     0.162 A 
BRANCH  13  17
ATOM     17  O   UNL     1      15.877  22.562  25.175  1.00  0.00    -0.504 OA
ATOM     18  H   UNL     1      15.358  22.156  25.944  1.00  0.00     0.293 HD
ENDBRANCH  13  17
BRANCH  15  19
ATOM     19  O   UNL     1      17.667  20.917  26.594  1.00  0.00    -0.502 OA
ATOM     20  H   UNL     1      17.198  20.145  27.054  1.00  0.00     0.293 HD
ENDBRANCH  15  19
BRANCH  16  21
ATOM     21  O   UNL     1      19.612  19.448  25.186  1.00  0.00    -0.504 OA
ATOM     22  H   UNL     1      20.551  19.744  25.425  1.00  0.00     0.293 HD
ENDBRANCH  16  21
ENDBRANCH   1  11
BRANCH  10  23
ATOM     23  O   UNL     1      17.452  23.647  20.869  1.00  0.00    -0.500 OA
ATOM     24  H   UNL     1      16.954  24.397  20.405  1.00  0.00     0.294 HD
ENDBRANCH  10  23
BRANCH   5  25
ATOM     25  O   UNL     1      19.456  17.635  16.389  1.00  0.00    -0.507 OA
ATOM     26  H   UNL     1      19.621  16.808  16.951  1.00  0.00     0.293 HD
ENDBRANCH   5  25
BRANCH   7  27
ATOM     27  O   UNL     1      18.139  22.239  15.876  1.00  0.00    -0.507 OA
ATOM     28  H   UNL     1      18.841  22.887  15.550  1.00  0.00     0.293 HD
ENDBRANCH   7  27
TORSDOF 7
ENDMDL
MODEL 3
REMARK VINA RESULT:    -5.646     14.827     17.843
REMARK INTER + INTRA:          -7.278
REMARK INTER:                  -7.340
REMARK INTRA:                   0.062
REMARK UNBOUND:                -0.311
REMARK SMILES Oc1cc(O)c2cc(O)c(-c3cc(O)c(O)c(O)c3)[o+]c2c1.[Cl-]
REMARK SMILES IDX 10 1 20 2 21 3 22 4 2 5 3 6 4 7 6 8 7 9 8 10 11 11 12 12
REMARK SMILES IDX 13 13 19 14 15 15 17 16 14 17 16 19 18 21 9 23 1 25 5 27
REMARK H PARENT 14 18 16 20 18 22 9 24 1 26 5 28
REMARK Flexibility Score: inf
ROOT
ATOM      1  C   UNL     1      17.879  20.929  20.893  1.00  0.00     0.402 A 
ATOM      2  O   UNL     1      17.742  22.048  20.187  1.00  0.00    -0.202 OA
ATOM      3  C   UNL     1      17.775  22.081  18.859  1.00  0.00     0.368 A 
ATOM      4  C   UNL     1      17.624  23.307  18.205  1.00  0.00     0.162 A 
ATOM      5  C   UNL     1      17.658  23.372  16.812  1.00  0.00     0.128 A 
ATOM      6  C   UNL     1      17.846  22.204  16.064  1.00  0.00     0.093 A 
ATOM      7  C   UNL     1      17.999  20.964  16.695  1.00  0.00     0.136 A 
ATOM      8  C   UNL     1      17.962  20.893  18.112  1.00  0.00     0.125 A 
ATOM      9  C   UNL     1      18.094  19.692  18.829  1.00  0.00     0.078 A 
ATOM     10  C   UNL     1      18.043  19.701  20.226  1.00  0.00     0.223 A 
ENDROOT
BRANCH   1  11
ATOM     11  C   UNL     1      17.834  21.023  22.370  1.00  0.00     0.091 A 
ATOM     12  C   UNL     1      16.873  21.810  23.026  1.00  0.00     0.068 A 
ATOM     13  C   UNL     1      16.833  21.868  24.426  1.00  0.00     0.162 A 
ATOM     14  C   UNL     1      18.734  20.266  23.137  1.00  0.00     0.068 A 
ATOM     15  C   UNL     1      17.753  21.125  25.185  1.00  0.00     0.200 A 
ATOM     16  C   UNL     1      18.703  20.319  24.534  1.00  0.00     0.162 A 
BRANCH  13  17
ATOM     17  O   UNL     1      15.878  22.658  25.065  1.00  0.00    -0.504 OA
ATOM     18  H   UNL     1      15.584  22.470  26.016  1.00  0.00     0.293 HD
ENDBRANCH  13  17
BRANCH  15  19
ATOM     19  O   UNL     1      17.730  21.175  26.579  1.00  0.00    -0.502 OA
ATOM     20  H   UNL     1      17.102  20.602  27.130  1.00  0.00     0.293 HD
ENDBRANCH  15  19
BRANCH  16  21
ATOM     21  O   UNL     1      19.624  19.563  25.259  1.00  0.00    -0.504 OA
ATOM     22  H   UNL     1      19.383  19.116  26.135  1.00  0.00     0.293 HD
ENDBRANCH  16  21
ENDBRANCH   1  11
BRANCH  10  23
ATOM     23  O   UNL     1      18.123  18.504  20.936  1.00  0.00    -0.500 OA
ATOM     24  H   UNL     1      17.552  17.702  20.697  1.00  0.00     0.294 HD
ENDBRANCH  10  23
BRANCH   5  25
ATOM     25  O   UNL     1      17.506  24.604  16.179  1.00  0.00    -0.507 OA
ATOM     26  H   UNL     1      17.556  24.691  15.170  1.00  0.00     0.293 HD
ENDBRANCH   5  25
BRANCH   7  27
ATOM     27  O   UNL     1      18.185  19.845  15.878  1.00  0.00    -0.507 OA
ATOM     28  H   UNL     1      18.225  18.894  16.214  1.00  0.00     0.293 HD
ENDBRANCH   7  27
TORSDOF 7
ENDMDL
MODEL 4
REMARK VINA RESULT:    -5.594     12.549     15.693
REMARK INTER + INTRA:          -7.213
REMARK INTER:                  -7.110
REMARK INTRA:                  -0.103
REMARK UNBOUND:                -0.311
REMARK SMILES Oc1cc(O)c2cc(O)c(-c3cc(O)c(O)c(O)c3)[o+]c2c1.[Cl-]
REMARK SMILES IDX 10 1 20 2 21 3 22 4 2 5 3 6 4 7 6 8 7 9 8 10 11 11 12 12
REMARK SMILES IDX 13 13 19 14 15 15 17 16 14 17 16 19 18 21 9 23 1 25 5 27
REMARK H PARENT 14 18 16 20 18 22 9 24 1 26 5 28
REMARK Flexibility Score: inf
ROOT
ATOM      1  C   UNL     1      24.259  29.215  17.768  1.00  0.00     0.402 A 
ATOM      2  O   UNL     1      24.007  30.257  16.980  1.00  0.00    -0.202 OA
ATOM      3  C   UNL     1      23.220  31.267  17.337  1.00  0.00     0.368 A 
ATOM      4  C   UNL     1      23.013  32.317  16.439  1.00  0.00     0.162 A 
ATOM      5  C   UNL     1      22.189  33.389  16.784  1.00  0.00     0.128 A 
ATOM      6  C   UNL     1      21.565  33.412  18.037  1.00  0.00     0.093 A 
ATOM      7  C   UNL     1      21.756  32.372  18.954  1.00  0.00     0.136 A 
ATOM      8  C   UNL     1      22.596  31.282  18.608  1.00  0.00     0.125 A 
ATOM      9  C   UNL     1      22.855  30.203  19.469  1.00  0.00     0.078 A 
ATOM     10  C   UNL     1      23.699  29.166  19.058  1.00  0.00     0.223 A 
ENDROOT
BRANCH   1  11
ATOM     11  C   UNL     1      25.146  28.147  17.253  1.00  0.00     0.091 A 
ATOM     12  C   UNL     1      26.443  28.428  16.796  1.00  0.00     0.068 A 
ATOM     13  C   UNL     1      27.276  27.399  16.333  1.00  0.00     0.162 A 
ATOM     14  C   UNL     1      24.703  26.814  17.274  1.00  0.00     0.068 A 
ATOM     15  C   UNL     1      26.816  26.071  16.336  1.00  0.00     0.200 A 
ATOM     16  C   UNL     1      25.526  25.781  16.813  1.00  0.00     0.162 A 
BRANCH  13  17
ATOM     17  O   UNL     1      28.559  27.691  15.875  1.00  0.00    -0.504 OA
ATOM     18  H   UNL     1      29.148  28.371  16.342  1.00  0.00     0.293 HD
ENDBRANCH  13  17
BRANCH  15  19
ATOM     19  O   UNL     1      27.629  25.035  15.875  1.00  0.00    -0.502 OA
ATOM     20  H   UNL     1      28.515  24.809  16.311  1.00  0.00     0.293 HD
ENDBRANCH  15  19
BRANCH  16  21
ATOM     21  O   UNL     1      25.043  24.473  16.838  1.00  0.00    -0.504 OA
ATOM     22  H   UNL     1      24.096  24.253  17.120  1.00  0.00     0.293 HD
ENDBRANCH  16  21
ENDBRANCH   1  11
BRANCH  10  23
ATOM     23  O   UNL     1      23.996  28.120  19.931  1.00  0.00    -0.500 OA
ATOM     24  H   UNL     1      24.801  28.151  20.546  1.00  0.00     0.294 HD
ENDBRANCH  10  23
BRANCH   5  25
ATOM     25  O   UNL     1      21.995  34.427  15.875  1.00  0.00    -0.507 OA
ATOM     26  H   UNL     1      21.250  34.398  15.189  1.00  0.00     0.293 HD
ENDBRANCH   5  25
BRANCH   7  27
ATOM     27  O   UNL     1      21.096  32.469  20.183  1.00  0.00    -0.507 OA
ATOM     28  H   UNL     1      21.287  31.880  20.980  1.00  0.00     0.293 HD
ENDBRANCH   7  27
TORSDOF 7
ENDMDL
MODEL 5
REMARK VINA RESULT:    -5.590     11.463     13.698
REMARK INTER + INTRA:          -7.208
REMARK INTER:                  -7.474
REMARK INTRA:                   0.266
REMARK UNBOUND:                -0.311
REMARK SMILES Oc1cc(O)c2cc(O)c(-c3cc(O)c(O)c(O)c3)[o+]c2c1.[Cl-]
REMARK SMILES IDX 10 1 20 2 21 3 22 4 2 5 3 6 4 7 6 8 7 9 8 10 11 11 12 12
REMARK SMILES IDX 13 13 19 14 15 15 17 16 14 17 16 19 18 21 9 23 1 25 5 27
REMARK H PARENT 14 18 16 20 18 22 9 24 1 26 5 28
REMARK Flexibility Score: inf
ROOT
ATOM      1  C   UNL     1      31.392  26.916  34.810  1.00  0.00     0.402 A 
ATOM      2  O   UNL     1      31.593  28.134  35.304  1.00  0.00    -0.202 OA
ATOM      3  C   UNL     1      32.727  28.808  35.146  1.00  0.00     0.368 A 
ATOM      4  C   UNL     1      32.845  30.083  35.705  1.00  0.00     0.162 A 
ATOM      5  C   UNL     1      34.026  30.812  35.559  1.00  0.00     0.128 A 
ATOM      6  C   UNL     1      35.100  30.262  34.848  1.00  0.00     0.093 A 
ATOM      7  C   UNL     1      35.007  28.987  34.279  1.00  0.00     0.136 A 
ATOM      8  C   UNL     1      33.807  28.244  34.423  1.00  0.00     0.125 A 
ATOM      9  C   UNL     1      33.620  26.964  33.875  1.00  0.00     0.078 A 
ATOM     10  C   UNL     1      32.406  26.295  34.057  1.00  0.00     0.223 A 
ENDROOT
BRANCH   1  11
ATOM     11  C   UNL     1      30.087  26.264  35.062  1.00  0.00     0.091 A 
ATOM     12  C   UNL     1      29.933  24.871  34.966  1.00  0.00     0.068 A 
ATOM     13  C   UNL     1      28.694  24.270  35.230  1.00  0.00     0.162 A 
ATOM     14  C   UNL     1      28.991  27.045  35.462  1.00  0.00     0.068 A 
ATOM     15  C   UNL     1      27.597  25.063  35.608  1.00  0.00     0.200 A 
ATOM     16  C   UNL     1      27.751  26.455  35.727  1.00  0.00     0.162 A 
BRANCH  13  17
ATOM     17  O   UNL     1      28.552  22.887  35.124  1.00  0.00    -0.504 OA
ATOM     18  H   UNL     1      29.351  22.280  34.985  1.00  0.00     0.293 HD
ENDBRANCH  13  17
BRANCH  15  19
ATOM     19  O   UNL     1      26.356  24.482  35.870  1.00  0.00    -0.502 OA
ATOM     20  H   UNL     1      25.485  24.964  35.684  1.00  0.00     0.293 HD
ENDBRANCH  15  19
BRANCH  16  21
ATOM     21  O   UNL     1      26.684  27.268  36.107  1.00  0.00    -0.504 OA
ATOM     22  H   UNL     1      25.760  26.895  36.289  1.00  0.00     0.293 HD
ENDBRANCH  16  21
ENDBRANCH   1  11
BRANCH  10  23
ATOM     23  O   UNL     1      32.202  25.046  33.471  1.00  0.00    -0.500 OA
ATOM     24  H   UNL     1      32.793  24.705  32.722  1.00  0.00     0.294 HD
ENDBRANCH  10  23
BRANCH   5  25
ATOM     25  O   UNL     1      34.124  32.082  36.123  1.00  0.00    -0.507 OA
ATOM     26  H   UNL     1      33.322  32.538  36.543  1.00  0.00     0.293 HD
ENDBRANCH   5  25
BRANCH   7  27
ATOM     27  O   UNL     1      36.124  28.509  33.587  1.00  0.00    -0.507 OA
ATOM     28  H   UNL     1      36.954  29.052  33.401  1.00  0.00     0.293 HD
ENDBRANCH   7  27
TORSDOF 7
ENDMDL
MODEL 6
REMARK VINA RESULT:    -5.583      1.878      2.387
REMARK INTER + INTRA:          -7.200
REMARK INTER:                  -7.519
REMARK INTRA:                   0.319
REMARK UNBOUND:                -0.311
REMARK SMILES Oc1cc(O)c2cc(O)c(-c3cc(O)c(O)c(O)c3)[o+]c2c1.[Cl-]
REMARK SMILES IDX 10 1 20 2 21 3 22 4 2 5 3 6 4 7 6 8 7 9 8 10 11 11 12 12
REMARK SMILES IDX 13 13 19 14 15 15 17 16 14 17 16 19 18 21 9 23 1 25 5 27
REMARK H PARENT 14 18 16 20 18 22 9 24 1 26 5 28
REMARK Flexibility Score: inf
ROOT
ATOM      1  C   UNL     1      20.287  33.337  31.333  1.00  0.00     0.402 A 
ATOM      2  O   UNL     1      19.302  33.819  32.085  1.00  0.00    -0.202 OA
ATOM      3  C   UNL     1      19.160  33.528  33.374  1.00  0.00     0.368 A 
ATOM      4  C   UNL     1      18.089  34.081  34.082  1.00  0.00     0.162 A 
ATOM      5  C   UNL     1      17.913  33.791  35.436  1.00  0.00     0.128 A 
ATOM      6  C   UNL     1      18.812  32.940  36.088  1.00  0.00     0.093 A 
ATOM      7  C   UNL     1      19.892  32.373  35.402  1.00  0.00     0.136 A 
ATOM      8  C   UNL     1      20.077  32.668  34.026  1.00  0.00     0.125 A 
ATOM      9  C   UNL     1      21.138  32.155  33.262  1.00  0.00     0.078 A 
ATOM     10  C   UNL     1      21.256  32.495  31.910  1.00  0.00     0.223 A 
ENDROOT
BRANCH   1  11
ATOM     11  C   UNL     1      20.332  33.726  29.905  1.00  0.00     0.091 A 
ATOM     12  C   UNL     1      19.179  34.147  29.223  1.00  0.00     0.068 A 
ATOM     13  C   UNL     1      19.247  34.533  27.877  1.00  0.00     0.162 A 
ATOM     14  C   UNL     1      21.564  33.730  29.230  1.00  0.00     0.068 A 
ATOM     15  C   UNL     1      20.480  34.512  27.203  1.00  0.00     0.200 A 
ATOM     16  C   UNL     1      21.641  34.112  27.887  1.00  0.00     0.162 A 
BRANCH  13  17
ATOM     17  O   UNL     1      18.094  34.942  27.209  1.00  0.00    -0.504 OA
ATOM     18  H   UNL     1      17.480  34.278  26.753  1.00  0.00     0.293 HD
ENDBRANCH  13  17
BRANCH  15  19
ATOM     19  O   UNL     1      20.565  34.888  25.862  1.00  0.00    -0.502 OA
ATOM     20  H   UNL     1      21.430  34.827  25.339  1.00  0.00     0.293 HD
ENDBRANCH  15  19
BRANCH  16  21
ATOM     21  O   UNL     1      22.881  34.088  27.249  1.00  0.00    -0.504 OA
ATOM     22  H   UNL     1      23.030  33.588  26.381  1.00  0.00     0.293 HD
ENDBRANCH  16  21
ENDBRANCH   1  11
BRANCH  10  23
ATOM     23  O   UNL     1      22.337  32.027  31.164  1.00  0.00    -0.500 OA
ATOM     24  H   UNL     1      22.825  32.619  30.503  1.00  0.00     0.294 HD
ENDBRANCH  10  23
BRANCH   5  25
ATOM     25  O   UNL     1      16.840  34.353  36.124  1.00  0.00    -0.507 OA
ATOM     26  H   UNL     1      16.975  35.089  36.807  1.00  0.00     0.293 HD
ENDBRANCH   5  25
BRANCH   7  27
ATOM     27  O   UNL     1      20.744  31.532  36.124  1.00  0.00    -0.507 OA
ATOM     28  H   UNL     1      21.745  31.494  36.003  1.00  0.00     0.293 HD
ENDBRANCH   7  27
TORSDOF 7
ENDMDL
MODEL 7
REMARK VINA RESULT:    -5.564      1.936      3.000
REMARK INTER + INTRA:          -7.176
REMARK INTER:                  -7.484
REMARK INTRA:                   0.308
REMARK UNBOUND:                -0.311
REMARK SMILES Oc1cc(O)c2cc(O)c(-c3cc(O)c(O)c(O)c3)[o+]c2c1.[Cl-]
REMARK SMILES IDX 10 1 20 2 21 3 22 4 2 5 3 6 4 7 6 8 7 9 8 10 11 11 12 12
REMARK SMILES IDX 13 13 19 14 15 15 17 16 14 17 16 19 18 21 9 23 1 25 5 27
REMARK H PARENT 14 18 16 20 18 22 9 24 1 26 5 28
REMARK Flexibility Score: inf
ROOT
ATOM      1  C   UNL     1      20.379  33.386  31.292  1.00  0.00     0.402 A 
ATOM      2  O   UNL     1      19.377  33.913  31.991  1.00  0.00    -0.202 OA
ATOM      3  C   UNL     1      19.165  33.647  33.276  1.00  0.00     0.368 A 
ATOM      4  C   UNL     1      18.082  34.247  33.925  1.00  0.00     0.162 A 
ATOM      5  C   UNL     1      17.833  33.985  35.272  1.00  0.00     0.128 A 
ATOM      6  C   UNL     1      18.671  33.114  35.978  1.00  0.00     0.093 A 
ATOM      7  C   UNL     1      19.761  32.499  35.351  1.00  0.00     0.136 A 
ATOM      8  C   UNL     1      20.020  32.766  33.982  1.00  0.00     0.125 A 
ATOM      9  C   UNL     1      21.097  32.205  33.276  1.00  0.00     0.078 A 
ATOM     10  C   UNL     1      21.290  32.520  31.927  1.00  0.00     0.223 A 
ENDROOT
BRANCH   1  11
ATOM     11  C   UNL     1      20.505  33.751  29.863  1.00  0.00     0.091 A 
ATOM     12  C   UNL     1      21.719  33.602  29.173  1.00  0.00     0.068 A 
ATOM     13  C   UNL     1      21.812  33.932  27.814  1.00  0.00     0.162 A 
ATOM     14  C   UNL     1      19.374  34.203  29.165  1.00  0.00     0.068 A 
ATOM     15  C   UNL     1      20.680  34.406  27.128  1.00  0.00     0.200 A 
ATOM     16  C   UNL     1      19.458  34.537  27.809  1.00  0.00     0.162 A 
BRANCH  13  17
ATOM     17  O   UNL     1      23.025  33.787  27.141  1.00  0.00    -0.504 OA
ATOM     18  H   UNL     1      23.513  34.582  26.748  1.00  0.00     0.293 HD
ENDBRANCH  13  17
BRANCH  15  19
ATOM     19  O   UNL     1      20.756  34.744  25.777  1.00  0.00    -0.502 OA
ATOM     20  H   UNL     1      21.279  35.548  25.450  1.00  0.00     0.293 HD
ENDBRANCH  15  19
BRANCH  16  21
ATOM     21  O   UNL     1      18.315  34.996  27.155  1.00  0.00    -0.504 OA
ATOM     22  H   UNL     1      17.676  35.654  27.586  1.00  0.00     0.293 HD
ENDBRANCH  16  21
ENDBRANCH   1  11
BRANCH  10  23
ATOM     23  O   UNL     1      22.387  32.004  31.239  1.00  0.00    -0.500 OA
ATOM     24  H   UNL     1      22.361  31.091  30.801  1.00  0.00     0.294 HD
ENDBRANCH  10  23
BRANCH   5  25
ATOM     25  O   UNL     1      16.749  34.593  35.901  1.00  0.00    -0.507 OA
ATOM     26  H   UNL     1      15.992  34.049  36.297  1.00  0.00     0.293 HD
ENDBRANCH   5  25
BRANCH   7  27
ATOM     27  O   UNL     1      20.548  31.640  36.125  1.00  0.00    -0.507 OA
ATOM     28  H   UNL     1      20.481  31.555  37.128  1.00  0.00     0.293 HD
ENDBRANCH   7  27
TORSDOF 7
ENDMDL
MODEL 8
REMARK VINA RESULT:    -4.985     16.008     18.165
REMARK INTER + INTRA:          -6.462
REMARK INTER:                  -6.318
REMARK INTRA:                  -0.144
REMARK UNBOUND:                -0.311
REMARK SMILES Oc1cc(O)c2cc(O)c(-c3cc(O)c(O)c(O)c3)[o+]c2c1.[Cl-]
REMARK SMILES IDX 10 1 20 2 21 3 22 4 2 5 3 6 4 7 6 8 7 9 8 10 11 11 12 12
REMARK SMILES IDX 13 13 19 14 15 15 17 16 14 17 16 19 18 21 9 23 1 25 5 27
REMARK H PARENT 14 18 16 20 18 22 9 24 1 26 5 28
REMARK Flexibility Score: inf
ROOT
ATOM      1  C   UNL     1      17.964  20.521  19.726  1.00  0.00     0.402 A 
ATOM      2  O   UNL     1      17.562  21.721  19.317  1.00  0.00    -0.202 OA
ATOM      3  C   UNL     1      17.135  22.668  20.146  1.00  0.00     0.368 A 
ATOM      4  C   UNL     1      16.730  23.899  19.622  1.00  0.00     0.162 A 
ATOM      5  C   UNL     1      16.274  24.910  20.467  1.00  0.00     0.128 A 
ATOM      6  C   UNL     1      16.220  24.692  21.848  1.00  0.00     0.093 A 
ATOM      7  C   UNL     1      16.619  23.468  22.399  1.00  0.00     0.136 A 
ATOM      8  C   UNL     1      17.087  22.438  21.543  1.00  0.00     0.125 A 
ATOM      9  C   UNL     1      17.520  21.185  22.007  1.00  0.00     0.078 A 
ATOM     10  C   UNL     1      17.972  20.220  21.100  1.00  0.00     0.223 A 
ENDROOT
BRANCH   1  11
ATOM     11  C   UNL     1      18.408  19.545  18.704  1.00  0.00     0.091 A 
ATOM     12  C   UNL     1      19.483  19.824  17.844  1.00  0.00     0.068 A 
ATOM     13  C   UNL     1      19.903  18.879  16.898  1.00  0.00     0.162 A 
ATOM     14  C   UNL     1      17.781  18.291  18.628  1.00  0.00     0.068 A 
ATOM     15  C   UNL     1      19.255  17.635  16.814  1.00  0.00     0.200 A 
ATOM     16  C   UNL     1      18.193  17.343  17.687  1.00  0.00     0.162 A 
BRANCH  13  17
ATOM     17  O   UNL     1      20.967  19.170  16.045  1.00  0.00    -0.504 OA
ATOM     18  H   UNL     1      20.905  19.012  15.046  1.00  0.00     0.293 HD
ENDBRANCH  13  17
BRANCH  15  19
ATOM     19  O   UNL     1      19.657  16.684  15.875  1.00  0.00    -0.502 OA
ATOM     20  H   UNL     1      20.631  16.539  15.637  1.00  0.00     0.293 HD
ENDBRANCH  15  19
BRANCH  16  21
ATOM     21  O   UNL     1      17.534  16.115  17.635  1.00  0.00    -0.504 OA
ATOM     22  H   UNL     1      17.839  15.316  18.179  1.00  0.00     0.293 HD
ENDBRANCH  16  21
ENDBRANCH   1  11
BRANCH  10  23
ATOM     23  O   UNL     1      18.448  18.994  21.565  1.00  0.00    -0.500 OA
ATOM     24  H   UNL     1      19.123  18.936  22.318  1.00  0.00     0.294 HD
ENDBRANCH  10  23
BRANCH   5  25
ATOM     25  O   UNL     1      15.875  26.130  19.925  1.00  0.00    -0.507 OA
ATOM     26  H   UNL     1      15.051  26.206  19.340  1.00  0.00     0.293 HD
ENDBRANCH   5  25
BRANCH   7  27
ATOM     27  O   UNL     1      16.533  23.328  23.787  1.00  0.00    -0.507 OA
ATOM     28  H   UNL     1      16.817  22.504  24.296  1.00  0.00     0.293 HD
ENDBRANCH   7  27
TORSDOF 7
ENDMDL
