MODEL 1
REMARK VINA RESULT:    -1.466      0.000      0.000
REMARK INTER + INTRA:          -1.744
REMARK INTER:                  -3.696
REMARK INTRA:                   1.951
REMARK UNBOUND:                 1.951
REMARK SMILES CCCCCCCCCCCCCCCCCCCCCCCCCCCC(=O)[O-]
REMARK SMILES IDX 15 1 16 2 17 3 18 4 19 5 20 6 21 7 22 8 23 9 24 10 25 11
REMARK SMILES IDX 26 12 27 13 28 14 29 15 30 16 14 17 13 18 12 19 11 20 10 21
REMARK SMILES IDX 9 22 8 23 7 24 6 25 5 26 4 27 3 28 2 29 1 30
REMARK H PARENT
REMARK Flexibility Score: inf
ROOT
ATOM      1  C   UNL     1      22.490  22.283  -9.200  1.00  0.00     0.000 C 
ENDROOT
BRANCH   1   2
ATOM      2  C   UNL     1      23.564  23.024 -10.008  1.00  0.00     0.000 C 
BRANCH   2   3
ATOM      3  C   UNL     1      24.957  22.432  -9.743  1.00  0.00     0.000 C 
BRANCH   3   4
ATOM      4  C   UNL     1      25.663  21.966 -11.035  1.00  0.00     0.000 C 
BRANCH   4   5
ATOM      5  C   UNL     1      27.190  21.826 -10.893  1.00  0.00     0.000 C 
BRANCH   5   6
ATOM      6  C   UNL     1      27.989  23.122 -11.125  1.00  0.00     0.000 C 
BRANCH   6   7
ATOM      7  C   UNL     1      27.347  24.399 -10.542  1.00  0.00     0.000 C 
BRANCH   7   8
ATOM      8  C   UNL     1      28.030  24.952  -9.280  1.00  0.00     0.000 C 
BRANCH   8   9
ATOM      9  C   UNL     1      28.868  26.209  -9.556  1.00  0.00     0.000 C 
BRANCH   9  10
ATOM     10  C   UNL     1      28.360  26.943 -10.806  1.00  0.00     0.000 C 
BRANCH  10  11
ATOM     11  C   UNL     1      29.110  28.263 -11.055  1.00  0.00     0.000 C 
BRANCH  11  12
ATOM     12  C   UNL     1      28.656  29.382 -10.102  1.00  0.00     0.006 C 
BRANCH  12  13
ATOM     13  C   UNL     1      27.269  29.927 -10.466  1.00  0.00     0.053 C 
BRANCH  13  14
ATOM     14  C   UNL     1      26.171  29.006 -10.030  1.00  0.00     0.041 C 
ATOM     15  O   UNL     1      25.839  28.944  -8.818  1.00  0.00    -0.550 OA
ATOM     16  O   UNL     1      25.540  28.187 -10.960  1.00  0.00    -0.550 OA
ENDBRANCH  13  14
ENDBRANCH  12  13
ENDBRANCH  11  12
ENDBRANCH  10  11
ENDBRANCH   9  10
ENDBRANCH   8   9
ENDBRANCH   7   8
ENDBRANCH   6   7
ENDBRANCH   5   6
ENDBRANCH   4   5
ENDBRANCH   3   4
ENDBRANCH   2   3
ENDBRANCH   1   2
BRANCH   1  17
ATOM     17  C   UNL     1      22.708  20.759  -9.171  1.00  0.00     0.000 C 
BRANCH  17  18
ATOM     18  C   UNL     1      22.405  20.035 -10.495  1.00  0.00     0.000 C 
BRANCH  18  19
ATOM     19  C   UNL     1      21.076  19.266 -10.468  1.00  0.00     0.000 C 
BRANCH  19  20
ATOM     20  C   UNL     1      19.900  20.187 -10.823  1.00  0.00     0.000 C 
BRANCH  20  21
ATOM     21  C   UNL     1      18.599  19.413 -11.093  1.00  0.00     0.000 C 
BRANCH  21  22
ATOM     22  C   UNL     1      18.752  17.880 -11.114  1.00  0.00    -0.000 C 
BRANCH  22  23
ATOM     23  C   UNL     1      17.724  17.139 -10.229  1.00  0.00    -0.000 C 
BRANCH  23  24
ATOM     24  C   UNL     1      16.590  18.066  -9.756  1.00  0.00    -0.000 C 
BRANCH  24  25
ATOM     25  C   UNL     1      16.393  18.034  -8.231  1.00  0.00    -0.000 C 
BRANCH  25  26
ATOM     26  C   UNL     1      15.325  17.017  -7.796  1.00  0.00    -0.000 C 
BRANCH  26  27
ATOM     27  C   UNL     1      14.080  17.106  -8.686  1.00  0.00    -0.000 C 
BRANCH  27  28
ATOM     28  C   UNL     1      13.607  18.561  -8.821  1.00  0.00    -0.000 C 
BRANCH  28  29
ATOM     29  C   UNL     1      14.626  19.450  -9.551  1.00  0.00    -0.003 C 
ATOM     30  C   UNL     1      14.146  19.884 -10.936  1.00  0.00     0.004 C 
ENDBRANCH  28  29
ENDBRANCH  27  28
ENDBRANCH  26  27
ENDBRANCH  25  26
ENDBRANCH  24  25
ENDBRANCH  23  24
ENDBRANCH  22  23
ENDBRANCH  21  22
ENDBRANCH  20  21
ENDBRANCH  19  20
ENDBRANCH  18  19
ENDBRANCH  17  18
ENDBRANCH   1  17
TORSDOF 26
ENDMDL
MODEL 2
REMARK VINA RESULT:    -0.757      1.413      2.147
REMARK INTER + INTRA:           0.045
REMARK INTER:                   1.503
REMARK INTRA:                  -1.458
REMARK UNBOUND:                 1.951
REMARK SMILES CCCCCCCCCCCCCCCCCCCCCCCCCCCC(=O)[O-]
REMARK SMILES IDX 15 1 16 2 17 3 18 4 19 5 20 6 21 7 22 8 23 9 24 10 25 11
REMARK SMILES IDX 26 12 27 13 28 14 29 15 30 16 14 17 13 18 12 19 11 20 10 21
REMARK SMILES IDX 9 22 8 23 7 24 6 25 5 26 4 27 3 28 2 29 1 30
REMARK H PARENT
REMARK Flexibility Score: inf
ROOT
ATOM      1  C   UNL     1      22.645  21.962  -9.739  1.00  0.00     0.000 C 
ENDROOT
BRANCH   1   2
ATOM      2  C   UNL     1      23.905  22.138 -10.598  1.00  0.00     0.000 C 
BRANCH   2   3
ATOM      3  C   UNL     1      24.083  23.605 -11.019  1.00  0.00     0.000 C 
BRANCH   3   4
ATOM      4  C   UNL     1      25.566  24.020 -11.125  1.00  0.00     0.000 C 
BRANCH   4   5
ATOM      5  C   UNL     1      26.554  22.859 -10.905  1.00  0.00     0.000 C 
BRANCH   5   6
ATOM      6  C   UNL     1      27.097  22.729  -9.469  1.00  0.00     0.000 C 
BRANCH   6   7
ATOM      7  C   UNL     1      28.002  23.890  -9.005  1.00  0.00     0.000 C 
BRANCH   7   8
ATOM      8  C   UNL     1      29.086  24.311 -10.011  1.00  0.00     0.000 C 
BRANCH   8   9
ATOM      9  C   UNL     1      28.808  25.677 -10.654  1.00  0.00     0.000 C 
BRANCH   9  10
ATOM     10  C   UNL     1      28.129  26.626  -9.655  1.00  0.00     0.000 C 
BRANCH  10  11
ATOM     11  C   UNL     1      29.057  27.767  -9.208  1.00  0.00     0.000 C 
BRANCH  11  12
ATOM     12  C   UNL     1      28.497  28.535  -7.998  1.00  0.00     0.006 C 
BRANCH  12  13
ATOM     13  C   UNL     1      28.129  29.983  -8.349  1.00  0.00     0.053 C 
BRANCH  13  14
ATOM     14  C   UNL     1      27.633  30.110  -9.756  1.00  0.00     0.041 C 
ATOM     15  O   UNL     1      28.393  30.547 -10.660  1.00  0.00    -0.550 OA
ATOM     16  O   UNL     1      26.318  29.780 -10.063  1.00  0.00    -0.550 OA
ENDBRANCH  13  14
ENDBRANCH  12  13
ENDBRANCH  11  12
ENDBRANCH  10  11
ENDBRANCH   9  10
ENDBRANCH   8   9
ENDBRANCH   7   8
ENDBRANCH   6   7
ENDBRANCH   5   6
ENDBRANCH   4   5
ENDBRANCH   3   4
ENDBRANCH   2   3
ENDBRANCH   1   2
BRANCH   1  17
ATOM     17  C   UNL     1      22.165  20.501  -9.672  1.00  0.00     0.000 C 
BRANCH  17  18
ATOM     18  C   UNL     1      21.630  19.931 -10.998  1.00  0.00     0.000 C 
BRANCH  18  19
ATOM     19  C   UNL     1      21.468  18.404 -10.972  1.00  0.00     0.000 C 
BRANCH  19  20
ATOM     20  C   UNL     1      19.993  18.005 -11.125  1.00  0.00     0.000 C 
BRANCH  20  21
ATOM     21  C   UNL     1      19.531  17.010 -10.048  1.00  0.00     0.000 C 
BRANCH  21  22
ATOM     22  C   UNL     1      18.003  16.876  -9.905  1.00  0.00    -0.000 C 
BRANCH  22  23
ATOM     23  C   UNL     1      17.205  17.710 -10.932  1.00  0.00    -0.000 C 
BRANCH  23  24
ATOM     24  C   UNL     1      17.357  19.223 -10.695  1.00  0.00    -0.000 C 
BRANCH  24  25
ATOM     25  C   UNL     1      16.006  19.942 -10.550  1.00  0.00    -0.000 C 
BRANCH  25  26
ATOM     26  C   UNL     1      14.821  19.064 -10.984  1.00  0.00    -0.000 C 
BRANCH  26  27
ATOM     27  C   UNL     1      13.685  19.120  -9.956  1.00  0.00    -0.000 C 
BRANCH  27  28
ATOM     28  C   UNL     1      14.188  18.720  -8.562  1.00  0.00    -0.000 C 
BRANCH  28  29
ATOM     29  C   UNL     1      14.431  17.209  -8.431  1.00  0.00    -0.003 C 
ATOM     30  C   UNL     1      15.593  16.876  -7.495  1.00  0.00     0.004 C 
ENDBRANCH  28  29
ENDBRANCH  27  28
ENDBRANCH  26  27
ENDBRANCH  25  26
ENDBRANCH  24  25
ENDBRANCH  23  24
ENDBRANCH  22  23
ENDBRANCH  21  22
ENDBRANCH  20  21
ENDBRANCH  19  20
ENDBRANCH  18  19
ENDBRANCH  17  18
ENDBRANCH   1  17
TORSDOF 26
ENDMDL
MODEL 3
REMARK VINA RESULT:    -0.736      4.314     12.640
REMARK INTER + INTRA:           0.098
REMARK INTER:                  -0.117
REMARK INTRA:                   0.215
REMARK UNBOUND:                 1.951
REMARK SMILES CCCCCCCCCCCCCCCCCCCCCCCCCCCC(=O)[O-]
REMARK SMILES IDX 15 1 16 2 17 3 18 4 19 5 20 6 21 7 22 8 23 9 24 10 25 11
REMARK SMILES IDX 26 12 27 13 28 14 29 15 30 16 14 17 13 18 12 19 11 20 10 21
REMARK SMILES IDX 9 22 8 23 7 24 6 25 5 26 4 27 3 28 2 29 1 30
REMARK H PARENT
REMARK Flexibility Score: inf
ROOT
ATOM      1  C   UNL     1      21.655  22.856  -9.611  1.00  0.00     0.000 C 
ENDROOT
BRANCH   1   2
ATOM      2  C   UNL     1      20.324  22.295 -10.131  1.00  0.00     0.000 C 
BRANCH   2   3
ATOM      3  C   UNL     1      20.561  21.125 -11.098  1.00  0.00     0.000 C 
BRANCH   3   4
ATOM      4  C   UNL     1      21.732  20.218 -10.662  1.00  0.00     0.000 C 
BRANCH   4   5
ATOM      5  C   UNL     1      21.287  18.842 -10.130  1.00  0.00     0.000 C 
BRANCH   5   6
ATOM      6  C   UNL     1      20.472  17.992 -11.123  1.00  0.00     0.000 C 
BRANCH   6   7
ATOM      7  C   UNL     1      19.547  16.939 -10.476  1.00  0.00     0.000 C 
BRANCH   7   8
ATOM      8  C   UNL     1      18.126  16.876 -11.061  1.00  0.00     0.000 C 
BRANCH   8   9
ATOM      9  C   UNL     1      17.144  17.817 -10.348  1.00  0.00     0.000 C 
BRANCH   9  10
ATOM     10  C   UNL     1      17.512  19.287 -10.598  1.00  0.00     0.000 C 
BRANCH  10  11
ATOM     11  C   UNL     1      16.275  20.196 -10.678  1.00  0.00     0.000 C 
BRANCH  11  12
ATOM     12  C   UNL     1      15.191  19.799  -9.660  1.00  0.00     0.006 C 
BRANCH  12  13
ATOM     13  C   UNL     1      14.846  18.306  -9.735  1.00  0.00     0.053 C 
BRANCH  13  14
ATOM     14  C   UNL     1      14.152  17.828  -8.497  1.00  0.00     0.041 C 
ATOM     15  O   UNL     1      14.703  16.979  -7.748  1.00  0.00    -0.550 OA
ATOM     16  O   UNL     1      12.878  18.293  -8.189  1.00  0.00    -0.550 OA
ENDBRANCH  13  14
ENDBRANCH  12  13
ENDBRANCH  11  12
ENDBRANCH  10  11
ENDBRANCH   9  10
ENDBRANCH   8   9
ENDBRANCH   7   8
ENDBRANCH   6   7
ENDBRANCH   5   6
ENDBRANCH   4   5
ENDBRANCH   3   4
ENDBRANCH   2   3
ENDBRANCH   1   2
BRANCH   1  17
ATOM     17  C   UNL     1      22.518  23.475 -10.724  1.00  0.00     0.000 C 
BRANCH  17  18
ATOM     18  C   UNL     1      23.756  22.652 -11.121  1.00  0.00     0.000 C 
BRANCH  18  19
ATOM     19  C   UNL     1      24.995  22.987 -10.277  1.00  0.00     0.000 C 
BRANCH  19  20
ATOM     20  C   UNL     1      26.019  21.843 -10.325  1.00  0.00     0.000 C 
BRANCH  20  21
ATOM     21  C   UNL     1      27.339  22.255 -10.997  1.00  0.00     0.000 C 
BRANCH  21  22
ATOM     22  C   UNL     1      27.614  23.771 -11.007  1.00  0.00    -0.000 C 
BRANCH  22  23
ATOM     23  C   UNL     1      28.581  24.237  -9.895  1.00  0.00    -0.000 C 
BRANCH  23  24
ATOM     24  C   UNL     1      29.050  25.688 -10.103  1.00  0.00    -0.000 C 
BRANCH  24  25
ATOM     25  C   UNL     1      28.046  26.529 -10.909  1.00  0.00    -0.000 C 
BRANCH  25  26
ATOM     26  C   UNL     1      27.099  27.340 -10.010  1.00  0.00    -0.000 C 
BRANCH  26  27
ATOM     27  C   UNL     1      26.718  28.672 -10.667  1.00  0.00    -0.000 C 
BRANCH  27  28
ATOM     28  C   UNL     1      27.912  29.638 -10.679  1.00  0.00    -0.000 C 
BRANCH  28  29
ATOM     29  C   UNL     1      27.490  31.103 -10.493  1.00  0.00    -0.003 C 
ATOM     30  C   UNL     1      26.378  31.270  -9.458  1.00  0.00     0.004 C 
ENDBRANCH  28  29
ENDBRANCH  27  28
ENDBRANCH  26  27
ENDBRANCH  25  26
ENDBRANCH  24  25
ENDBRANCH  23  24
ENDBRANCH  22  23
ENDBRANCH  21  22
ENDBRANCH  20  21
ENDBRANCH  19  20
ENDBRANCH  18  19
ENDBRANCH  17  18
ENDBRANCH   1  17
TORSDOF 26
ENDMDL
MODEL 4
REMARK VINA RESULT:    -0.378     10.385     14.698
REMARK INTER + INTRA:           0.998
REMARK INTER:                   2.701
REMARK INTRA:                  -1.703
REMARK UNBOUND:                 1.951
REMARK SMILES CCCCCCCCCCCCCCCCCCCCCCCCCCCC(=O)[O-]
REMARK SMILES IDX 15 1 16 2 17 3 18 4 19 5 20 6 21 7 22 8 23 9 24 10 25 11
REMARK SMILES IDX 26 12 27 13 28 14 29 15 30 16 14 17 13 18 12 19 11 20 10 21
REMARK SMILES IDX 9 22 8 23 7 24 6 25 5 26 4 27 3 28 2 29 1 30
REMARK H PARENT
REMARK Flexibility Score: inf
ROOT
ATOM      1  C   UNL     1      25.712  24.731  -1.612  1.00  0.00     0.000 C 
ENDROOT
BRANCH   1   2
ATOM      2  C   UNL     1      26.945  24.275  -2.404  1.00  0.00     0.000 C 
BRANCH   2   3
ATOM      3  C   UNL     1      26.914  22.758  -2.644  1.00  0.00     0.000 C 
BRANCH   3   4
ATOM      4  C   UNL     1      28.283  22.194  -3.079  1.00  0.00     0.000 C 
BRANCH   4   5
ATOM      5  C   UNL     1      29.051  23.107  -4.053  1.00  0.00     0.000 C 
BRANCH   5   6
ATOM      6  C   UNL     1      29.049  22.643  -5.522  1.00  0.00     0.000 C 
BRANCH   6   7
ATOM      7  C   UNL     1      29.122  23.777  -6.566  1.00  0.00     0.000 C 
BRANCH   7   8
ATOM      8  C   UNL     1      28.082  23.690  -7.695  1.00  0.00     0.000 C 
BRANCH   8   9
ATOM      9  C   UNL     1      28.692  23.895  -9.088  1.00  0.00     0.000 C 
BRANCH   9  10
ATOM     10  C   UNL     1      27.748  24.706  -9.988  1.00  0.00     0.000 C 
BRANCH  10  11
ATOM     11  C   UNL     1      28.502  25.708 -10.878  1.00  0.00     0.000 C 
BRANCH  11  12
ATOM     12  C   UNL     1      27.964  27.142 -10.730  1.00  0.00     0.006 C 
BRANCH  12  13
ATOM     13  C   UNL     1      27.832  27.563  -9.260  1.00  0.00     0.053 C 
BRANCH  13  14
ATOM     14  C   UNL     1      27.729  29.049  -9.109  1.00  0.00     0.041 C 
ATOM     15  O   UNL     1      28.549  29.671  -8.386  1.00  0.00    -0.550 OA
ATOM     16  O   UNL     1      26.702  29.743  -9.739  1.00  0.00    -0.550 OA
ENDBRANCH  13  14
ENDBRANCH  12  13
ENDBRANCH  11  12
ENDBRANCH  10  11
ENDBRANCH   9  10
ENDBRANCH   8   9
ENDBRANCH   7   8
ENDBRANCH   6   7
ENDBRANCH   5   6
ENDBRANCH   4   5
ENDBRANCH   3   4
ENDBRANCH   2   3
ENDBRANCH   1   2
BRANCH   1  17
ATOM     17  C   UNL     1      26.074  25.529  -0.347  1.00  0.00     0.000 C 
BRANCH  17  18
ATOM     18  C   UNL     1      27.554  25.450   0.069  1.00  0.00     0.000 C 
BRANCH  18  19
ATOM     19  C   UNL     1      27.772  24.650   1.362  1.00  0.00     0.000 C 
BRANCH  19  20
ATOM     20  C   UNL     1      28.877  25.282   2.220  1.00  0.00     0.000 C 
BRANCH  20  21
ATOM     21  C   UNL     1      28.362  26.429   3.104  1.00  0.00     0.000 C 
BRANCH  21  22
ATOM     22  C   UNL     1      28.584  27.840   2.525  1.00  0.00    -0.000 C 
BRANCH  22  23
ATOM     23  C   UNL     1      29.125  28.858   3.553  1.00  0.00    -0.000 C 
BRANCH  23  24
ATOM     24  C   UNL     1      28.025  29.803   4.069  1.00  0.00    -0.000 C 
BRANCH  24  25
ATOM     25  C   UNL     1      27.631  29.518   5.528  1.00  0.00    -0.000 C 
BRANCH  25  26
ATOM     26  C   UNL     1      28.596  28.541   6.219  1.00  0.00    -0.000 C 
BRANCH  26  27
ATOM     27  C   UNL     1      29.124  29.124   7.535  1.00  0.00    -0.000 C 
BRANCH  27  28
ATOM     28  C   UNL     1      28.099  30.082   8.160  1.00  0.00    -0.000 C 
BRANCH  28  29
ATOM     29  C   UNL     1      28.758  31.203   8.978  1.00  0.00    -0.003 C 
ATOM     30  C   UNL     1      28.612  32.577   8.321  1.00  0.00     0.004 C 
ENDBRANCH  28  29
ENDBRANCH  27  28
ENDBRANCH  26  27
ENDBRANCH  25  26
ENDBRANCH  24  25
ENDBRANCH  23  24
ENDBRANCH  22  23
ENDBRANCH  21  22
ENDBRANCH  20  21
ENDBRANCH  19  20
ENDBRANCH  18  19
ENDBRANCH  17  18
ENDBRANCH   1  17
TORSDOF 26
ENDMDL
MODEL 5
REMARK VINA RESULT:     0.547     10.346     14.896
REMARK INTER + INTRA:           3.330
REMARK INTER:                   5.065
REMARK INTRA:                  -1.735
REMARK UNBOUND:                 1.951
REMARK SMILES CCCCCCCCCCCCCCCCCCCCCCCCCCCC(=O)[O-]
REMARK SMILES IDX 15 1 16 2 17 3 18 4 19 5 20 6 21 7 22 8 23 9 24 10 25 11
REMARK SMILES IDX 26 12 27 13 28 14 29 15 30 16 14 17 13 18 12 19 11 20 10 21
REMARK SMILES IDX 9 22 8 23 7 24 6 25 5 26 4 27 3 28 2 29 1 30
REMARK H PARENT
REMARK Flexibility Score: inf
ROOT
ATOM      1  C   UNL     1      25.655  24.741  -1.608  1.00  0.00     0.000 C 
ENDROOT
BRANCH   1   2
ATOM      2  C   UNL     1      26.819  24.310  -2.511  1.00  0.00     0.000 C 
BRANCH   2   3
ATOM      3  C   UNL     1      26.780  22.796  -2.772  1.00  0.00     0.000 C 
BRANCH   3   4
ATOM      4  C   UNL     1      28.169  22.213  -3.112  1.00  0.00     0.000 C 
BRANCH   4   5
ATOM      5  C   UNL     1      29.018  23.121  -4.021  1.00  0.00     0.000 C 
BRANCH   5   6
ATOM      6  C   UNL     1      29.003  22.746  -5.515  1.00  0.00     0.000 C 
BRANCH   6   7
ATOM      7  C   UNL     1      29.125  23.937  -6.489  1.00  0.00     0.000 C 
BRANCH   7   8
ATOM      8  C   UNL     1      27.831  24.300  -7.237  1.00  0.00     0.000 C 
BRANCH   8   9
ATOM      9  C   UNL     1      28.021  24.376  -8.758  1.00  0.00     0.000 C 
BRANCH   9  10
ATOM     10  C   UNL     1      27.180  23.305  -9.470  1.00  0.00     0.000 C 
BRANCH  10  11
ATOM     11  C   UNL     1      26.622  23.797 -10.817  1.00  0.00     0.000 C 
BRANCH  11  12
ATOM     12  C   UNL     1      25.092  23.662 -10.900  1.00  0.00     0.006 C 
BRANCH  12  13
ATOM     13  C   UNL     1      24.633  22.201 -10.808  1.00  0.00     0.053 C 
BRANCH  13  14
ATOM     14  C   UNL     1      23.533  22.020  -9.808  1.00  0.00     0.041 C 
ATOM     15  O   UNL     1      22.950  23.022  -9.318  1.00  0.00    -0.550 OA
ATOM     16  O   UNL     1      23.177  20.744  -9.388  1.00  0.00    -0.550 OA
ENDBRANCH  13  14
ENDBRANCH  12  13
ENDBRANCH  11  12
ENDBRANCH  10  11
ENDBRANCH   9  10
ENDBRANCH   8   9
ENDBRANCH   7   8
ENDBRANCH   6   7
ENDBRANCH   5   6
ENDBRANCH   4   5
ENDBRANCH   3   4
ENDBRANCH   2   3
ENDBRANCH   1   2
BRANCH   1  17
ATOM     17  C   UNL     1      26.120  25.515  -0.362  1.00  0.00     0.000 C 
BRANCH  17  18
ATOM     18  C   UNL     1      27.625  25.415  -0.058  1.00  0.00     0.000 C 
BRANCH  18  19
ATOM     19  C   UNL     1      27.930  24.579   1.194  1.00  0.00     0.000 C 
BRANCH  19  20
ATOM     20  C   UNL     1      29.036  25.233   2.035  1.00  0.00     0.000 C 
BRANCH  20  21
ATOM     21  C   UNL     1      28.501  26.329   2.971  1.00  0.00     0.000 C 
BRANCH  21  22
ATOM     22  C   UNL     1      28.633  27.764   2.426  1.00  0.00    -0.000 C 
BRANCH  22  23
ATOM     23  C   UNL     1      29.125  28.787   3.475  1.00  0.00    -0.000 C 
BRANCH  23  24
ATOM     24  C   UNL     1      27.979  29.660   4.017  1.00  0.00    -0.000 C 
BRANCH  24  25
ATOM     25  C   UNL     1      27.442  29.166   5.370  1.00  0.00    -0.000 C 
BRANCH  25  26
ATOM     26  C   UNL     1      28.476  28.335   6.148  1.00  0.00    -0.000 C 
BRANCH  26  27
ATOM     27  C   UNL     1      28.972  29.089   7.387  1.00  0.00    -0.000 C 
BRANCH  27  28
ATOM     28  C   UNL     1      28.191  30.397   7.582  1.00  0.00    -0.000 C 
BRANCH  28  29
ATOM     29  C   UNL     1      29.041  31.643   7.289  1.00  0.00    -0.003 C 
ATOM     30  C   UNL     1      28.954  32.691   8.399  1.00  0.00     0.004 C 
ENDBRANCH  28  29
ENDBRANCH  27  28
ENDBRANCH  26  27
ENDBRANCH  25  26
ENDBRANCH  24  25
ENDBRANCH  23  24
ENDBRANCH  22  23
ENDBRANCH  21  22
ENDBRANCH  20  21
ENDBRANCH  19  20
ENDBRANCH  18  19
ENDBRANCH  17  18
ENDBRANCH   1  17
TORSDOF 26
ENDMDL
