MODEL 1
REMARK VINA RESULT:    -5.658      0.000      0.000
REMARK INTER + INTRA:         -16.387
REMARK INTER:                 -12.936
REMARK INTRA:                  -3.451
REMARK UNBOUND:                -3.451
REMARK SMILES CCCCCCCCCCCCCCCCCCCCCCCC(=O)[O-]
REMARK SMILES IDX 13 1 14 2 15 3 16 4 17 5 18 6 19 7 20 8 21 9 22 10 23 11
REMARK SMILES IDX 24 12 25 13 26 14 12 15 11 16 10 17 9 18 8 19 7 20 6 21 5 22
REMARK SMILES IDX 4 23 3 24 2 25 1 26
REMARK H PARENT
REMARK Flexibility Score: inf
ROOT
ATOM      1  C   UNL     1      54.951  32.801  43.228  1.00  0.00     0.000 C 
ENDROOT
BRANCH   1   2
ATOM      2  C   UNL     1      55.742  33.920  42.534  1.00  0.00     0.000 C 
BRANCH   2   3
ATOM      3  C   UNL     1      55.637  35.262  43.278  1.00  0.00     0.000 C 
BRANCH   3   4
ATOM      4  C   UNL     1      56.047  36.466  42.410  1.00  0.00     0.000 C 
BRANCH   4   5
ATOM      5  C   UNL     1      55.158  36.724  41.175  1.00  0.00     0.000 C 
BRANCH   5   6
ATOM      6  C   UNL     1      54.097  37.825  41.347  1.00  0.00     0.000 C 
BRANCH   6   7
ATOM      7  C   UNL     1      52.819  37.319  42.038  1.00  0.00     0.000 C 
BRANCH   7   8
ATOM      8  C   UNL     1      52.484  38.119  43.315  1.00  0.00     0.000 C 
BRANCH   8   9
ATOM      9  C   UNL     1      53.673  38.923  43.878  1.00  0.00     0.000 C 
BRANCH   9  10
ATOM     10  C   UNL     1      54.351  38.302  45.111  1.00  0.00     0.006 C 
BRANCH  10  11
ATOM     11  C   UNL     1      53.596  37.077  45.649  1.00  0.00     0.053 C 
BRANCH  11  12
ATOM     12  C   UNL     1      53.323  37.218  47.115  1.00  0.00     0.041 C 
ATOM     13  O   UNL     1      52.659  38.197  47.545  1.00  0.00    -0.550 OA
ATOM     14  O   UNL     1      53.814  36.271  48.009  1.00  0.00    -0.550 OA
ENDBRANCH  11  12
ENDBRANCH  10  11
ENDBRANCH   9  10
ENDBRANCH   8   9
ENDBRANCH   7   8
ENDBRANCH   6   7
ENDBRANCH   5   6
ENDBRANCH   4   5
ENDBRANCH   3   4
ENDBRANCH   2   3
ENDBRANCH   1   2
BRANCH   1  15
ATOM     15  C   UNL     1      55.423  31.394  42.822  1.00  0.00     0.000 C 
BRANCH  15  16
ATOM     16  C   UNL     1      54.549  30.283  43.426  1.00  0.00     0.000 C 
BRANCH  16  17
ATOM     17  C   UNL     1      53.494  29.762  42.435  1.00  0.00     0.000 C 
BRANCH  17  18
ATOM     18  C   UNL     1      52.290  29.104  43.131  1.00  0.00    -0.000 C 
BRANCH  18  19
ATOM     19  C   UNL     1      50.952  29.847  42.961  1.00  0.00    -0.000 C 
BRANCH  19  20
ATOM     20  C   UNL     1      51.052  31.054  42.011  1.00  0.00    -0.000 C 
BRANCH  20  21
ATOM     21  C   UNL     1      50.655  32.378  42.687  1.00  0.00    -0.000 C 
BRANCH  21  22
ATOM     22  C   UNL     1      51.704  33.502  42.581  1.00  0.00    -0.000 C 
BRANCH  22  23
ATOM     23  C   UNL     1      51.758  34.390  43.837  1.00  0.00    -0.000 C 
BRANCH  23  24
ATOM     24  C   UNL     1      50.450  34.357  44.643  1.00  0.00    -0.000 C 
BRANCH  24  25
ATOM     25  C   UNL     1      50.194  35.667  45.403  1.00  0.00    -0.003 C 
ATOM     26  C   UNL     1      50.270  35.451  46.912  1.00  0.00     0.004 C 
ENDBRANCH  24  25
ENDBRANCH  23  24
ENDBRANCH  22  23
ENDBRANCH  21  22
ENDBRANCH  20  21
ENDBRANCH  19  20
ENDBRANCH  18  19
ENDBRANCH  17  18
ENDBRANCH  16  17
ENDBRANCH  15  16
ENDBRANCH   1  15
TORSDOF 22
ENDMDL
MODEL 2
REMARK VINA RESULT:    -5.622      4.455      5.758
REMARK INTER + INTRA:         -16.305
REMARK INTER:                 -13.729
REMARK INTRA:                  -2.576
REMARK UNBOUND:                -3.451
REMARK SMILES CCCCCCCCCCCCCCCCCCCCCCCC(=O)[O-]
REMARK SMILES IDX 13 1 14 2 15 3 16 4 17 5 18 6 19 7 20 8 21 9 22 10 23 11
REMARK SMILES IDX 24 12 25 13 26 14 12 15 11 16 10 17 9 18 8 19 7 20 6 21 5 22
REMARK SMILES IDX 4 23 3 24 2 25 1 26
REMARK H PARENT
REMARK Flexibility Score: inf
ROOT
ATOM      1  C   UNL     1      54.985  32.447  43.369  1.00  0.00     0.000 C 
ENDROOT
BRANCH   1   2
ATOM      2  C   UNL     1      55.979  32.982  42.328  1.00  0.00     0.000 C 
BRANCH   2   3
ATOM      3  C   UNL     1      55.634  34.407  41.863  1.00  0.00     0.000 C 
BRANCH   3   4
ATOM      4  C   UNL     1      56.039  35.488  42.882  1.00  0.00     0.000 C 
BRANCH   4   5
ATOM      5  C   UNL     1      56.223  36.907  42.304  1.00  0.00     0.000 C 
BRANCH   5   6
ATOM      6  C   UNL     1      55.152  37.349  41.292  1.00  0.00     0.000 C 
BRANCH   6   7
ATOM      7  C   UNL     1      55.741  37.701  39.915  1.00  0.00     0.000 C 
BRANCH   7   8
ATOM      8  C   UNL     1      57.166  38.286  40.018  1.00  0.00     0.000 C 
BRANCH   8   9
ATOM      9  C   UNL     1      57.935  38.296  38.681  1.00  0.00     0.000 C 
BRANCH   9  10
ATOM     10  C   UNL     1      57.177  37.681  37.492  1.00  0.00     0.006 C 
BRANCH  10  11
ATOM     11  C   UNL     1      58.018  37.647  36.207  1.00  0.00     0.053 C 
BRANCH  11  12
ATOM     12  C   UNL     1      57.225  38.141  35.036  1.00  0.00     0.041 C 
ATOM     13  O   UNL     1      57.619  39.141  34.379  1.00  0.00    -0.550 OA
ATOM     14  O   UNL     1      56.043  37.502  34.677  1.00  0.00    -0.550 OA
ENDBRANCH  11  12
ENDBRANCH  10  11
ENDBRANCH   9  10
ENDBRANCH   8   9
ENDBRANCH   7   8
ENDBRANCH   6   7
ENDBRANCH   5   6
ENDBRANCH   4   5
ENDBRANCH   3   4
ENDBRANCH   2   3
ENDBRANCH   1   2
BRANCH   1  15
ATOM     15  C   UNL     1      55.210  30.962  43.704  1.00  0.00     0.000 C 
BRANCH  15  16
ATOM     16  C   UNL     1      54.569  30.022  42.670  1.00  0.00     0.000 C 
BRANCH  16  17
ATOM     17  C   UNL     1      53.157  29.572  43.082  1.00  0.00     0.000 C 
BRANCH  17  18
ATOM     18  C   UNL     1      52.075  29.988  42.070  1.00  0.00    -0.000 C 
BRANCH  18  19
ATOM     19  C   UNL     1      50.692  30.286  42.678  1.00  0.00    -0.000 C 
BRANCH  19  20
ATOM     20  C   UNL     1      50.265  31.755  42.507  1.00  0.00    -0.000 C 
BRANCH  20  21
ATOM     21  C   UNL     1      51.460  32.724  42.490  1.00  0.00    -0.000 C 
BRANCH  21  22
ATOM     22  C   UNL     1      51.362  33.892  43.490  1.00  0.00    -0.000 C 
BRANCH  22  23
ATOM     23  C   UNL     1      52.336  35.040  43.167  1.00  0.00    -0.000 C 
BRANCH  23  24
ATOM     24  C   UNL     1      51.993  36.337  43.917  1.00  0.00    -0.000 C 
BRANCH  24  25
ATOM     25  C   UNL     1      53.218  36.964  44.598  1.00  0.00    -0.003 C 
ATOM     26  C   UNL     1      53.755  36.062  45.706  1.00  0.00     0.004 C 
ENDBRANCH  24  25
ENDBRANCH  23  24
ENDBRANCH  22  23
ENDBRANCH  21  22
ENDBRANCH  20  21
ENDBRANCH  19  20
ENDBRANCH  18  19
ENDBRANCH  17  18
ENDBRANCH  16  17
ENDBRANCH  15  16
ENDBRANCH   1  15
TORSDOF 22
ENDMDL
MODEL 3
REMARK VINA RESULT:    -5.553      5.271      9.435
REMARK INTER + INTRA:         -16.145
REMARK INTER:                 -12.867
REMARK INTRA:                  -3.279
REMARK UNBOUND:                -3.451
REMARK SMILES CCCCCCCCCCCCCCCCCCCCCCCC(=O)[O-]
REMARK SMILES IDX 13 1 14 2 15 3 16 4 17 5 18 6 19 7 20 8 21 9 22 10 23 11
REMARK SMILES IDX 24 12 25 13 26 14 12 15 11 16 10 17 9 18 8 19 7 20 6 21 5 22
REMARK SMILES IDX 4 23 3 24 2 25 1 26
REMARK H PARENT
REMARK Flexibility Score: inf
ROOT
ATOM      1  C   UNL     1      56.535  38.190  39.989  1.00  0.00     0.000 C 
ENDROOT
BRANCH   1   2
ATOM      2  C   UNL     1      55.476  37.973  41.081  1.00  0.00     0.000 C 
BRANCH   2   3
ATOM      3  C   UNL     1      54.079  37.699  40.499  1.00  0.00     0.000 C 
BRANCH   3   4
ATOM      4  C   UNL     1      52.988  38.600  41.105  1.00  0.00     0.000 C 
BRANCH   4   5
ATOM      5  C   UNL     1      53.501  39.796  41.935  1.00  0.00     0.000 C 
BRANCH   5   6
ATOM      6  C   UNL     1      52.903  39.922  43.347  1.00  0.00     0.000 C 
BRANCH   6   7
ATOM      7  C   UNL     1      52.902  38.590  44.117  1.00  0.00     0.000 C 
BRANCH   7   8
ATOM      8  C   UNL     1      54.310  38.199  44.617  1.00  0.00     0.000 C 
BRANCH   8   9
ATOM      9  C   UNL     1      54.658  36.713  44.405  1.00  0.00     0.000 C 
BRANCH   9  10
ATOM     10  C   UNL     1      53.446  35.775  44.268  1.00  0.00     0.006 C 
BRANCH  10  11
ATOM     11  C   UNL     1      53.439  35.005  42.939  1.00  0.00     0.053 C 
BRANCH  11  12
ATOM     12  C   UNL     1      54.661  34.147  42.812  1.00  0.00     0.041 C 
ATOM     13  O   UNL     1      54.813  33.144  43.559  1.00  0.00    -0.550 OA
ATOM     14  O   UNL     1      55.639  34.463  41.875  1.00  0.00    -0.550 OA
ENDBRANCH  11  12
ENDBRANCH  10  11
ENDBRANCH   9  10
ENDBRANCH   8   9
ENDBRANCH   7   8
ENDBRANCH   6   7
ENDBRANCH   5   6
ENDBRANCH   4   5
ENDBRANCH   3   4
ENDBRANCH   2   3
ENDBRANCH   1   2
BRANCH   1  15
ATOM     15  C   UNL     1      56.284  37.336  38.734  1.00  0.00     0.000 C 
BRANCH  15  16
ATOM     16  C   UNL     1      57.205  37.724  37.565  1.00  0.00     0.000 C 
BRANCH  16  17
ATOM     17  C   UNL     1      58.353  38.649  38.005  1.00  0.00     0.000 C 
BRANCH  17  18
ATOM     18  C   UNL     1      59.742  38.019  37.802  1.00  0.00    -0.000 C 
BRANCH  18  19
ATOM     19  C   UNL     1      60.926  38.881  38.281  1.00  0.00    -0.000 C 
BRANCH  19  20
ATOM     20  C   UNL     1      61.695  39.541  37.122  1.00  0.00    -0.000 C 
BRANCH  20  21
ATOM     21  C   UNL     1      61.499  38.806  35.783  1.00  0.00    -0.000 C 
BRANCH  21  22
ATOM     22  C   UNL     1      60.850  39.650  34.669  1.00  0.00    -0.000 C 
BRANCH  22  23
ATOM     23  C   UNL     1      59.946  40.770  35.216  1.00  0.00    -0.000 C 
BRANCH  23  24
ATOM     24  C   UNL     1      58.474  40.594  34.810  1.00  0.00    -0.000 C 
BRANCH  24  25
ATOM     25  C   UNL     1      58.221  39.269  34.076  1.00  0.00    -0.003 C 
ATOM     26  C   UNL     1      56.743  38.890  34.121  1.00  0.00     0.004 C 
ENDBRANCH  24  25
ENDBRANCH  23  24
ENDBRANCH  22  23
ENDBRANCH  21  22
ENDBRANCH  20  21
ENDBRANCH  19  20
ENDBRANCH  18  19
ENDBRANCH  17  18
ENDBRANCH  16  17
ENDBRANCH  15  16
ENDBRANCH   1  15
TORSDOF 22
ENDMDL
MODEL 4
REMARK VINA RESULT:    -5.535      1.540      4.660
REMARK INTER + INTRA:         -16.106
REMARK INTER:                 -12.364
REMARK INTRA:                  -3.742
REMARK UNBOUND:                -3.451
REMARK SMILES CCCCCCCCCCCCCCCCCCCCCCCC(=O)[O-]
REMARK SMILES IDX 13 1 14 2 15 3 16 4 17 5 18 6 19 7 20 8 21 9 22 10 23 11
REMARK SMILES IDX 24 12 25 13 26 14 12 15 11 16 10 17 9 18 8 19 7 20 6 21 5 22
REMARK SMILES IDX 4 23 3 24 2 25 1 26
REMARK H PARENT
REMARK Flexibility Score: inf
ROOT
ATOM      1  C   UNL     1      55.102  37.157  41.704  1.00  0.00     0.000 C 
ENDROOT
BRANCH   1   2
ATOM      2  C   UNL     1      53.900  38.067  42.001  1.00  0.00     0.000 C 
BRANCH   2   3
ATOM      3  C   UNL     1      52.605  37.271  42.238  1.00  0.00     0.000 C 
BRANCH   3   4
ATOM      4  C   UNL     1      52.104  37.358  43.692  1.00  0.00     0.000 C 
BRANCH   4   5
ATOM      5  C   UNL     1      52.672  38.530  44.520  1.00  0.00     0.000 C 
BRANCH   5   6
ATOM      6  C   UNL     1      53.729  38.143  45.569  1.00  0.00     0.000 C 
BRANCH   6   7
ATOM      7  C   UNL     1      53.777  36.629  45.837  1.00  0.00     0.000 C 
BRANCH   7   8
ATOM      8  C   UNL     1      53.502  36.284  47.317  1.00  0.00     0.000 C 
BRANCH   8   9
ATOM      9  C   UNL     1      52.052  36.558  47.763  1.00  0.00     0.000 C 
BRANCH   9  10
ATOM     10  C   UNL     1      50.969  35.933  46.867  1.00  0.00     0.006 C 
BRANCH  10  11
ATOM     11  C   UNL     1      50.080  34.932  47.621  1.00  0.00     0.053 C 
BRANCH  11  12
ATOM     12  C   UNL     1      49.735  35.447  48.985  1.00  0.00     0.041 C 
ATOM     13  O   UNL     1      49.000  36.461  49.114  1.00  0.00    -0.550 OA
ATOM     14  O   UNL     1      50.236  34.810  50.116  1.00  0.00    -0.550 OA
ENDBRANCH  11  12
ENDBRANCH  10  11
ENDBRANCH   9  10
ENDBRANCH   8   9
ENDBRANCH   7   8
ENDBRANCH   6   7
ENDBRANCH   5   6
ENDBRANCH   4   5
ENDBRANCH   3   4
ENDBRANCH   2   3
ENDBRANCH   1   2
BRANCH   1  15
ATOM     15  C   UNL     1      55.798  36.650  42.979  1.00  0.00     0.000 C 
BRANCH  15  16
ATOM     16  C   UNL     1      56.147  35.154  42.904  1.00  0.00     0.000 C 
BRANCH  16  17
ATOM     17  C   UNL     1      55.026  34.323  42.254  1.00  0.00     0.000 C 
BRANCH  17  18
ATOM     18  C   UNL     1      53.925  33.919  43.250  1.00  0.00    -0.000 C 
BRANCH  18  19
ATOM     19  C   UNL     1      52.527  33.722  42.632  1.00  0.00    -0.000 C 
BRANCH  19  20
ATOM     20  C   UNL     1      51.392  33.856  43.662  1.00  0.00    -0.000 C 
BRANCH  20  21
ATOM     21  C   UNL     1      50.370  32.707  43.576  1.00  0.00    -0.000 C 
BRANCH  21  22
ATOM     22  C   UNL     1      50.467  31.848  42.301  1.00  0.00    -0.000 C 
BRANCH  22  23
ATOM     23  C   UNL     1      50.875  30.392  42.590  1.00  0.00    -0.000 C 
BRANCH  23  24
ATOM     24  C   UNL     1      52.300  30.071  42.113  1.00  0.00    -0.000 C 
BRANCH  24  25
ATOM     25  C   UNL     1      53.250  29.746  43.274  1.00  0.00    -0.003 C 
ATOM     26  C   UNL     1      54.646  30.308  43.018  1.00  0.00     0.004 C 
ENDBRANCH  24  25
ENDBRANCH  23  24
ENDBRANCH  22  23
ENDBRANCH  21  22
ENDBRANCH  20  21
ENDBRANCH  19  20
ENDBRANCH  18  19
ENDBRANCH  17  18
ENDBRANCH  16  17
ENDBRANCH  15  16
ENDBRANCH   1  15
TORSDOF 22
ENDMDL
MODEL 5
REMARK VINA RESULT:    -5.488      5.357      9.413
REMARK INTER + INTRA:         -15.996
REMARK INTER:                 -13.049
REMARK INTRA:                  -2.948
REMARK UNBOUND:                -3.451
REMARK SMILES CCCCCCCCCCCCCCCCCCCCCCCC(=O)[O-]
REMARK SMILES IDX 13 1 14 2 15 3 16 4 17 5 18 6 19 7 20 8 21 9 22 10 23 11
REMARK SMILES IDX 24 12 25 13 26 14 12 15 11 16 10 17 9 18 8 19 7 20 6 21 5 22
REMARK SMILES IDX 4 23 3 24 2 25 1 26
REMARK H PARENT
REMARK Flexibility Score: inf
ROOT
ATOM      1  C   UNL     1      57.138  38.238  39.598  1.00  0.00     0.000 C 
ENDROOT
BRANCH   1   2
ATOM      2  C   UNL     1      55.939  37.300  39.805  1.00  0.00     0.000 C 
BRANCH   2   3
ATOM      3  C   UNL     1      55.388  37.359  41.240  1.00  0.00     0.000 C 
BRANCH   3   4
ATOM      4  C   UNL     1      56.376  36.812  42.286  1.00  0.00     0.000 C 
BRANCH   4   5
ATOM      5  C   UNL     1      55.784  35.797  43.288  1.00  0.00     0.000 C 
BRANCH   5   6
ATOM      6  C   UNL     1      55.393  34.434  42.690  1.00  0.00     0.000 C 
BRANCH   6   7
ATOM      7  C   UNL     1      54.439  33.637  43.596  1.00  0.00     0.000 C 
BRANCH   7   8
ATOM      8  C   UNL     1      53.075  33.371  42.923  1.00  0.00     0.000 C 
BRANCH   8   9
ATOM      9  C   UNL     1      52.217  34.636  42.729  1.00  0.00     0.000 C 
BRANCH   9  10
ATOM     10  C   UNL     1      52.246  35.627  43.905  1.00  0.00     0.006 C 
BRANCH  10  11
ATOM     11  C   UNL     1      52.314  37.092  43.446  1.00  0.00     0.053 C 
BRANCH  11  12
ATOM     12  C   UNL     1      52.959  37.950  44.490  1.00  0.00     0.041 C 
ATOM     13  O   UNL     1      53.772  38.853  44.157  1.00  0.00    -0.550 OA
ATOM     14  O   UNL     1      52.670  37.746  45.835  1.00  0.00    -0.550 OA
ENDBRANCH  11  12
ENDBRANCH  10  11
ENDBRANCH   9  10
ENDBRANCH   8   9
ENDBRANCH   7   8
ENDBRANCH   6   7
ENDBRANCH   5   6
ENDBRANCH   4   5
ENDBRANCH   3   4
ENDBRANCH   2   3
ENDBRANCH   1   2
BRANCH   1  15
ATOM     15  C   UNL     1      57.549  38.365  38.121  1.00  0.00     0.000 C 
BRANCH  15  16
ATOM     16  C   UNL     1      59.056  38.144  37.909  1.00  0.00     0.000 C 
BRANCH  16  17
ATOM     17  C   UNL     1      59.347  37.073  36.843  1.00  0.00     0.000 C 
BRANCH  17  18
ATOM     18  C   UNL     1      60.827  37.029  36.425  1.00  0.00    -0.000 C 
BRANCH  18  19
ATOM     19  C   UNL     1      61.077  37.038  34.904  1.00  0.00    -0.000 C 
BRANCH  19  20
ATOM     20  C   UNL     1      61.543  38.408  34.381  1.00  0.00    -0.000 C 
BRANCH  20  21
ATOM     21  C   UNL     1      61.575  39.486  35.479  1.00  0.00    -0.000 C 
BRANCH  21  22
ATOM     22  C   UNL     1      60.440  40.524  35.403  1.00  0.00    -0.000 C 
BRANCH  22  23
ATOM     23  C   UNL     1      59.500  40.296  34.205  1.00  0.00    -0.000 C 
BRANCH  23  24
ATOM     24  C   UNL     1      58.093  39.851  34.633  1.00  0.00    -0.000 C 
BRANCH  24  25
ATOM     25  C   UNL     1      57.636  38.573  33.913  1.00  0.00    -0.003 C 
ATOM     26  C   UNL     1      56.425  37.954  34.605  1.00  0.00     0.004 C 
ENDBRANCH  24  25
ENDBRANCH  23  24
ENDBRANCH  22  23
ENDBRANCH  21  22
ENDBRANCH  20  21
ENDBRANCH  19  20
ENDBRANCH  18  19
ENDBRANCH  17  18
ENDBRANCH  16  17
ENDBRANCH  15  16
ENDBRANCH   1  15
TORSDOF 22
ENDMDL
MODEL 6
REMARK VINA RESULT:    -5.470      5.571      9.384
REMARK INTER + INTRA:         -15.955
REMARK INTER:                 -13.099
REMARK INTRA:                  -2.856
REMARK UNBOUND:                -3.451
REMARK SMILES CCCCCCCCCCCCCCCCCCCCCCCC(=O)[O-]
REMARK SMILES IDX 13 1 14 2 15 3 16 4 17 5 18 6 19 7 20 8 21 9 22 10 23 11
REMARK SMILES IDX 24 12 25 13 26 14 12 15 11 16 10 17 9 18 8 19 7 20 6 21 5 22
REMARK SMILES IDX 4 23 3 24 2 25 1 26
REMARK H PARENT
REMARK Flexibility Score: inf
ROOT
ATOM      1  C   UNL     1      57.757  38.526  38.813  1.00  0.00     0.000 C 
ENDROOT
BRANCH   1   2
ATOM      2  C   UNL     1      56.815  37.418  38.316  1.00  0.00     0.000 C 
BRANCH   2   3
ATOM      3  C   UNL     1      55.517  37.339  39.136  1.00  0.00     0.000 C 
BRANCH   3   4
ATOM      4  C   UNL     1      55.577  38.159  40.438  1.00  0.00     0.000 C 
BRANCH   4   5
ATOM      5  C   UNL     1      54.338  38.042  41.352  1.00  0.00     0.000 C 
BRANCH   5   6
ATOM      6  C   UNL     1      53.313  39.181  41.219  1.00  0.00     0.000 C 
BRANCH   6   7
ATOM      7  C   UNL     1      53.603  40.359  42.164  1.00  0.00     0.000 C 
BRANCH   7   8
ATOM      8  C   UNL     1      52.545  40.490  43.281  1.00  0.00     0.000 C 
BRANCH   8   9
ATOM      9  C   UNL     1      52.317  39.193  44.081  1.00  0.00     0.000 C 
BRANCH   9  10
ATOM     10  C   UNL     1      53.191  39.043  45.338  1.00  0.00     0.006 C 
BRANCH  10  11
ATOM     11  C   UNL     1      53.946  37.705  45.379  1.00  0.00     0.053 C 
BRANCH  11  12
ATOM     12  C   UNL     1      53.103  36.634  46.001  1.00  0.00     0.041 C 
ATOM     13  O   UNL     1      52.564  35.752  45.281  1.00  0.00    -0.550 OA
ATOM     14  O   UNL     1      52.902  36.618  47.377  1.00  0.00    -0.550 OA
ENDBRANCH  11  12
ENDBRANCH  10  11
ENDBRANCH   9  10
ENDBRANCH   8   9
ENDBRANCH   7   8
ENDBRANCH   6   7
ENDBRANCH   5   6
ENDBRANCH   4   5
ENDBRANCH   3   4
ENDBRANCH   2   3
ENDBRANCH   1   2
BRANCH   1  15
ATOM     15  C   UNL     1      59.092  38.563  38.049  1.00  0.00     0.000 C 
BRANCH  15  16
ATOM     16  C   UNL     1      59.204  37.441  37.004  1.00  0.00     0.000 C 
BRANCH  16  17
ATOM     17  C   UNL     1      60.663  37.032  36.737  1.00  0.00     0.000 C 
BRANCH  17  18
ATOM     18  C   UNL     1      60.925  36.673  35.264  1.00  0.00    -0.000 C 
BRANCH  18  19
ATOM     19  C   UNL     1      61.061  37.878  34.313  1.00  0.00    -0.000 C 
BRANCH  19  20
ATOM     20  C   UNL     1      61.830  39.053  34.941  1.00  0.00    -0.000 C 
BRANCH  20  21
ATOM     21  C   UNL     1      60.996  40.346  35.002  1.00  0.00    -0.000 C 
BRANCH  21  22
ATOM     22  C   UNL     1      59.671  40.301  34.218  1.00  0.00    -0.000 C 
BRANCH  22  23
ATOM     23  C   UNL     1      58.448  40.636  35.090  1.00  0.00    -0.000 C 
BRANCH  23  24
ATOM     24  C   UNL     1      57.148  40.022  34.548  1.00  0.00    -0.000 C 
BRANCH  24  25
ATOM     25  C   UNL     1      57.330  38.567  34.092  1.00  0.00    -0.003 C 
ATOM     26  C   UNL     1      56.197  37.683  34.604  1.00  0.00     0.004 C 
ENDBRANCH  24  25
ENDBRANCH  23  24
ENDBRANCH  22  23
ENDBRANCH  21  22
ENDBRANCH  20  21
ENDBRANCH  19  20
ENDBRANCH  18  19
ENDBRANCH  17  18
ENDBRANCH  16  17
ENDBRANCH  15  16
ENDBRANCH   1  15
TORSDOF 22
ENDMDL
MODEL 7
REMARK VINA RESULT:    -5.467      5.647      9.515
REMARK INTER + INTRA:         -15.950
REMARK INTER:                 -13.108
REMARK INTRA:                  -2.842
REMARK UNBOUND:                -3.451
REMARK SMILES CCCCCCCCCCCCCCCCCCCCCCCC(=O)[O-]
REMARK SMILES IDX 13 1 14 2 15 3 16 4 17 5 18 6 19 7 20 8 21 9 22 10 23 11
REMARK SMILES IDX 24 12 25 13 26 14 12 15 11 16 10 17 9 18 8 19 7 20 6 21 5 22
REMARK SMILES IDX 4 23 3 24 2 25 1 26
REMARK H PARENT
REMARK Flexibility Score: inf
ROOT
ATOM      1  C   UNL     1      58.081  38.525  38.329  1.00  0.00     0.000 C 
ENDROOT
BRANCH   1   2
ATOM      2  C   UNL     1      56.938  37.652  37.789  1.00  0.00     0.000 C 
BRANCH   2   3
ATOM      3  C   UNL     1      55.888  37.329  38.865  1.00  0.00     0.000 C 
BRANCH   3   4
ATOM      4  C   UNL     1      56.363  37.663  40.290  1.00  0.00     0.000 C 
BRANCH   4   5
ATOM      5  C   UNL     1      55.803  36.755  41.406  1.00  0.00     0.000 C 
BRANCH   5   6
ATOM      6  C   UNL     1      54.688  37.379  42.263  1.00  0.00     0.000 C 
BRANCH   6   7
ATOM      7  C   UNL     1      53.621  36.357  42.691  1.00  0.00     0.000 C 
BRANCH   7   8
ATOM      8  C   UNL     1      54.154  35.353  43.735  1.00  0.00     0.000 C 
BRANCH   8   9
ATOM      9  C   UNL     1      53.403  35.392  45.080  1.00  0.00     0.000 C 
BRANCH   9  10
ATOM     10  C   UNL     1      52.484  36.610  45.275  1.00  0.00     0.006 C 
BRANCH  10  11
ATOM     11  C   UNL     1      52.717  37.320  46.617  1.00  0.00     0.053 C 
BRANCH  11  12
ATOM     12  C   UNL     1      53.421  38.628  46.414  1.00  0.00     0.041 C 
ATOM     13  O   UNL     1      53.718  39.015  45.254  1.00  0.00    -0.550 OA
ATOM     14  O   UNL     1      53.759  39.414  47.511  1.00  0.00    -0.550 OA
ENDBRANCH  11  12
ENDBRANCH  10  11
ENDBRANCH   9  10
ENDBRANCH   8   9
ENDBRANCH   7   8
ENDBRANCH   6   7
ENDBRANCH   5   6
ENDBRANCH   4   5
ENDBRANCH   3   4
ENDBRANCH   2   3
ENDBRANCH   1   2
BRANCH   1  15
ATOM     15  C   UNL     1      59.454  38.139  37.750  1.00  0.00     0.000 C 
BRANCH  15  16
ATOM     16  C   UNL     1      59.351  37.048  36.672  1.00  0.00     0.000 C 
BRANCH  16  17
ATOM     17  C   UNL     1      60.695  36.794  35.965  1.00  0.00     0.000 C 
BRANCH  17  18
ATOM     18  C   UNL     1      61.539  38.071  35.805  1.00  0.00    -0.000 C 
BRANCH  18  19
ATOM     19  C   UNL     1      61.550  38.672  34.387  1.00  0.00    -0.000 C 
BRANCH  19  20
ATOM     20  C   UNL     1      61.232  40.178  34.372  1.00  0.00    -0.000 C 
BRANCH  20  21
ATOM     21  C   UNL     1      60.058  40.548  35.297  1.00  0.00    -0.000 C 
BRANCH  21  22
ATOM     22  C   UNL     1      58.760  40.948  34.570  1.00  0.00    -0.000 C 
BRANCH  22  23
ATOM     23  C   UNL     1      57.648  39.892  34.706  1.00  0.00    -0.000 C 
BRANCH  23  24
ATOM     24  C   UNL     1      57.927  38.628  33.877  1.00  0.00    -0.000 C 
BRANCH  24  25
ATOM     25  C   UNL     1      56.783  37.607  33.957  1.00  0.00    -0.003 C 
ATOM     26  C   UNL     1      55.462  38.286  34.308  1.00  0.00     0.004 C 
ENDBRANCH  24  25
ENDBRANCH  23  24
ENDBRANCH  22  23
ENDBRANCH  21  22
ENDBRANCH  20  21
ENDBRANCH  19  20
ENDBRANCH  18  19
ENDBRANCH  17  18
ENDBRANCH  16  17
ENDBRANCH  15  16
ENDBRANCH   1  15
TORSDOF 22
ENDMDL
MODEL 8
REMARK VINA RESULT:    -5.454      5.245      9.483
REMARK INTER + INTRA:         -15.918
REMARK INTER:                 -12.910
REMARK INTRA:                  -3.009
REMARK UNBOUND:                -3.451
REMARK SMILES CCCCCCCCCCCCCCCCCCCCCCCC(=O)[O-]
REMARK SMILES IDX 13 1 14 2 15 3 16 4 17 5 18 6 19 7 20 8 21 9 22 10 23 11
REMARK SMILES IDX 24 12 25 13 26 14 12 15 11 16 10 17 9 18 8 19 7 20 6 21 5 22
REMARK SMILES IDX 4 23 3 24 2 25 1 26
REMARK H PARENT
REMARK Flexibility Score: inf
ROOT
ATOM      1  C   UNL     1      57.490  38.583  39.358  1.00  0.00     0.000 C 
ENDROOT
BRANCH   1   2
ATOM      2  C   UNL     1      56.363  37.639  39.804  1.00  0.00     0.000 C 
BRANCH   2   3
ATOM      3  C   UNL     1      55.327  38.342  40.698  1.00  0.00     0.000 C 
BRANCH   3   4
ATOM      4  C   UNL     1      54.517  37.361  41.566  1.00  0.00     0.000 C 
BRANCH   4   5
ATOM      5  C   UNL     1      55.056  37.141  42.995  1.00  0.00     0.000 C 
BRANCH   5   6
ATOM      6  C   UNL     1      56.076  35.999  43.145  1.00  0.00     0.000 C 
BRANCH   6   7
ATOM      7  C   UNL     1      55.638  34.709  42.430  1.00  0.00     0.000 C 
BRANCH   7   8
ATOM      8  C   UNL     1      54.713  33.837  43.305  1.00  0.00     0.000 C 
BRANCH   8   9
ATOM      9  C   UNL     1      53.229  33.889  42.892  1.00  0.00     0.000 C 
BRANCH   9  10
ATOM     10  C   UNL     1      52.336  34.764  43.789  1.00  0.00     0.006 C 
BRANCH  10  11
ATOM     11  C   UNL     1      52.986  35.082  45.144  1.00  0.00     0.053 C 
BRANCH  11  12
ATOM     12  C   UNL     1      52.347  36.280  45.776  1.00  0.00     0.041 C 
ATOM     13  O   UNL     1      52.103  37.306  45.088  1.00  0.00    -0.550 OA
ATOM     14  O   UNL     1      52.031  36.267  47.131  1.00  0.00    -0.550 OA
ENDBRANCH  11  12
ENDBRANCH  10  11
ENDBRANCH   9  10
ENDBRANCH   8   9
ENDBRANCH   7   8
ENDBRANCH   6   7
ENDBRANCH   5   6
ENDBRANCH   4   5
ENDBRANCH   3   4
ENDBRANCH   2   3
ENDBRANCH   1   2
BRANCH   1  15
ATOM     15  C   UNL     1      57.950  38.324  37.913  1.00  0.00     0.000 C 
BRANCH  15  16
ATOM     16  C   UNL     1      57.043  37.323  37.177  1.00  0.00     0.000 C 
BRANCH  16  17
ATOM     17  C   UNL     1      56.600  37.838  35.797  1.00  0.00     0.000 C 
BRANCH  17  18
ATOM     18  C   UNL     1      57.784  38.196  34.882  1.00  0.00    -0.000 C 
BRANCH  18  19
ATOM     19  C   UNL     1      57.708  39.592  34.232  1.00  0.00    -0.000 C 
BRANCH  19  20
ATOM     20  C   UNL     1      58.348  40.692  35.098  1.00  0.00    -0.000 C 
BRANCH  20  21
ATOM     21  C   UNL     1      59.887  40.660  35.061  1.00  0.00    -0.000 C 
BRANCH  21  22
ATOM     22  C   UNL     1      60.563  40.347  36.409  1.00  0.00    -0.000 C 
BRANCH  22  23
ATOM     23  C   UNL     1      61.554  39.172  36.323  1.00  0.00    -0.000 C 
BRANCH  23  24
ATOM     24  C   UNL     1      61.525  38.472  34.955  1.00  0.00    -0.000 C 
BRANCH  24  25
ATOM     25  C   UNL     1      61.459  36.942  35.078  1.00  0.00    -0.003 C 
ATOM     26  C   UNL     1      60.736  36.523  36.355  1.00  0.00     0.004 C 
ENDBRANCH  24  25
ENDBRANCH  23  24
ENDBRANCH  22  23
ENDBRANCH  21  22
ENDBRANCH  20  21
ENDBRANCH  19  20
ENDBRANCH  18  19
ENDBRANCH  17  18
ENDBRANCH  16  17
ENDBRANCH  15  16
ENDBRANCH   1  15
TORSDOF 22
ENDMDL
MODEL 9
REMARK VINA RESULT:    -5.450      5.248      9.301
REMARK INTER + INTRA:         -15.910
REMARK INTER:                 -12.845
REMARK INTRA:                  -3.064
REMARK UNBOUND:                -3.451
REMARK SMILES CCCCCCCCCCCCCCCCCCCCCCCC(=O)[O-]
REMARK SMILES IDX 13 1 14 2 15 3 16 4 17 5 18 6 19 7 20 8 21 9 22 10 23 11
REMARK SMILES IDX 24 12 25 13 26 14 12 15 11 16 10 17 9 18 8 19 7 20 6 21 5 22
REMARK SMILES IDX 4 23 3 24 2 25 1 26
REMARK H PARENT
REMARK Flexibility Score: inf
ROOT
ATOM      1  C   UNL     1      55.966  37.993  39.833  1.00  0.00     0.000 C 
ENDROOT
BRANCH   1   2
ATOM      2  C   UNL     1      55.688  36.949  40.925  1.00  0.00     0.000 C 
BRANCH   2   3
ATOM      3  C   UNL     1      56.663  37.063  42.108  1.00  0.00     0.000 C 
BRANCH   3   4
ATOM      4  C   UNL     1      56.330  36.095  43.258  1.00  0.00     0.000 C 
BRANCH   4   5
ATOM      5  C   UNL     1      55.474  34.871  42.867  1.00  0.00     0.000 C 
BRANCH   5   6
ATOM      6  C   UNL     1      54.178  34.690  43.676  1.00  0.00     0.000 C 
BRANCH   6   7
ATOM      7  C   UNL     1      52.910  34.864  42.822  1.00  0.00     0.000 C 
BRANCH   7   8
ATOM      8  C   UNL     1      52.444  36.334  42.756  1.00  0.00     0.000 C 
BRANCH   8   9
ATOM      9  C   UNL     1      51.970  36.901  44.109  1.00  0.00     0.000 C 
BRANCH   9  10
ATOM     10  C   UNL     1      52.534  38.287  44.465  1.00  0.00     0.006 C 
BRANCH  10  11
ATOM     11  C   UNL     1      53.614  38.759  43.480  1.00  0.00     0.053 C 
BRANCH  11  12
ATOM     12  C   UNL     1      53.106  39.881  42.626  1.00  0.00     0.041 C 
ATOM     13  O   UNL     1      53.402  39.931  41.403  1.00  0.00    -0.550 OA
ATOM     14  O   UNL     1      52.314  40.878  43.186  1.00  0.00    -0.550 OA
ENDBRANCH  11  12
ENDBRANCH  10  11
ENDBRANCH   9  10
ENDBRANCH   8   9
ENDBRANCH   7   8
ENDBRANCH   6   7
ENDBRANCH   5   6
ENDBRANCH   4   5
ENDBRANCH   3   4
ENDBRANCH   2   3
ENDBRANCH   1   2
BRANCH   1  15
ATOM     15  C   UNL     1      57.461  38.326  39.689  1.00  0.00     0.000 C 
BRANCH  15  16
ATOM     16  C   UNL     1      57.893  38.474  38.221  1.00  0.00     0.000 C 
BRANCH  16  17
ATOM     17  C   UNL     1      56.946  37.740  37.255  1.00  0.00     0.000 C 
BRANCH  17  18
ATOM     18  C   UNL     1      57.537  37.578  35.843  1.00  0.00    -0.000 C 
BRANCH  18  19
ATOM     19  C   UNL     1      56.967  38.538  34.782  1.00  0.00    -0.000 C 
BRANCH  19  20
ATOM     20  C   UNL     1      58.047  39.418  34.128  1.00  0.00    -0.000 C 
BRANCH  20  21
ATOM     21  C   UNL     1      58.509  40.570  35.039  1.00  0.00    -0.000 C 
BRANCH  21  22
ATOM     22  C   UNL     1      59.976  40.482  35.502  1.00  0.00    -0.000 C 
BRANCH  22  23
ATOM     23  C   UNL     1      60.921  39.967  34.401  1.00  0.00    -0.000 C 
BRANCH  23  24
ATOM     24  C   UNL     1      61.668  38.688  34.813  1.00  0.00    -0.000 C 
BRANCH  24  25
ATOM     25  C   UNL     1      61.185  38.133  36.161  1.00  0.00    -0.003 C 
ATOM     26  C   UNL     1      60.904  36.636  36.070  1.00  0.00     0.004 C 
ENDBRANCH  24  25
ENDBRANCH  23  24
ENDBRANCH  22  23
ENDBRANCH  21  22
ENDBRANCH  20  21
ENDBRANCH  19  20
ENDBRANCH  18  19
ENDBRANCH  17  18
ENDBRANCH  16  17
ENDBRANCH  15  16
ENDBRANCH   1  15
TORSDOF 22
ENDMDL
