MODEL 1
REMARK VINA RESULT:    -5.744      0.000      0.000
REMARK INTER + INTRA:         -16.329
REMARK INTER:                 -14.475
REMARK INTRA:                  -1.854
REMARK UNBOUND:                -1.854
REMARK SMILES CCCCCCCCCCCCCCCCCCCCCCCCCCCC(=O)[O-]
REMARK SMILES IDX 15 1 16 2 17 3 18 4 19 5 20 6 21 7 22 8 23 9 24 10 25 11
REMARK SMILES IDX 26 12 27 13 28 14 29 15 30 16 14 17 13 18 12 19 11 20 10 21
REMARK SMILES IDX 9 22 8 23 7 24 6 25 5 26 4 27 3 28 2 29 1 30
REMARK H PARENT
REMARK Flexibility Score: inf
ROOT
ATOM      1  C   UNL     1      27.128  38.882  33.097  1.00  0.00     0.000 C 
ENDROOT
BRANCH   1   2
ATOM      2  C   UNL     1      27.821  37.756  33.890  1.00  0.00     0.000 C 
BRANCH   2   3
ATOM      3  C   UNL     1      27.451  36.355  33.381  1.00  0.00     0.000 C 
BRANCH   3   4
ATOM      4  C   UNL     1      26.989  36.398  31.917  1.00  0.00     0.000 C 
BRANCH   4   5
ATOM      5  C   UNL     1      28.100  35.993  30.925  1.00  0.00     0.000 C 
BRANCH   5   6
ATOM      6  C   UNL     1      28.607  34.550  31.096  1.00  0.00     0.000 C 
BRANCH   6   7
ATOM      7  C   UNL     1      27.521  33.457  31.073  1.00  0.00     0.000 C 
BRANCH   7   8
ATOM      8  C   UNL     1      26.681  33.389  29.783  1.00  0.00     0.000 C 
BRANCH   8   9
ATOM      9  C   UNL     1      25.234  33.871  29.983  1.00  0.00     0.000 C 
BRANCH   9  10
ATOM     10  C   UNL     1      24.200  32.791  29.623  1.00  0.00     0.000 C 
BRANCH  10  11
ATOM     11  C   UNL     1      24.657  31.896  28.457  1.00  0.00     0.000 C 
BRANCH  11  12
ATOM     12  C   UNL     1      23.685  30.734  28.184  1.00  0.00     0.006 C 
BRANCH  12  13
ATOM     13  C   UNL     1      22.883  30.274  29.411  1.00  0.00     0.053 C 
BRANCH  13  14
ATOM     14  C   UNL     1      21.407  30.429  29.207  1.00  0.00     0.041 C 
ATOM     15  O   UNL     1      20.970  31.126  28.253  1.00  0.00    -0.550 OA
ATOM     16  O   UNL     1      20.515  29.823  30.082  1.00  0.00    -0.550 OA
ENDBRANCH  13  14
ENDBRANCH  12  13
ENDBRANCH  11  12
ENDBRANCH  10  11
ENDBRANCH   9  10
ENDBRANCH   8   9
ENDBRANCH   7   8
ENDBRANCH   6   7
ENDBRANCH   5   6
ENDBRANCH   4   5
ENDBRANCH   3   4
ENDBRANCH   2   3
ENDBRANCH   1   2
BRANCH   1  17
ATOM     17  C   UNL     1      28.082  39.830  32.345  1.00  0.00     0.000 C 
BRANCH  17  18
ATOM     18  C   UNL     1      27.762  41.329  32.499  1.00  0.00     0.000 C 
BRANCH  18  19
ATOM     19  C   UNL     1      27.388  41.770  33.929  1.00  0.00     0.000 C 
BRANCH  19  20
ATOM     20  C   UNL     1      27.731  43.230  34.277  1.00  0.00     0.000 C 
BRANCH  20  21
ATOM     21  C   UNL     1      26.876  43.788  35.428  1.00  0.00     0.000 C 
BRANCH  21  22
ATOM     22  C   UNL     1      25.508  43.093  35.547  1.00  0.00    -0.000 C 
BRANCH  22  23
ATOM     23  C   UNL     1      24.364  43.992  36.053  1.00  0.00    -0.000 C 
BRANCH  23  24
ATOM     24  C   UNL     1      23.068  43.822  35.246  1.00  0.00    -0.000 C 
BRANCH  24  25
ATOM     25  C   UNL     1      21.942  44.693  35.823  1.00  0.00    -0.000 C 
BRANCH  25  26
ATOM     26  C   UNL     1      22.463  45.965  36.518  1.00  0.00    -0.000 C 
BRANCH  26  27
ATOM     27  C   UNL     1      22.027  47.292  35.869  1.00  0.00    -0.000 C 
BRANCH  27  28
ATOM     28  C   UNL     1      21.179  47.091  34.601  1.00  0.00    -0.000 C 
BRANCH  28  29
ATOM     29  C   UNL     1      19.764  47.677  34.737  1.00  0.00    -0.003 C 
ATOM     30  C   UNL     1      18.863  46.851  35.655  1.00  0.00     0.004 C 
ENDBRANCH  28  29
ENDBRANCH  27  28
ENDBRANCH  26  27
ENDBRANCH  25  26
ENDBRANCH  24  25
ENDBRANCH  23  24
ENDBRANCH  22  23
ENDBRANCH  21  22
ENDBRANCH  20  21
ENDBRANCH  19  20
ENDBRANCH  18  19
ENDBRANCH  17  18
ENDBRANCH   1  17
TORSDOF 26
ENDMDL
MODEL 2
REMARK VINA RESULT:    -5.699      4.771     12.618
REMARK INTER + INTRA:         -16.214
REMARK INTER:                 -14.597
REMARK INTRA:                  -1.617
REMARK UNBOUND:                -1.854
REMARK SMILES CCCCCCCCCCCCCCCCCCCCCCCCCCCC(=O)[O-]
REMARK SMILES IDX 15 1 16 2 17 3 18 4 19 5 20 6 21 7 22 8 23 9 24 10 25 11
REMARK SMILES IDX 26 12 27 13 28 14 29 15 30 16 14 17 13 18 12 19 11 20 10 21
REMARK SMILES IDX 9 22 8 23 7 24 6 25 5 26 4 27 3 28 2 29 1 30
REMARK H PARENT
REMARK Flexibility Score: inf
ROOT
ATOM      1  C   UNL     1      27.858  42.755  34.679  1.00  0.00     0.000 C 
ENDROOT
BRANCH   1   2
ATOM      2  C   UNL     1      26.837  43.472  35.582  1.00  0.00     0.000 C 
BRANCH   2   3
ATOM      3  C   UNL     1      25.441  42.833  35.529  1.00  0.00     0.000 C 
BRANCH   3   4
ATOM      4  C   UNL     1      24.367  43.796  36.059  1.00  0.00     0.000 C 
BRANCH   4   5
ATOM      5  C   UNL     1      23.090  43.805  35.193  1.00  0.00     0.000 C 
BRANCH   5   6
ATOM      6  C   UNL     1      21.940  44.652  35.769  1.00  0.00     0.000 C 
BRANCH   6   7
ATOM      7  C   UNL     1      21.174  45.514  34.748  1.00  0.00     0.000 C 
BRANCH   7   8
ATOM      8  C   UNL     1      19.653  45.614  34.977  1.00  0.00     0.000 C 
BRANCH   8   9
ATOM      9  C   UNL     1      18.994  46.730  34.149  1.00  0.00     0.000 C 
BRANCH   9  10
ATOM     10  C   UNL     1      18.272  46.188  32.904  1.00  0.00     0.000 C 
BRANCH  10  11
ATOM     11  C   UNL     1      17.768  44.746  33.089  1.00  0.00     0.000 C 
BRANCH  11  12
ATOM     12  C   UNL     1      16.249  44.673  33.328  1.00  0.00     0.006 C 
BRANCH  12  13
ATOM     13  C   UNL     1      15.419  44.398  32.064  1.00  0.00     0.053 C 
BRANCH  13  14
ATOM     14  C   UNL     1      14.686  45.618  31.598  1.00  0.00     0.041 C 
ATOM     15  O   UNL     1      13.576  45.923  32.109  1.00  0.00    -0.550 OA
ATOM     16  O   UNL     1      15.217  46.405  30.584  1.00  0.00    -0.550 OA
ENDBRANCH  13  14
ENDBRANCH  12  13
ENDBRANCH  11  12
ENDBRANCH  10  11
ENDBRANCH   9  10
ENDBRANCH   8   9
ENDBRANCH   7   8
ENDBRANCH   6   7
ENDBRANCH   5   6
ENDBRANCH   4   5
ENDBRANCH   3   4
ENDBRANCH   2   3
ENDBRANCH   1   2
BRANCH   1  17
ATOM     17  C   UNL     1      27.247  41.796  33.639  1.00  0.00     0.000 C 
BRANCH  17  18
ATOM     18  C   UNL     1      27.680  40.324  33.781  1.00  0.00     0.000 C 
BRANCH  18  19
ATOM     19  C   UNL     1      28.115  39.645  32.466  1.00  0.00     0.000 C 
BRANCH  19  20
ATOM     20  C   UNL     1      27.535  38.239  32.229  1.00  0.00     0.000 C 
BRANCH  20  21
ATOM     21  C   UNL     1      27.532  37.370  33.499  1.00  0.00     0.000 C 
BRANCH  21  22
ATOM     22  C   UNL     1      27.214  35.892  33.210  1.00  0.00    -0.000 C 
BRANCH  22  23
ATOM     23  C   UNL     1      28.424  34.941  33.280  1.00  0.00    -0.000 C 
BRANCH  23  24
ATOM     24  C   UNL     1      28.623  34.131  31.991  1.00  0.00    -0.000 C 
BRANCH  24  25
ATOM     25  C   UNL     1      28.657  35.052  30.762  1.00  0.00    -0.000 C 
BRANCH  25  26
ATOM     26  C   UNL     1      27.734  34.572  29.627  1.00  0.00    -0.000 C 
BRANCH  26  27
ATOM     27  C   UNL     1      26.801  33.401  29.989  1.00  0.00    -0.000 C 
BRANCH  27  28
ATOM     28  C   UNL     1      25.335  33.833  30.165  1.00  0.00    -0.000 C 
BRANCH  28  29
ATOM     29  C   UNL     1      24.372  33.035  29.271  1.00  0.00    -0.003 C 
ATOM     30  C   UNL     1      25.073  31.934  28.474  1.00  0.00     0.004 C 
ENDBRANCH  28  29
ENDBRANCH  27  28
ENDBRANCH  26  27
ENDBRANCH  25  26
ENDBRANCH  24  25
ENDBRANCH  23  24
ENDBRANCH  22  23
ENDBRANCH  21  22
ENDBRANCH  20  21
ENDBRANCH  19  20
ENDBRANCH  18  19
ENDBRANCH  17  18
ENDBRANCH   1  17
TORSDOF 26
ENDMDL
MODEL 3
REMARK VINA RESULT:    -5.642      4.586     12.397
REMARK INTER + INTRA:         -16.070
REMARK INTER:                 -13.437
REMARK INTRA:                  -2.634
REMARK UNBOUND:                -1.854
REMARK SMILES CCCCCCCCCCCCCCCCCCCCCCCCCCCC(=O)[O-]
REMARK SMILES IDX 15 1 16 2 17 3 18 4 19 5 20 6 21 7 22 8 23 9 24 10 25 11
REMARK SMILES IDX 26 12 27 13 28 14 29 15 30 16 14 17 13 18 12 19 11 20 10 21
REMARK SMILES IDX 9 22 8 23 7 24 6 25 5 26 4 27 3 28 2 29 1 30
REMARK H PARENT
REMARK Flexibility Score: inf
ROOT
ATOM      1  C   UNL     1      23.118  43.826  35.199  1.00  0.00     0.000 C 
ENDROOT
BRANCH   1   2
ATOM      2  C   UNL     1      22.984  45.005  36.182  1.00  0.00     0.000 C 
BRANCH   2   3
ATOM      3  C   UNL     1      21.726  45.849  35.933  1.00  0.00     0.000 C 
BRANCH   3   4
ATOM      4  C   UNL     1      20.456  44.986  35.992  1.00  0.00     0.000 C 
BRANCH   4   5
ATOM      5  C   UNL     1      19.665  44.990  34.667  1.00  0.00     0.000 C 
BRANCH   5   6
ATOM      6  C   UNL     1      20.372  45.719  33.510  1.00  0.00     0.000 C 
BRANCH   6   7
ATOM      7  C   UNL     1      19.680  47.003  33.012  1.00  0.00     0.000 C 
BRANCH   7   8
ATOM      8  C   UNL     1      19.210  47.969  34.117  1.00  0.00     0.000 C 
BRANCH   8   9
ATOM      9  C   UNL     1      17.722  48.342  33.993  1.00  0.00     0.000 C 
BRANCH   9  10
ATOM     10  C   UNL     1      16.910  47.273  33.243  1.00  0.00     0.000 C 
BRANCH  10  11
ATOM     11  C   UNL     1      16.033  46.425  34.181  1.00  0.00     0.000 C 
BRANCH  11  12
ATOM     12  C   UNL     1      16.115  44.920  33.873  1.00  0.00     0.006 C 
BRANCH  12  13
ATOM     13  C   UNL     1      16.430  44.587  32.406  1.00  0.00     0.053 C 
BRANCH  13  14
ATOM     14  C   UNL     1      15.193  44.265  31.626  1.00  0.00     0.041 C 
ATOM     15  O   UNL     1      14.342  45.163  31.391  1.00  0.00    -0.550 OA
ATOM     16  O   UNL     1      14.970  42.970  31.176  1.00  0.00    -0.550 OA
ENDBRANCH  13  14
ENDBRANCH  12  13
ENDBRANCH  11  12
ENDBRANCH  10  11
ENDBRANCH   9  10
ENDBRANCH   8   9
ENDBRANCH   7   8
ENDBRANCH   6   7
ENDBRANCH   5   6
ENDBRANCH   4   5
ENDBRANCH   3   4
ENDBRANCH   2   3
ENDBRANCH   1   2
BRANCH   1  17
ATOM     17  C   UNL     1      24.304  42.881  35.472  1.00  0.00     0.000 C 
BRANCH  17  18
ATOM     18  C   UNL     1      25.347  43.419  36.471  1.00  0.00     0.000 C 
BRANCH  18  19
ATOM     19  C   UNL     1      26.620  44.006  35.828  1.00  0.00     0.000 C 
BRANCH  19  20
ATOM     20  C   UNL     1      27.703  42.976  35.458  1.00  0.00     0.000 C 
BRANCH  20  21
ATOM     21  C   UNL     1      27.864  42.794  33.939  1.00  0.00     0.000 C 
BRANCH  21  22
ATOM     22  C   UNL     1      27.296  41.456  33.434  1.00  0.00    -0.000 C 
BRANCH  22  23
ATOM     23  C   UNL     1      27.851  40.985  32.077  1.00  0.00    -0.000 C 
BRANCH  23  24
ATOM     24  C   UNL     1      28.258  39.504  32.079  1.00  0.00    -0.000 C 
BRANCH  24  25
ATOM     25  C   UNL     1      27.898  38.836  33.415  1.00  0.00    -0.000 C 
BRANCH  25  26
ATOM     26  C   UNL     1      27.407  37.387  33.248  1.00  0.00    -0.000 C 
BRANCH  26  27
ATOM     27  C   UNL     1      27.122  36.953  31.798  1.00  0.00    -0.000 C 
BRANCH  27  28
ATOM     28  C   UNL     1      28.022  35.797  31.329  1.00  0.00    -0.000 C 
BRANCH  28  29
ATOM     29  C   UNL     1      27.765  35.402  29.865  1.00  0.00    -0.003 C 
ATOM     30  C   UNL     1      28.981  35.625  28.966  1.00  0.00     0.004 C 
ENDBRANCH  28  29
ENDBRANCH  27  28
ENDBRANCH  26  27
ENDBRANCH  25  26
ENDBRANCH  24  25
ENDBRANCH  23  24
ENDBRANCH  22  23
ENDBRANCH  21  22
ENDBRANCH  20  21
ENDBRANCH  19  20
ENDBRANCH  18  19
ENDBRANCH  17  18
ENDBRANCH   1  17
TORSDOF 26
ENDMDL
MODEL 4
REMARK VINA RESULT:    -5.596      4.313     12.577
REMARK INTER + INTRA:         -15.956
REMARK INTER:                 -14.414
REMARK INTRA:                  -1.541
REMARK UNBOUND:                -1.854
REMARK SMILES CCCCCCCCCCCCCCCCCCCCCCCCCCCC(=O)[O-]
REMARK SMILES IDX 15 1 16 2 17 3 18 4 19 5 20 6 21 7 22 8 23 9 24 10 25 11
REMARK SMILES IDX 26 12 27 13 28 14 29 15 30 16 14 17 13 18 12 19 11 20 10 21
REMARK SMILES IDX 9 22 8 23 7 24 6 25 5 26 4 27 3 28 2 29 1 30
REMARK H PARENT
REMARK Flexibility Score: inf
ROOT
ATOM      1  C   UNL     1      27.371  37.242  33.125  1.00  0.00     0.000 C 
ENDROOT
BRANCH   1   2
ATOM      2  C   UNL     1      27.365  38.733  33.510  1.00  0.00     0.000 C 
BRANCH   2   3
ATOM      3  C   UNL     1      28.055  39.622  32.464  1.00  0.00     0.000 C 
BRANCH   3   4
ATOM      4  C   UNL     1      27.790  41.111  32.738  1.00  0.00     0.000 C 
BRANCH   4   5
ATOM      5  C   UNL     1      27.880  41.470  34.237  1.00  0.00     0.000 C 
BRANCH   5   6
ATOM      6  C   UNL     1      26.701  42.311  34.759  1.00  0.00     0.000 C 
BRANCH   6   7
ATOM      7  C   UNL     1      25.354  41.572  34.866  1.00  0.00     0.000 C 
BRANCH   7   8
ATOM      8  C   UNL     1      24.169  42.427  35.357  1.00  0.00     0.000 C 
BRANCH   8   9
ATOM      9  C   UNL     1      24.608  43.785  35.932  1.00  0.00     0.000 C 
BRANCH   9  10
ATOM     10  C   UNL     1      23.419  44.623  36.429  1.00  0.00     0.000 C 
BRANCH  10  11
ATOM     11  C   UNL     1      22.210  44.563  35.480  1.00  0.00     0.000 C 
BRANCH  11  12
ATOM     12  C   UNL     1      21.318  45.814  35.573  1.00  0.00     0.006 C 
BRANCH  12  13
ATOM     13  C   UNL     1      21.238  46.636  34.277  1.00  0.00     0.053 C 
BRANCH  13  14
ATOM     14  C   UNL     1      20.277  46.041  33.293  1.00  0.00     0.041 C 
ATOM     15  O   UNL     1      19.311  45.342  33.697  1.00  0.00    -0.550 OA
ATOM     16  O   UNL     1      20.461  46.241  31.931  1.00  0.00    -0.550 OA
ENDBRANCH  13  14
ENDBRANCH  12  13
ENDBRANCH  11  12
ENDBRANCH  10  11
ENDBRANCH   9  10
ENDBRANCH   8   9
ENDBRANCH   7   8
ENDBRANCH   6   7
ENDBRANCH   5   6
ENDBRANCH   4   5
ENDBRANCH   3   4
ENDBRANCH   2   3
ENDBRANCH   1   2
BRANCH   1  17
ATOM     17  C   UNL     1      27.818  36.944  31.680  1.00  0.00     0.000 C 
BRANCH  17  18
ATOM     18  C   UNL     1      27.214  35.667  31.064  1.00  0.00     0.000 C 
BRANCH  18  19
ATOM     19  C   UNL     1      25.719  35.767  30.697  1.00  0.00     0.000 C 
BRANCH  19  20
ATOM     20  C   UNL     1      25.001  34.421  30.497  1.00  0.00     0.000 C 
BRANCH  20  21
ATOM     21  C   UNL     1      25.897  33.354  29.844  1.00  0.00     0.000 C 
BRANCH  21  22
ATOM     22  C   UNL     1      25.112  32.383  28.945  1.00  0.00    -0.000 C 
BRANCH  22  23
ATOM     23  C   UNL     1      23.581  32.450  29.096  1.00  0.00    -0.000 C 
BRANCH  23  24
ATOM     24  C   UNL     1      22.873  31.190  28.578  1.00  0.00    -0.000 C 
BRANCH  24  25
ATOM     25  C   UNL     1      22.067  30.512  29.696  1.00  0.00    -0.000 C 
BRANCH  25  26
ATOM     26  C   UNL     1      20.888  31.369  30.192  1.00  0.00    -0.000 C 
BRANCH  26  27
ATOM     27  C   UNL     1      19.601  31.262  29.352  1.00  0.00    -0.000 C 
BRANCH  27  28
ATOM     28  C   UNL     1      19.175  32.605  28.734  1.00  0.00    -0.000 C 
BRANCH  28  29
ATOM     29  C   UNL     1      17.698  32.616  28.306  1.00  0.00    -0.003 C 
ATOM     30  C   UNL     1      17.018  31.257  28.474  1.00  0.00     0.004 C 
ENDBRANCH  28  29
ENDBRANCH  27  28
ENDBRANCH  26  27
ENDBRANCH  25  26
ENDBRANCH  24  25
ENDBRANCH  23  24
ENDBRANCH  22  23
ENDBRANCH  21  22
ENDBRANCH  20  21
ENDBRANCH  19  20
ENDBRANCH  18  19
ENDBRANCH  17  18
ENDBRANCH   1  17
TORSDOF 26
ENDMDL
MODEL 5
REMARK VINA RESULT:    -5.577      4.734     12.688
REMARK INTER + INTRA:         -15.908
REMARK INTER:                 -12.890
REMARK INTRA:                  -3.018
REMARK UNBOUND:                -1.854
REMARK SMILES CCCCCCCCCCCCCCCCCCCCCCCCCCCC(=O)[O-]
REMARK SMILES IDX 15 1 16 2 17 3 18 4 19 5 20 6 21 7 22 8 23 9 24 10 25 11
REMARK SMILES IDX 26 12 27 13 28 14 29 15 30 16 14 17 13 18 12 19 11 20 10 21
REMARK SMILES IDX 9 22 8 23 7 24 6 25 5 26 4 27 3 28 2 29 1 30
REMARK H PARENT
REMARK Flexibility Score: inf
ROOT
ATOM      1  C   UNL     1      23.425  43.043  34.972  1.00  0.00     0.000 C 
ENDROOT
BRANCH   1   2
ATOM      2  C   UNL     1      23.038  44.401  35.590  1.00  0.00     0.000 C 
BRANCH   2   3
ATOM      3  C   UNL     1      21.523  44.654  35.573  1.00  0.00     0.000 C 
BRANCH   3   4
ATOM      4  C   UNL     1      21.108  45.468  34.338  1.00  0.00     0.000 C 
BRANCH   4   5
ATOM      5  C   UNL     1      20.676  46.908  34.687  1.00  0.00     0.000 C 
BRANCH   5   6
ATOM      6  C   UNL     1      21.777  47.758  35.346  1.00  0.00     0.000 C 
BRANCH   6   7
ATOM      7  C   UNL     1      21.558  48.092  36.834  1.00  0.00     0.000 C 
BRANCH   7   8
ATOM      8  C   UNL     1      22.554  47.436  37.811  1.00  0.00     0.000 C 
BRANCH   8   9
ATOM      9  C   UNL     1      21.860  46.639  38.929  1.00  0.00     0.000 C 
BRANCH   9  10
ATOM     10  C   UNL     1      20.365  46.414  38.647  1.00  0.00     0.000 C 
BRANCH  10  11
ATOM     11  C   UNL     1      19.885  45.013  39.065  1.00  0.00     0.000 C 
BRANCH  11  12
ATOM     12  C   UNL     1      18.867  44.415  38.077  1.00  0.00     0.006 C 
BRANCH  12  13
ATOM     13  C   UNL     1      18.266  45.428  37.091  1.00  0.00     0.053 C 
BRANCH  13  14
ATOM     14  C   UNL     1      17.416  44.764  36.052  1.00  0.00     0.041 C 
ATOM     15  O   UNL     1      17.943  44.012  35.190  1.00  0.00    -0.550 OA
ATOM     16  O   UNL     1      16.046  44.992  36.021  1.00  0.00    -0.550 OA
ENDBRANCH  13  14
ENDBRANCH  12  13
ENDBRANCH  11  12
ENDBRANCH  10  11
ENDBRANCH   9  10
ENDBRANCH   8   9
ENDBRANCH   7   8
ENDBRANCH   6   7
ENDBRANCH   5   6
ENDBRANCH   4   5
ENDBRANCH   3   4
ENDBRANCH   2   3
ENDBRANCH   1   2
BRANCH   1  17
ATOM     17  C   UNL     1      24.729  42.428  35.516  1.00  0.00     0.000 C 
BRANCH  17  18
ATOM     18  C   UNL     1      25.645  43.410  36.270  1.00  0.00     0.000 C 
BRANCH  18  19
ATOM     19  C   UNL     1      26.874  43.893  35.474  1.00  0.00     0.000 C 
BRANCH  19  20
ATOM     20  C   UNL     1      27.905  42.802  35.131  1.00  0.00     0.000 C 
BRANCH  20  21
ATOM     21  C   UNL     1      27.887  42.408  33.644  1.00  0.00     0.000 C 
BRANCH  21  22
ATOM     22  C   UNL     1      27.531  40.928  33.422  1.00  0.00    -0.000 C 
BRANCH  22  23
ATOM     23  C   UNL     1      28.070  40.318  32.114  1.00  0.00    -0.000 C 
BRANCH  23  24
ATOM     24  C   UNL     1      27.838  38.803  32.021  1.00  0.00    -0.000 C 
BRANCH  24  25
ATOM     25  C   UNL     1      27.372  38.233  33.370  1.00  0.00    -0.000 C 
BRANCH  25  26
ATOM     26  C   UNL     1      27.479  36.699  33.443  1.00  0.00    -0.000 C 
BRANCH  26  27
ATOM     27  C   UNL     1      26.986  35.946  32.193  1.00  0.00    -0.000 C 
BRANCH  27  28
ATOM     28  C   UNL     1      27.838  34.708  31.863  1.00  0.00    -0.000 C 
BRANCH  28  29
ATOM     29  C   UNL     1      27.972  34.469  30.350  1.00  0.00    -0.003 C 
ATOM     30  C   UNL     1      28.535  35.679  29.604  1.00  0.00     0.004 C 
ENDBRANCH  28  29
ENDBRANCH  27  28
ENDBRANCH  26  27
ENDBRANCH  25  26
ENDBRANCH  24  25
ENDBRANCH  23  24
ENDBRANCH  22  23
ENDBRANCH  21  22
ENDBRANCH  20  21
ENDBRANCH  19  20
ENDBRANCH  18  19
ENDBRANCH  17  18
ENDBRANCH   1  17
TORSDOF 26
ENDMDL
MODEL 6
REMARK VINA RESULT:    -5.558      4.447      8.350
REMARK INTER + INTRA:         -15.860
REMARK INTER:                 -14.585
REMARK INTRA:                  -1.275
REMARK UNBOUND:                -1.854
REMARK SMILES CCCCCCCCCCCCCCCCCCCCCCCCCCCC(=O)[O-]
REMARK SMILES IDX 15 1 16 2 17 3 18 4 19 5 20 6 21 7 22 8 23 9 24 10 25 11
REMARK SMILES IDX 26 12 27 13 28 14 29 15 30 16 14 17 13 18 12 19 11 20 10 21
REMARK SMILES IDX 9 22 8 23 7 24 6 25 5 26 4 27 3 28 2 29 1 30
REMARK H PARENT
REMARK Flexibility Score: inf
ROOT
ATOM      1  C   UNL     1      22.652  45.104  35.752  1.00  0.00     0.000 C 
ENDROOT
BRANCH   1   2
ATOM      2  C   UNL     1      23.343  43.766  35.425  1.00  0.00     0.000 C 
BRANCH   2   3
ATOM      3  C   UNL     1      24.652  43.565  36.203  1.00  0.00     0.000 C 
BRANCH   3   4
ATOM      4  C   UNL     1      25.572  42.560  35.492  1.00  0.00     0.000 C 
BRANCH   4   5
ATOM      5  C   UNL     1      26.988  43.121  35.239  1.00  0.00     0.000 C 
BRANCH   5   6
ATOM      6  C   UNL     1      27.840  42.277  34.274  1.00  0.00     0.000 C 
BRANCH   6   7
ATOM      7  C   UNL     1      27.191  40.968  33.786  1.00  0.00     0.000 C 
BRANCH   7   8
ATOM      8  C   UNL     1      28.059  39.704  33.938  1.00  0.00     0.000 C 
BRANCH   8   9
ATOM      9  C   UNL     1      27.239  38.404  33.892  1.00  0.00     0.000 C 
BRANCH   9  10
ATOM     10  C   UNL     1      27.360  37.681  32.540  1.00  0.00     0.000 C 
BRANCH  10  11
ATOM     11  C   UNL     1      27.614  36.171  32.693  1.00  0.00     0.000 C 
BRANCH  11  12
ATOM     12  C   UNL     1      28.360  35.569  31.489  1.00  0.00     0.006 C 
BRANCH  12  13
ATOM     13  C   UNL     1      27.525  35.481  30.202  1.00  0.00     0.053 C 
BRANCH  13  14
ATOM     14  C   UNL     1      26.245  34.731  30.414  1.00  0.00     0.041 C 
ATOM     15  O   UNL     1      25.146  35.345  30.419  1.00  0.00    -0.550 OA
ATOM     16  O   UNL     1      26.269  33.359  30.628  1.00  0.00    -0.550 OA
ENDBRANCH  13  14
ENDBRANCH  12  13
ENDBRANCH  11  12
ENDBRANCH  10  11
ENDBRANCH   9  10
ENDBRANCH   8   9
ENDBRANCH   7   8
ENDBRANCH   6   7
ENDBRANCH   5   6
ENDBRANCH   4   5
ENDBRANCH   3   4
ENDBRANCH   2   3
ENDBRANCH   1   2
BRANCH   1  17
ATOM     17  C   UNL     1      21.236  44.977  36.346  1.00  0.00     0.000 C 
BRANCH  17  18
ATOM     18  C   UNL     1      20.090  45.102  35.324  1.00  0.00     0.000 C 
BRANCH  18  19
ATOM     19  C   UNL     1      20.518  45.581  33.923  1.00  0.00     0.000 C 
BRANCH  19  20
ATOM     20  C   UNL     1      20.161  47.042  33.591  1.00  0.00     0.000 C 
BRANCH  20  21
ATOM     21  C   UNL     1      18.991  47.162  32.599  1.00  0.00     0.000 C 
BRANCH  21  22
ATOM     22  C   UNL     1      17.620  47.222  33.297  1.00  0.00    -0.000 C 
BRANCH  22  23
ATOM     23  C   UNL     1      16.738  45.974  33.104  1.00  0.00    -0.000 C 
BRANCH  23  24
ATOM     24  C   UNL     1      15.908  46.022  31.813  1.00  0.00    -0.000 C 
BRANCH  24  25
ATOM     25  C   UNL     1      14.637  45.168  31.944  1.00  0.00    -0.000 C 
BRANCH  25  26
ATOM     26  C   UNL     1      14.852  43.703  31.521  1.00  0.00    -0.000 C 
BRANCH  26  27
ATOM     27  C   UNL     1      13.755  43.115  30.613  1.00  0.00    -0.000 C 
BRANCH  27  28
ATOM     28  C   UNL     1      12.333  43.455  31.091  1.00  0.00    -0.000 C 
BRANCH  28  29
ATOM     29  C   UNL     1      11.281  43.289  29.983  1.00  0.00    -0.003 C 
ATOM     30  C   UNL     1      10.695  41.878  29.923  1.00  0.00     0.004 C 
ENDBRANCH  28  29
ENDBRANCH  27  28
ENDBRANCH  26  27
ENDBRANCH  25  26
ENDBRANCH  24  25
ENDBRANCH  23  24
ENDBRANCH  22  23
ENDBRANCH  21  22
ENDBRANCH  20  21
ENDBRANCH  19  20
ENDBRANCH  18  19
ENDBRANCH  17  18
ENDBRANCH   1  17
TORSDOF 26
ENDMDL
MODEL 7
REMARK VINA RESULT:    -5.515      4.503     12.891
REMARK INTER + INTRA:         -15.751
REMARK INTER:                 -14.079
REMARK INTRA:                  -1.672
REMARK UNBOUND:                -1.854
REMARK SMILES CCCCCCCCCCCCCCCCCCCCCCCCCCCC(=O)[O-]
REMARK SMILES IDX 15 1 16 2 17 3 18 4 19 5 20 6 21 7 22 8 23 9 24 10 25 11
REMARK SMILES IDX 26 12 27 13 28 14 29 15 30 16 14 17 13 18 12 19 11 20 10 21
REMARK SMILES IDX 9 22 8 23 7 24 6 25 5 26 4 27 3 28 2 29 1 30
REMARK H PARENT
REMARK Flexibility Score: inf
ROOT
ATOM      1  C   UNL     1      27.752  39.104  33.436  1.00  0.00     0.000 C 
ENDROOT
BRANCH   1   2
ATOM      2  C   UNL     1      27.029  40.343  33.998  1.00  0.00     0.000 C 
BRANCH   2   3
ATOM      3  C   UNL     1      27.977  41.526  34.245  1.00  0.00     0.000 C 
BRANCH   3   4
ATOM      4  C   UNL     1      27.206  42.854  34.308  1.00  0.00     0.000 C 
BRANCH   4   5
ATOM      5  C   UNL     1      27.122  43.430  35.737  1.00  0.00     0.000 C 
BRANCH   5   6
ATOM      6  C   UNL     1      25.689  43.569  36.281  1.00  0.00     0.000 C 
BRANCH   6   7
ATOM      7  C   UNL     1      24.612  42.761  35.531  1.00  0.00     0.000 C 
BRANCH   7   8
ATOM      8  C   UNL     1      23.303  43.520  35.238  1.00  0.00     0.000 C 
BRANCH   8   9
ATOM      9  C   UNL     1      23.158  44.807  36.067  1.00  0.00     0.000 C 
BRANCH   9  10
ATOM     10  C   UNL     1      21.744  44.974  36.649  1.00  0.00     0.000 C 
BRANCH  10  11
ATOM     11  C   UNL     1      20.649  44.954  35.569  1.00  0.00     0.000 C 
BRANCH  11  12
ATOM     12  C   UNL     1      20.599  46.257  34.750  1.00  0.00     0.006 C 
BRANCH  12  13
ATOM     13  C   UNL     1      19.355  46.401  33.860  1.00  0.00     0.053 C 
BRANCH  13  14
ATOM     14  C   UNL     1      19.680  47.029  32.539  1.00  0.00     0.041 C 
ATOM     15  O   UNL     1      19.151  48.124  32.213  1.00  0.00    -0.550 OA
ATOM     16  O   UNL     1      20.548  46.394  31.660  1.00  0.00    -0.550 OA
ENDBRANCH  13  14
ENDBRANCH  12  13
ENDBRANCH  11  12
ENDBRANCH  10  11
ENDBRANCH   9  10
ENDBRANCH   8   9
ENDBRANCH   7   8
ENDBRANCH   6   7
ENDBRANCH   5   6
ENDBRANCH   4   5
ENDBRANCH   3   4
ENDBRANCH   2   3
ENDBRANCH   1   2
BRANCH   1  17
ATOM     17  C   UNL     1      27.393  37.773  34.124  1.00  0.00     0.000 C 
BRANCH  17  18
ATOM     18  C   UNL     1      27.523  36.525  33.231  1.00  0.00     0.000 C 
BRANCH  18  19
ATOM     19  C   UNL     1      27.499  36.806  31.715  1.00  0.00     0.000 C 
BRANCH  19  20
ATOM     20  C   UNL     1      28.283  35.804  30.848  1.00  0.00     0.000 C 
BRANCH  20  21
ATOM     21  C   UNL     1      28.516  34.456  31.553  1.00  0.00     0.000 C 
BRANCH  21  22
ATOM     22  C   UNL     1      27.458  33.400  31.188  1.00  0.00    -0.000 C 
BRANCH  22  23
ATOM     23  C   UNL     1      26.631  33.718  29.928  1.00  0.00    -0.000 C 
BRANCH  23  24
ATOM     24  C   UNL     1      25.136  33.905  30.225  1.00  0.00    -0.000 C 
BRANCH  24  25
ATOM     25  C   UNL     1      24.284  32.938  29.388  1.00  0.00    -0.000 C 
BRANCH  25  26
ATOM     26  C   UNL     1      25.124  32.067  28.436  1.00  0.00    -0.000 C 
BRANCH  26  27
ATOM     27  C   UNL     1      24.328  31.348  27.330  1.00  0.00    -0.000 C 
BRANCH  27  28
ATOM     28  C   UNL     1      23.463  32.306  26.493  1.00  0.00    -0.000 C 
BRANCH  28  29
ATOM     29  C   UNL     1      22.646  31.576  25.414  1.00  0.00    -0.003 C 
ATOM     30  C   UNL     1      21.504  32.426  24.856  1.00  0.00     0.004 C 
ENDBRANCH  28  29
ENDBRANCH  27  28
ENDBRANCH  26  27
ENDBRANCH  25  26
ENDBRANCH  24  25
ENDBRANCH  23  24
ENDBRANCH  22  23
ENDBRANCH  21  22
ENDBRANCH  20  21
ENDBRANCH  19  20
ENDBRANCH  18  19
ENDBRANCH  17  18
ENDBRANCH   1  17
TORSDOF 26
ENDMDL
MODEL 8
REMARK VINA RESULT:    -5.510      5.300     10.513
REMARK INTER + INTRA:         -15.738
REMARK INTER:                 -12.916
REMARK INTRA:                  -2.822
REMARK UNBOUND:                -1.854
REMARK SMILES CCCCCCCCCCCCCCCCCCCCCCCCCCCC(=O)[O-]
REMARK SMILES IDX 15 1 16 2 17 3 18 4 19 5 20 6 21 7 22 8 23 9 24 10 25 11
REMARK SMILES IDX 26 12 27 13 28 14 29 15 30 16 14 17 13 18 12 19 11 20 10 21
REMARK SMILES IDX 9 22 8 23 7 24 6 25 5 26 4 27 3 28 2 29 1 30
REMARK H PARENT
REMARK Flexibility Score: inf
ROOT
ATOM      1  C   UNL     1      20.136  46.768  32.968  1.00  0.00     0.000 C 
ENDROOT
BRANCH   1   2
ATOM      2  C   UNL     1      20.325  46.559  34.483  1.00  0.00     0.000 C 
BRANCH   2   3
ATOM      3  C   UNL     1      21.336  45.449  34.810  1.00  0.00     0.000 C 
BRANCH   3   4
ATOM      4  C   UNL     1      22.318  45.896  35.904  1.00  0.00     0.000 C 
BRANCH   4   5
ATOM      5  C   UNL     1      23.316  44.789  36.303  1.00  0.00     0.000 C 
BRANCH   5   6
ATOM      6  C   UNL     1      23.393  43.617  35.307  1.00  0.00     0.000 C 
BRANCH   6   7
ATOM      7  C   UNL     1      24.690  42.788  35.357  1.00  0.00     0.000 C 
BRANCH   7   8
ATOM      8  C   UNL     1      25.913  43.511  35.955  1.00  0.00     0.000 C 
BRANCH   8   9
ATOM      9  C   UNL     1      27.251  42.928  35.470  1.00  0.00     0.000 C 
BRANCH   9  10
ATOM     10  C   UNL     1      27.478  43.153  33.965  1.00  0.00     0.000 C 
BRANCH  10  11
ATOM     11  C   UNL     1      27.697  41.840  33.193  1.00  0.00     0.000 C 
BRANCH  11  12
ATOM     12  C   UNL     1      27.290  40.598  34.005  1.00  0.00     0.006 C 
BRANCH  12  13
ATOM     13  C   UNL     1      28.178  39.366  33.770  1.00  0.00     0.053 C 
BRANCH  13  14
ATOM     14  C   UNL     1      27.440  38.086  34.022  1.00  0.00     0.041 C 
ATOM     15  O   UNL     1      26.918  37.868  35.146  1.00  0.00    -0.550 OA
ATOM     16  O   UNL     1      27.350  37.126  33.022  1.00  0.00    -0.550 OA
ENDBRANCH  13  14
ENDBRANCH  12  13
ENDBRANCH  11  12
ENDBRANCH  10  11
ENDBRANCH   9  10
ENDBRANCH   8   9
ENDBRANCH   7   8
ENDBRANCH   6   7
ENDBRANCH   5   6
ENDBRANCH   4   5
ENDBRANCH   3   4
ENDBRANCH   2   3
ENDBRANCH   1   2
BRANCH   1  17
ATOM     17  C   UNL     1      19.076  47.818  32.583  1.00  0.00     0.000 C 
BRANCH  17  18
ATOM     18  C   UNL     1      18.489  48.612  33.765  1.00  0.00     0.000 C 
BRANCH  18  19
ATOM     19  C   UNL     1      17.149  48.074  34.307  1.00  0.00     0.000 C 
BRANCH  19  20
ATOM     20  C   UNL     1      17.111  47.811  35.823  1.00  0.00     0.000 C 
BRANCH  20  21
ATOM     21  C   UNL     1      17.267  46.322  36.177  1.00  0.00     0.000 C 
BRANCH  21  22
ATOM     22  C   UNL     1      16.406  45.404  35.292  1.00  0.00    -0.000 C 
BRANCH  22  23
ATOM     23  C   UNL     1      17.196  44.385  34.450  1.00  0.00    -0.000 C 
BRANCH  23  24
ATOM     24  C   UNL     1      17.104  44.655  32.941  1.00  0.00    -0.000 C 
BRANCH  24  25
ATOM     25  C   UNL     1      15.720  45.208  32.565  1.00  0.00    -0.000 C 
BRANCH  25  26
ATOM     26  C   UNL     1      14.768  44.125  32.025  1.00  0.00    -0.000 C 
BRANCH  26  27
ATOM     27  C   UNL     1      14.275  44.345  30.582  1.00  0.00    -0.000 C 
BRANCH  27  28
ATOM     28  C   UNL     1      14.370  45.812  30.132  1.00  0.00    -0.000 C 
BRANCH  28  29
ATOM     29  C   UNL     1      13.008  46.525  30.143  1.00  0.00    -0.003 C 
ATOM     30  C   UNL     1      11.828  45.553  30.129  1.00  0.00     0.004 C 
ENDBRANCH  28  29
ENDBRANCH  27  28
ENDBRANCH  26  27
ENDBRANCH  25  26
ENDBRANCH  24  25
ENDBRANCH  23  24
ENDBRANCH  22  23
ENDBRANCH  21  22
ENDBRANCH  20  21
ENDBRANCH  19  20
ENDBRANCH  18  19
ENDBRANCH  17  18
ENDBRANCH   1  17
TORSDOF 26
ENDMDL
MODEL 9
REMARK VINA RESULT:    -5.402      7.727     13.842
REMARK INTER + INTRA:         -15.467
REMARK INTER:                 -12.139
REMARK INTRA:                  -3.328
REMARK UNBOUND:                -1.854
REMARK SMILES CCCCCCCCCCCCCCCCCCCCCCCCCCCC(=O)[O-]
REMARK SMILES IDX 15 1 16 2 17 3 18 4 19 5 20 6 21 7 22 8 23 9 24 10 25 11
REMARK SMILES IDX 26 12 27 13 28 14 29 15 30 16 14 17 13 18 12 19 11 20 10 21
REMARK SMILES IDX 9 22 8 23 7 24 6 25 5 26 4 27 3 28 2 29 1 30
REMARK H PARENT
REMARK Flexibility Score: inf
ROOT
ATOM      1  C   UNL     1      16.903  30.379  27.418  1.00  0.00     0.000 C 
ENDROOT
BRANCH   1   2
ATOM      2  C   UNL     1      17.747  30.940  28.578  1.00  0.00     0.000 C 
BRANCH   2   3
ATOM      3  C   UNL     1      18.189  32.393  28.346  1.00  0.00     0.000 C 
BRANCH   3   4
ATOM      4  C   UNL     1      19.710  32.545  28.509  1.00  0.00     0.000 C 
BRANCH   4   5
ATOM      5  C   UNL     1      20.254  31.819  29.758  1.00  0.00     0.000 C 
BRANCH   5   6
ATOM      6  C   UNL     1      21.695  31.298  29.611  1.00  0.00     0.000 C 
BRANCH   6   7
ATOM      7  C   UNL     1      22.678  32.254  28.909  1.00  0.00     0.000 C 
BRANCH   7   8
ATOM      8  C   UNL     1      23.850  31.574  28.176  1.00  0.00     0.000 C 
BRANCH   8   9
ATOM      9  C   UNL     1      25.225  32.089  28.635  1.00  0.00     0.000 C 
BRANCH   9  10
ATOM     10  C   UNL     1      25.126  33.003  29.869  1.00  0.00     0.000 C 
BRANCH  10  11
ATOM     11  C   UNL     1      26.443  33.740  30.171  1.00  0.00     0.000 C 
BRANCH  11  12
ATOM     12  C   UNL     1      26.220  35.194  30.622  1.00  0.00     0.006 C 
BRANCH  12  13
ATOM     13  C   UNL     1      27.469  35.879  31.199  1.00  0.00     0.053 C 
BRANCH  13  14
ATOM     14  C   UNL     1      28.022  35.136  32.376  1.00  0.00     0.041 C 
ATOM     15  O   UNL     1      27.497  35.269  33.513  1.00  0.00    -0.550 OA
ATOM     16  O   UNL     1      29.132  34.315  32.223  1.00  0.00    -0.550 OA
ENDBRANCH  13  14
ENDBRANCH  12  13
ENDBRANCH  11  12
ENDBRANCH  10  11
ENDBRANCH   9  10
ENDBRANCH   8   9
ENDBRANCH   7   8
ENDBRANCH   6   7
ENDBRANCH   5   6
ENDBRANCH   4   5
ENDBRANCH   3   4
ENDBRANCH   2   3
ENDBRANCH   1   2
BRANCH   1  17
ATOM     17  C   UNL     1      15.378  30.524  27.594  1.00  0.00     0.000 C 
BRANCH  17  18
ATOM     18  C   UNL     1      14.919  30.873  29.022  1.00  0.00     0.000 C 
BRANCH  18  19
ATOM     19  C   UNL     1      14.001  32.107  29.126  1.00  0.00     0.000 C 
BRANCH  19  20
ATOM     20  C   UNL     1      14.681  33.458  28.836  1.00  0.00     0.000 C 
BRANCH  20  21
ATOM     21  C   UNL     1      13.716  34.499  28.242  1.00  0.00     0.000 C 
BRANCH  21  22
ATOM     22  C   UNL     1      12.305  33.936  27.999  1.00  0.00    -0.000 C 
BRANCH  22  23
ATOM     23  C   UNL     1      11.918  33.766  26.518  1.00  0.00    -0.000 C 
BRANCH  23  24
ATOM     24  C   UNL     1      11.373  32.366  26.199  1.00  0.00    -0.000 C 
BRANCH  24  25
ATOM     25  C   UNL     1      12.026  31.797  24.930  1.00  0.00    -0.000 C 
BRANCH  25  26
ATOM     26  C   UNL     1      13.554  31.988  24.904  1.00  0.00    -0.000 C 
BRANCH  26  27
ATOM     27  C   UNL     1      14.079  32.920  23.796  1.00  0.00    -0.000 C 
BRANCH  27  28
ATOM     28  C   UNL     1      14.844  34.136  24.346  1.00  0.00    -0.000 C 
BRANCH  28  29
ATOM     29  C   UNL     1      15.908  33.746  25.385  1.00  0.00    -0.003 C 
ATOM     30  C   UNL     1      17.072  32.962  24.779  1.00  0.00     0.004 C 
ENDBRANCH  28  29
ENDBRANCH  27  28
ENDBRANCH  26  27
ENDBRANCH  25  26
ENDBRANCH  24  25
ENDBRANCH  23  24
ENDBRANCH  22  23
ENDBRANCH  21  22
ENDBRANCH  20  21
ENDBRANCH  19  20
ENDBRANCH  18  19
ENDBRANCH  17  18
ENDBRANCH   1  17
TORSDOF 26
ENDMDL
