MODEL 1
REMARK VINA RESULT:    -2.863      0.000      0.000
REMARK INTER + INTRA:          -5.703
REMARK INTER:                  -5.207
REMARK INTRA:                  -0.496
REMARK UNBOUND:                -0.496
REMARK SMILES CCCCCCCCCCCCCCCC(=O)[O-]
REMARK SMILES IDX 9 1 10 2 11 3 12 4 13 5 14 6 15 7 16 8 17 9 18 10 8 11 7 12
REMARK SMILES IDX 6 13 5 14 4 15 3 16 2 17 1 18
REMARK H PARENT
REMARK Flexibility Score: inf
ROOT
ATOM      1  C   UNL     1      13.914   8.211  15.012  1.00  0.00     0.000 C 
ENDROOT
BRANCH   1   2
ATOM      2  C   UNL     1      12.795   9.210  15.339  1.00  0.00     0.000 C 
BRANCH   2   3
ATOM      3  C   UNL     1      13.194  10.669  15.053  1.00  0.00     0.000 C 
BRANCH   3   4
ATOM      4  C   UNL     1      12.028  11.596  14.655  1.00  0.00     0.000 C 
BRANCH   4   5
ATOM      5  C   UNL     1      12.074  13.008  15.272  1.00  0.00     0.000 C 
BRANCH   5   6
ATOM      6  C   UNL     1      13.369  13.798  14.993  1.00  0.00     0.006 C 
BRANCH   6   7
ATOM      7  C   UNL     1      13.150  15.148  14.291  1.00  0.00     0.053 C 
BRANCH   7   8
ATOM      8  C   UNL     1      13.178  15.015  12.800  1.00  0.00     0.041 C 
ATOM      9  O   UNL     1      13.424  16.018  12.079  1.00  0.00    -0.550 OA
ATOM     10  O   UNL     1      12.898  13.791  12.205  1.00  0.00    -0.550 OA
ENDBRANCH   7   8
ENDBRANCH   6   7
ENDBRANCH   5   6
ENDBRANCH   4   5
ENDBRANCH   3   4
ENDBRANCH   2   3
ENDBRANCH   1   2
BRANCH   1  11
ATOM     11  C   UNL     1      13.549   6.798  15.490  1.00  0.00     0.000 C 
BRANCH  11  12
ATOM     12  C   UNL     1      12.516   6.821  16.638  1.00  0.00    -0.000 C 
BRANCH  12  13
ATOM     13  C   UNL     1      12.888   5.914  17.822  1.00  0.00    -0.000 C 
BRANCH  13  14
ATOM     14  C   UNL     1      13.009   4.433  17.424  1.00  0.00    -0.000 C 
BRANCH  14  15
ATOM     15  C   UNL     1      12.523   3.473  18.525  1.00  0.00    -0.000 C 
BRANCH  15  16
ATOM     16  C   UNL     1      11.819   4.145  19.719  1.00  0.00    -0.000 C 
BRANCH  16  17
ATOM     17  C   UNL     1      11.257   3.137  20.731  1.00  0.00    -0.003 C 
ATOM     18  C   UNL     1      12.122   3.079  21.987  1.00  0.00     0.004 C 
ENDBRANCH  16  17
ENDBRANCH  15  16
ENDBRANCH  14  15
ENDBRANCH  13  14
ENDBRANCH  12  13
ENDBRANCH  11  12
ENDBRANCH   1  11
TORSDOF 14
ENDMDL
MODEL 2
REMARK VINA RESULT:    -2.777      0.431      1.389
REMARK INTER + INTRA:          -5.546
REMARK INTER:                  -4.764
REMARK INTRA:                  -0.782
REMARK UNBOUND:                -0.496
REMARK SMILES CCCCCCCCCCCCCCCC(=O)[O-]
REMARK SMILES IDX 9 1 10 2 11 3 12 4 13 5 14 6 15 7 16 8 17 9 18 10 8 11 7 12
REMARK SMILES IDX 6 13 5 14 4 15 3 16 2 17 1 18
REMARK H PARENT
REMARK Flexibility Score: inf
ROOT
ATOM      1  C   UNL     1      12.808   9.089  15.428  1.00  0.00     0.000 C 
ENDROOT
BRANCH   1   2
ATOM      2  C   UNL     1      13.269  10.486  14.989  1.00  0.00     0.000 C 
BRANCH   2   3
ATOM      3  C   UNL     1      12.111  11.369  14.488  1.00  0.00     0.000 C 
BRANCH   3   4
ATOM      4  C   UNL     1      11.952  12.713  15.226  1.00  0.00     0.000 C 
BRANCH   4   5
ATOM      5  C   UNL     1      13.254  13.299  15.808  1.00  0.00     0.000 C 
BRANCH   5   6
ATOM      6  C   UNL     1      13.910  14.403  14.955  1.00  0.00     0.006 C 
BRANCH   6   7
ATOM      7  C   UNL     1      12.914  15.292  14.194  1.00  0.00     0.053 C 
BRANCH   7   8
ATOM      8  C   UNL     1      13.146  15.255  12.715  1.00  0.00     0.041 C 
ATOM      9  O   UNL     1      12.858  14.222  12.054  1.00  0.00    -0.550 OA
ATOM     10  O   UNL     1      13.710  16.349  12.071  1.00  0.00    -0.550 OA
ENDBRANCH   7   8
ENDBRANCH   6   7
ENDBRANCH   5   6
ENDBRANCH   4   5
ENDBRANCH   3   4
ENDBRANCH   2   3
ENDBRANCH   1   2
BRANCH   1  11
ATOM     11  C   UNL     1      13.854   8.024  15.065  1.00  0.00     0.000 C 
BRANCH  11  12
ATOM     12  C   UNL     1      13.534   6.654  15.701  1.00  0.00    -0.000 C 
BRANCH  12  13
ATOM     13  C   UNL     1      12.504   6.726  16.840  1.00  0.00    -0.000 C 
BRANCH  13  14
ATOM     14  C   UNL     1      12.843   5.789  18.011  1.00  0.00    -0.000 C 
BRANCH  14  15
ATOM     15  C   UNL     1      12.808   4.301  17.620  1.00  0.00    -0.000 C 
BRANCH  15  16
ATOM     16  C   UNL     1      12.467   3.329  18.765  1.00  0.00    -0.000 C 
BRANCH  16  17
ATOM     17  C   UNL     1      11.572   3.958  19.842  1.00  0.00    -0.003 C 
ATOM     18  C   UNL     1      11.741   3.248  21.181  1.00  0.00     0.004 C 
ENDBRANCH  16  17
ENDBRANCH  15  16
ENDBRANCH  14  15
ENDBRANCH  13  14
ENDBRANCH  12  13
ENDBRANCH  11  12
ENDBRANCH   1  11
TORSDOF 14
ENDMDL
MODEL 3
REMARK VINA RESULT:    -2.726      1.143      1.844
REMARK INTER + INTRA:          -5.453
REMARK INTER:                  -4.795
REMARK INTRA:                  -0.658
REMARK UNBOUND:                -0.496
REMARK SMILES CCCCCCCCCCCCCCCC(=O)[O-]
REMARK SMILES IDX 9 1 10 2 11 3 12 4 13 5 14 6 15 7 16 8 17 9 18 10 8 11 7 12
REMARK SMILES IDX 6 13 5 14 4 15 3 16 2 17 1 18
REMARK H PARENT
REMARK Flexibility Score: inf
ROOT
ATOM      1  C   UNL     1      12.745   9.746  15.050  1.00  0.00     0.000 C 
ENDROOT
BRANCH   1   2
ATOM      2  C   UNL     1      13.243  11.143  15.446  1.00  0.00     0.000 C 
BRANCH   2   3
ATOM      3  C   UNL     1      12.366  12.274  14.881  1.00  0.00     0.000 C 
BRANCH   3   4
ATOM      4  C   UNL     1      11.357  11.837  13.800  1.00  0.00     0.000 C 
BRANCH   4   5
ATOM      5  C   UNL     1      11.589  12.447  12.403  1.00  0.00     0.000 C 
BRANCH   5   6
ATOM      6  C   UNL     1      12.852  13.323  12.277  1.00  0.00     0.006 C 
BRANCH   6   7
ATOM      7  C   UNL     1      12.570  14.805  11.984  1.00  0.00     0.053 C 
BRANCH   7   8
ATOM      8  C   UNL     1      13.259  15.710  12.959  1.00  0.00     0.041 C 
ATOM      9  O   UNL     1      14.000  16.640  12.545  1.00  0.00    -0.550 OA
ATOM     10  O   UNL     1      13.107  15.505  14.325  1.00  0.00    -0.550 OA
ENDBRANCH   7   8
ENDBRANCH   6   7
ENDBRANCH   5   6
ENDBRANCH   4   5
ENDBRANCH   3   4
ENDBRANCH   2   3
ENDBRANCH   1   2
BRANCH   1  11
ATOM     11  C   UNL     1      13.861   8.700  15.196  1.00  0.00     0.000 C 
BRANCH  11  12
ATOM     12  C   UNL     1      13.303   7.262  15.285  1.00  0.00    -0.000 C 
BRANCH  12  13
ATOM     13  C   UNL     1      12.557   6.969  16.597  1.00  0.00    -0.000 C 
BRANCH  13  14
ATOM     14  C   UNL     1      13.210   5.843  17.415  1.00  0.00    -0.000 C 
BRANCH  14  15
ATOM     15  C   UNL     1      12.504   5.587  18.758  1.00  0.00    -0.000 C 
BRANCH  15  16
ATOM     16  C   UNL     1      12.308   4.104  19.126  1.00  0.00    -0.000 C 
BRANCH  16  17
ATOM     17  C   UNL     1      11.201   3.884  20.167  1.00  0.00    -0.003 C 
ATOM     18  C   UNL     1      11.758   3.242  21.434  1.00  0.00     0.004 C 
ENDBRANCH  16  17
ENDBRANCH  15  16
ENDBRANCH  14  15
ENDBRANCH  13  14
ENDBRANCH  12  13
ENDBRANCH  11  12
ENDBRANCH   1  11
TORSDOF 14
ENDMDL
MODEL 4
REMARK VINA RESULT:    -2.245      1.032      1.609
REMARK INTER + INTRA:          -4.578
REMARK INTER:                  -3.992
REMARK INTRA:                  -0.585
REMARK UNBOUND:                -0.496
REMARK SMILES CCCCCCCCCCCCCCCC(=O)[O-]
REMARK SMILES IDX 9 1 10 2 11 3 12 4 13 5 14 6 15 7 16 8 17 9 18 10 8 11 7 12
REMARK SMILES IDX 6 13 5 14 4 15 3 16 2 17 1 18
REMARK H PARENT
REMARK Flexibility Score: inf
ROOT
ATOM      1  C   UNL     1      13.068   8.475  15.406  1.00  0.00     0.000 C 
ENDROOT
BRANCH   1   2
ATOM      2  C   UNL     1      13.210   9.993  15.227  1.00  0.00     0.000 C 
BRANCH   2   3
ATOM      3  C   UNL     1      11.946  10.648  14.640  1.00  0.00     0.000 C 
BRANCH   3   4
ATOM      4  C   UNL     1      11.781  12.147  14.962  1.00  0.00     0.000 C 
BRANCH   4   5
ATOM      5  C   UNL     1      13.047  12.845  15.498  1.00  0.00     0.000 C 
BRANCH   5   6
ATOM      6  C   UNL     1      13.347  14.221  14.870  1.00  0.00     0.006 C 
BRANCH   6   7
ATOM      7  C   UNL     1      13.262  14.250  13.336  1.00  0.00     0.053 C 
BRANCH   7   8
ATOM      8  C   UNL     1      13.383  15.641  12.794  1.00  0.00     0.041 C 
ATOM      9  O   UNL     1      13.005  15.899  11.621  1.00  0.00    -0.550 OA
ATOM     10  O   UNL     1      13.945  16.645  13.573  1.00  0.00    -0.550 OA
ENDBRANCH   7   8
ENDBRANCH   6   7
ENDBRANCH   5   6
ENDBRANCH   4   5
ENDBRANCH   3   4
ENDBRANCH   2   3
ENDBRANCH   1   2
BRANCH   1  11
ATOM     11  C   UNL     1      14.348   7.747  14.969  1.00  0.00     0.000 C 
BRANCH  11  12
ATOM     12  C   UNL     1      14.075   6.281  14.566  1.00  0.00    -0.000 C 
BRANCH  12  13
ATOM     13  C   UNL     1      14.152   5.292  15.741  1.00  0.00    -0.000 C 
BRANCH  13  14
ATOM     14  C   UNL     1      12.861   5.259  16.577  1.00  0.00    -0.000 C 
BRANCH  14  15
ATOM     15  C   UNL     1      13.096   5.599  18.060  1.00  0.00    -0.000 C 
BRANCH  15  16
ATOM     16  C   UNL     1      11.964   5.182  19.017  1.00  0.00    -0.000 C 
BRANCH  16  17
ATOM     17  C   UNL     1      12.072   3.722  19.478  1.00  0.00    -0.003 C 
ATOM     18  C   UNL     1      11.425   3.527  20.845  1.00  0.00     0.004 C 
ENDBRANCH  16  17
ENDBRANCH  15  16
ENDBRANCH  14  15
ENDBRANCH  13  14
ENDBRANCH  12  13
ENDBRANCH  11  12
ENDBRANCH   1  11
TORSDOF 14
ENDMDL
MODEL 5
REMARK VINA RESULT:    -2.081      4.679      9.978
REMARK INTER + INTRA:          -4.280
REMARK INTER:                  -3.702
REMARK INTRA:                  -0.578
REMARK UNBOUND:                -0.496
REMARK SMILES CCCCCCCCCCCCCCCC(=O)[O-]
REMARK SMILES IDX 9 1 10 2 11 3 12 4 13 5 14 6 15 7 16 8 17 9 18 10 8 11 7 12
REMARK SMILES IDX 6 13 5 14 4 15 3 16 2 17 1 18
REMARK H PARENT
REMARK Flexibility Score: inf
ROOT
ATOM      1  C   UNL     1      12.448  10.564  14.478  1.00  0.00     0.000 C 
ENDROOT
BRANCH   1   2
ATOM      2  C   UNL     1      12.864   9.727  15.696  1.00  0.00     0.000 C 
BRANCH   2   3
ATOM      3  C   UNL     1      13.749   8.524  15.322  1.00  0.00     0.000 C 
BRANCH   3   4
ATOM      4  C   UNL     1      13.074   7.147  15.476  1.00  0.00     0.000 C 
BRANCH   4   5
ATOM      5  C   UNL     1      12.492   6.856  16.874  1.00  0.00     0.000 C 
BRANCH   5   6
ATOM      6  C   UNL     1      12.865   5.479  17.461  1.00  0.00     0.006 C 
BRANCH   6   7
ATOM      7  C   UNL     1      12.622   5.346  18.972  1.00  0.00     0.053 C 
BRANCH   7   8
ATOM      8  C   UNL     1      12.153   3.974  19.347  1.00  0.00     0.041 C 
ATOM      9  O   UNL     1      11.463   3.802  20.386  1.00  0.00    -0.550 OA
ATOM     10  O   UNL     1      12.506   2.881  18.566  1.00  0.00    -0.550 OA
ENDBRANCH   7   8
ENDBRANCH   6   7
ENDBRANCH   5   6
ENDBRANCH   4   5
ENDBRANCH   3   4
ENDBRANCH   2   3
ENDBRANCH   1   2
BRANCH   1  11
ATOM     11  C   UNL     1      12.230  12.034  14.868  1.00  0.00     0.000 C 
BRANCH  11  12
ATOM     12  C   UNL     1      13.304  12.540  15.856  1.00  0.00    -0.000 C 
BRANCH  12  13
ATOM     13  C   UNL     1      13.694  14.012  15.643  1.00  0.00    -0.000 C 
BRANCH  13  14
ATOM     14  C   UNL     1      12.683  14.777  14.773  1.00  0.00    -0.000 C 
BRANCH  14  15
ATOM     15  C   UNL     1      13.323  15.414  13.527  1.00  0.00    -0.000 C 
BRANCH  15  16
ATOM     16  C   UNL     1      12.865  14.826  12.179  1.00  0.00    -0.000 C 
BRANCH  16  17
ATOM     17  C   UNL     1      12.859  13.291  12.163  1.00  0.00    -0.003 C 
ATOM     18  C   UNL     1      11.697  12.754  11.335  1.00  0.00     0.004 C 
ENDBRANCH  16  17
ENDBRANCH  15  16
ENDBRANCH  14  15
ENDBRANCH  13  14
ENDBRANCH  12  13
ENDBRANCH  11  12
ENDBRANCH   1  11
TORSDOF 14
ENDMDL
MODEL 6
REMARK VINA RESULT:    -1.965      4.806     10.226
REMARK INTER + INTRA:          -4.069
REMARK INTER:                  -3.260
REMARK INTRA:                  -0.810
REMARK UNBOUND:                -0.496
REMARK SMILES CCCCCCCCCCCCCCCC(=O)[O-]
REMARK SMILES IDX 9 1 10 2 11 3 12 4 13 5 14 6 15 7 16 8 17 9 18 10 8 11 7 12
REMARK SMILES IDX 6 13 5 14 4 15 3 16 2 17 1 18
REMARK H PARENT
REMARK Flexibility Score: inf
ROOT
ATOM      1  C   UNL     1      12.855   9.994  14.758  1.00  0.00     0.000 C 
ENDROOT
BRANCH   1   2
ATOM      2  C   UNL     1      13.799   8.971  15.405  1.00  0.00     0.000 C 
BRANCH   2   3
ATOM      3  C   UNL     1      13.263   7.530  15.329  1.00  0.00     0.000 C 
BRANCH   3   4
ATOM      4  C   UNL     1      12.474   7.063  16.568  1.00  0.00     0.000 C 
BRANCH   4   5
ATOM      5  C   UNL     1      12.683   5.586  16.959  1.00  0.00     0.000 C 
BRANCH   5   6
ATOM      6  C   UNL     1      13.157   5.356  18.408  1.00  0.00     0.006 C 
BRANCH   6   7
ATOM      7  C   UNL     1      12.022   5.129  19.419  1.00  0.00     0.053 C 
BRANCH   7   8
ATOM      8  C   UNL     1      11.891   3.688  19.801  1.00  0.00     0.041 C 
ATOM      9  O   UNL     1      11.333   3.367  20.883  1.00  0.00    -0.550 OA
ATOM     10  O   UNL     1      12.416   2.699  18.978  1.00  0.00    -0.550 OA
ENDBRANCH   7   8
ENDBRANCH   6   7
ENDBRANCH   5   6
ENDBRANCH   4   5
ENDBRANCH   3   4
ENDBRANCH   2   3
ENDBRANCH   1   2
BRANCH   1  11
ATOM     11  C   UNL     1      12.900  11.335  15.505  1.00  0.00     0.000 C 
BRANCH  11  12
ATOM     12  C   UNL     1      12.117  12.441  14.764  1.00  0.00    -0.000 C 
BRANCH  12  13
ATOM     13  C   UNL     1      11.358  11.937  13.525  1.00  0.00    -0.000 C 
BRANCH  13  14
ATOM     14  C   UNL     1      11.863  12.571  12.218  1.00  0.00    -0.000 C 
BRANCH  14  15
ATOM     15  C   UNL     1      12.982  13.604  12.444  1.00  0.00    -0.000 C 
BRANCH  15  16
ATOM     16  C   UNL     1      12.683  15.021  11.919  1.00  0.00    -0.000 C 
BRANCH  16  17
ATOM     17  C   UNL     1      13.270  16.127  12.807  1.00  0.00    -0.003 C 
ATOM     18  C   UNL     1      13.383  15.667  14.257  1.00  0.00     0.004 C 
ENDBRANCH  16  17
ENDBRANCH  15  16
ENDBRANCH  14  15
ENDBRANCH  13  14
ENDBRANCH  12  13
ENDBRANCH  11  12
ENDBRANCH   1  11
TORSDOF 14
ENDMDL
MODEL 7
REMARK VINA RESULT:    -1.948      4.553      9.974
REMARK INTER + INTRA:          -4.037
REMARK INTER:                  -3.567
REMARK INTRA:                  -0.470
REMARK UNBOUND:                -0.496
REMARK SMILES CCCCCCCCCCCCCCCC(=O)[O-]
REMARK SMILES IDX 9 1 10 2 11 3 12 4 13 5 14 6 15 7 16 8 17 9 18 10 8 11 7 12
REMARK SMILES IDX 6 13 5 14 4 15 3 16 2 17 1 18
REMARK H PARENT
REMARK Flexibility Score: inf
ROOT
ATOM      1  C   UNL     1      13.993   8.056  15.385  1.00  0.00     0.000 C 
ENDROOT
BRANCH   1   2
ATOM      2  C   UNL     1      13.906   6.713  14.647  1.00  0.00     0.000 C 
BRANCH   2   3
ATOM      3  C   UNL     1      14.351   5.523  15.517  1.00  0.00     0.000 C 
BRANCH   3   4
ATOM      4  C   UNL     1      13.246   4.914  16.401  1.00  0.00     0.000 C 
BRANCH   4   5
ATOM      5  C   UNL     1      12.428   5.932  17.221  1.00  0.00     0.000 C 
BRANCH   5   6
ATOM      6  C   UNL     1      12.498   5.744  18.750  1.00  0.00     0.006 C 
BRANCH   6   7
ATOM      7  C   UNL     1      12.486   4.277  19.209  1.00  0.00     0.053 C 
BRANCH   7   8
ATOM      8  C   UNL     1      11.371   3.999  20.170  1.00  0.00     0.041 C 
ATOM      9  O   UNL     1      10.213   4.438  19.940  1.00  0.00    -0.550 OA
ATOM     10  O   UNL     1      11.619   3.284  21.335  1.00  0.00    -0.550 OA
ENDBRANCH   7   8
ENDBRANCH   6   7
ENDBRANCH   5   6
ENDBRANCH   4   5
ENDBRANCH   3   4
ENDBRANCH   2   3
ENDBRANCH   1   2
BRANCH   1  11
ATOM     11  C   UNL     1      12.807   8.962  15.021  1.00  0.00     0.000 C 
BRANCH  11  12
ATOM     12  C   UNL     1      13.176  10.461  15.090  1.00  0.00    -0.000 C 
BRANCH  12  13
ATOM     13  C   UNL     1      12.109  11.388  14.486  1.00  0.00    -0.000 C 
BRANCH  13  14
ATOM     14  C   UNL     1      11.937  12.695  15.279  1.00  0.00    -0.000 C 
BRANCH  14  15
ATOM     15  C   UNL     1      13.234  13.519  15.368  1.00  0.00    -0.000 C 
BRANCH  15  16
ATOM     16  C   UNL     1      13.222  14.848  14.589  1.00  0.00    -0.000 C 
BRANCH  16  17
ATOM     17  C   UNL     1      13.260  14.653  13.067  1.00  0.00    -0.003 C 
ATOM     18  C   UNL     1      13.336  15.993  12.342  1.00  0.00     0.004 C 
ENDBRANCH  16  17
ENDBRANCH  15  16
ENDBRANCH  14  15
ENDBRANCH  13  14
ENDBRANCH  12  13
ENDBRANCH  11  12
ENDBRANCH   1  11
TORSDOF 14
ENDMDL
MODEL 8
REMARK VINA RESULT:    -1.486      2.288      4.257
REMARK INTER + INTRA:          -3.198
REMARK INTER:                  -2.438
REMARK INTRA:                  -0.761
REMARK UNBOUND:                -0.496
REMARK SMILES CCCCCCCCCCCCCCCC(=O)[O-]
REMARK SMILES IDX 9 1 10 2 11 3 12 4 13 5 14 6 15 7 16 8 17 9 18 10 8 11 7 12
REMARK SMILES IDX 6 13 5 14 4 15 3 16 2 17 1 18
REMARK H PARENT
REMARK Flexibility Score: inf
ROOT
ATOM      1  C   UNL     1      12.498   7.407  16.528  1.00  0.00     0.000 C 
ENDROOT
BRANCH   1   2
ATOM      2  C   UNL     1      13.550   7.637  15.434  1.00  0.00     0.000 C 
BRANCH   2   3
ATOM      3  C   UNL     1      13.754   9.126  15.103  1.00  0.00     0.000 C 
BRANCH   3   4
ATOM      4  C   UNL     1      12.457   9.952  14.993  1.00  0.00     0.000 C 
BRANCH   4   5
ATOM      5  C   UNL     1      12.586  11.432  15.407  1.00  0.00     0.000 C 
BRANCH   5   6
ATOM      6  C   UNL     1      12.771  12.421  14.238  1.00  0.00     0.006 C 
BRANCH   6   7
ATOM      7  C   UNL     1      13.164  13.843  14.665  1.00  0.00     0.053 C 
BRANCH   7   8
ATOM      8  C   UNL     1      13.188  14.791  13.506  1.00  0.00     0.041 C 
ATOM      9  O   UNL     1      13.424  16.014  13.692  1.00  0.00    -0.550 OA
ATOM     10  O   UNL     1      12.915  14.330  12.224  1.00  0.00    -0.550 OA
ENDBRANCH   7   8
ENDBRANCH   6   7
ENDBRANCH   5   6
ENDBRANCH   4   5
ENDBRANCH   3   4
ENDBRANCH   2   3
ENDBRANCH   1   2
BRANCH   1  11
ATOM     11  C   UNL     1      12.798   6.126  17.321  1.00  0.00     0.000 C 
BRANCH  11  12
ATOM     12  C   UNL     1      12.744   4.864  16.432  1.00  0.00    -0.000 C 
BRANCH  12  13
ATOM     13  C   UNL     1      13.860   3.850  16.731  1.00  0.00    -0.000 C 
BRANCH  13  14
ATOM     14  C   UNL     1      15.027   3.937  15.733  1.00  0.00    -0.000 C 
BRANCH  14  15
ATOM     15  C   UNL     1      14.670   4.719  14.456  1.00  0.00    -0.000 C 
BRANCH  15  16
ATOM     16  C   UNL     1      15.861   5.063  13.542  1.00  0.00    -0.000 C 
BRANCH  16  17
ATOM     17  C   UNL     1      17.166   4.379  13.972  1.00  0.00    -0.003 C 
ATOM     18  C   UNL     1      17.944   3.869  12.763  1.00  0.00     0.004 C 
ENDBRANCH  16  17
ENDBRANCH  15  16
ENDBRANCH  14  15
ENDBRANCH  13  14
ENDBRANCH  12  13
ENDBRANCH  11  12
ENDBRANCH   1  11
TORSDOF 14
ENDMDL
MODEL 9
REMARK VINA RESULT:    -1.479      4.045      9.197
REMARK INTER + INTRA:          -3.186
REMARK INTER:                  -2.207
REMARK INTRA:                  -0.979
REMARK UNBOUND:                -0.496
REMARK SMILES CCCCCCCCCCCCCCCC(=O)[O-]
REMARK SMILES IDX 9 1 10 2 11 3 12 4 13 5 14 6 15 7 16 8 17 9 18 10 8 11 7 12
REMARK SMILES IDX 6 13 5 14 4 15 3 16 2 17 1 18
REMARK H PARENT
REMARK Flexibility Score: inf
ROOT
ATOM      1  C   UNL     1      13.625   7.672  16.118  1.00  0.00     0.000 C 
ENDROOT
BRANCH   1   2
ATOM      2  C   UNL     1      12.515   6.854  16.795  1.00  0.00     0.000 C 
BRANCH   2   3
ATOM      3  C   UNL     1      12.942   5.409  17.106  1.00  0.00     0.000 C 
BRANCH   3   4
ATOM      4  C   UNL     1      13.302   4.557  15.873  1.00  0.00     0.000 C 
BRANCH   4   5
ATOM      5  C   UNL     1      14.796   4.202  15.736  1.00  0.00     0.000 C 
BRANCH   5   6
ATOM      6  C   UNL     1      15.510   4.845  14.530  1.00  0.00     0.006 C 
BRANCH   6   7
ATOM      7  C   UNL     1      14.585   5.182  13.350  1.00  0.00     0.053 C 
BRANCH   7   8
ATOM      8  C   UNL     1      15.114   4.653  12.053  1.00  0.00     0.041 C 
ATOM      9  O   UNL     1      14.375   4.617  11.035  1.00  0.00    -0.550 OA
ATOM     10  O   UNL     1      16.414   4.169  11.978  1.00  0.00    -0.550 OA
ENDBRANCH   7   8
ENDBRANCH   6   7
ENDBRANCH   5   6
ENDBRANCH   4   5
ENDBRANCH   3   4
ENDBRANCH   2   3
ENDBRANCH   1   2
BRANCH   1  11
ATOM     11  C   UNL     1      13.064   8.510  14.960  1.00  0.00     0.000 C 
BRANCH  11  12
ATOM     12  C   UNL     1      13.119  10.025  15.257  1.00  0.00    -0.000 C 
BRANCH  12  13
ATOM     13  C   UNL     1      12.014  10.833  14.557  1.00  0.00    -0.000 C 
BRANCH  13  14
ATOM     14  C   UNL     1      12.472  12.244  14.153  1.00  0.00    -0.000 C 
BRANCH  14  15
ATOM     15  C   UNL     1      12.778  13.146  15.362  1.00  0.00    -0.000 C 
BRANCH  15  16
ATOM     16  C   UNL     1      13.220  14.580  15.017  1.00  0.00    -0.000 C 
BRANCH  16  17
ATOM     17  C   UNL     1      13.326  14.830  13.505  1.00  0.00    -0.003 C 
ATOM     18  C   UNL     1      13.646  16.292  13.210  1.00  0.00     0.004 C 
ENDBRANCH  16  17
ENDBRANCH  15  16
ENDBRANCH  14  15
ENDBRANCH  13  14
ENDBRANCH  12  13
ENDBRANCH  11  12
ENDBRANCH   1  11
TORSDOF 14
ENDMDL
