MODEL 1
REMARK VINA RESULT:    -5.248      0.000      0.000
REMARK INTER + INTRA:         -15.040
REMARK INTER:                 -11.997
REMARK INTRA:                  -3.044
REMARK UNBOUND:                -3.044
REMARK SMILES CCCCCCCCCCCCCCCCCCCCCCCC(=O)[O-]
REMARK SMILES IDX 13 1 14 2 15 3 16 4 17 5 18 6 19 7 20 8 21 9 22 10 23 11
REMARK SMILES IDX 24 12 25 13 26 14 12 15 11 16 10 17 9 18 8 19 7 20 6 21 5 22
REMARK SMILES IDX 4 23 3 24 2 25 1 26
REMARK H PARENT
REMARK Flexibility Score: inf
ROOT
ATOM      1  C   UNL     1      19.598  28.799  31.362  1.00  0.00     0.000 C 
ENDROOT
BRANCH   1   2
ATOM      2  C   UNL     1      18.267  29.328  30.814  1.00  0.00     0.000 C 
BRANCH   2   3
ATOM      3  C   UNL     1      18.399  30.790  30.359  1.00  0.00     0.000 C 
BRANCH   3   4
ATOM      4  C   UNL     1      18.650  30.917  28.849  1.00  0.00     0.000 C 
BRANCH   4   5
ATOM      5  C   UNL     1      18.190  29.674  28.068  1.00  0.00     0.000 C 
BRANCH   5   6
ATOM      6  C   UNL     1      19.342  28.991  27.314  1.00  0.00     0.000 C 
BRANCH   6   7
ATOM      7  C   UNL     1      18.933  27.638  26.712  1.00  0.00     0.000 C 
BRANCH   7   8
ATOM      8  C   UNL     1      17.754  27.026  27.483  1.00  0.00     0.000 C 
BRANCH   8   9
ATOM      9  C   UNL     1      18.219  26.198  28.700  1.00  0.00     0.000 C 
BRANCH   9  10
ATOM     10  C   UNL     1      19.400  25.262  28.393  1.00  0.00     0.006 C 
BRANCH  10  11
ATOM     11  C   UNL     1      18.956  23.911  27.818  1.00  0.00     0.053 C 
BRANCH  11  12
ATOM     12  C   UNL     1      19.390  22.795  28.716  1.00  0.00     0.041 C 
ATOM     13  O   UNL     1      20.610  22.506  28.827  1.00  0.00    -0.550 OA
ATOM     14  O   UNL     1      18.438  22.036  29.389  1.00  0.00    -0.550 OA
ENDBRANCH  11  12
ENDBRANCH  10  11
ENDBRANCH   9  10
ENDBRANCH   8   9
ENDBRANCH   7   8
ENDBRANCH   6   7
ENDBRANCH   5   6
ENDBRANCH   4   5
ENDBRANCH   3   4
ENDBRANCH   2   3
ENDBRANCH   1   2
BRANCH   1  15
ATOM     15  C   UNL     1      19.435  27.369  31.901  1.00  0.00     0.000 C 
BRANCH  15  16
ATOM     16  C   UNL     1      20.776  26.720  32.285  1.00  0.00     0.000 C 
BRANCH  16  17
ATOM     17  C   UNL     1      20.943  26.416  33.787  1.00  0.00     0.000 C 
BRANCH  17  18
ATOM     18  C   UNL     1      19.761  26.897  34.656  1.00  0.00    -0.000 C 
BRANCH  18  19
ATOM     19  C   UNL     1      20.153  28.068  35.575  1.00  0.00    -0.000 C 
BRANCH  19  20
ATOM     20  C   UNL     1      19.088  29.185  35.600  1.00  0.00    -0.000 C 
BRANCH  20  21
ATOM     21  C   UNL     1      17.863  28.897  34.712  1.00  0.00    -0.000 C 
BRANCH  21  22
ATOM     22  C   UNL     1      16.695  29.888  34.869  1.00  0.00    -0.000 C 
BRANCH  22  23
ATOM     23  C   UNL     1      16.494  30.850  33.684  1.00  0.00    -0.000 C 
BRANCH  23  24
ATOM     24  C   UNL     1      17.410  32.082  33.751  1.00  0.00    -0.000 C 
BRANCH  24  25
ATOM     25  C   UNL     1      16.659  33.349  33.325  1.00  0.00    -0.003 C 
ATOM     26  C   UNL     1      15.783  33.876  34.459  1.00  0.00     0.004 C 
ENDBRANCH  24  25
ENDBRANCH  23  24
ENDBRANCH  22  23
ENDBRANCH  21  22
ENDBRANCH  20  21
ENDBRANCH  19  20
ENDBRANCH  18  19
ENDBRANCH  17  18
ENDBRANCH  16  17
ENDBRANCH  15  16
ENDBRANCH   1  15
TORSDOF 22
ENDMDL
MODEL 2
REMARK VINA RESULT:    -5.184      1.583      3.878
REMARK INTER + INTRA:         -14.896
REMARK INTER:                 -11.254
REMARK INTRA:                  -3.641
REMARK UNBOUND:                -3.044
REMARK SMILES CCCCCCCCCCCCCCCCCCCCCCCC(=O)[O-]
REMARK SMILES IDX 13 1 14 2 15 3 16 4 17 5 18 6 19 7 20 8 21 9 22 10 23 11
REMARK SMILES IDX 24 12 25 13 26 14 12 15 11 16 10 17 9 18 8 19 7 20 6 21 5 22
REMARK SMILES IDX 4 23 3 24 2 25 1 26
REMARK H PARENT
REMARK Flexibility Score: inf
ROOT
ATOM      1  C   UNL     1      19.114  27.658  34.735  1.00  0.00     0.000 C 
ENDROOT
BRANCH   1   2
ATOM      2  C   UNL     1      20.158  27.428  33.636  1.00  0.00     0.000 C 
BRANCH   2   3
ATOM      3  C   UNL     1      20.640  28.761  33.044  1.00  0.00     0.000 C 
BRANCH   3   4
ATOM      4  C   UNL     1      20.136  28.986  31.610  1.00  0.00     0.000 C 
BRANCH   4   5
ATOM      5  C   UNL     1      19.119  27.921  31.168  1.00  0.00     0.000 C 
BRANCH   5   6
ATOM      6  C   UNL     1      17.981  28.509  30.317  1.00  0.00     0.000 C 
BRANCH   6   7
ATOM      7  C   UNL     1      18.428  29.730  29.499  1.00  0.00     0.000 C 
BRANCH   7   8
ATOM      8  C   UNL     1      18.506  29.393  28.003  1.00  0.00     0.000 C 
BRANCH   8   9
ATOM      9  C   UNL     1      17.654  28.159  27.639  1.00  0.00     0.000 C 
BRANCH   9  10
ATOM     10  C   UNL     1      18.420  27.101  26.825  1.00  0.00     0.006 C 
BRANCH  10  11
ATOM     11  C   UNL     1      18.545  25.760  27.558  1.00  0.00     0.053 C 
BRANCH  11  12
ATOM     12  C   UNL     1      19.801  25.725  28.370  1.00  0.00     0.041 C 
ATOM     13  O   UNL     1      19.906  24.936  29.346  1.00  0.00    -0.550 OA
ATOM     14  O   UNL     1      20.838  26.607  28.083  1.00  0.00    -0.550 OA
ENDBRANCH  11  12
ENDBRANCH  10  11
ENDBRANCH   9  10
ENDBRANCH   8   9
ENDBRANCH   7   8
ENDBRANCH   6   7
ENDBRANCH   5   6
ENDBRANCH   4   5
ENDBRANCH   3   4
ENDBRANCH   2   3
ENDBRANCH   1   2
BRANCH   1  15
ATOM     15  C   UNL     1      19.480  28.885  35.585  1.00  0.00     0.000 C 
BRANCH  15  16
ATOM     16  C   UNL     1      18.370  29.949  35.604  1.00  0.00     0.000 C 
BRANCH  16  17
ATOM     17  C   UNL     1      17.137  29.617  34.741  1.00  0.00     0.000 C 
BRANCH  17  18
ATOM     18  C   UNL     1      17.087  30.387  33.404  1.00  0.00    -0.000 C 
BRANCH  18  19
ATOM     19  C   UNL     1      18.134  31.513  33.341  1.00  0.00    -0.000 C 
BRANCH  19  20
ATOM     20  C   UNL     1      17.771  32.603  32.310  1.00  0.00    -0.000 C 
BRANCH  20  21
ATOM     21  C   UNL     1      17.162  33.872  32.935  1.00  0.00    -0.000 C 
BRANCH  21  22
ATOM     22  C   UNL     1      15.771  33.686  33.567  1.00  0.00    -0.000 C 
BRANCH  22  23
ATOM     23  C   UNL     1      15.408  34.713  34.656  1.00  0.00    -0.000 C 
BRANCH  23  24
ATOM     24  C   UNL     1      15.974  34.347  36.037  1.00  0.00    -0.000 C 
BRANCH  24  25
ATOM     25  C   UNL     1      16.082  32.826  36.201  1.00  0.00    -0.003 C 
ATOM     26  C   UNL     1      15.291  32.347  37.415  1.00  0.00     0.004 C 
ENDBRANCH  24  25
ENDBRANCH  23  24
ENDBRANCH  22  23
ENDBRANCH  21  22
ENDBRANCH  20  21
ENDBRANCH  19  20
ENDBRANCH  18  19
ENDBRANCH  17  18
ENDBRANCH  16  17
ENDBRANCH  15  16
ENDBRANCH   1  15
TORSDOF 22
ENDMDL
MODEL 3
REMARK VINA RESULT:    -5.183      4.132      8.770
REMARK INTER + INTRA:         -14.893
REMARK INTER:                 -11.749
REMARK INTRA:                  -3.143
REMARK UNBOUND:                -3.044
REMARK SMILES CCCCCCCCCCCCCCCCCCCCCCCC(=O)[O-]
REMARK SMILES IDX 13 1 14 2 15 3 16 4 17 5 18 6 19 7 20 8 21 9 22 10 23 11
REMARK SMILES IDX 24 12 25 13 26 14 12 15 11 16 10 17 9 18 8 19 7 20 6 21 5 22
REMARK SMILES IDX 4 23 3 24 2 25 1 26
REMARK H PARENT
REMARK Flexibility Score: inf
ROOT
ATOM      1  C   UNL     1      19.885  26.994  32.582  1.00  0.00     0.000 C 
ENDROOT
BRANCH   1   2
ATOM      2  C   UNL     1      19.596  27.186  34.075  1.00  0.00     0.000 C 
BRANCH   2   3
ATOM      3  C   UNL     1      20.139  28.534  34.574  1.00  0.00     0.000 C 
BRANCH   3   4
ATOM      4  C   UNL     1      19.061  29.387  35.260  1.00  0.00     0.000 C 
BRANCH   4   5
ATOM      5  C   UNL     1      17.636  28.941  34.895  1.00  0.00     0.000 C 
BRANCH   5   6
ATOM      6  C   UNL     1      16.628  30.102  34.926  1.00  0.00     0.000 C 
BRANCH   6   7
ATOM      7  C   UNL     1      17.308  31.467  35.112  1.00  0.00     0.000 C 
BRANCH   7   8
ATOM      8  C   UNL     1      16.381  32.450  35.842  1.00  0.00     0.000 C 
BRANCH   8   9
ATOM      9  C   UNL     1      16.233  33.786  35.083  1.00  0.00     0.000 C 
BRANCH   9  10
ATOM     10  C   UNL     1      15.658  33.628  33.665  1.00  0.00     0.006 C 
BRANCH  10  11
ATOM     11  C   UNL     1      14.953  34.894  33.163  1.00  0.00     0.053 C 
BRANCH  11  12
ATOM     12  C   UNL     1      15.870  35.688  32.287  1.00  0.00     0.041 C 
ATOM     13  O   UNL     1      15.501  36.799  31.823  1.00  0.00    -0.550 OA
ATOM     14  O   UNL     1      17.114  35.175  31.937  1.00  0.00    -0.550 OA
ENDBRANCH  11  12
ENDBRANCH  10  11
ENDBRANCH   9  10
ENDBRANCH   8   9
ENDBRANCH   7   8
ENDBRANCH   6   7
ENDBRANCH   5   6
ENDBRANCH   4   5
ENDBRANCH   3   4
ENDBRANCH   2   3
ENDBRANCH   1   2
BRANCH   1  15
ATOM     15  C   UNL     1      19.735  28.321  31.822  1.00  0.00     0.000 C 
BRANCH  15  16
ATOM     16  C   UNL     1      18.285  28.600  31.390  1.00  0.00     0.000 C 
BRANCH  16  17
ATOM     17  C   UNL     1      17.885  30.088  31.381  1.00  0.00     0.000 C 
BRANCH  17  18
ATOM     18  C   UNL     1      18.960  31.019  30.779  1.00  0.00    -0.000 C 
BRANCH  18  19
ATOM     19  C   UNL     1      18.488  31.688  29.476  1.00  0.00    -0.000 C 
BRANCH  19  20
ATOM     20  C   UNL     1      18.368  30.689  28.306  1.00  0.00    -0.000 C 
BRANCH  20  21
ATOM     21  C   UNL     1      19.652  29.881  28.043  1.00  0.00    -0.000 C 
BRANCH  21  22
ATOM     22  C   UNL     1      19.438  28.515  27.366  1.00  0.00    -0.000 C 
BRANCH  22  23
ATOM     23  C   UNL     1      17.981  28.016  27.354  1.00  0.00    -0.000 C 
BRANCH  23  24
ATOM     24  C   UNL     1      17.698  26.969  28.442  1.00  0.00    -0.000 C 
BRANCH  24  25
ATOM     25  C   UNL     1      18.933  26.101  28.704  1.00  0.00    -0.003 C 
ATOM     26  C   UNL     1      18.843  24.775  27.952  1.00  0.00     0.004 C 
ENDBRANCH  24  25
ENDBRANCH  23  24
ENDBRANCH  22  23
ENDBRANCH  21  22
ENDBRANCH  20  21
ENDBRANCH  19  20
ENDBRANCH  18  19
ENDBRANCH  17  18
ENDBRANCH  16  17
ENDBRANCH  15  16
ENDBRANCH   1  15
TORSDOF 22
ENDMDL
MODEL 4
REMARK VINA RESULT:    -5.151      3.858      8.353
REMARK INTER + INTRA:         -14.819
REMARK INTER:                 -11.086
REMARK INTRA:                  -3.734
REMARK UNBOUND:                -3.044
REMARK SMILES CCCCCCCCCCCCCCCCCCCCCCCC(=O)[O-]
REMARK SMILES IDX 13 1 14 2 15 3 16 4 17 5 18 6 19 7 20 8 21 9 22 10 23 11
REMARK SMILES IDX 24 12 25 13 26 14 12 15 11 16 10 17 9 18 8 19 7 20 6 21 5 22
REMARK SMILES IDX 4 23 3 24 2 25 1 26
REMARK H PARENT
REMARK Flexibility Score: inf
ROOT
ATOM      1  C   UNL     1      20.492  26.472  31.326  1.00  0.00     0.000 C 
ENDROOT
BRANCH   1   2
ATOM      2  C   UNL     1      21.440  26.583  32.526  1.00  0.00     0.000 C 
BRANCH   2   3
ATOM      3  C   UNL     1      20.886  25.824  33.741  1.00  0.00     0.000 C 
BRANCH   3   4
ATOM      4  C   UNL     1      19.791  26.609  34.478  1.00  0.00     0.000 C 
BRANCH   4   5
ATOM      5  C   UNL     1      20.366  27.622  35.482  1.00  0.00     0.000 C 
BRANCH   5   6
ATOM      6  C   UNL     1      19.484  28.873  35.629  1.00  0.00     0.000 C 
BRANCH   6   7
ATOM      7  C   UNL     1      18.451  29.002  34.499  1.00  0.00     0.000 C 
BRANCH   7   8
ATOM      8  C   UNL     1      17.149  29.633  35.013  1.00  0.00     0.000 C 
BRANCH   8   9
ATOM      9  C   UNL     1      16.420  30.440  33.917  1.00  0.00     0.000 C 
BRANCH   9  10
ATOM     10  C   UNL     1      17.089  31.788  33.597  1.00  0.00     0.006 C 
BRANCH  10  11
ATOM     11  C   UNL     1      16.178  32.988  33.880  1.00  0.00     0.053 C 
BRANCH  11  12
ATOM     12  C   UNL     1      16.508  33.591  35.209  1.00  0.00     0.041 C 
ATOM     13  O   UNL     1      17.644  33.412  35.724  1.00  0.00    -0.550 OA
ATOM     14  O   UNL     1      15.541  34.306  35.907  1.00  0.00    -0.550 OA
ENDBRANCH  11  12
ENDBRANCH  10  11
ENDBRANCH   9  10
ENDBRANCH   8   9
ENDBRANCH   7   8
ENDBRANCH   6   7
ENDBRANCH   5   6
ENDBRANCH   4   5
ENDBRANCH   3   4
ENDBRANCH   2   3
ENDBRANCH   1   2
BRANCH   1  15
ATOM     15  C   UNL     1      19.980  27.859  30.906  1.00  0.00     0.000 C 
BRANCH  15  16
ATOM     16  C   UNL     1      18.446  27.965  30.948  1.00  0.00     0.000 C 
BRANCH  16  17
ATOM     17  C   UNL     1      17.893  29.402  30.878  1.00  0.00     0.000 C 
BRANCH  17  18
ATOM     18  C   UNL     1      18.972  30.473  30.610  1.00  0.00    -0.000 C 
BRANCH  18  19
ATOM     19  C   UNL     1      18.522  31.504  29.560  1.00  0.00    -0.000 C 
BRANCH  19  20
ATOM     20  C   UNL     1      18.470  30.916  28.134  1.00  0.00    -0.000 C 
BRANCH  20  21
ATOM     21  C   UNL     1      19.669  30.012  27.791  1.00  0.00    -0.000 C 
BRANCH  21  22
ATOM     22  C   UNL     1      19.306  28.669  27.130  1.00  0.00    -0.000 C 
BRANCH  22  23
ATOM     23  C   UNL     1      17.834  28.244  27.286  1.00  0.00    -0.000 C 
BRANCH  23  24
ATOM     24  C   UNL     1      17.673  26.746  27.589  1.00  0.00    -0.000 C 
BRANCH  24  25
ATOM     25  C   UNL     1      19.032  26.090  27.858  1.00  0.00    -0.003 C 
ATOM     26  C   UNL     1      18.898  24.573  27.969  1.00  0.00     0.004 C 
ENDBRANCH  24  25
ENDBRANCH  23  24
ENDBRANCH  22  23
ENDBRANCH  21  22
ENDBRANCH  20  21
ENDBRANCH  19  20
ENDBRANCH  18  19
ENDBRANCH  17  18
ENDBRANCH  16  17
ENDBRANCH  15  16
ENDBRANCH   1  15
TORSDOF 22
ENDMDL
MODEL 5
REMARK VINA RESULT:    -5.139      1.582      3.061
REMARK INTER + INTRA:         -14.793
REMARK INTER:                 -11.618
REMARK INTRA:                  -3.175
REMARK UNBOUND:                -3.044
REMARK SMILES CCCCCCCCCCCCCCCCCCCCCCCC(=O)[O-]
REMARK SMILES IDX 13 1 14 2 15 3 16 4 17 5 18 6 19 7 20 8 21 9 22 10 23 11
REMARK SMILES IDX 24 12 25 13 26 14 12 15 11 16 10 17 9 18 8 19 7 20 6 21 5 22
REMARK SMILES IDX 4 23 3 24 2 25 1 26
REMARK H PARENT
REMARK Flexibility Score: inf
ROOT
ATOM      1  C   UNL     1      18.993  28.091  31.940  1.00  0.00     0.000 C 
ENDROOT
BRANCH   1   2
ATOM      2  C   UNL     1      18.205  29.121  31.123  1.00  0.00     0.000 C 
BRANCH   2   3
ATOM      3  C   UNL     1      19.096  30.307  30.723  1.00  0.00     0.000 C 
BRANCH   3   4
ATOM      4  C   UNL     1      18.419  31.236  29.704  1.00  0.00     0.000 C 
BRANCH   4   5
ATOM      5  C   UNL     1      18.392  30.638  28.288  1.00  0.00     0.000 C 
BRANCH   5   6
ATOM      6  C   UNL     1      19.735  30.004  27.889  1.00  0.00     0.000 C 
BRANCH   6   7
ATOM      7  C   UNL     1      19.607  28.507  27.566  1.00  0.00     0.000 C 
BRANCH   7   8
ATOM      8  C   UNL     1      18.146  28.127  27.284  1.00  0.00     0.000 C 
BRANCH   8   9
ATOM      9  C   UNL     1      17.609  27.086  28.289  1.00  0.00     0.000 C 
BRANCH   9  10
ATOM     10  C   UNL     1      18.671  26.075  28.754  1.00  0.00     0.006 C 
BRANCH  10  11
ATOM     11  C   UNL     1      18.766  24.847  27.841  1.00  0.00     0.053 C 
BRANCH  11  12
ATOM     12  C   UNL     1      19.221  23.653  28.619  1.00  0.00     0.041 C 
ATOM     13  O   UNL     1      18.758  22.511  28.359  1.00  0.00    -0.550 OA
ATOM     14  O   UNL     1      20.117  23.810  29.671  1.00  0.00    -0.550 OA
ENDBRANCH  11  12
ENDBRANCH  10  11
ENDBRANCH   9  10
ENDBRANCH   8   9
ENDBRANCH   7   8
ENDBRANCH   6   7
ENDBRANCH   5   6
ENDBRANCH   4   5
ENDBRANCH   3   4
ENDBRANCH   2   3
ENDBRANCH   1   2
BRANCH   1  15
ATOM     15  C   UNL     1      19.510  28.712  33.247  1.00  0.00     0.000 C 
BRANCH  15  16
ATOM     16  C   UNL     1      18.599  28.415  34.450  1.00  0.00     0.000 C 
BRANCH  16  17
ATOM     17  C   UNL     1      18.050  29.661  35.172  1.00  0.00     0.000 C 
BRANCH  17  18
ATOM     18  C   UNL     1      16.579  29.984  34.828  1.00  0.00    -0.000 C 
BRANCH  18  19
ATOM     19  C   UNL     1      16.451  30.788  33.522  1.00  0.00    -0.000 C 
BRANCH  19  20
ATOM     20  C   UNL     1      16.983  32.230  33.658  1.00  0.00    -0.000 C 
BRANCH  20  21
ATOM     21  C   UNL     1      15.964  33.214  34.263  1.00  0.00    -0.000 C 
BRANCH  21  22
ATOM     22  C   UNL     1      16.561  34.274  35.207  1.00  0.00    -0.000 C 
BRANCH  22  23
ATOM     23  C   UNL     1      16.071  34.195  36.666  1.00  0.00    -0.000 C 
BRANCH  23  24
ATOM     24  C   UNL     1      15.465  32.829  37.020  1.00  0.00    -0.000 C 
BRANCH  24  25
ATOM     25  C   UNL     1      16.202  32.190  38.202  1.00  0.00    -0.003 C 
ATOM     26  C   UNL     1      17.710  32.172  37.965  1.00  0.00     0.004 C 
ENDBRANCH  24  25
ENDBRANCH  23  24
ENDBRANCH  22  23
ENDBRANCH  21  22
ENDBRANCH  20  21
ENDBRANCH  19  20
ENDBRANCH  18  19
ENDBRANCH  17  18
ENDBRANCH  16  17
ENDBRANCH  15  16
ENDBRANCH   1  15
TORSDOF 22
ENDMDL
MODEL 6
REMARK VINA RESULT:    -5.097      1.075      2.179
REMARK INTER + INTRA:         -14.696
REMARK INTER:                 -11.201
REMARK INTRA:                  -3.495
REMARK UNBOUND:                -3.044
REMARK SMILES CCCCCCCCCCCCCCCCCCCCCCCC(=O)[O-]
REMARK SMILES IDX 13 1 14 2 15 3 16 4 17 5 18 6 19 7 20 8 21 9 22 10 23 11
REMARK SMILES IDX 24 12 25 13 26 14 12 15 11 16 10 17 9 18 8 19 7 20 6 21 5 22
REMARK SMILES IDX 4 23 3 24 2 25 1 26
REMARK H PARENT
REMARK Flexibility Score: inf
ROOT
ATOM      1  C   UNL     1      19.073  30.754  30.521  1.00  0.00     0.000 C 
ENDROOT
BRANCH   1   2
ATOM      2  C   UNL     1      18.477  31.700  29.472  1.00  0.00     0.000 C 
BRANCH   2   3
ATOM      3  C   UNL     1      18.575  31.095  28.063  1.00  0.00     0.000 C 
BRANCH   3   4
ATOM      4  C   UNL     1      19.696  30.052  27.947  1.00  0.00     0.000 C 
BRANCH   4   5
ATOM      5  C   UNL     1      19.275  28.822  27.125  1.00  0.00     0.000 C 
BRANCH   5   6
ATOM      6  C   UNL     1      17.786  28.480  27.297  1.00  0.00     0.000 C 
BRANCH   6   7
ATOM      7  C   UNL     1      17.566  27.057  27.833  1.00  0.00     0.000 C 
BRANCH   7   8
ATOM      8  C   UNL     1      18.867  26.242  27.783  1.00  0.00     0.000 C 
BRANCH   8   9
ATOM      9  C   UNL     1      18.655  24.777  28.221  1.00  0.00     0.000 C 
BRANCH   9  10
ATOM     10  C   UNL     1      19.954  23.955  28.271  1.00  0.00     0.006 C 
BRANCH  10  11
ATOM     11  C   UNL     1      19.704  22.443  28.246  1.00  0.00     0.053 C 
BRANCH  11  12
ATOM     12  C   UNL     1      19.484  21.928  29.634  1.00  0.00     0.041 C 
ATOM     13  O   UNL     1      20.436  21.894  30.457  1.00  0.00    -0.550 OA
ATOM     14  O   UNL     1      18.238  21.432  30.001  1.00  0.00    -0.550 OA
ENDBRANCH  11  12
ENDBRANCH  10  11
ENDBRANCH   9  10
ENDBRANCH   8   9
ENDBRANCH   7   8
ENDBRANCH   6   7
ENDBRANCH   5   6
ENDBRANCH   4   5
ENDBRANCH   3   4
ENDBRANCH   2   3
ENDBRANCH   1   2
BRANCH   1  15
ATOM     15  C   UNL     1      17.972  29.909  31.181  1.00  0.00     0.000 C 
BRANCH  15  16
ATOM     16  C   UNL     1      18.180  28.398  30.983  1.00  0.00     0.000 C 
BRANCH  16  17
ATOM     17  C   UNL     1      19.652  27.940  30.982  1.00  0.00     0.000 C 
BRANCH  17  18
ATOM     18  C   UNL     1      19.866  26.527  31.566  1.00  0.00    -0.000 C 
BRANCH  18  19
ATOM     19  C   UNL     1      20.478  26.567  32.978  1.00  0.00    -0.000 C 
BRANCH  19  20
ATOM     20  C   UNL     1      20.204  27.900  33.707  1.00  0.00    -0.000 C 
BRANCH  20  21
ATOM     21  C   UNL     1      19.012  27.842  34.680  1.00  0.00    -0.000 C 
BRANCH  21  22
ATOM     22  C   UNL     1      18.507  29.210  35.176  1.00  0.00    -0.000 C 
BRANCH  22  23
ATOM     23  C   UNL     1      17.080  29.578  34.729  1.00  0.00    -0.000 C 
BRANCH  23  24
ATOM     24  C   UNL     1      16.667  30.996  35.152  1.00  0.00    -0.000 C 
BRANCH  24  25
ATOM     25  C   UNL     1      16.533  31.916  33.933  1.00  0.00    -0.003 C 
ATOM     26  C   UNL     1      17.849  32.632  33.637  1.00  0.00     0.004 C 
ENDBRANCH  24  25
ENDBRANCH  23  24
ENDBRANCH  22  23
ENDBRANCH  21  22
ENDBRANCH  20  21
ENDBRANCH  19  20
ENDBRANCH  18  19
ENDBRANCH  17  18
ENDBRANCH  16  17
ENDBRANCH  15  16
ENDBRANCH   1  15
TORSDOF 22
ENDMDL
MODEL 7
REMARK VINA RESULT:    -5.052      3.724      8.479
REMARK INTER + INTRA:         -14.593
REMARK INTER:                 -10.874
REMARK INTRA:                  -3.719
REMARK UNBOUND:                -3.044
REMARK SMILES CCCCCCCCCCCCCCCCCCCCCCCC(=O)[O-]
REMARK SMILES IDX 13 1 14 2 15 3 16 4 17 5 18 6 19 7 20 8 21 9 22 10 23 11
REMARK SMILES IDX 24 12 25 13 26 14 12 15 11 16 10 17 9 18 8 19 7 20 6 21 5 22
REMARK SMILES IDX 4 23 3 24 2 25 1 26
REMARK H PARENT
REMARK Flexibility Score: inf
ROOT
ATOM      1  C   UNL     1      18.206  28.506  31.349  1.00  0.00     0.000 C 
ENDROOT
BRANCH   1   2
ATOM      2  C   UNL     1      19.598  28.042  30.902  1.00  0.00     0.000 C 
BRANCH   2   3
ATOM      3  C   UNL     1      19.972  26.705  31.561  1.00  0.00     0.000 C 
BRANCH   3   4
ATOM      4  C   UNL     1      21.050  26.864  32.644  1.00  0.00     0.000 C 
BRANCH   4   5
ATOM      5  C   UNL     1      20.604  26.309  34.007  1.00  0.00     0.000 C 
BRANCH   5   6
ATOM      6  C   UNL     1      19.512  27.168  34.665  1.00  0.00     0.000 C 
BRANCH   6   7
ATOM      7  C   UNL     1      20.051  28.508  35.188  1.00  0.00     0.000 C 
BRANCH   7   8
ATOM      8  C   UNL     1      18.910  29.508  35.422  1.00  0.00     0.000 C 
BRANCH   8   9
ATOM      9  C   UNL     1      17.554  28.976  34.911  1.00  0.00     0.000 C 
BRANCH   9  10
ATOM     10  C   UNL     1      16.472  30.063  34.789  1.00  0.00     0.006 C 
BRANCH  10  11
ATOM     11  C   UNL     1      17.054  31.480  34.721  1.00  0.00     0.053 C 
BRANCH  11  12
ATOM     12  C   UNL     1      16.588  32.291  35.888  1.00  0.00     0.041 C 
ATOM     13  O   UNL     1      15.697  31.843  36.658  1.00  0.00    -0.550 OA
ATOM     14  O   UNL     1      17.098  33.568  36.094  1.00  0.00    -0.550 OA
ENDBRANCH  11  12
ENDBRANCH  10  11
ENDBRANCH   9  10
ENDBRANCH   8   9
ENDBRANCH   7   8
ENDBRANCH   6   7
ENDBRANCH   5   6
ENDBRANCH   4   5
ENDBRANCH   3   4
ENDBRANCH   2   3
ENDBRANCH   1   2
BRANCH   1  15
ATOM     15  C   UNL     1      18.154  30.037  31.466  1.00  0.00     0.000 C 
BRANCH  15  16
ATOM     16  C   UNL     1      19.447  30.716  30.981  1.00  0.00     0.000 C 
BRANCH  16  17
ATOM     17  C   UNL     1      19.245  31.812  29.916  1.00  0.00     0.000 C 
BRANCH  17  18
ATOM     18  C   UNL     1      18.395  31.359  28.709  1.00  0.00    -0.000 C 
BRANCH  18  19
ATOM     19  C   UNL     1      19.114  30.296  27.858  1.00  0.00    -0.000 C 
BRANCH  19  20
ATOM     20  C   UNL     1      18.240  29.049  27.604  1.00  0.00    -0.000 C 
BRANCH  20  21
ATOM     21  C   UNL     1      19.022  27.846  27.046  1.00  0.00    -0.000 C 
BRANCH  21  22
ATOM     22  C   UNL     1      18.254  26.511  27.046  1.00  0.00    -0.000 C 
BRANCH  22  23
ATOM     23  C   UNL     1      18.423  25.663  28.321  1.00  0.00    -0.000 C 
BRANCH  23  24
ATOM     24  C   UNL     1      18.939  24.245  28.031  1.00  0.00    -0.000 C 
BRANCH  24  25
ATOM     25  C   UNL     1      20.116  23.890  28.947  1.00  0.00    -0.003 C 
ATOM     26  C   UNL     1      21.326  24.772  28.654  1.00  0.00     0.004 C 
ENDBRANCH  24  25
ENDBRANCH  23  24
ENDBRANCH  22  23
ENDBRANCH  21  22
ENDBRANCH  20  21
ENDBRANCH  19  20
ENDBRANCH  18  19
ENDBRANCH  17  18
ENDBRANCH  16  17
ENDBRANCH  15  16
ENDBRANCH   1  15
TORSDOF 22
ENDMDL
MODEL 8
REMARK VINA RESULT:    -4.984      3.277      8.084
REMARK INTER + INTRA:         -14.437
REMARK INTER:                 -10.508
REMARK INTRA:                  -3.929
REMARK UNBOUND:                -3.044
REMARK SMILES CCCCCCCCCCCCCCCCCCCCCCCC(=O)[O-]
REMARK SMILES IDX 13 1 14 2 15 3 16 4 17 5 18 6 19 7 20 8 21 9 22 10 23 11
REMARK SMILES IDX 24 12 25 13 26 14 12 15 11 16 10 17 9 18 8 19 7 20 6 21 5 22
REMARK SMILES IDX 4 23 3 24 2 25 1 26
REMARK H PARENT
REMARK Flexibility Score: inf
ROOT
ATOM      1  C   UNL     1      18.365  29.732  28.022  1.00  0.00     0.000 C 
ENDROOT
BRANCH   1   2
ATOM      2  C   UNL     1      18.624  29.829  29.530  1.00  0.00     0.000 C 
BRANCH   2   3
ATOM      3  C   UNL     1      17.886  28.717  30.290  1.00  0.00     0.000 C 
BRANCH   3   4
ATOM      4  C   UNL     1      18.794  27.979  31.285  1.00  0.00     0.000 C 
BRANCH   4   5
ATOM      5  C   UNL     1      19.954  28.855  31.787  1.00  0.00     0.000 C 
BRANCH   5   6
ATOM      6  C   UNL     1      20.199  28.701  33.297  1.00  0.00     0.000 C 
BRANCH   6   7
ATOM      7  C   UNL     1      18.986  28.112  34.033  1.00  0.00     0.000 C 
BRANCH   7   8
ATOM      8  C   UNL     1      18.436  29.104  35.069  1.00  0.00     0.000 C 
BRANCH   8   9
ATOM      9  C   UNL     1      16.988  29.534  34.753  1.00  0.00     0.000 C 
BRANCH   9  10
ATOM     10  C   UNL     1      16.840  30.257  33.403  1.00  0.00     0.006 C 
BRANCH  10  11
ATOM     11  C   UNL     1      17.010  31.776  33.518  1.00  0.00     0.053 C 
BRANCH  11  12
ATOM     12  C   UNL     1      18.212  32.225  32.748  1.00  0.00     0.041 C 
ATOM     13  O   UNL     1      18.085  32.687  31.584  1.00  0.00    -0.550 OA
ATOM     14  O   UNL     1      19.482  32.081  33.297  1.00  0.00    -0.550 OA
ENDBRANCH  11  12
ENDBRANCH  10  11
ENDBRANCH   9  10
ENDBRANCH   8   9
ENDBRANCH   7   8
ENDBRANCH   6   7
ENDBRANCH   5   6
ENDBRANCH   4   5
ENDBRANCH   3   4
ENDBRANCH   2   3
ENDBRANCH   1   2
BRANCH   1  15
ATOM     15  C   UNL     1      17.986  28.297  27.626  1.00  0.00     0.000 C 
BRANCH  15  16
ATOM     16  C   UNL     1      18.887  27.728  26.516  1.00  0.00     0.000 C 
BRANCH  16  17
ATOM     17  C   UNL     1      20.204  28.495  26.291  1.00  0.00     0.000 C 
BRANCH  17  18
ATOM     18  C   UNL     1      21.446  27.787  26.875  1.00  0.00    -0.000 C 
BRANCH  18  19
ATOM     19  C   UNL     1      21.575  27.997  28.395  1.00  0.00    -0.000 C 
BRANCH  19  20
ATOM     20  C   UNL     1      21.798  26.675  29.160  1.00  0.00    -0.000 C 
BRANCH  20  21
ATOM     21  C   UNL     1      21.065  25.469  28.544  1.00  0.00    -0.000 C 
BRANCH  21  22
ATOM     22  C   UNL     1      19.643  25.225  29.082  1.00  0.00    -0.000 C 
BRANCH  22  23
ATOM     23  C   UNL     1      18.768  24.302  28.214  1.00  0.00    -0.000 C 
BRANCH  23  24
ATOM     24  C   UNL     1      19.296  22.860  28.154  1.00  0.00    -0.000 C 
BRANCH  24  25
ATOM     25  C   UNL     1      19.499  22.290  29.563  1.00  0.00    -0.003 C 
ATOM     26  C   UNL     1      18.479  21.195  29.865  1.00  0.00     0.004 C 
ENDBRANCH  24  25
ENDBRANCH  23  24
ENDBRANCH  22  23
ENDBRANCH  21  22
ENDBRANCH  20  21
ENDBRANCH  19  20
ENDBRANCH  18  19
ENDBRANCH  17  18
ENDBRANCH  16  17
ENDBRANCH  15  16
ENDBRANCH   1  15
TORSDOF 22
ENDMDL
MODEL 9
REMARK VINA RESULT:    -4.894      4.330      9.300
REMARK INTER + INTRA:         -14.233
REMARK INTER:                 -11.697
REMARK INTRA:                  -2.536
REMARK UNBOUND:                -3.044
REMARK SMILES CCCCCCCCCCCCCCCCCCCCCCCC(=O)[O-]
REMARK SMILES IDX 13 1 14 2 15 3 16 4 17 5 18 6 19 7 20 8 21 9 22 10 23 11
REMARK SMILES IDX 24 12 25 13 26 14 12 15 11 16 10 17 9 18 8 19 7 20 6 21 5 22
REMARK SMILES IDX 4 23 3 24 2 25 1 26
REMARK H PARENT
REMARK Flexibility Score: inf
ROOT
ATOM      1  C   UNL     1      19.488  27.330  34.696  1.00  0.00     0.000 C 
ENDROOT
BRANCH   1   2
ATOM      2  C   UNL     1      19.882  28.614  35.436  1.00  0.00     0.000 C 
BRANCH   2   3
ATOM      3  C   UNL     1      18.711  29.607  35.480  1.00  0.00     0.000 C 
BRANCH   3   4
ATOM      4  C   UNL     1      17.432  29.039  34.847  1.00  0.00     0.000 C 
BRANCH   4   5
ATOM      5  C   UNL     1      16.430  30.138  34.455  1.00  0.00     0.000 C 
BRANCH   5   6
ATOM      6  C   UNL     1      17.082  31.267  33.640  1.00  0.00     0.000 C 
BRANCH   6   7
ATOM      7  C   UNL     1      16.325  32.598  33.767  1.00  0.00     0.000 C 
BRANCH   7   8
ATOM      8  C   UNL     1      16.790  33.380  35.004  1.00  0.00     0.000 C 
BRANCH   8   9
ATOM      9  C   UNL     1      15.662  34.246  35.604  1.00  0.00     0.000 C 
BRANCH   9  10
ATOM     10  C   UNL     1      15.394  33.964  37.093  1.00  0.00     0.006 C 
BRANCH  10  11
ATOM     11  C   UNL     1      15.881  32.579  37.534  1.00  0.00     0.053 C 
BRANCH  11  12
ATOM     12  C   UNL     1      16.625  32.676  38.828  1.00  0.00     0.041 C 
ATOM     13  O   UNL     1      16.510  33.700  39.552  1.00  0.00    -0.550 OA
ATOM     14  O   UNL     1      17.493  31.658  39.208  1.00  0.00    -0.550 OA
ENDBRANCH  11  12
ENDBRANCH  10  11
ENDBRANCH   9  10
ENDBRANCH   8   9
ENDBRANCH   7   8
ENDBRANCH   6   7
ENDBRANCH   5   6
ENDBRANCH   4   5
ENDBRANCH   3   4
ENDBRANCH   2   3
ENDBRANCH   1   2
BRANCH   1  15
ATOM     15  C   UNL     1      20.319  27.164  33.414  1.00  0.00     0.000 C 
BRANCH  15  16
ATOM     16  C   UNL     1      19.473  27.296  32.135  1.00  0.00     0.000 C 
BRANCH  16  17
ATOM     17  C   UNL     1      19.272  28.741  31.637  1.00  0.00     0.000 C 
BRANCH  17  18
ATOM     18  C   UNL     1      18.129  28.891  30.609  1.00  0.00    -0.000 C 
BRANCH  18  19
ATOM     19  C   UNL     1      18.597  29.577  29.313  1.00  0.00    -0.000 C 
BRANCH  19  20
ATOM     20  C   UNL     1      17.993  28.932  28.048  1.00  0.00    -0.000 C 
BRANCH  20  21
ATOM     21  C   UNL     1      17.917  27.395  28.110  1.00  0.00    -0.000 C 
BRANCH  21  22
ATOM     22  C   UNL     1      19.246  26.664  27.843  1.00  0.00    -0.000 C 
BRANCH  22  23
ATOM     23  C   UNL     1      19.536  25.478  28.783  1.00  0.00    -0.000 C 
BRANCH  23  24
ATOM     24  C   UNL     1      18.738  24.217  28.419  1.00  0.00    -0.000 C 
BRANCH  24  25
ATOM     25  C   UNL     1      19.534  22.949  28.749  1.00  0.00    -0.003 C 
ATOM     26  C   UNL     1      19.214  21.827  27.763  1.00  0.00     0.004 C 
ENDBRANCH  24  25
ENDBRANCH  23  24
ENDBRANCH  22  23
ENDBRANCH  21  22
ENDBRANCH  20  21
ENDBRANCH  19  20
ENDBRANCH  18  19
ENDBRANCH  17  18
ENDBRANCH  16  17
ENDBRANCH  15  16
ENDBRANCH   1  15
TORSDOF 22
ENDMDL
