MODEL 1
REMARK VINA RESULT:    -4.279      0.000      0.000
REMARK INTER + INTRA:         -12.563
REMARK INTER:                  -9.781
REMARK INTRA:                  -2.781
REMARK UNBOUND:                -2.781
REMARK SMILES CCCCCCCCCCCCCCCCCCCCCCCC(=O)[O-]
REMARK SMILES IDX 13 1 14 2 15 3 16 4 17 5 18 6 19 7 20 8 21 9 22 10 23 11
REMARK SMILES IDX 24 12 25 13 26 14 12 15 11 16 10 17 9 18 8 19 7 20 6 21 5 22
REMARK SMILES IDX 4 23 3 24 2 25 1 26
REMARK H PARENT
REMARK Flexibility Score: inf
ROOT
ATOM      1  C   UNL     1       9.238 -26.635 -26.413  1.00  0.00     0.000 C 
ENDROOT
BRANCH   1   2
ATOM      2  C   UNL     1      10.531 -27.444 -26.219  1.00  0.00     0.000 C 
BRANCH   2   3
ATOM      3  C   UNL     1      11.733 -26.558 -25.849  1.00  0.00     0.000 C 
BRANCH   3   4
ATOM      4  C   UNL     1      12.719 -26.385 -27.016  1.00  0.00     0.000 C 
BRANCH   4   5
ATOM      5  C   UNL     1      13.544 -27.654 -27.287  1.00  0.00     0.000 C 
BRANCH   5   6
ATOM      6  C   UNL     1      15.004 -27.517 -26.825  1.00  0.00     0.000 C 
BRANCH   6   7
ATOM      7  C   UNL     1      15.221 -26.314 -25.890  1.00  0.00     0.000 C 
BRANCH   7   8
ATOM      8  C   UNL     1      16.364 -25.397 -26.358  1.00  0.00     0.000 C 
BRANCH   8   9
ATOM      9  C   UNL     1      17.291 -26.085 -27.375  1.00  0.00     0.000 C 
BRANCH   9  10
ATOM     10  C   UNL     1      18.729 -25.530 -27.345  1.00  0.00     0.006 C 
BRANCH  10  11
ATOM     11  C   UNL     1      19.810 -26.579 -27.656  1.00  0.00     0.053 C 
BRANCH  11  12
ATOM     12  C   UNL     1      20.551 -26.282 -28.921  1.00  0.00     0.041 C 
ATOM     13  O   UNL     1      19.977 -26.405 -30.036  1.00  0.00    -0.550 OA
ATOM     14  O   UNL     1      21.872 -25.856 -28.873  1.00  0.00    -0.550 OA
ENDBRANCH  11  12
ENDBRANCH  10  11
ENDBRANCH   9  10
ENDBRANCH   8   9
ENDBRANCH   7   8
ENDBRANCH   6   7
ENDBRANCH   5   6
ENDBRANCH   4   5
ENDBRANCH   3   4
ENDBRANCH   2   3
ENDBRANCH   1   2
BRANCH   1  15
ATOM     15  C   UNL     1       8.240 -27.326 -27.355  1.00  0.00     0.000 C 
BRANCH  15  16
ATOM     16  C   UNL     1       8.926 -28.431 -28.167  1.00  0.00     0.000 C 
BRANCH  16  17
ATOM     17  C   UNL     1       9.201 -27.966 -29.606  1.00  0.00     0.000 C 
BRANCH  17  18
ATOM     18  C   UNL     1      10.692 -27.700 -29.868  1.00  0.00    -0.000 C 
BRANCH  18  19
ATOM     19  C   UNL     1      10.951 -26.293 -30.428  1.00  0.00    -0.000 C 
BRANCH  19  20
ATOM     20  C   UNL     1       9.872 -25.307 -29.955  1.00  0.00    -0.000 C 
BRANCH  20  21
ATOM     21  C   UNL     1       9.393 -24.368 -31.074  1.00  0.00    -0.000 C 
BRANCH  21  22
ATOM     22  C   UNL     1      10.258 -24.471 -32.343  1.00  0.00    -0.000 C 
BRANCH  22  23
ATOM     23  C   UNL     1      10.999 -23.161 -32.659  1.00  0.00    -0.000 C 
BRANCH  23  24
ATOM     24  C   UNL     1      12.526 -23.323 -32.639  1.00  0.00    -0.000 C 
BRANCH  24  25
ATOM     25  C   UNL     1      13.122 -22.744 -31.350  1.00  0.00    -0.003 C 
ATOM     26  C   UNL     1      12.160 -21.761 -30.690  1.00  0.00     0.004 C 
ENDBRANCH  24  25
ENDBRANCH  23  24
ENDBRANCH  22  23
ENDBRANCH  21  22
ENDBRANCH  20  21
ENDBRANCH  19  20
ENDBRANCH  18  19
ENDBRANCH  17  18
ENDBRANCH  16  17
ENDBRANCH  15  16
ENDBRANCH   1  15
TORSDOF 22
ENDMDL
MODEL 2
REMARK VINA RESULT:    -4.244      1.450      3.212
REMARK INTER + INTRA:         -12.484
REMARK INTER:                  -9.486
REMARK INTRA:                  -2.998
REMARK UNBOUND:                -2.781
REMARK SMILES CCCCCCCCCCCCCCCCCCCCCCCC(=O)[O-]
REMARK SMILES IDX 13 1 14 2 15 3 16 4 17 5 18 6 19 7 20 8 21 9 22 10 23 11
REMARK SMILES IDX 24 12 25 13 26 14 12 15 11 16 10 17 9 18 8 19 7 20 6 21 5 22
REMARK SMILES IDX 4 23 3 24 2 25 1 26
REMARK H PARENT
REMARK Flexibility Score: inf
ROOT
ATOM      1  C   UNL     1      12.559 -27.287 -27.982  1.00  0.00     0.000 C 
ENDROOT
BRANCH   1   2
ATOM      2  C   UNL     1      13.496 -28.160 -27.131  1.00  0.00     0.000 C 
BRANCH   2   3
ATOM      3  C   UNL     1      13.106 -28.170 -25.643  1.00  0.00     0.000 C 
BRANCH   3   4
ATOM      4  C   UNL     1      14.317 -28.373 -24.718  1.00  0.00     0.000 C 
BRANCH   4   5
ATOM      5  C   UNL     1      15.505 -29.037 -25.435  1.00  0.00     0.000 C 
BRANCH   5   6
ATOM      6  C   UNL     1      16.860 -28.618 -24.841  1.00  0.00     0.000 C 
BRANCH   6   7
ATOM      7  C   UNL     1      17.959 -28.482 -25.910  1.00  0.00     0.000 C 
BRANCH   7   8
ATOM      8  C   UNL     1      18.201 -27.022 -26.329  1.00  0.00     0.000 C 
BRANCH   8   9
ATOM      9  C   UNL     1      17.455 -26.648 -27.622  1.00  0.00     0.000 C 
BRANCH   9  10
ATOM     10  C   UNL     1      18.391 -26.103 -28.718  1.00  0.00     0.006 C 
BRANCH  10  11
ATOM     11  C   UNL     1      19.725 -25.555 -28.183  1.00  0.00     0.053 C 
BRANCH  11  12
ATOM     12  C   UNL     1      20.903 -26.041 -28.969  1.00  0.00     0.041 C 
ATOM     13  O   UNL     1      22.072 -25.737 -28.612  1.00  0.00    -0.550 OA
ATOM     14  O   UNL     1      20.713 -26.841 -30.088  1.00  0.00    -0.550 OA
ENDBRANCH  11  12
ENDBRANCH  10  11
ENDBRANCH   9  10
ENDBRANCH   8   9
ENDBRANCH   7   8
ENDBRANCH   6   7
ENDBRANCH   5   6
ENDBRANCH   4   5
ENDBRANCH   3   4
ENDBRANCH   2   3
ENDBRANCH   1   2
BRANCH   1  15
ATOM     15  C   UNL     1      12.495 -25.832 -27.491  1.00  0.00     0.000 C 
BRANCH  15  16
ATOM     16  C   UNL     1      11.048 -25.324 -27.465  1.00  0.00     0.000 C 
BRANCH  16  17
ATOM     17  C   UNL     1      10.415 -25.541 -26.081  1.00  0.00     0.000 C 
BRANCH  17  18
ATOM     18  C   UNL     1       9.513 -26.784 -26.029  1.00  0.00    -0.000 C 
BRANCH  18  19
ATOM     19  C   UNL     1       8.756 -27.022 -27.345  1.00  0.00    -0.000 C 
BRANCH  19  20
ATOM     20  C   UNL     1       9.039 -28.428 -27.893  1.00  0.00    -0.000 C 
BRANCH  20  21
ATOM     21  C   UNL     1       9.164 -28.456 -29.425  1.00  0.00    -0.000 C 
BRANCH  21  22
ATOM     22  C   UNL     1       9.438 -27.064 -30.021  1.00  0.00    -0.000 C 
BRANCH  22  23
ATOM     23  C   UNL     1      10.551 -27.084 -31.082  1.00  0.00    -0.000 C 
BRANCH  23  24
ATOM     24  C   UNL     1      11.197 -25.706 -31.292  1.00  0.00    -0.000 C 
BRANCH  24  25
ATOM     25  C   UNL     1      10.207 -24.581 -30.967  1.00  0.00    -0.003 C 
ATOM     26  C   UNL     1      10.840 -23.210 -31.185  1.00  0.00     0.004 C 
ENDBRANCH  24  25
ENDBRANCH  23  24
ENDBRANCH  22  23
ENDBRANCH  21  22
ENDBRANCH  20  21
ENDBRANCH  19  20
ENDBRANCH  18  19
ENDBRANCH  17  18
ENDBRANCH  16  17
ENDBRANCH  15  16
ENDBRANCH   1  15
TORSDOF 22
ENDMDL
MODEL 3
REMARK VINA RESULT:    -4.212      3.768      7.442
REMARK INTER + INTRA:         -12.411
REMARK INTER:                  -9.433
REMARK INTRA:                  -2.979
REMARK UNBOUND:                -2.781
REMARK SMILES CCCCCCCCCCCCCCCCCCCCCCCC(=O)[O-]
REMARK SMILES IDX 13 1 14 2 15 3 16 4 17 5 18 6 19 7 20 8 21 9 22 10 23 11
REMARK SMILES IDX 24 12 25 13 26 14 12 15 11 16 10 17 9 18 8 19 7 20 6 21 5 22
REMARK SMILES IDX 4 23 3 24 2 25 1 26
REMARK H PARENT
REMARK Flexibility Score: inf
ROOT
ATOM      1  C   UNL     1      10.647 -29.265 -28.426  1.00  0.00     0.000 C 
ENDROOT
BRANCH   1   2
ATOM      2  C   UNL     1      11.380 -29.845 -27.205  1.00  0.00     0.000 C 
BRANCH   2   3
ATOM      3  C   UNL     1      12.358 -28.841 -26.570  1.00  0.00     0.000 C 
BRANCH   3   4
ATOM      4  C   UNL     1      12.817 -27.759 -27.562  1.00  0.00     0.000 C 
BRANCH   4   5
ATOM      5  C   UNL     1      13.112 -26.414 -26.876  1.00  0.00     0.000 C 
BRANCH   5   6
ATOM      6  C   UNL     1      12.503 -25.221 -27.630  1.00  0.00     0.000 C 
BRANCH   6   7
ATOM      7  C   UNL     1      11.681 -25.653 -28.858  1.00  0.00     0.000 C 
BRANCH   7   8
ATOM      8  C   UNL     1      11.037 -24.462 -29.589  1.00  0.00     0.000 C 
BRANCH   8   9
ATOM      9  C   UNL     1      10.339 -24.880 -30.895  1.00  0.00     0.000 C 
BRANCH   9  10
ATOM     10  C   UNL     1      11.272 -24.813 -32.121  1.00  0.00     0.006 C 
BRANCH  10  11
ATOM     11  C   UNL     1      11.041 -23.583 -33.015  1.00  0.00     0.053 C 
BRANCH  11  12
ATOM     12  C   UNL     1      11.998 -22.471 -32.719  1.00  0.00     0.041 C 
ATOM     13  O   UNL     1      13.082 -22.709 -32.125  1.00  0.00    -0.550 OA
ATOM     14  O   UNL     1      11.701 -21.172 -33.111  1.00  0.00    -0.550 OA
ENDBRANCH  11  12
ENDBRANCH  10  11
ENDBRANCH   9  10
ENDBRANCH   8   9
ENDBRANCH   7   8
ENDBRANCH   6   7
ENDBRANCH   5   6
ENDBRANCH   4   5
ENDBRANCH   3   4
ENDBRANCH   2   3
ENDBRANCH   1   2
BRANCH   1  15
ATOM     15  C   UNL     1       9.171 -29.687 -28.489  1.00  0.00     0.000 C 
BRANCH  15  16
ATOM     16  C   UNL     1       8.302 -28.562 -29.062  1.00  0.00     0.000 C 
BRANCH  16  17
ATOM     17  C   UNL     1       8.691 -27.204 -28.458  1.00  0.00     0.000 C 
BRANCH  17  18
ATOM     18  C   UNL     1       8.311 -27.084 -26.973  1.00  0.00    -0.000 C 
BRANCH  18  19
ATOM     19  C   UNL     1       9.521 -26.780 -26.075  1.00  0.00    -0.000 C 
BRANCH  19  20
ATOM     20  C   UNL     1       9.181 -25.688 -25.051  1.00  0.00    -0.000 C 
BRANCH  20  21
ATOM     21  C   UNL     1      10.367 -25.340 -24.137  1.00  0.00    -0.000 C 
BRANCH  21  22
ATOM     22  C   UNL     1      10.955 -26.576 -23.435  1.00  0.00    -0.000 C 
BRANCH  22  23
ATOM     23  C   UNL     1      10.392 -26.775 -22.019  1.00  0.00    -0.000 C 
BRANCH  23  24
ATOM     24  C   UNL     1       9.978 -25.454 -21.353  1.00  0.00    -0.000 C 
BRANCH  24  25
ATOM     25  C   UNL     1       9.320 -25.709 -19.991  1.00  0.00    -0.003 C 
ATOM     26  C   UNL     1       8.762 -24.419 -19.398  1.00  0.00     0.004 C 
ENDBRANCH  24  25
ENDBRANCH  23  24
ENDBRANCH  22  23
ENDBRANCH  21  22
ENDBRANCH  20  21
ENDBRANCH  19  20
ENDBRANCH  18  19
ENDBRANCH  17  18
ENDBRANCH  16  17
ENDBRANCH  15  16
ENDBRANCH   1  15
TORSDOF 22
ENDMDL
MODEL 4
REMARK VINA RESULT:    -4.210      2.173      4.935
REMARK INTER + INTRA:         -12.407
REMARK INTER:                  -9.479
REMARK INTRA:                  -2.928
REMARK UNBOUND:                -2.781
REMARK SMILES CCCCCCCCCCCCCCCCCCCCCCCC(=O)[O-]
REMARK SMILES IDX 13 1 14 2 15 3 16 4 17 5 18 6 19 7 20 8 21 9 22 10 23 11
REMARK SMILES IDX 24 12 25 13 26 14 12 15 11 16 10 17 9 18 8 19 7 20 6 21 5 22
REMARK SMILES IDX 4 23 3 24 2 25 1 26
REMARK H PARENT
REMARK Flexibility Score: inf
ROOT
ATOM      1  C   UNL     1      15.310 -27.833 -26.960  1.00  0.00     0.000 C 
ENDROOT
BRANCH   1   2
ATOM      2  C   UNL     1      16.075 -26.822 -26.089  1.00  0.00     0.000 C 
BRANCH   2   3
ATOM      3  C   UNL     1      16.941 -25.861 -26.922  1.00  0.00     0.000 C 
BRANCH   3   4
ATOM      4  C   UNL     1      17.833 -26.598 -27.934  1.00  0.00     0.000 C 
BRANCH   4   5
ATOM      5  C   UNL     1      18.866 -27.513 -27.256  1.00  0.00     0.000 C 
BRANCH   5   6
ATOM      6  C   UNL     1      20.268 -27.376 -27.871  1.00  0.00     0.000 C 
BRANCH   6   7
ATOM      7  C   UNL     1      20.371 -26.199 -28.858  1.00  0.00     0.000 C 
BRANCH   7   8
ATOM      8  C   UNL     1      21.540 -25.254 -28.533  1.00  0.00     0.000 C 
BRANCH   8   9
ATOM      9  C   UNL     1      21.097 -23.785 -28.424  1.00  0.00     0.000 C 
BRANCH   9  10
ATOM     10  C   UNL     1      20.602 -23.412 -27.012  1.00  0.00     0.006 C 
BRANCH  10  11
ATOM     11  C   UNL     1      19.106 -23.060 -26.947  1.00  0.00     0.053 C 
BRANCH  11  12
ATOM     12  C   UNL     1      18.650 -22.270 -28.133  1.00  0.00     0.041 C 
ATOM     13  O   UNL     1      17.829 -22.767 -28.948  1.00  0.00    -0.550 OA
ATOM     14  O   UNL     1      19.120 -20.978 -28.334  1.00  0.00    -0.550 OA
ENDBRANCH  11  12
ENDBRANCH  10  11
ENDBRANCH   9  10
ENDBRANCH   8   9
ENDBRANCH   7   8
ENDBRANCH   6   7
ENDBRANCH   5   6
ENDBRANCH   4   5
ENDBRANCH   3   4
ENDBRANCH   2   3
ENDBRANCH   1   2
BRANCH   1  15
ATOM     15  C   UNL     1      13.854 -28.023 -26.509  1.00  0.00     0.000 C 
BRANCH  15  16
ATOM     16  C   UNL     1      12.877 -27.598 -27.612  1.00  0.00     0.000 C 
BRANCH  16  17
ATOM     17  C   UNL     1      12.625 -26.083 -27.569  1.00  0.00     0.000 C 
BRANCH  17  18
ATOM     18  C   UNL     1      11.752 -25.660 -26.377  1.00  0.00    -0.000 C 
BRANCH  18  19
ATOM     19  C   UNL     1      10.269 -25.516 -26.751  1.00  0.00    -0.000 C 
BRANCH  19  20
ATOM     20  C   UNL     1       9.445 -26.681 -26.182  1.00  0.00    -0.000 C 
BRANCH  20  21
ATOM     21  C   UNL     1       8.482 -27.288 -27.214  1.00  0.00    -0.000 C 
BRANCH  21  22
ATOM     22  C   UNL     1       9.189 -28.239 -28.196  1.00  0.00    -0.000 C 
BRANCH  22  23
ATOM     23  C   UNL     1       9.123 -27.743 -29.649  1.00  0.00    -0.000 C 
BRANCH  23  24
ATOM     24  C   UNL     1      10.511 -27.465 -30.246  1.00  0.00    -0.000 C 
BRANCH  24  25
ATOM     25  C   UNL     1      10.520 -26.142 -31.021  1.00  0.00    -0.003 C 
ATOM     26  C   UNL     1       9.684 -25.081 -30.312  1.00  0.00     0.004 C 
ENDBRANCH  24  25
ENDBRANCH  23  24
ENDBRANCH  22  23
ENDBRANCH  21  22
ENDBRANCH  20  21
ENDBRANCH  19  20
ENDBRANCH  18  19
ENDBRANCH  17  18
ENDBRANCH  16  17
ENDBRANCH  15  16
ENDBRANCH   1  15
TORSDOF 22
ENDMDL
MODEL 5
REMARK VINA RESULT:    -4.202      2.320      6.821
REMARK INTER + INTRA:         -12.387
REMARK INTER:                  -9.717
REMARK INTRA:                  -2.670
REMARK UNBOUND:                -2.781
REMARK SMILES CCCCCCCCCCCCCCCCCCCCCCCC(=O)[O-]
REMARK SMILES IDX 13 1 14 2 15 3 16 4 17 5 18 6 19 7 20 8 21 9 22 10 23 11
REMARK SMILES IDX 24 12 25 13 26 14 12 15 11 16 10 17 9 18 8 19 7 20 6 21 5 22
REMARK SMILES IDX 4 23 3 24 2 25 1 26
REMARK H PARENT
REMARK Flexibility Score: inf
ROOT
ATOM      1  C   UNL     1       8.879 -26.958 -26.510  1.00  0.00     0.000 C 
ENDROOT
BRANCH   1   2
ATOM      2  C   UNL     1       8.703 -26.788 -28.028  1.00  0.00     0.000 C 
BRANCH   2   3
ATOM      3  C   UNL     1       8.371 -28.113 -28.737  1.00  0.00     0.000 C 
BRANCH   3   4
ATOM      4  C   UNL     1       9.374 -28.454 -29.851  1.00  0.00     0.000 C 
BRANCH   4   5
ATOM      5  C   UNL     1      10.435 -27.357 -30.048  1.00  0.00     0.000 C 
BRANCH   5   6
ATOM      6  C   UNL     1      10.761 -27.112 -31.530  1.00  0.00     0.000 C 
BRANCH   6   7
ATOM      7  C   UNL     1      10.661 -25.626 -31.922  1.00  0.00     0.000 C 
BRANCH   7   8
ATOM      8  C   UNL     1       9.790 -24.813 -30.948  1.00  0.00     0.000 C 
BRANCH   8   9
ATOM      9  C   UNL     1      10.581 -23.698 -30.242  1.00  0.00     0.000 C 
BRANCH   9  10
ATOM     10  C   UNL     1      12.067 -24.054 -30.039  1.00  0.00     0.006 C 
BRANCH  10  11
ATOM     11  C   UNL     1      13.019 -22.852 -30.163  1.00  0.00     0.053 C 
BRANCH  11  12
ATOM     12  C   UNL     1      13.627 -22.738 -31.526  1.00  0.00     0.041 C 
ATOM     13  O   UNL     1      12.903 -22.835 -32.553  1.00  0.00    -0.550 OA
ATOM     14  O   UNL     1      14.990 -22.513 -31.667  1.00  0.00    -0.550 OA
ENDBRANCH  11  12
ENDBRANCH  10  11
ENDBRANCH   9  10
ENDBRANCH   8   9
ENDBRANCH   7   8
ENDBRANCH   6   7
ENDBRANCH   5   6
ENDBRANCH   4   5
ENDBRANCH   3   4
ENDBRANCH   2   3
ENDBRANCH   1   2
BRANCH   1  15
ATOM     15  C   UNL     1       9.809 -25.900 -25.897  1.00  0.00     0.000 C 
BRANCH  15  16
ATOM     16  C   UNL     1      11.042 -25.675 -26.780  1.00  0.00     0.000 C 
BRANCH  16  17
ATOM     17  C   UNL     1      12.229 -26.519 -26.290  1.00  0.00     0.000 C 
BRANCH  17  18
ATOM     18  C   UNL     1      12.882 -27.335 -27.417  1.00  0.00    -0.000 C 
BRANCH  18  19
ATOM     19  C   UNL     1      14.383 -27.571 -27.183  1.00  0.00    -0.000 C 
BRANCH  19  20
ATOM     20  C   UNL     1      14.870 -26.810 -25.941  1.00  0.00    -0.000 C 
BRANCH  20  21
ATOM     21  C   UNL     1      16.403 -26.728 -25.858  1.00  0.00    -0.000 C 
BRANCH  21  22
ATOM     22  C   UNL     1      17.018 -25.948 -27.033  1.00  0.00    -0.000 C 
BRANCH  22  23
ATOM     23  C   UNL     1      18.144 -26.727 -27.733  1.00  0.00    -0.000 C 
BRANCH  23  24
ATOM     24  C   UNL     1      18.697 -25.993 -28.964  1.00  0.00    -0.000 C 
BRANCH  24  25
ATOM     25  C   UNL     1      20.056 -25.353 -28.656  1.00  0.00    -0.003 C 
ATOM     26  C   UNL     1      21.103 -26.412 -28.322  1.00  0.00     0.004 C 
ENDBRANCH  24  25
ENDBRANCH  23  24
ENDBRANCH  22  23
ENDBRANCH  21  22
ENDBRANCH  20  21
ENDBRANCH  19  20
ENDBRANCH  18  19
ENDBRANCH  17  18
ENDBRANCH  16  17
ENDBRANCH  15  16
ENDBRANCH   1  15
TORSDOF 22
ENDMDL
MODEL 6
REMARK VINA RESULT:    -4.192      1.648      2.968
REMARK INTER + INTRA:         -12.364
REMARK INTER:                  -9.232
REMARK INTRA:                  -3.132
REMARK UNBOUND:                -2.781
REMARK SMILES CCCCCCCCCCCCCCCCCCCCCCCC(=O)[O-]
REMARK SMILES IDX 13 1 14 2 15 3 16 4 17 5 18 6 19 7 20 8 21 9 22 10 23 11
REMARK SMILES IDX 24 12 25 13 26 14 12 15 11 16 10 17 9 18 8 19 7 20 6 21 5 22
REMARK SMILES IDX 4 23 3 24 2 25 1 26
REMARK H PARENT
REMARK Flexibility Score: inf
ROOT
ATOM      1  C   UNL     1       8.012 -27.999 -28.862  1.00  0.00     0.000 C 
ENDROOT
BRANCH   1   2
ATOM      2  C   UNL     1       8.766 -29.229 -29.393  1.00  0.00     0.000 C 
BRANCH   2   3
ATOM      3  C   UNL     1       8.843 -30.366 -28.360  1.00  0.00     0.000 C 
BRANCH   3   4
ATOM      4  C   UNL     1      10.290 -30.730 -27.990  1.00  0.00     0.000 C 
BRANCH   4   5
ATOM      5  C   UNL     1      11.253 -29.539 -28.129  1.00  0.00     0.000 C 
BRANCH   5   6
ATOM      6  C   UNL     1      12.274 -29.470 -26.981  1.00  0.00     0.000 C 
BRANCH   6   7
ATOM      7  C   UNL     1      12.640 -28.025 -26.597  1.00  0.00     0.000 C 
BRANCH   7   8
ATOM      8  C   UNL     1      13.981 -27.573 -27.199  1.00  0.00     0.000 C 
BRANCH   8   9
ATOM      9  C   UNL     1      15.179 -27.929 -26.301  1.00  0.00     0.000 C 
BRANCH   9  10
ATOM     10  C   UNL     1      16.392 -28.447 -27.099  1.00  0.00     0.006 C 
BRANCH  10  11
ATOM     11  C   UNL     1      17.750 -28.006 -26.527  1.00  0.00     0.053 C 
BRANCH  11  12
ATOM     12  C   UNL     1      18.544 -27.189 -27.498  1.00  0.00     0.041 C 
ATOM     13  O   UNL     1      17.971 -26.332 -28.221  1.00  0.00    -0.550 OA
ATOM     14  O   UNL     1      19.918 -27.363 -27.597  1.00  0.00    -0.550 OA
ENDBRANCH  11  12
ENDBRANCH  10  11
ENDBRANCH   9  10
ENDBRANCH   8   9
ENDBRANCH   7   8
ENDBRANCH   6   7
ENDBRANCH   5   6
ENDBRANCH   4   5
ENDBRANCH   3   4
ENDBRANCH   2   3
ENDBRANCH   1   2
BRANCH   1  15
ATOM     15  C   UNL     1       8.168 -27.814 -27.345  1.00  0.00     0.000 C 
BRANCH  15  16
ATOM     16  C   UNL     1       9.142 -26.674 -27.028  1.00  0.00     0.000 C 
BRANCH  16  17
ATOM     17  C   UNL     1       9.464 -25.858 -28.290  1.00  0.00     0.000 C 
BRANCH  17  18
ATOM     18  C   UNL     1      10.850 -25.198 -28.234  1.00  0.00    -0.000 C 
BRANCH  18  19
ATOM     19  C   UNL     1      11.775 -25.666 -29.368  1.00  0.00    -0.000 C 
BRANCH  19  20
ATOM     20  C   UNL     1      11.014 -26.554 -30.364  1.00  0.00    -0.000 C 
BRANCH  20  21
ATOM     21  C   UNL     1      10.978 -25.962 -31.782  1.00  0.00    -0.000 C 
BRANCH  21  22
ATOM     22  C   UNL     1      10.002 -24.779 -31.904  1.00  0.00    -0.000 C 
BRANCH  22  23
ATOM     23  C   UNL     1      10.724 -23.426 -32.015  1.00  0.00    -0.000 C 
BRANCH  23  24
ATOM     24  C   UNL     1      12.210 -23.573 -32.372  1.00  0.00    -0.000 C 
BRANCH  24  25
ATOM     25  C   UNL     1      12.454 -23.245 -33.850  1.00  0.00    -0.003 C 
ATOM     26  C   UNL     1      13.861 -22.695 -34.069  1.00  0.00     0.004 C 
ENDBRANCH  24  25
ENDBRANCH  23  24
ENDBRANCH  22  23
ENDBRANCH  21  22
ENDBRANCH  20  21
ENDBRANCH  19  20
ENDBRANCH  18  19
ENDBRANCH  17  18
ENDBRANCH  16  17
ENDBRANCH  15  16
ENDBRANCH   1  15
TORSDOF 22
ENDMDL
MODEL 7
REMARK VINA RESULT:    -4.180      5.364      7.138
REMARK INTER + INTRA:         -12.338
REMARK INTER:                  -9.564
REMARK INTRA:                  -2.774
REMARK UNBOUND:                -2.781
REMARK SMILES CCCCCCCCCCCCCCCCCCCCCCCC(=O)[O-]
REMARK SMILES IDX 13 1 14 2 15 3 16 4 17 5 18 6 19 7 20 8 21 9 22 10 23 11
REMARK SMILES IDX 24 12 25 13 26 14 12 15 11 16 10 17 9 18 8 19 7 20 6 21 5 22
REMARK SMILES IDX 4 23 3 24 2 25 1 26
REMARK H PARENT
REMARK Flexibility Score: inf
ROOT
ATOM      1  C   UNL     1      11.014 -27.387 -29.753  1.00  0.00     0.000 C 
ENDROOT
BRANCH   1   2
ATOM      2  C   UNL     1      10.490 -28.494 -28.823  1.00  0.00     0.000 C 
BRANCH   2   3
ATOM      3  C   UNL     1       8.957 -28.612 -28.850  1.00  0.00     0.000 C 
BRANCH   3   4
ATOM      4  C   UNL     1       8.259 -27.355 -28.306  1.00  0.00     0.000 C 
BRANCH   4   5
ATOM      5  C   UNL     1       8.390 -27.218 -26.780  1.00  0.00     0.000 C 
BRANCH   5   6
ATOM      6  C   UNL     1       9.455 -26.189 -26.370  1.00  0.00     0.000 C 
BRANCH   6   7
ATOM      7  C   UNL     1      10.272 -26.635 -25.143  1.00  0.00     0.000 C 
BRANCH   7   8
ATOM      8  C   UNL     1       9.903 -25.855 -23.870  1.00  0.00     0.000 C 
BRANCH   8   9
ATOM      9  C   UNL     1       9.763 -24.344 -24.125  1.00  0.00     0.000 C 
BRANCH   9  10
ATOM     10  C   UNL     1       9.116 -23.595 -22.943  1.00  0.00     0.006 C 
BRANCH  10  11
ATOM     11  C   UNL     1      10.030 -23.458 -21.715  1.00  0.00     0.053 C 
BRANCH  11  12
ATOM     12  C   UNL     1       9.483 -24.159 -20.510  1.00  0.00     0.041 C 
ATOM     13  O   UNL     1       9.676 -25.393 -20.353  1.00  0.00    -0.550 OA
ATOM     14  O   UNL     1       8.771 -23.448 -19.553  1.00  0.00    -0.550 OA
ENDBRANCH  11  12
ENDBRANCH  10  11
ENDBRANCH   9  10
ENDBRANCH   8   9
ENDBRANCH   7   8
ENDBRANCH   6   7
ENDBRANCH   5   6
ENDBRANCH   4   5
ENDBRANCH   3   4
ENDBRANCH   2   3
ENDBRANCH   1   2
BRANCH   1  15
ATOM     15  C   UNL     1      11.745 -26.269 -28.994  1.00  0.00     0.000 C 
BRANCH  15  16
ATOM     16  C   UNL     1      11.443 -24.898 -29.611  1.00  0.00     0.000 C 
BRANCH  16  17
ATOM     17  C   UNL     1       9.936 -24.728 -29.861  1.00  0.00     0.000 C 
BRANCH  17  18
ATOM     18  C   UNL     1       9.615 -24.343 -31.314  1.00  0.00    -0.000 C 
BRANCH  18  19
ATOM     19  C   UNL     1      10.782 -24.626 -32.273  1.00  0.00    -0.000 C 
BRANCH  19  20
ATOM     20  C   UNL     1      10.821 -23.592 -33.408  1.00  0.00    -0.000 C 
BRANCH  20  21
ATOM     21  C   UNL     1      12.251 -23.174 -33.783  1.00  0.00    -0.000 C 
BRANCH  21  22
ATOM     22  C   UNL     1      12.790 -22.042 -32.892  1.00  0.00    -0.000 C 
BRANCH  22  23
ATOM     23  C   UNL     1      11.682 -21.089 -32.414  1.00  0.00    -0.000 C 
BRANCH  23  24
ATOM     24  C   UNL     1      11.495 -21.110 -30.890  1.00  0.00    -0.000 C 
BRANCH  24  25
ATOM     25  C   UNL     1      12.796 -21.510 -30.183  1.00  0.00    -0.003 C 
ATOM     26  C   UNL     1      13.579 -20.281 -29.731  1.00  0.00     0.004 C 
ENDBRANCH  24  25
ENDBRANCH  23  24
ENDBRANCH  22  23
ENDBRANCH  21  22
ENDBRANCH  20  21
ENDBRANCH  19  20
ENDBRANCH  18  19
ENDBRANCH  17  18
ENDBRANCH  16  17
ENDBRANCH  15  16
ENDBRANCH   1  15
TORSDOF 22
ENDMDL
MODEL 8
REMARK VINA RESULT:    -4.131      2.034      3.645
REMARK INTER + INTRA:         -12.225
REMARK INTER:                  -8.013
REMARK INTRA:                  -4.212
REMARK UNBOUND:                -2.781
REMARK SMILES CCCCCCCCCCCCCCCCCCCCCCCC(=O)[O-]
REMARK SMILES IDX 13 1 14 2 15 3 16 4 17 5 18 6 19 7 20 8 21 9 22 10 23 11
REMARK SMILES IDX 24 12 25 13 26 14 12 15 11 16 10 17 9 18 8 19 7 20 6 21 5 22
REMARK SMILES IDX 4 23 3 24 2 25 1 26
REMARK H PARENT
REMARK Flexibility Score: inf
ROOT
ATOM      1  C   UNL     1      11.844 -26.299 -27.371  1.00  0.00     0.000 C 
ENDROOT
BRANCH   1   2
ATOM      2  C   UNL     1      10.636 -25.459 -26.924  1.00  0.00     0.000 C 
BRANCH   2   3
ATOM      3  C   UNL     1       9.758 -26.188 -25.892  1.00  0.00     0.000 C 
BRANCH   3   4
ATOM      4  C   UNL     1       9.509 -25.346 -24.630  1.00  0.00     0.000 C 
BRANCH   4   5
ATOM      5  C   UNL     1      10.256 -25.889 -23.400  1.00  0.00     0.000 C 
BRANCH   5   6
ATOM      6  C   UNL     1      11.401 -24.966 -22.951  1.00  0.00     0.000 C 
BRANCH   6   7
ATOM      7  C   UNL     1      12.735 -25.293 -23.647  1.00  0.00     0.000 C 
BRANCH   7   8
ATOM      8  C   UNL     1      13.203 -24.172 -24.590  1.00  0.00     0.000 C 
BRANCH   8   9
ATOM      9  C   UNL     1      14.655 -24.365 -25.061  1.00  0.00     0.000 C 
BRANCH   9  10
ATOM     10  C   UNL     1      14.993 -25.838 -25.367  1.00  0.00     0.006 C 
BRANCH  10  11
ATOM     11  C   UNL     1      16.500 -26.116 -25.503  1.00  0.00     0.053 C 
BRANCH  11  12
ATOM     12  C   UNL     1      16.983 -25.989 -26.913  1.00  0.00     0.041 C 
ATOM     13  O   UNL     1      17.200 -27.019 -27.604  1.00  0.00    -0.550 OA
ATOM     14  O   UNL     1      17.182 -24.733 -27.472  1.00  0.00    -0.550 OA
ENDBRANCH  11  12
ENDBRANCH  10  11
ENDBRANCH   9  10
ENDBRANCH   8   9
ENDBRANCH   7   8
ENDBRANCH   6   7
ENDBRANCH   5   6
ENDBRANCH   4   5
ENDBRANCH   3   4
ENDBRANCH   2   3
ENDBRANCH   1   2
BRANCH   1  15
ATOM     15  C   UNL     1      12.052 -27.549 -26.502  1.00  0.00     0.000 C 
BRANCH  15  16
ATOM     16  C   UNL     1      12.153 -28.810 -27.369  1.00  0.00     0.000 C 
BRANCH  16  17
ATOM     17  C   UNL     1      10.954 -29.740 -27.127  1.00  0.00     0.000 C 
BRANCH  17  18
ATOM     18  C   UNL     1       9.957 -29.740 -28.296  1.00  0.00    -0.000 C 
BRANCH  18  19
ATOM     19  C   UNL     1       8.897 -28.635 -28.169  1.00  0.00    -0.000 C 
BRANCH  19  20
ATOM     20  C   UNL     1       8.852 -27.770 -29.438  1.00  0.00    -0.000 C 
BRANCH  20  21
ATOM     21  C   UNL     1      10.151 -27.846 -30.255  1.00  0.00    -0.000 C 
BRANCH  21  22
ATOM     22  C   UNL     1      10.535 -26.495 -30.883  1.00  0.00    -0.000 C 
BRANCH  22  23
ATOM     23  C   UNL     1       9.626 -25.347 -30.415  1.00  0.00    -0.000 C 
BRANCH  23  24
ATOM     24  C   UNL     1      10.255 -23.963 -30.633  1.00  0.00    -0.000 C 
BRANCH  24  25
ATOM     25  C   UNL     1      11.733 -24.088 -31.024  1.00  0.00    -0.003 C 
ATOM     26  C   UNL     1      12.638 -23.455 -29.972  1.00  0.00     0.004 C 
ENDBRANCH  24  25
ENDBRANCH  23  24
ENDBRANCH  22  23
ENDBRANCH  21  22
ENDBRANCH  20  21
ENDBRANCH  19  20
ENDBRANCH  18  19
ENDBRANCH  17  18
ENDBRANCH  16  17
ENDBRANCH  15  16
ENDBRANCH   1  15
TORSDOF 22
ENDMDL
MODEL 9
REMARK VINA RESULT:    -4.120      1.060      2.093
REMARK INTER + INTRA:         -12.201
REMARK INTER:                  -9.348
REMARK INTRA:                  -2.852
REMARK UNBOUND:                -2.781
REMARK SMILES CCCCCCCCCCCCCCCCCCCCCCCC(=O)[O-]
REMARK SMILES IDX 13 1 14 2 15 3 16 4 17 5 18 6 19 7 20 8 21 9 22 10 23 11
REMARK SMILES IDX 24 12 25 13 26 14 12 15 11 16 10 17 9 18 8 19 7 20 6 21 5 22
REMARK SMILES IDX 4 23 3 24 2 25 1 26
REMARK H PARENT
REMARK Flexibility Score: inf
ROOT
ATOM      1  C   UNL     1      11.675 -26.114 -26.541  1.00  0.00     0.000 C 
ENDROOT
BRANCH   1   2
ATOM      2  C   UNL     1      11.793 -27.472 -25.830  1.00  0.00     0.000 C 
BRANCH   2   3
ATOM      3  C   UNL     1      12.497 -28.533 -26.694  1.00  0.00     0.000 C 
BRANCH   3   4
ATOM      4  C   UNL     1      13.903 -28.094 -27.135  1.00  0.00     0.000 C 
BRANCH   4   5
ATOM      5  C   UNL     1      15.016 -28.725 -26.281  1.00  0.00     0.000 C 
BRANCH   5   6
ATOM      6  C   UNL     1      16.093 -27.707 -25.872  1.00  0.00     0.000 C 
BRANCH   6   7
ATOM      7  C   UNL     1      15.588 -26.253 -25.926  1.00  0.00     0.000 C 
BRANCH   7   8
ATOM      8  C   UNL     1      16.442 -25.363 -26.845  1.00  0.00     0.000 C 
BRANCH   8   9
ATOM      9  C   UNL     1      17.951 -25.547 -26.606  1.00  0.00     0.000 C 
BRANCH   9  10
ATOM     10  C   UNL     1      18.813 -24.947 -27.735  1.00  0.00     0.006 C 
BRANCH  10  11
ATOM     11  C   UNL     1      18.851 -25.802 -29.013  1.00  0.00     0.053 C 
BRANCH  11  12
ATOM     12  C   UNL     1      20.087 -26.641 -29.107  1.00  0.00     0.041 C 
ATOM     13  O   UNL     1      20.754 -26.667 -30.175  1.00  0.00    -0.550 OA
ATOM     14  O   UNL     1      20.511 -27.384 -28.014  1.00  0.00    -0.550 OA
ENDBRANCH  11  12
ENDBRANCH  10  11
ENDBRANCH   9  10
ENDBRANCH   8   9
ENDBRANCH   7   8
ENDBRANCH   6   7
ENDBRANCH   5   6
ENDBRANCH   4   5
ENDBRANCH   3   4
ENDBRANCH   2   3
ENDBRANCH   1   2
BRANCH   1  15
ATOM     15  C   UNL     1      10.246 -25.551 -26.514  1.00  0.00     0.000 C 
BRANCH  15  16
ATOM     16  C   UNL     1       9.227 -26.654 -26.205  1.00  0.00     0.000 C 
BRANCH  16  17
ATOM     17  C   UNL     1       8.428 -27.032 -27.462  1.00  0.00     0.000 C 
BRANCH  17  18
ATOM     18  C   UNL     1       8.844 -28.393 -28.043  1.00  0.00    -0.000 C 
BRANCH  18  19
ATOM     19  C   UNL     1       9.194 -28.316 -29.537  1.00  0.00    -0.000 C 
BRANCH  19  20
ATOM     20  C   UNL     1      10.586 -27.700 -29.743  1.00  0.00    -0.000 C 
BRANCH  20  21
ATOM     21  C   UNL     1      10.652 -26.779 -30.972  1.00  0.00    -0.000 C 
BRANCH  21  22
ATOM     22  C   UNL     1       9.942 -25.433 -30.741  1.00  0.00    -0.000 C 
BRANCH  22  23
ATOM     23  C   UNL     1      10.797 -24.445 -29.931  1.00  0.00    -0.000 C 
BRANCH  23  24
ATOM     24  C   UNL     1      11.151 -23.178 -30.723  1.00  0.00    -0.000 C 
BRANCH  24  25
ATOM     25  C   UNL     1      11.634 -23.529 -32.135  1.00  0.00    -0.003 C 
ATOM     26  C   UNL     1      11.434 -22.360 -33.094  1.00  0.00     0.004 C 
ENDBRANCH  24  25
ENDBRANCH  23  24
ENDBRANCH  22  23
ENDBRANCH  21  22
ENDBRANCH  20  21
ENDBRANCH  19  20
ENDBRANCH  18  19
ENDBRANCH  17  18
ENDBRANCH  16  17
ENDBRANCH  15  16
ENDBRANCH   1  15
TORSDOF 22
ENDMDL
