MODEL 1
REMARK VINA RESULT:    -4.955      0.000      0.000
REMARK INTER + INTRA:          -6.142
REMARK INTER:                  -5.824
REMARK INTRA:                  -0.318
REMARK UNBOUND:                -0.318
REMARK SMILES O=c1cc(-c2ccc(O)c(O)c2)oc2cc(O)cc(O)c12
REMARK SMILES IDX 4 1 3 2 2 3 1 4 21 5 19 6 18 7 16 8 15 9 14 10 13 11 5 12
REMARK SMILES IDX 6 13 7 14 8 15 12 16 10 17 9 18 11 20 20 22 17 24
REMARK H PARENT 9 19 11 21 20 23 17 25
REMARK Flexibility Score: inf
ROOT
ATOM      1  C   UNL     1      -9.558  15.075  30.880  1.00  0.00     0.138 A 
ATOM      2  C   UNL     1     -10.499  14.459  31.723  1.00  0.00     0.100 A 
ATOM      3  C   UNL     1     -10.270  14.426  33.100  1.00  0.00     0.197 A 
ATOM      4  O   UNL     1     -11.120  13.872  33.847  1.00  0.00    -0.289 OA
ATOM      5  C   UNL     1      -9.101  15.012  33.624  1.00  0.00     0.107 A 
ATOM      6  C   UNL     1      -8.792  15.022  35.005  1.00  0.00     0.134 A 
ATOM      7  C   UNL     1      -7.610  15.632  35.448  1.00  0.00     0.093 A 
ATOM      8  C   UNL     1      -6.734  16.233  34.541  1.00  0.00     0.123 A 
ATOM      9  C   UNL     1      -7.034  16.227  33.175  1.00  0.00     0.094 A 
ATOM     10  C   UNL     1      -8.207  15.623  32.713  1.00  0.00     0.146 A 
ATOM     11  O   UNL     1      -8.469  15.630  31.409  1.00  0.00    -0.456 OA
ENDROOT
BRANCH   1  12
ATOM     12  C   UNL     1      -9.749  15.142  29.410  1.00  0.00     0.021 A 
ATOM     13  C   UNL     1     -10.871  14.521  28.830  1.00  0.00     0.016 A 
ATOM     14  C   UNL     1     -11.077  14.576  27.450  1.00  0.00     0.051 A 
ATOM     15  C   UNL     1     -10.174  15.256  26.625  1.00  0.00     0.157 A 
ATOM     16  C   UNL     1      -8.852  15.836  28.576  1.00  0.00     0.062 A 
ATOM     17  C   UNL     1      -9.058  15.893  27.193  1.00  0.00     0.158 A 
BRANCH  15  18
ATOM     18  O   UNL     1     -10.383  15.306  25.248  1.00  0.00    -0.504 OA
ATOM     19  H   UNL     1     -11.014  15.980  24.831  1.00  0.00     0.293 HD
ENDBRANCH  15  18
BRANCH  17  20
ATOM     20  O   UNL     1      -8.147  16.589  26.399  1.00  0.00    -0.504 OA
ATOM     21  H   UNL     1      -7.943  17.569  26.546  1.00  0.00     0.293 HD
ENDBRANCH  17  20
ENDBRANCH   1  12
BRANCH   6  22
ATOM     22  O   UNL     1      -9.648  14.430  35.936  1.00  0.00    -0.507 OA
ATOM     23  H   UNL     1     -10.203  14.984  36.576  1.00  0.00     0.293 HD
ENDBRANCH   6  22
BRANCH   8  24
ATOM     24  O   UNL     1      -5.566  16.833  35.009  1.00  0.00    -0.508 OA
ATOM     25  H   UNL     1      -4.901  17.262  34.375  1.00  0.00     0.293 HD
ENDBRANCH   8  24
TORSDOF 5
ENDMDL
MODEL 2
REMARK VINA RESULT:    -4.841      1.183      2.780
REMARK INTER + INTRA:          -6.008
REMARK INTER:                  -5.711
REMARK INTRA:                  -0.297
REMARK UNBOUND:                -0.318
REMARK SMILES O=c1cc(-c2ccc(O)c(O)c2)oc2cc(O)cc(O)c12
REMARK SMILES IDX 4 1 3 2 2 3 1 4 21 5 19 6 18 7 16 8 15 9 14 10 13 11 5 12
REMARK SMILES IDX 6 13 7 14 8 15 12 16 10 17 9 18 11 20 20 22 17 24
REMARK H PARENT 9 19 11 21 20 23 17 25
REMARK Flexibility Score: inf
ROOT
ATOM      1  C   UNL     1      -8.253  15.825  31.210  1.00  0.00     0.138 A 
ATOM      2  C   UNL     1      -7.042  16.463  31.526  1.00  0.00     0.100 A 
ATOM      3  C   UNL     1      -6.640  16.552  32.860  1.00  0.00     0.197 A 
ATOM      4  O   UNL     1      -5.551  17.125  33.132  1.00  0.00    -0.289 OA
ATOM      5  C   UNL     1      -7.452  15.999  33.869  1.00  0.00     0.107 A 
ATOM      6  C   UNL     1      -7.120  16.046  35.244  1.00  0.00     0.134 A 
ATOM      7  C   UNL     1      -7.980  15.466  36.187  1.00  0.00     0.093 A 
ATOM      8  C   UNL     1      -9.161  14.840  35.784  1.00  0.00     0.123 A 
ATOM      9  C   UNL     1      -9.495  14.789  34.427  1.00  0.00     0.094 A 
ATOM     10  C   UNL     1      -8.652  15.363  33.471  1.00  0.00     0.146 A 
ATOM     11  O   UNL     1      -8.992  15.303  32.187  1.00  0.00    -0.456 OA
ENDROOT
BRANCH   1  12
ATOM     12  C   UNL     1      -8.730  15.700  29.810  1.00  0.00     0.021 A 
ATOM     13  C   UNL     1      -9.940  15.031  29.549  1.00  0.00     0.016 A 
ATOM     14  C   UNL     1     -10.414  14.906  28.241  1.00  0.00     0.051 A 
ATOM     15  C   UNL     1      -9.695  15.454  27.173  1.00  0.00     0.157 A 
ATOM     16  C   UNL     1      -8.019  16.260  28.732  1.00  0.00     0.062 A 
ATOM     17  C   UNL     1      -8.493  16.137  27.421  1.00  0.00     0.158 A 
BRANCH  15  18
ATOM     18  O   UNL     1     -10.171  15.326  25.869  1.00  0.00    -0.504 OA
ATOM     19  H   UNL     1     -11.160  15.383  25.657  1.00  0.00     0.293 HD
ENDBRANCH  15  18
BRANCH  17  20
ATOM     20  O   UNL     1      -7.761  16.704  26.379  1.00  0.00    -0.504 OA
ATOM     21  H   UNL     1      -8.125  16.771  25.437  1.00  0.00     0.293 HD
ENDBRANCH  17  20
ENDBRANCH   1  12
BRANCH   6  22
ATOM     22  O   UNL     1      -5.945  16.664  35.678  1.00  0.00    -0.507 OA
ATOM     23  H   UNL     1      -5.738  16.783  36.662  1.00  0.00     0.293 HD
ENDBRANCH   6  22
BRANCH   8  24
ATOM     24  O   UNL     1      -9.999  14.271  36.743  1.00  0.00    -0.508 OA
ATOM     25  H   UNL     1     -10.397  13.347  36.616  1.00  0.00     0.293 HD
ENDBRANCH   8  24
TORSDOF 5
ENDMDL
MODEL 3
REMARK VINA RESULT:    -4.759      2.088      6.660
REMARK INTER + INTRA:          -5.912
REMARK INTER:                  -5.595
REMARK INTRA:                  -0.318
REMARK UNBOUND:                -0.318
REMARK SMILES O=c1cc(-c2ccc(O)c(O)c2)oc2cc(O)cc(O)c12
REMARK SMILES IDX 4 1 3 2 2 3 1 4 21 5 19 6 18 7 16 8 15 9 14 10 13 11 5 12
REMARK SMILES IDX 6 13 7 14 8 15 12 16 10 17 9 18 11 20 20 22 17 24
REMARK H PARENT 9 19 11 21 20 23 17 25
REMARK Flexibility Score: inf
ROOT
ATOM      1  C   UNL     1      -8.604  15.592  31.740  1.00  0.00     0.138 A 
ATOM      2  C   UNL     1      -9.613  15.470  30.770  1.00  0.00     0.100 A 
ATOM      3  C   UNL     1      -9.310  15.713  29.430  1.00  0.00     0.197 A 
ATOM      4  O   UNL     1     -10.222  15.599  28.567  1.00  0.00    -0.289 OA
ATOM      5  C   UNL     1      -7.997  16.075  29.068  1.00  0.00     0.107 A 
ATOM      6  C   UNL     1      -7.606  16.340  27.735  1.00  0.00     0.134 A 
ATOM      7  C   UNL     1      -6.277  16.688  27.456  1.00  0.00     0.093 A 
ATOM      8  C   UNL     1      -5.333  16.776  28.482  1.00  0.00     0.123 A 
ATOM      9  C   UNL     1      -5.714  16.515  29.803  1.00  0.00     0.094 A 
ATOM     10  C   UNL     1      -7.034  16.167  30.101  1.00  0.00     0.146 A 
ATOM     11  O   UNL     1      -7.371  15.925  31.365  1.00  0.00    -0.456 OA
ENDROOT
BRANCH   1  12
ATOM     12  C   UNL     1      -8.868  15.344  33.180  1.00  0.00     0.021 A 
ATOM     13  C   UNL     1     -10.121  14.843  33.577  1.00  0.00     0.016 A 
ATOM     14  C   UNL     1     -10.391  14.595  34.925  1.00  0.00     0.051 A 
ATOM     15  C   UNL     1      -9.414  14.834  35.898  1.00  0.00     0.157 A 
ATOM     16  C   UNL     1      -7.885  15.569  34.163  1.00  0.00     0.062 A 
ATOM     17  C   UNL     1      -8.154  15.319  35.514  1.00  0.00     0.158 A 
BRANCH  15  18
ATOM     18  O   UNL     1      -9.690  14.586  37.242  1.00  0.00    -0.504 OA
ATOM     19  H   UNL     1      -9.774  15.338  37.915  1.00  0.00     0.293 HD
ENDBRANCH  15  18
BRANCH  17  20
ATOM     20  O   UNL     1      -7.156  15.555  36.459  1.00  0.00    -0.504 OA
ATOM     21  H   UNL     1      -7.367  15.731  37.433  1.00  0.00     0.293 HD
ENDBRANCH  17  20
ENDBRANCH   1  12
BRANCH   6  22
ATOM     22  O   UNL     1      -8.526  16.260  26.687  1.00  0.00    -0.507 OA
ATOM     23  H   UNL     1      -8.259  16.447  25.728  1.00  0.00     0.293 HD
ENDBRANCH   6  22
BRANCH   8  24
ATOM     24  O   UNL     1      -4.018  17.125  28.178  1.00  0.00    -0.508 OA
ATOM     25  H   UNL     1      -3.234  16.576  28.511  1.00  0.00     0.293 HD
ENDBRANCH   8  24
TORSDOF 5
ENDMDL
MODEL 4
REMARK VINA RESULT:    -4.686      1.615      1.989
REMARK INTER + INTRA:          -5.826
REMARK INTER:                  -5.542
REMARK INTRA:                  -0.284
REMARK UNBOUND:                -0.318
REMARK SMILES O=c1cc(-c2ccc(O)c(O)c2)oc2cc(O)cc(O)c12
REMARK SMILES IDX 4 1 3 2 2 3 1 4 21 5 19 6 18 7 16 8 15 9 14 10 13 11 5 12
REMARK SMILES IDX 6 13 7 14 8 15 12 16 10 17 9 18 11 20 20 22 17 24
REMARK H PARENT 9 19 11 21 20 23 17 25
REMARK Flexibility Score: inf
ROOT
ATOM      1  C   UNL     1      -8.727  15.714  32.022  1.00  0.00     0.138 A 
ATOM      2  C   UNL     1      -9.873  15.070  32.521  1.00  0.00     0.100 A 
ATOM      3  C   UNL     1     -10.030  14.918  33.899  1.00  0.00     0.197 A 
ATOM      4  O   UNL     1     -11.062  14.341  34.336  1.00  0.00    -0.289 OA
ATOM      5  C   UNL     1      -9.039  15.412  34.771  1.00  0.00     0.107 A 
ATOM      6  C   UNL     1      -9.120  15.298  36.179  1.00  0.00     0.134 A 
ATOM      7  C   UNL     1      -8.094  15.823  36.978  1.00  0.00     0.093 A 
ATOM      8  C   UNL     1      -6.993  16.459  36.399  1.00  0.00     0.123 A 
ATOM      9  C   UNL     1      -6.909  16.575  35.008  1.00  0.00     0.094 A 
ATOM     10  C   UNL     1      -7.920  16.058  34.193  1.00  0.00     0.146 A 
ATOM     11  O   UNL     1      -7.815  16.179  32.873  1.00  0.00    -0.456 OA
ENDROOT
BRANCH   1  12
ATOM     12  C   UNL     1      -8.508  15.905  30.566  1.00  0.00     0.021 A 
ATOM     13  C   UNL     1      -9.497  16.543  29.797  1.00  0.00     0.016 A 
ATOM     14  C   UNL     1      -9.312  16.742  28.427  1.00  0.00     0.051 A 
ATOM     15  C   UNL     1      -8.133  16.316  27.803  1.00  0.00     0.157 A 
ATOM     16  C   UNL     1      -7.319  15.491  29.936  1.00  0.00     0.062 A 
ATOM     17  C   UNL     1      -7.131  15.691  28.563  1.00  0.00     0.158 A 
BRANCH  15  18
ATOM     18  O   UNL     1      -7.953  16.515  26.435  1.00  0.00    -0.504 OA
ATOM     19  H   UNL     1      -8.596  17.078  25.891  1.00  0.00     0.293 HD
ENDBRANCH  15  18
BRANCH  17  20
ATOM     20  O   UNL     1      -5.941  15.266  27.973  1.00  0.00    -0.504 OA
ATOM     21  H   UNL     1      -5.262  15.917  27.599  1.00  0.00     0.293 HD
ENDBRANCH  17  20
ENDBRANCH   1  12
BRANCH   6  22
ATOM     22  O   UNL     1     -10.207  14.669  36.787  1.00  0.00    -0.507 OA
ATOM     23  H   UNL     1     -11.136  15.073  36.767  1.00  0.00     0.293 HD
ENDBRANCH   6  22
BRANCH   8  24
ATOM     24  O   UNL     1      -5.988  16.972  37.216  1.00  0.00    -0.508 OA
ATOM     25  H   UNL     1      -6.173  17.248  38.174  1.00  0.00     0.293 HD
ENDBRANCH   8  24
TORSDOF 5
ENDMDL
MODEL 5
REMARK VINA RESULT:    -4.512      2.057      3.061
REMARK INTER + INTRA:          -5.621
REMARK INTER:                  -5.325
REMARK INTRA:                  -0.296
REMARK UNBOUND:                -0.318
REMARK SMILES O=c1cc(-c2ccc(O)c(O)c2)oc2cc(O)cc(O)c12
REMARK SMILES IDX 4 1 3 2 2 3 1 4 21 5 19 6 18 7 16 8 15 9 14 10 13 11 5 12
REMARK SMILES IDX 6 13 7 14 8 15 12 16 10 17 9 18 11 20 20 22 17 24
REMARK H PARENT 9 19 11 21 20 23 17 25
REMARK Flexibility Score: inf
ROOT
ATOM      1  C   UNL     1      -7.874  15.834  32.067  1.00  0.00     0.138 A 
ATOM      2  C   UNL     1      -9.165  15.282  32.127  1.00  0.00     0.100 A 
ATOM      3  C   UNL     1      -9.739  15.012  33.371  1.00  0.00     0.197 A 
ATOM      4  O   UNL     1     -10.898  14.519  33.414  1.00  0.00    -0.289 OA
ATOM      5  C   UNL     1      -9.017  15.298  34.546  1.00  0.00     0.107 A 
ATOM      6  C   UNL     1      -9.523  15.054  35.845  1.00  0.00     0.134 A 
ATOM      7  C   UNL     1      -8.743  15.373  36.966  1.00  0.00     0.093 A 
ATOM      8  C   UNL     1      -7.472  15.930  36.815  1.00  0.00     0.123 A 
ATOM      9  C   UNL     1      -6.966  16.173  35.534  1.00  0.00     0.094 A 
ATOM     10  C   UNL     1      -7.727  15.862  34.403  1.00  0.00     0.146 A 
ATOM     11  O   UNL     1      -7.223  16.102  33.196  1.00  0.00    -0.456 OA
ENDROOT
BRANCH   1  12
ATOM     12  C   UNL     1      -7.215  16.143  30.773  1.00  0.00     0.021 A 
ATOM     13  C   UNL     1      -5.987  16.829  30.769  1.00  0.00     0.016 A 
ATOM     14  C   UNL     1      -5.343  17.125  29.566  1.00  0.00     0.051 A 
ATOM     15  C   UNL     1      -5.908  16.735  28.346  1.00  0.00     0.157 A 
ATOM     16  C   UNL     1      -7.771  15.741  29.543  1.00  0.00     0.062 A 
ATOM     17  C   UNL     1      -7.126  16.036  28.336  1.00  0.00     0.158 A 
BRANCH  15  18
ATOM     18  O   UNL     1      -5.263  17.034  27.147  1.00  0.00    -0.504 OA
ATOM     19  H   UNL     1      -5.692  16.841  26.250  1.00  0.00     0.293 HD
ENDBRANCH  15  18
BRANCH  17  20
ATOM     20  O   UNL     1      -7.708  15.623  27.138  1.00  0.00    -0.504 OA
ATOM     21  H   UNL     1      -7.258  15.765  26.243  1.00  0.00     0.293 HD
ENDBRANCH  17  20
ENDBRANCH   1  12
BRANCH   6  22
ATOM     22  O   UNL     1     -10.791  14.499  36.028  1.00  0.00    -0.507 OA
ATOM     23  H   UNL     1     -11.598  14.833  35.516  1.00  0.00     0.293 HD
ENDBRANCH   6  22
BRANCH   8  24
ATOM     24  O   UNL     1      -6.718  16.237  37.946  1.00  0.00    -0.508 OA
ATOM     25  H   UNL     1      -6.699  15.623  38.753  1.00  0.00     0.293 HD
ENDBRANCH   8  24
TORSDOF 5
ENDMDL
MODEL 6
REMARK VINA RESULT:    -4.301     13.756     16.631
REMARK INTER + INTRA:          -5.374
REMARK INTER:                  -5.056
REMARK INTRA:                  -0.318
REMARK UNBOUND:                -0.318
REMARK SMILES O=c1cc(-c2ccc(O)c(O)c2)oc2cc(O)cc(O)c12
REMARK SMILES IDX 4 1 3 2 2 3 1 4 21 5 19 6 18 7 16 8 15 9 14 10 13 11 5 12
REMARK SMILES IDX 6 13 7 14 8 15 12 16 10 17 9 18 11 20 20 22 17 24
REMARK H PARENT 9 19 11 21 20 23 17 25
REMARK Flexibility Score: inf
ROOT
ATOM      1  C   UNL     1       3.821  17.080  24.540  1.00  0.00     0.138 A 
ATOM      2  C   UNL     1       2.866  17.028  23.511  1.00  0.00     0.100 A 
ATOM      3  C   UNL     1       3.290  17.010  22.181  1.00  0.00     0.197 A 
ATOM      4  O   UNL     1       2.425  16.962  21.265  1.00  0.00    -0.289 OA
ATOM      5  C   UNL     1       4.668  17.043  21.889  1.00  0.00     0.107 A 
ATOM      6  C   UNL     1       5.181  17.029  20.571  1.00  0.00     0.134 A 
ATOM      7  C   UNL     1       6.568  17.057  20.365  1.00  0.00     0.093 A 
ATOM      8  C   UNL     1       7.449  17.097  21.449  1.00  0.00     0.123 A 
ATOM      9  C   UNL     1       6.947  17.111  22.754  1.00  0.00     0.094 A 
ATOM     10  C   UNL     1       5.568  17.084  22.980  1.00  0.00     0.146 A 
ATOM     11  O   UNL     1       5.116  17.099  24.231  1.00  0.00    -0.456 OA
ENDROOT
BRANCH   1  12
ATOM     12  C   UNL     1       3.429  17.100  25.972  1.00  0.00     0.021 A 
ATOM     13  C   UNL     1       2.065  17.081  26.315  1.00  0.00     0.016 A 
ATOM     14  C   UNL     1       1.670  17.091  27.655  1.00  0.00     0.051 A 
ATOM     15  C   UNL     1       2.629  17.112  28.675  1.00  0.00     0.157 A 
ATOM     16  C   UNL     1       4.388  17.107  27.002  1.00  0.00     0.062 A 
ATOM     17  C   UNL     1       3.994  17.116  28.346  1.00  0.00     0.158 A 
BRANCH  15  18
ATOM     18  O   UNL     1       2.230  17.124  30.010  1.00  0.00    -0.504 OA
ATOM     19  H   UNL     1       2.737  16.608  30.720  1.00  0.00     0.293 HD
ENDBRANCH  15  18
BRANCH  17  20
ATOM     20  O   UNL     1       4.973  17.124  29.339  1.00  0.00    -0.504 OA
ATOM     21  H   UNL     1       5.418  16.276  29.665  1.00  0.00     0.293 HD
ENDBRANCH  17  20
ENDBRANCH   1  12
BRANCH   6  22
ATOM     22  O   UNL     1       4.326  16.989  19.468  1.00  0.00    -0.507 OA
ATOM     23  H   UNL     1       4.465  17.589  18.664  1.00  0.00     0.293 HD
ENDBRANCH   6  22
BRANCH   8  24
ATOM     24  O   UNL     1       8.823  17.125  21.216  1.00  0.00    -0.508 OA
ATOM     25  H   UNL     1       9.317  16.311  20.868  1.00  0.00     0.293 HD
ENDBRANCH   8  24
TORSDOF 5
ENDMDL
MODEL 7
REMARK VINA RESULT:    -4.297      2.290      7.118
REMARK INTER + INTRA:          -5.368
REMARK INTER:                  -5.104
REMARK INTRA:                  -0.265
REMARK UNBOUND:                -0.318
REMARK SMILES O=c1cc(-c2ccc(O)c(O)c2)oc2cc(O)cc(O)c12
REMARK SMILES IDX 4 1 3 2 2 3 1 4 21 5 19 6 18 7 16 8 15 9 14 10 13 11 5 12
REMARK SMILES IDX 6 13 7 14 8 15 12 16 10 17 9 18 11 20 20 22 17 24
REMARK H PARENT 9 19 11 21 20 23 17 25
REMARK Flexibility Score: inf
ROOT
ATOM      1  C   UNL     1      -9.070  14.751  32.846  1.00  0.00     0.138 A 
ATOM      2  C   UNL     1      -9.338  15.581  31.744  1.00  0.00     0.100 A 
ATOM      3  C   UNL     1      -9.921  15.033  30.600  1.00  0.00     0.197 A 
ATOM      4  O   UNL     1     -10.159  15.786  29.617  1.00  0.00    -0.289 OA
ATOM      5  C   UNL     1     -10.232  13.660  30.566  1.00  0.00     0.107 A 
ATOM      6  C   UNL     1     -10.822  13.026  29.447  1.00  0.00     0.134 A 
ATOM      7  C   UNL     1     -11.108  11.654  29.496  1.00  0.00     0.093 A 
ATOM      8  C   UNL     1     -10.817  10.906  30.639  1.00  0.00     0.123 A 
ATOM      9  C   UNL     1     -10.235  11.527  31.748  1.00  0.00     0.094 A 
ATOM     10  C   UNL     1      -9.941  12.893  31.720  1.00  0.00     0.146 A 
ATOM     11  O   UNL     1      -9.386  13.460  32.787  1.00  0.00    -0.456 OA
ENDROOT
BRANCH   1  12
ATOM     12  C   UNL     1      -8.453  15.278  34.090  1.00  0.00     0.021 A 
ATOM     13  C   UNL     1      -9.279  15.765  35.119  1.00  0.00     0.016 A 
ATOM     14  C   UNL     1      -8.724  16.259  36.301  1.00  0.00     0.051 A 
ATOM     15  C   UNL     1      -7.336  16.267  36.482  1.00  0.00     0.157 A 
ATOM     16  C   UNL     1      -7.058  15.277  34.283  1.00  0.00     0.062 A 
ATOM     17  C   UNL     1      -6.500  15.770  35.469  1.00  0.00     0.158 A 
BRANCH  15  18
ATOM     18  O   UNL     1      -6.786  16.763  37.663  1.00  0.00    -0.504 OA
ATOM     19  H   UNL     1      -5.818  16.595  37.910  1.00  0.00     0.293 HD
ENDBRANCH  15  18
BRANCH  17  20
ATOM     20  O   UNL     1      -5.114  15.754  35.623  1.00  0.00    -0.504 OA
ATOM     21  H   UNL     1      -4.534  15.033  35.214  1.00  0.00     0.293 HD
ENDBRANCH  17  20
ENDBRANCH   1  12
BRANCH   6  22
ATOM     22  O   UNL     1     -11.124  13.748  28.291  1.00  0.00    -0.507 OA
ATOM     23  H   UNL     1     -10.447  13.872  27.548  1.00  0.00     0.293 HD
ENDBRANCH   6  22
BRANCH   8  24
ATOM     24  O   UNL     1     -11.111   9.544  30.661  1.00  0.00    -0.508 OA
ATOM     25  H   UNL     1     -11.743   9.127  29.986  1.00  0.00     0.293 HD
ENDBRANCH   8  24
TORSDOF 5
ENDMDL
MODEL 8
REMARK VINA RESULT:    -4.282      1.645      7.033
REMARK INTER + INTRA:          -5.351
REMARK INTER:                  -5.056
REMARK INTRA:                  -0.295
REMARK UNBOUND:                -0.318
REMARK SMILES O=c1cc(-c2ccc(O)c(O)c2)oc2cc(O)cc(O)c12
REMARK SMILES IDX 4 1 3 2 2 3 1 4 21 5 19 6 18 7 16 8 15 9 14 10 13 11 5 12
REMARK SMILES IDX 6 13 7 14 8 15 12 16 10 17 9 18 11 20 20 22 17 24
REMARK H PARENT 9 19 11 21 20 23 17 25
REMARK Flexibility Score: inf
ROOT
ATOM      1  C   UNL     1      -9.143  14.985  32.793  1.00  0.00     0.138 A 
ATOM      2  C   UNL     1      -9.956  13.870  32.529  1.00  0.00     0.100 A 
ATOM      3  C   UNL     1     -10.360  13.610  31.219  1.00  0.00     0.197 A 
ATOM      4  O   UNL     1     -11.089  12.607  30.992  1.00  0.00    -0.289 OA
ATOM      5  C   UNL     1      -9.946  14.467  30.180  1.00  0.00     0.107 A 
ATOM      6  C   UNL     1     -10.311  14.277  28.826  1.00  0.00     0.134 A 
ATOM      7  C   UNL     1      -9.850  15.172  27.850  1.00  0.00     0.093 A 
ATOM      8  C   UNL     1      -9.034  16.250  28.199  1.00  0.00     0.123 A 
ATOM      9  C   UNL     1      -8.669  16.443  29.536  1.00  0.00     0.094 A 
ATOM     10  C   UNL     1      -9.118  15.563  30.524  1.00  0.00     0.146 A 
ATOM     11  O   UNL     1      -8.759  15.769  31.788  1.00  0.00    -0.456 OA
ENDROOT
BRANCH   1  12
ATOM     12  C   UNL     1      -8.681  15.310  34.167  1.00  0.00     0.021 A 
ATOM     13  C   UNL     1      -7.627  16.224  34.343  1.00  0.00     0.016 A 
ATOM     14  C   UNL     1      -7.180  16.552  35.625  1.00  0.00     0.051 A 
ATOM     15  C   UNL     1      -7.782  15.981  36.753  1.00  0.00     0.157 A 
ATOM     16  C   UNL     1      -9.291  14.749  35.305  1.00  0.00     0.062 A 
ATOM     17  C   UNL     1      -8.845  15.078  36.591  1.00  0.00     0.158 A 
BRANCH  15  18
ATOM     18  O   UNL     1      -7.331  16.310  38.030  1.00  0.00    -0.504 OA
ATOM     19  H   UNL     1      -7.663  17.135  38.514  1.00  0.00     0.293 HD
ENDBRANCH  15  18
BRANCH  17  20
ATOM     20  O   UNL     1      -9.473  14.501  37.694  1.00  0.00    -0.504 OA
ATOM     21  H   UNL     1      -9.103  14.590  38.632  1.00  0.00     0.293 HD
ENDBRANCH  17  20
ENDBRANCH   1  12
BRANCH   6  22
ATOM     22  O   UNL     1     -11.125  13.208  28.446  1.00  0.00    -0.507 OA
ATOM     23  H   UNL     1     -10.940  12.670  27.609  1.00  0.00     0.293 HD
ENDBRANCH   6  22
BRANCH   8  24
ATOM     24  O   UNL     1      -8.590  17.124  27.209  1.00  0.00    -0.508 OA
ATOM     25  H   UNL     1      -8.786  16.958  26.228  1.00  0.00     0.293 HD
ENDBRANCH   8  24
TORSDOF 5
ENDMDL
MODEL 9
REMARK VINA RESULT:    -3.932      3.872      6.737
REMARK INTER + INTRA:          -4.940
REMARK INTER:                  -4.622
REMARK INTRA:                  -0.318
REMARK UNBOUND:                -0.318
REMARK SMILES O=c1cc(-c2ccc(O)c(O)c2)oc2cc(O)cc(O)c12
REMARK SMILES IDX 4 1 3 2 2 3 1 4 21 5 19 6 18 7 16 8 15 9 14 10 13 11 5 12
REMARK SMILES IDX 6 13 7 14 8 15 12 16 10 17 9 18 11 20 20 22 17 24
REMARK H PARENT 9 19 11 21 20 23 17 25
REMARK Flexibility Score: inf
ROOT
ATOM      1  C   UNL     1      -6.195  16.427  28.956  1.00  0.00     0.138 A 
ATOM      2  C   UNL     1      -6.779  16.397  30.234  1.00  0.00     0.100 A 
ATOM      3  C   UNL     1      -8.158  16.216  30.354  1.00  0.00     0.197 A 
ATOM      4  O   UNL     1      -8.672  16.189  31.505  1.00  0.00    -0.289 OA
ATOM      5  C   UNL     1      -8.944  16.065  29.195  1.00  0.00     0.107 A 
ATOM      6  C   UNL     1     -10.346  15.879  29.228  1.00  0.00     0.134 A 
ATOM      7  C   UNL     1     -11.056  15.730  28.028  1.00  0.00     0.093 A 
ATOM      8  C   UNL     1     -10.393  15.762  26.799  1.00  0.00     0.123 A 
ATOM      9  C   UNL     1      -9.007  15.945  26.760  1.00  0.00     0.094 A 
ATOM     10  C   UNL     1      -8.281  16.096  27.944  1.00  0.00     0.146 A 
ATOM     11  O   UNL     1      -6.964  16.270  27.881  1.00  0.00    -0.456 OA
ENDROOT
BRANCH   1  12
ATOM     12  C   UNL     1      -4.734  16.615  28.767  1.00  0.00     0.021 A 
ATOM     13  C   UNL     1      -3.908  16.784  29.892  1.00  0.00     0.016 A 
ATOM     14  C   UNL     1      -2.530  16.955  29.742  1.00  0.00     0.051 A 
ATOM     15  C   UNL     1      -1.952  16.951  28.467  1.00  0.00     0.157 A 
ATOM     16  C   UNL     1      -4.145  16.598  27.488  1.00  0.00     0.062 A 
ATOM     17  C   UNL     1      -2.764  16.768  27.336  1.00  0.00     0.158 A 
BRANCH  15  18
ATOM     18  O   UNL     1      -0.576  17.124  28.321  1.00  0.00    -0.504 OA
ATOM     19  H   UNL     1       0.049  17.104  29.118  1.00  0.00     0.293 HD
ENDBRANCH  15  18
BRANCH  17  20
ATOM     20  O   UNL     1      -2.216  16.747  26.053  1.00  0.00    -0.504 OA
ATOM     21  H   UNL     1      -2.703  17.130  25.253  1.00  0.00     0.293 HD
ENDBRANCH  17  20
ENDBRANCH   1  12
BRANCH   6  22
ATOM     22  O   UNL     1     -11.037  15.843  30.441  1.00  0.00    -0.507 OA
ATOM     23  H   UNL     1     -11.303  16.690  30.928  1.00  0.00     0.293 HD
ENDBRANCH   6  22
BRANCH   8  24
ATOM     24  O   UNL     1     -11.122  15.611  25.621  1.00  0.00    -0.508 OA
ATOM     25  H   UNL     1     -11.947  16.170  25.433  1.00  0.00     0.293 HD
ENDBRANCH   8  24
TORSDOF 5
ENDMDL
