MODEL 1
REMARK VINA RESULT:    -6.803      0.000      0.000
REMARK INTER + INTRA:          -8.294
REMARK INTER:                  -7.996
REMARK INTRA:                  -0.298
REMARK UNBOUND:                -0.298
REMARK SMILES O=c1c(O)c(-c2ccc(O)cc2)oc2cc(O)cc(O)c12
REMARK SMILES IDX 5 1 3 2 2 3 1 4 21 5 19 6 18 7 16 8 15 9 14 10 13 11 6 12
REMARK SMILES IDX 7 13 8 14 9 15 12 16 11 17 10 18 4 20 20 22 17 24
REMARK H PARENT 10 19 4 21 20 23 17 25
REMARK Flexibility Score: inf
ROOT
ATOM      1  C   UNL     1      59.598  -2.299  29.513  1.00  0.00     0.180 A 
ATOM      2  C   UNL     1      59.046  -1.015  29.367  1.00  0.00     0.208 A 
ATOM      3  C   UNL     1      57.715  -0.798  29.763  1.00  0.00     0.238 A 
ATOM      4  O   UNL     1      57.209   0.340  29.581  1.00  0.00    -0.285 OA
ATOM      5  C   UNL     1      56.962  -1.862  30.313  1.00  0.00     0.111 A 
ATOM      6  C   UNL     1      55.620  -1.746  30.784  1.00  0.00     0.134 A 
ATOM      7  C   UNL     1      54.927  -2.894  31.188  1.00  0.00     0.093 A 
ATOM      8  C   UNL     1      55.548  -4.142  31.200  1.00  0.00     0.123 A 
ATOM      9  C   UNL     1      56.878  -4.259  30.797  1.00  0.00     0.094 A 
ATOM     10  C   UNL     1      57.584  -3.137  30.354  1.00  0.00     0.146 A 
ATOM     11  O   UNL     1      58.846  -3.292  29.970  1.00  0.00    -0.452 OA
ENDROOT
BRANCH   1  12
ATOM     12  C   UNL     1      61.001  -2.599  29.141  1.00  0.00     0.021 A 
ATOM     13  C   UNL     1      61.280  -3.145  27.877  1.00  0.00     0.016 A 
ATOM     14  C   UNL     1      62.594  -3.457  27.515  1.00  0.00     0.047 A 
ATOM     15  C   UNL     1      63.643  -3.242  28.418  1.00  0.00     0.115 A 
ATOM     16  C   UNL     1      62.057  -2.406  30.050  1.00  0.00     0.016 A 
ATOM     17  C   UNL     1      63.370  -2.719  29.685  1.00  0.00     0.047 A 
BRANCH  15  18
ATOM     18  O   UNL     1      64.956  -3.549  28.068  1.00  0.00    -0.508 OA
ATOM     19  H   UNL     1      65.476  -4.274  28.550  1.00  0.00     0.293 HD
ENDBRANCH  15  18
ENDBRANCH   1  12
BRANCH   2  20
ATOM     20  O   UNL     1      59.800   0.017  28.802  1.00  0.00    -0.502 OA
ATOM     21  H   UNL     1      60.381  -0.119  27.985  1.00  0.00     0.293 HD
ENDBRANCH   2  20
BRANCH   6  22
ATOM     22  O   UNL     1      54.936  -0.532  30.901  1.00  0.00    -0.507 OA
ATOM     23  H   UNL     1      53.985  -0.377  30.601  1.00  0.00     0.293 HD
ENDBRANCH   6  22
BRANCH   8  24
ATOM     24  O   UNL     1      54.833  -5.262  31.622  1.00  0.00    -0.508 OA
ATOM     25  H   UNL     1      53.871  -5.189  31.932  1.00  0.00     0.293 HD
ENDBRANCH   8  24
TORSDOF 5
ENDMDL
MODEL 2
REMARK VINA RESULT:    -6.061      1.685      3.431
REMARK INTER + INTRA:          -7.422
REMARK INTER:                  -7.138
REMARK INTRA:                  -0.283
REMARK UNBOUND:                -0.298
REMARK SMILES O=c1c(O)c(-c2ccc(O)cc2)oc2cc(O)cc(O)c12
REMARK SMILES IDX 5 1 3 2 2 3 1 4 21 5 19 6 18 7 16 8 15 9 14 10 13 11 6 12
REMARK SMILES IDX 7 13 8 14 9 15 12 16 11 17 10 18 4 20 20 22 17 24
REMARK H PARENT 10 19 4 21 20 23 17 25
REMARK Flexibility Score: inf
ROOT
ATOM      1  C   UNL     1      60.770  -2.216  28.917  1.00  0.00     0.180 A 
ATOM      2  C   UNL     1      60.087  -3.378  29.316  1.00  0.00     0.208 A 
ATOM      3  C   UNL     1      58.760  -3.266  29.764  1.00  0.00     0.238 A 
ATOM      4  O   UNL     1      58.171  -4.301  30.170  1.00  0.00    -0.285 OA
ATOM      5  C   UNL     1      58.130  -1.999  29.792  1.00  0.00     0.111 A 
ATOM      6  C   UNL     1      56.778  -1.775  30.189  1.00  0.00     0.134 A 
ATOM      7  C   UNL     1      56.299  -0.463  30.302  1.00  0.00     0.093 A 
ATOM      8  C   UNL     1      57.102   0.627  29.971  1.00  0.00     0.123 A 
ATOM      9  C   UNL     1      58.407   0.417  29.525  1.00  0.00     0.094 A 
ATOM     10  C   UNL     1      58.925  -0.878  29.436  1.00  0.00     0.146 A 
ATOM     11  O   UNL     1      60.175  -1.034  29.017  1.00  0.00    -0.452 OA
ENDROOT
BRANCH   1  12
ATOM     12  C   UNL     1      62.162  -2.256  28.410  1.00  0.00     0.021 A 
ATOM     13  C   UNL     1      63.219  -1.892  29.261  1.00  0.00     0.016 A 
ATOM     14  C   UNL     1      64.537  -1.901  28.795  1.00  0.00     0.047 A 
ATOM     15  C   UNL     1      64.814  -2.260  27.469  1.00  0.00     0.115 A 
ATOM     16  C   UNL     1      62.445  -2.595  27.074  1.00  0.00     0.016 A 
ATOM     17  C   UNL     1      63.765  -2.602  26.612  1.00  0.00     0.047 A 
BRANCH  15  18
ATOM     18  O   UNL     1      66.124  -2.272  26.995  1.00  0.00    -0.508 OA
ATOM     19  H   UNL     1      66.885  -2.640  27.553  1.00  0.00     0.293 HD
ENDBRANCH  15  18
ENDBRANCH   1  12
BRANCH   2  20
ATOM     20  O   UNL     1      60.734  -4.616  29.301  1.00  0.00    -0.502 OA
ATOM     21  H   UNL     1      61.232  -4.960  28.490  1.00  0.00     0.293 HD
ENDBRANCH   2  20
BRANCH   6  22
ATOM     22  O   UNL     1      55.862  -2.797  30.453  1.00  0.00    -0.507 OA
ATOM     23  H   UNL     1      55.081  -3.037  29.860  1.00  0.00     0.293 HD
ENDBRANCH   6  22
BRANCH   8  24
ATOM     24  O   UNL     1      56.588   1.918  30.081  1.00  0.00    -0.508 OA
ATOM     25  H   UNL     1      56.374   2.474  29.261  1.00  0.00     0.293 HD
ENDBRANCH   8  24
TORSDOF 5
ENDMDL
MODEL 3
REMARK VINA RESULT:    -5.916      1.317      1.752
REMARK INTER + INTRA:          -7.251
REMARK INTER:                  -6.962
REMARK INTRA:                  -0.289
REMARK UNBOUND:                -0.298
REMARK SMILES O=c1c(O)c(-c2ccc(O)cc2)oc2cc(O)cc(O)c12
REMARK SMILES IDX 5 1 3 2 2 3 1 4 21 5 19 6 18 7 16 8 15 9 14 10 13 11 6 12
REMARK SMILES IDX 7 13 8 14 9 15 12 16 11 17 10 18 4 20 20 22 17 24
REMARK H PARENT 10 19 4 21 20 23 17 25
REMARK Flexibility Score: inf
ROOT
ATOM      1  C   UNL     1      60.837  -3.114  28.881  1.00  0.00     0.180 A 
ATOM      2  C   UNL     1      60.653  -1.721  28.844  1.00  0.00     0.208 A 
ATOM      3  C   UNL     1      59.431  -1.185  29.285  1.00  0.00     0.238 A 
ATOM      4  O   UNL     1      59.252   0.058  29.198  1.00  0.00    -0.285 OA
ATOM      5  C   UNL     1      58.419  -2.045  29.772  1.00  0.00     0.111 A 
ATOM      6  C   UNL     1      57.160  -1.607  30.281  1.00  0.00     0.134 A 
ATOM      7  C   UNL     1      56.183  -2.554  30.615  1.00  0.00     0.093 A 
ATOM      8  C   UNL     1      56.443  -3.921  30.521  1.00  0.00     0.123 A 
ATOM      9  C   UNL     1      57.691  -4.360  30.080  1.00  0.00     0.094 A 
ATOM     10  C   UNL     1      58.673  -3.440  29.705  1.00  0.00     0.146 A 
ATOM     11  O   UNL     1      59.845  -3.900  29.282  1.00  0.00    -0.452 OA
ENDROOT
BRANCH   1  12
ATOM     12  C   UNL     1      62.105  -3.752  28.457  1.00  0.00     0.021 A 
ATOM     13  C   UNL     1      62.280  -4.115  27.111  1.00  0.00     0.016 A 
ATOM     14  C   UNL     1      63.459  -4.740  26.694  1.00  0.00     0.047 A 
ATOM     15  C   UNL     1      64.472  -5.022  27.619  1.00  0.00     0.115 A 
ATOM     16  C   UNL     1      63.118  -4.058  29.385  1.00  0.00     0.016 A 
ATOM     17  C   UNL     1      64.296  -4.683  28.964  1.00  0.00     0.047 A 
BRANCH  15  18
ATOM     18  O   UNL     1      65.651  -5.644  27.215  1.00  0.00    -0.508 OA
ATOM     19  H   UNL     1      65.655  -6.595  26.864  1.00  0.00     0.293 HD
ENDBRANCH  15  18
ENDBRANCH   1  12
BRANCH   2  20
ATOM     20  O   UNL     1      61.657  -0.891  28.338  1.00  0.00    -0.502 OA
ATOM     21  H   UNL     1      61.589  -0.444  27.433  1.00  0.00     0.293 HD
ENDBRANCH   2  20
BRANCH   6  22
ATOM     22  O   UNL     1      56.830  -0.267  30.503  1.00  0.00    -0.507 OA
ATOM     23  H   UNL     1      57.499   0.467  30.683  1.00  0.00     0.293 HD
ENDBRANCH   6  22
BRANCH   8  24
ATOM     24  O   UNL     1      55.452  -4.834  30.877  1.00  0.00    -0.508 OA
ATOM     25  H   UNL     1      54.501  -4.741  30.541  1.00  0.00     0.293 HD
ENDBRANCH   8  24
TORSDOF 5
ENDMDL
MODEL 4
REMARK VINA RESULT:    -5.679      1.819      6.990
REMARK INTER + INTRA:          -6.973
REMARK INTER:                  -6.672
REMARK INTRA:                  -0.300
REMARK UNBOUND:                -0.298
REMARK SMILES O=c1c(O)c(-c2ccc(O)cc2)oc2cc(O)cc(O)c12
REMARK SMILES IDX 5 1 3 2 2 3 1 4 21 5 19 6 18 7 16 8 15 9 14 10 13 11 6 12
REMARK SMILES IDX 7 13 8 14 9 15 12 16 11 17 10 18 4 20 20 22 17 24
REMARK H PARENT 10 19 4 21 20 23 17 25
REMARK Flexibility Score: inf
ROOT
ATOM      1  C   UNL     1      60.238  -2.216  29.644  1.00  0.00     0.180 A 
ATOM      2  C   UNL     1      61.154  -2.305  30.707  1.00  0.00     0.208 A 
ATOM      3  C   UNL     1      62.459  -2.755  30.444  1.00  0.00     0.238 A 
ATOM      4  O   UNL     1      63.258  -2.884  31.408  1.00  0.00    -0.285 OA
ATOM      5  C   UNL     1      62.835  -3.096  29.123  1.00  0.00     0.111 A 
ATOM      6  C   UNL     1      64.140  -3.524  28.738  1.00  0.00     0.134 A 
ATOM      7  C   UNL     1      64.364  -3.960  27.425  1.00  0.00     0.093 A 
ATOM      8  C   UNL     1      63.349  -3.920  26.470  1.00  0.00     0.123 A 
ATOM      9  C   UNL     1      62.085  -3.447  26.821  1.00  0.00     0.094 A 
ATOM     10  C   UNL     1      61.820  -3.040  28.132  1.00  0.00     0.146 A 
ATOM     11  O   UNL     1      60.601  -2.605  28.427  1.00  0.00    -0.452 OA
ENDROOT
BRANCH   1  12
ATOM     12  C   UNL     1      58.853  -1.728  29.836  1.00  0.00     0.021 A 
ATOM     13  C   UNL     1      57.818  -2.651  30.056  1.00  0.00     0.016 A 
ATOM     14  C   UNL     1      56.500  -2.212  30.217  1.00  0.00     0.047 A 
ATOM     15  C   UNL     1      56.199  -0.846  30.146  1.00  0.00     0.115 A 
ATOM     16  C   UNL     1      58.540  -0.359  29.744  1.00  0.00     0.016 A 
ATOM     17  C   UNL     1      57.221   0.077  29.906  1.00  0.00     0.047 A 
BRANCH  15  18
ATOM     18  O   UNL     1      54.890  -0.397  30.305  1.00  0.00    -0.508 OA
ATOM     19  H   UNL     1      54.135  -0.751  29.727  1.00  0.00     0.293 HD
ENDBRANCH  15  18
ENDBRANCH   1  12
BRANCH   2  20
ATOM     20  O   UNL     1      60.756  -1.985  32.008  1.00  0.00    -0.502 OA
ATOM     21  H   UNL     1      60.947  -2.587  32.798  1.00  0.00     0.293 HD
ENDBRANCH   2  20
BRANCH   6  22
ATOM     22  O   UNL     1      65.248  -3.516  29.589  1.00  0.00    -0.507 OA
ATOM     23  H   UNL     1      65.257  -3.119  30.518  1.00  0.00     0.293 HD
ENDBRANCH   6  22
BRANCH   8  24
ATOM     24  O   UNL     1      63.612  -4.347  25.170  1.00  0.00    -0.508 OA
ATOM     25  H   UNL     1      64.430  -4.903  24.951  1.00  0.00     0.293 HD
ENDBRANCH   8  24
TORSDOF 5
ENDMDL
MODEL 5
REMARK VINA RESULT:    -5.459     17.299     19.358
REMARK INTER + INTRA:          -6.714
REMARK INTER:                  -6.414
REMARK INTRA:                  -0.300
REMARK UNBOUND:                -0.298
REMARK SMILES O=c1c(O)c(-c2ccc(O)cc2)oc2cc(O)cc(O)c12
REMARK SMILES IDX 5 1 3 2 2 3 1 4 21 5 19 6 18 7 16 8 15 9 14 10 13 11 6 12
REMARK SMILES IDX 7 13 8 14 9 15 12 16 11 17 10 18 4 20 20 22 17 24
REMARK H PARENT 10 19 4 21 20 23 17 25
REMARK Flexibility Score: inf
ROOT
ATOM      1  C   UNL     1      63.219 -15.068  16.959  1.00  0.00     0.180 A 
ATOM      2  C   UNL     1      62.789 -15.420  15.669  1.00  0.00     0.208 A 
ATOM      3  C   UNL     1      63.164 -14.612  14.582  1.00  0.00     0.238 A 
ATOM      4  O   UNL     1      62.731 -14.903  13.437  1.00  0.00    -0.285 OA
ATOM      5  C   UNL     1      63.975 -13.473  14.798  1.00  0.00     0.111 A 
ATOM      6  C   UNL     1      64.447 -12.607  13.767  1.00  0.00     0.134 A 
ATOM      7  C   UNL     1      65.135 -11.436  14.109  1.00  0.00     0.093 A 
ATOM      8  C   UNL     1      65.425 -11.134  15.439  1.00  0.00     0.123 A 
ATOM      9  C   UNL     1      65.019 -12.003  16.452  1.00  0.00     0.094 A 
ATOM     10  C   UNL     1      64.300 -13.161  16.144  1.00  0.00     0.146 A 
ATOM     11  O   UNL     1      63.924 -13.957  17.138  1.00  0.00    -0.452 OA
ENDROOT
BRANCH   1  12
ATOM     12  C   UNL     1      62.885 -15.882  18.151  1.00  0.00     0.021 A 
ATOM     13  C   UNL     1      61.758 -15.552  18.921  1.00  0.00     0.016 A 
ATOM     14  C   UNL     1      61.439 -16.294  20.063  1.00  0.00     0.047 A 
ATOM     15  C   UNL     1      62.251 -17.366  20.456  1.00  0.00     0.115 A 
ATOM     16  C   UNL     1      63.708 -16.947  18.564  1.00  0.00     0.016 A 
ATOM     17  C   UNL     1      63.386 -17.686  19.706  1.00  0.00     0.047 A 
BRANCH  15  18
ATOM     18  O   UNL     1      61.943 -18.112  21.591  1.00  0.00    -0.508 OA
ATOM     19  H   UNL     1      61.155 -17.874  22.183  1.00  0.00     0.293 HD
ENDBRANCH  15  18
ENDBRANCH   1  12
BRANCH   2  20
ATOM     20  O   UNL     1      61.970 -16.537  15.480  1.00  0.00    -0.502 OA
ATOM     21  H   UNL     1      62.310 -17.399  15.073  1.00  0.00     0.293 HD
ENDBRANCH   2  20
BRANCH   6  22
ATOM     22  O   UNL     1      64.293 -12.863  12.401  1.00  0.00    -0.507 OA
ATOM     23  H   UNL     1      63.936 -12.200  11.729  1.00  0.00     0.293 HD
ENDBRANCH   6  22
BRANCH   8  24
ATOM     24  O   UNL     1      66.125  -9.968  15.741  1.00  0.00    -0.508 OA
ATOM     25  H   UNL     1      65.659  -9.157  16.133  1.00  0.00     0.293 HD
ENDBRANCH   8  24
TORSDOF 5
ENDMDL
MODEL 6
REMARK VINA RESULT:    -5.438     15.827     19.035
REMARK INTER + INTRA:          -6.690
REMARK INTER:                  -6.778
REMARK INTRA:                   0.088
REMARK UNBOUND:                -0.298
REMARK SMILES O=c1c(O)c(-c2ccc(O)cc2)oc2cc(O)cc(O)c12
REMARK SMILES IDX 5 1 3 2 2 3 1 4 21 5 19 6 18 7 16 8 15 9 14 10 13 11 6 12
REMARK SMILES IDX 7 13 8 14 9 15 12 16 11 17 10 18 4 20 20 22 17 24
REMARK H PARENT 10 19 4 21 20 23 17 25
REMARK Flexibility Score: inf
ROOT
ATOM      1  C   UNL     1      62.553 -13.879  15.608  1.00  0.00     0.180 A 
ATOM      2  C   UNL     1      63.002 -13.291  14.414  1.00  0.00     0.208 A 
ATOM      3  C   UNL     1      63.942 -12.248  14.480  1.00  0.00     0.238 A 
ATOM      4  O   UNL     1      64.299 -11.689  13.410  1.00  0.00    -0.285 OA
ATOM      5  C   UNL     1      64.431 -11.820  15.736  1.00  0.00     0.111 A 
ATOM      6  C   UNL     1      65.414 -10.801  15.918  1.00  0.00     0.134 A 
ATOM      7  C   UNL     1      65.728 -10.368  17.213  1.00  0.00     0.093 A 
ATOM      8  C   UNL     1      65.145 -10.961  18.332  1.00  0.00     0.123 A 
ATOM      9  C   UNL     1      64.227 -11.998  18.168  1.00  0.00     0.094 A 
ATOM     10  C   UNL     1      63.866 -12.428  16.888  1.00  0.00     0.146 A 
ATOM     11  O   UNL     1      62.982 -13.411  16.775  1.00  0.00    -0.452 OA
ENDROOT
BRANCH   1  12
ATOM     12  C   UNL     1      61.583 -14.998  15.619  1.00  0.00     0.021 A 
ATOM     13  C   UNL     1      60.397 -14.893  14.874  1.00  0.00     0.016 A 
ATOM     14  C   UNL     1      59.457 -15.929  14.889  1.00  0.00     0.047 A 
ATOM     15  C   UNL     1      59.685 -17.075  15.661  1.00  0.00     0.115 A 
ATOM     16  C   UNL     1      61.795 -16.144  16.409  1.00  0.00     0.016 A 
ATOM     17  C   UNL     1      60.853 -17.177  16.421  1.00  0.00     0.047 A 
BRANCH  15  18
ATOM     18  O   UNL     1      58.756 -18.113  15.683  1.00  0.00    -0.508 OA
ATOM     19  H   UNL     1      57.760 -17.931  15.724  1.00  0.00     0.293 HD
ENDBRANCH  15  18
ENDBRANCH   1  12
BRANCH   2  20
ATOM     20  O   UNL     1      62.489 -13.714  13.184  1.00  0.00    -0.502 OA
ATOM     21  H   UNL     1      61.553 -14.086  13.084  1.00  0.00     0.293 HD
ENDBRANCH   2  20
BRANCH   6  22
ATOM     22  O   UNL     1      66.125 -10.206  14.872  1.00  0.00    -0.507 OA
ATOM     23  H   UNL     1      66.931  -9.611  14.991  1.00  0.00     0.293 HD
ENDBRANCH   6  22
BRANCH   8  24
ATOM     24  O   UNL     1      65.494 -10.515  19.606  1.00  0.00    -0.508 OA
ATOM     25  H   UNL     1      65.409  -9.540  19.866  1.00  0.00     0.293 HD
ENDBRANCH   8  24
TORSDOF 5
ENDMDL
MODEL 7
REMARK VINA RESULT:    -5.273     14.019     17.250
REMARK INTER + INTRA:          -6.496
REMARK INTER:                  -6.219
REMARK INTRA:                  -0.277
REMARK UNBOUND:                -0.298
REMARK SMILES O=c1c(O)c(-c2ccc(O)cc2)oc2cc(O)cc(O)c12
REMARK SMILES IDX 5 1 3 2 2 3 1 4 21 5 19 6 18 7 16 8 15 9 14 10 13 11 6 12
REMARK SMILES IDX 7 13 8 14 9 15 12 16 11 17 10 18 4 20 20 22 17 24
REMARK H PARENT 10 19 4 21 20 23 17 25
REMARK Flexibility Score: inf
ROOT
ATOM      1  C   UNL     1      63.600 -13.275  17.493  1.00  0.00     0.180 A 
ATOM      2  C   UNL     1      63.241 -14.412  18.237  1.00  0.00     0.208 A 
ATOM      3  C   UNL     1      63.463 -14.415  19.625  1.00  0.00     0.238 A 
ATOM      4  O   UNL     1      63.190 -15.455  20.278  1.00  0.00    -0.285 OA
ATOM      5  C   UNL     1      64.023 -13.276  20.251  1.00  0.00     0.111 A 
ATOM      6  C   UNL     1      64.253 -13.154  21.654  1.00  0.00     0.134 A 
ATOM      7  C   UNL     1      64.933 -12.033  22.147  1.00  0.00     0.093 A 
ATOM      8  C   UNL     1      65.332 -11.002  21.298  1.00  0.00     0.123 A 
ATOM      9  C   UNL     1      65.060 -11.083  19.933  1.00  0.00     0.094 A 
ATOM     10  C   UNL     1      64.416 -12.206  19.405  1.00  0.00     0.146 A 
ATOM     11  O   UNL     1      64.184 -12.248  18.099  1.00  0.00    -0.452 OA
ENDROOT
BRANCH   1  12
ATOM     12  C   UNL     1      63.375 -13.188  16.031  1.00  0.00     0.021 A 
ATOM     13  C   UNL     1      64.458 -13.364  15.153  1.00  0.00     0.016 A 
ATOM     14  C   UNL     1      64.271 -13.263  13.771  1.00  0.00     0.047 A 
ATOM     15  C   UNL     1      63.005 -12.969  13.250  1.00  0.00     0.115 A 
ATOM     16  C   UNL     1      62.110 -12.872  15.502  1.00  0.00     0.016 A 
ATOM     17  C   UNL     1      61.928 -12.771  14.120  1.00  0.00     0.047 A 
BRANCH  15  18
ATOM     18  O   UNL     1      62.808 -12.866  11.875  1.00  0.00    -0.508 OA
ATOM     19  H   UNL     1      62.285 -12.098  11.472  1.00  0.00     0.293 HD
ENDBRANCH  15  18
ENDBRANCH   1  12
BRANCH   2  20
ATOM     20  O   UNL     1      62.710 -15.535  17.596  1.00  0.00    -0.502 OA
ATOM     21  H   UNL     1      61.886 -15.488  17.011  1.00  0.00     0.293 HD
ENDBRANCH   2  20
BRANCH   6  22
ATOM     22  O   UNL     1      63.813 -14.083  22.601  1.00  0.00    -0.507 OA
ATOM     23  H   UNL     1      64.320 -14.335  23.437  1.00  0.00     0.293 HD
ENDBRANCH   6  22
BRANCH   8  24
ATOM     24  O   UNL     1      65.993  -9.894  21.826  1.00  0.00    -0.508 OA
ATOM     25  H   UNL     1      66.947  -9.957  22.162  1.00  0.00     0.293 HD
ENDBRANCH   8  24
TORSDOF 5
ENDMDL
MODEL 8
REMARK VINA RESULT:    -5.213     14.642     16.730
REMARK INTER + INTRA:          -6.426
REMARK INTER:                  -6.128
REMARK INTRA:                  -0.298
REMARK UNBOUND:                -0.298
REMARK SMILES O=c1c(O)c(-c2ccc(O)cc2)oc2cc(O)cc(O)c12
REMARK SMILES IDX 5 1 3 2 2 3 1 4 21 5 19 6 18 7 16 8 15 9 14 10 13 11 6 12
REMARK SMILES IDX 7 13 8 14 9 15 12 16 11 17 10 18 4 20 20 22 17 24
REMARK H PARENT 10 19 4 21 20 23 17 25
REMARK Flexibility Score: inf
ROOT
ATOM      1  C   UNL     1      64.028 -12.674  17.899  1.00  0.00     0.180 A 
ATOM      2  C   UNL     1      64.516 -11.665  18.747  1.00  0.00     0.208 A 
ATOM      3  C   UNL     1      64.594 -11.915  20.127  1.00  0.00     0.238 A 
ATOM      4  O   UNL     1      64.981 -10.989  20.887  1.00  0.00    -0.285 OA
ATOM      5  C   UNL     1      64.200 -13.174  20.639  1.00  0.00     0.111 A 
ATOM      6  C   UNL     1      64.275 -13.549  22.014  1.00  0.00     0.134 A 
ATOM      7  C   UNL     1      63.735 -14.774  22.426  1.00  0.00     0.093 A 
ATOM      8  C   UNL     1      63.183 -15.664  21.505  1.00  0.00     0.123 A 
ATOM      9  C   UNL     1      63.157 -15.332  20.150  1.00  0.00     0.094 A 
ATOM     10  C   UNL     1      63.655 -14.102  19.713  1.00  0.00     0.146 A 
ATOM     11  O   UNL     1      63.604 -13.821  18.417  1.00  0.00    -0.452 OA
ENDROOT
BRANCH   1  12
ATOM     12  C   UNL     1      63.938 -12.495  16.432  1.00  0.00     0.021 A 
ATOM     13  C   UNL     1      62.719 -12.099  15.856  1.00  0.00     0.016 A 
ATOM     14  C   UNL     1      62.607 -11.947  14.470  1.00  0.00     0.047 A 
ATOM     15  C   UNL     1      63.708 -12.202  13.642  1.00  0.00     0.115 A 
ATOM     16  C   UNL     1      65.033 -12.770  15.592  1.00  0.00     0.016 A 
ATOM     17  C   UNL     1      64.917 -12.617  14.207  1.00  0.00     0.047 A 
BRANCH  15  18
ATOM     18  O   UNL     1      63.607 -12.054  12.261  1.00  0.00    -0.508 OA
ATOM     19  H   UNL     1      64.425 -12.096  11.663  1.00  0.00     0.293 HD
ENDBRANCH  15  18
ENDBRANCH   1  12
BRANCH   2  20
ATOM     20  O   UNL     1      64.879 -10.421  18.224  1.00  0.00    -0.502 OA
ATOM     21  H   UNL     1      64.528 -10.079  17.339  1.00  0.00     0.293 HD
ENDBRANCH   2  20
BRANCH   6  22
ATOM     22  O   UNL     1      64.889 -12.775  23.002  1.00  0.00    -0.507 OA
ATOM     23  H   UNL     1      64.438 -12.029  23.511  1.00  0.00     0.293 HD
ENDBRANCH   6  22
BRANCH   8  24
ATOM     24  O   UNL     1      62.669 -16.881  21.949  1.00  0.00    -0.508 OA
ATOM     25  H   UNL     1      61.672 -17.025  22.059  1.00  0.00     0.293 HD
ENDBRANCH   8  24
TORSDOF 5
ENDMDL
MODEL 9
REMARK VINA RESULT:    -5.198     16.045     18.995
REMARK INTER + INTRA:          -6.408
REMARK INTER:                  -6.135
REMARK INTRA:                  -0.273
REMARK UNBOUND:                -0.298
REMARK SMILES O=c1c(O)c(-c2ccc(O)cc2)oc2cc(O)cc(O)c12
REMARK SMILES IDX 5 1 3 2 2 3 1 4 21 5 19 6 18 7 16 8 15 9 14 10 13 11 6 12
REMARK SMILES IDX 7 13 8 14 9 15 12 16 11 17 10 18 4 20 20 22 17 24
REMARK H PARENT 10 19 4 21 20 23 17 25
REMARK Flexibility Score: inf
ROOT
ATOM      1  C   UNL     1      63.797 -14.380  17.265  1.00  0.00     0.180 A 
ATOM      2  C   UNL     1      64.807 -15.115  16.621  1.00  0.00     0.208 A 
ATOM      3  C   UNL     1      64.464 -15.932  15.531  1.00  0.00     0.238 A 
ATOM      4  O   UNL     1      65.364 -16.629  14.993  1.00  0.00    -0.285 OA
ATOM      5  C   UNL     1      63.121 -15.991  15.090  1.00  0.00     0.111 A 
ATOM      6  C   UNL     1      62.668 -16.754  13.972  1.00  0.00     0.134 A 
ATOM      7  C   UNL     1      61.296 -16.841  13.705  1.00  0.00     0.093 A 
ATOM      8  C   UNL     1      60.367 -16.142  14.475  1.00  0.00     0.123 A 
ATOM      9  C   UNL     1      60.803 -15.347  15.535  1.00  0.00     0.094 A 
ATOM     10  C   UNL     1      62.163 -15.268  15.848  1.00  0.00     0.146 A 
ATOM     11  O   UNL     1      62.536 -14.507  16.870  1.00  0.00    -0.452 OA
ENDROOT
BRANCH   1  12
ATOM     12  C   UNL     1      64.084 -13.479  18.405  1.00  0.00     0.021 A 
ATOM     13  C   UNL     1      64.570 -12.184  18.159  1.00  0.00     0.016 A 
ATOM     14  C   UNL     1      64.869 -11.326  19.221  1.00  0.00     0.047 A 
ATOM     15  C   UNL     1      64.698 -11.756  20.543  1.00  0.00     0.115 A 
ATOM     16  C   UNL     1      63.935 -13.911  19.736  1.00  0.00     0.016 A 
ATOM     17  C   UNL     1      64.234 -13.050  20.796  1.00  0.00     0.047 A 
BRANCH  15  18
ATOM     18  O   UNL     1      64.992 -10.909  21.610  1.00  0.00    -0.508 OA
ATOM     19  H   UNL     1      64.281 -10.631  22.277  1.00  0.00     0.293 HD
ENDBRANCH  15  18
ENDBRANCH   1  12
BRANCH   2  20
ATOM     20  O   UNL     1      66.124 -15.060  17.087  1.00  0.00    -0.502 OA
ATOM     21  H   UNL     1      66.375 -15.298  18.037  1.00  0.00     0.293 HD
ENDBRANCH   2  20
BRANCH   6  22
ATOM     22  O   UNL     1      63.519 -17.416  13.082  1.00  0.00    -0.507 OA
ATOM     23  H   UNL     1      64.496 -17.606  13.254  1.00  0.00     0.293 HD
ENDBRANCH   6  22
BRANCH   8  24
ATOM     24  O   UNL     1      59.011 -16.240  14.172  1.00  0.00    -0.508 OA
ATOM     25  H   UNL     1      58.622 -17.074  13.748  1.00  0.00     0.293 HD
ENDBRANCH   8  24
TORSDOF 5
ENDMDL
