MODEL 1
REMARK VINA RESULT:    -1.154      0.000      0.000
REMARK INTER + INTRA:          -1.261
REMARK INTER:                  -1.255
REMARK INTRA:                  -0.006
REMARK UNBOUND:                -0.006
REMARK SMILES CC1(C)CC[C@@]2(C(=O)[O-])CC[C@]3(C)C(=CC[C@@H]4[C@]5(C)CC[C@H](O)C(C)(C)[C@H]5CC[C@@]43C)[C@H]2C1
REMARK SMILES IDX 6 1 5 2 10 3 32 4 4 5 11 6 14 7 33 8 2 9 12 10 15 11 1 12
REMARK SMILES IDX 3 13 13 14 30 15 16 16 17 17 29 18 31 19 18 20 28 21 27 22
REMARK SMILES IDX 20 23 19 24 24 25 21 26 22 27 25 28 26 29 7 30 8 31 9 32
REMARK SMILES IDX 23 33
REMARK H PARENT 23 34
REMARK Flexibility Score: inf
ROOT
ATOM      1  C   UNL     1       8.398  17.097 -19.572  1.00  0.00     0.017 C 
ATOM      2  C   UNL     1       8.279  17.779 -20.964  1.00  0.00     0.014 C 
ATOM      3  C   UNL     1       7.022  16.579 -19.104  1.00  0.00     0.014 C 
ATOM      4  C   UNL     1       9.375  15.885 -19.620  1.00  0.00     0.028 C 
ATOM      5  C   UNL     1       7.988  16.810 -22.115  1.00  0.00     0.007 C 
ATOM      6  C   UNL     1       7.042  16.024 -17.674  1.00  0.00     0.013 C 
ATOM      7  C   UNL     1       9.362  15.047 -18.334  1.00  0.00    -0.064 C 
ATOM      8  C   UNL     1       9.097  14.940 -20.827  1.00  0.00     0.015 C 
ATOM      9  C   UNL     1       9.012  15.656 -22.197  1.00  0.00    -0.035 C 
ATOM     10  C   UNL     1       8.300  15.159 -17.227  1.00  0.00    -0.006 C 
ATOM     11  C   UNL     1      10.371  14.175 -18.185  1.00  0.00    -0.027 C 
ATOM     12  C   UNL     1       8.525  14.643 -23.256  1.00  0.00     0.011 C 
ATOM     13  C   UNL     1      10.402  16.173 -22.638  1.00  0.00     0.011 C 
ATOM     14  C   UNL     1       8.993  15.934 -16.060  1.00  0.00     0.017 C 
ATOM     15  C   UNL     1       7.872  13.689 -16.722  1.00  0.00    -0.020 C 
ATOM     16  C   UNL     1      10.375  13.029 -17.225  1.00  0.00     0.032 C 
ATOM     17  C   UNL     1       9.151  12.850 -16.260  1.00  0.00     0.006 C 
ATOM     18  C   UNL     1       7.166  12.909 -17.880  1.00  0.00     0.008 C 
ATOM     19  C   UNL     1       6.875  13.860 -15.519  1.00  0.00     0.012 C 
ATOM     20  C   UNL     1       8.868  11.300 -15.937  1.00  0.00    -0.025 C 
ATOM     21  C   UNL     1       6.875  11.426 -17.582  1.00  0.00     0.005 C 
ATOM     22  C   UNL     1       8.157  10.653 -17.188  1.00  0.00     0.003 C 
ATOM     23  C   UNL     1      10.206  10.527 -15.649  1.00  0.00     0.010 C 
ATOM     24  C   UNL     1       8.022  11.188 -14.622  1.00  0.00     0.012 C 
ATOM     25  C   UNL     1       8.003   9.077 -17.163  1.00  0.00    -0.006 C 
ATOM     26  C   UNL     1      10.044   8.998 -15.579  1.00  0.00     0.033 C 
ATOM     27  C   UNL     1       9.391   8.428 -16.850  1.00  0.00     0.120 C 
ATOM     28  C   UNL     1       7.550   8.564 -18.559  1.00  0.00     0.014 C 
ATOM     29  C   UNL     1       6.939   8.575 -16.152  1.00  0.00     0.014 C 
ENDROOT
BRANCH   1  30
ATOM     30  C   UNL     1       8.909  18.182 -18.632  1.00  0.00     0.048 C 
ATOM     31  O   UNL     1       8.104  18.843 -17.923  1.00  0.00    -0.550 OA
ATOM     32  O   UNL     1      10.254  18.540 -18.627  1.00  0.00    -0.550 OA
ENDBRANCH   1  30
BRANCH  27  33
ATOM     33  O   UNL     1      10.267   8.609 -17.937  1.00  0.00    -0.393 OA
ATOM     34  H   UNL     1       9.762   8.379 -18.760  1.00  0.00     0.210 HD
ENDBRANCH  27  33
TORSDOF 2
ENDMDL
MODEL 2
REMARK VINA RESULT:     1.487      1.510      7.723
REMARK INTER + INTRA:           1.611
REMARK INTER:                   1.655
REMARK INTRA:                  -0.044
REMARK UNBOUND:                -0.006
REMARK SMILES CC1(C)CC[C@@]2(C(=O)[O-])CC[C@]3(C)C(=CC[C@@H]4[C@]5(C)CC[C@H](O)C(C)(C)[C@H]5CC[C@@]43C)[C@H]2C1
REMARK SMILES IDX 6 1 5 2 10 3 32 4 4 5 11 6 14 7 33 8 2 9 12 10 15 11 1 12
REMARK SMILES IDX 3 13 13 14 30 15 16 16 17 17 29 18 31 19 18 20 28 21 27 22
REMARK SMILES IDX 20 23 19 24 24 25 21 26 22 27 25 28 26 29 7 30 8 31 9 32
REMARK SMILES IDX 23 33
REMARK H PARENT 23 34
REMARK Flexibility Score: inf
ROOT
ATOM      1  C   UNL     1       8.242  10.288 -16.960  1.00  0.00     0.017 C 
ATOM      2  C   UNL     1       7.741   9.432 -15.764  1.00  0.00     0.014 C 
ATOM      3  C   UNL     1       7.054  10.767 -17.819  1.00  0.00     0.014 C 
ATOM      4  C   UNL     1       9.013  11.548 -16.465  1.00  0.00     0.028 C 
ATOM      5  C   UNL     1       6.981  10.227 -14.696  1.00  0.00     0.007 C 
ATOM      6  C   UNL     1       7.490  11.497 -19.096  1.00  0.00     0.013 C 
ATOM      7  C   UNL     1       9.340  12.538 -17.592  1.00  0.00    -0.064 C 
ATOM      8  C   UNL     1       8.251  12.314 -15.342  1.00  0.00     0.015 C 
ATOM      9  C   UNL     1       7.792  11.428 -14.159  1.00  0.00    -0.035 C 
ATOM     10  C   UNL     1       8.725  12.494 -19.001  1.00  0.00    -0.006 C 
ATOM     11  C   UNL     1      10.242  13.488 -17.303  1.00  0.00    -0.027 C 
ATOM     12  C   UNL     1       6.875  12.265 -13.240  1.00  0.00     0.011 C 
ATOM     13  C   UNL     1       9.002  10.955 -13.320  1.00  0.00     0.011 C 
ATOM     14  C   UNL     1       9.846  11.920 -19.928  1.00  0.00     0.017 C 
ATOM     15  C   UNL     1       8.337  13.982 -19.480  1.00  0.00    -0.020 C 
ATOM     16  C   UNL     1      10.444  14.743 -18.091  1.00  0.00     0.032 C 
ATOM     17  C   UNL     1       9.600  14.958 -19.395  1.00  0.00     0.006 C 
ATOM     18  C   UNL     1       7.207  14.563 -18.566  1.00  0.00     0.008 C 
ATOM     19  C   UNL     1       7.820  13.897 -20.962  1.00  0.00     0.012 C 
ATOM     20  C   UNL     1       9.277  16.513 -19.647  1.00  0.00    -0.025 C 
ATOM     21  C   UNL     1       6.876  16.048 -18.804  1.00  0.00     0.005 C 
ATOM     22  C   UNL     1       8.126  16.949 -18.660  1.00  0.00     0.003 C 
ATOM     23  C   UNL     1      10.545  17.405 -19.384  1.00  0.00     0.010 C 
ATOM     24  C   UNL     1       8.910  16.732 -21.155  1.00  0.00     0.012 C 
ATOM     25  C   UNL     1       7.824  18.502 -18.587  1.00  0.00    -0.006 C 
ATOM     26  C   UNL     1      10.254  18.916 -19.360  1.00  0.00     0.033 C 
ATOM     27  C   UNL     1       9.159  19.278 -18.343  1.00  0.00     0.120 C 
ATOM     28  C   UNL     1       6.880  18.805 -17.388  1.00  0.00     0.014 C 
ATOM     29  C   UNL     1       7.109  19.054 -19.849  1.00  0.00     0.014 C 
ENDROOT
BRANCH   1  30
ATOM     30  C   UNL     1       9.149   9.367 -17.766  1.00  0.00     0.048 C 
ATOM     31  O   UNL     1       8.677   8.349 -18.339  1.00  0.00    -0.550 OA
ATOM     32  O   UNL     1      10.526   9.567 -17.785  1.00  0.00    -0.550 OA
ENDBRANCH   1  30
BRANCH  27  33
ATOM     33  O   UNL     1       9.637  19.021 -17.044  1.00  0.00    -0.393 OA
ATOM     34  H   UNL     1       8.851  18.786 -16.484  1.00  0.00     0.210 HD
ENDBRANCH  27  33
TORSDOF 2
ENDMDL
