MODEL 1
REMARK VINA RESULT:    -3.992      0.000      0.000
REMARK INTER + INTRA:         -13.308
REMARK INTER:                  -9.126
REMARK INTRA:                  -4.183
REMARK UNBOUND:                -4.183
REMARK SMILES CCCCCCCCCCCCCCCCCCCCCCCC(=O)[O-]
REMARK SMILES IDX 13 1 14 2 15 3 16 4 17 5 18 6 19 7 20 8 21 9 22 10 23 11
REMARK SMILES IDX 24 12 25 13 26 14 12 15 11 16 10 17 9 18 8 19 7 20 6 21 5 22
REMARK SMILES IDX 4 23 3 24 2 25 1 26
REMARK H PARENT
REMARK Flexibility Score: inf
ROOT
ATOM      1  C   UNL     1     104.793  96.892  97.297  1.00  0.00     0.000 C 
ENDROOT
BRANCH   1   2
ATOM      2  C   UNL     1     105.759  96.952  96.098  1.00  0.00     0.000 C 
BRANCH   2   3
ATOM      3  C   UNL     1     105.164  97.686  94.887  1.00  0.00     0.000 C 
BRANCH   3   4
ATOM      4  C   UNL     1     103.873  98.423  95.272  1.00  0.00     0.000 C 
BRANCH   4   5
ATOM      5  C   UNL     1     103.887  99.905  94.861  1.00  0.00     0.000 C 
BRANCH   5   6
ATOM      6  C   UNL     1     102.515 100.393  94.360  1.00  0.00     0.000 C 
BRANCH   6   7
ATOM      7  C   UNL     1     101.549 100.728  95.512  1.00  0.00     0.000 C 
BRANCH   7   8
ATOM      8  C   UNL     1     100.135 100.138  95.353  1.00  0.00     0.000 C 
BRANCH   8   9
ATOM      9  C   UNL     1      99.729  99.241  96.535  1.00  0.00     0.000 C 
BRANCH   9  10
ATOM     10  C   UNL     1     100.345  97.831  96.449  1.00  0.00     0.006 C 
BRANCH  10  11
ATOM     11  C   UNL     1      99.469  96.801  95.716  1.00  0.00     0.053 C 
BRANCH  11  12
ATOM     12  C   UNL     1      98.727  95.913  96.666  1.00  0.00     0.041 C 
ATOM     13  O   UNL     1      98.828  94.660  96.572  1.00  0.00    -0.550 OA
ATOM     14  O   UNL     1      97.908  96.467  97.642  1.00  0.00    -0.550 OA
ENDBRANCH  11  12
ENDBRANCH  10  11
ENDBRANCH   9  10
ENDBRANCH   8   9
ENDBRANCH   7   8
ENDBRANCH   6   7
ENDBRANCH   5   6
ENDBRANCH   4   5
ENDBRANCH   3   4
ENDBRANCH   2   3
ENDBRANCH   1   2
BRANCH   1  15
ATOM     15  C   UNL     1     104.474  95.476  97.811  1.00  0.00     0.000 C 
BRANCH  15  16
ATOM     16  C   UNL     1     103.286  95.380  98.788  1.00  0.00     0.000 C 
BRANCH  16  17
ATOM     17  C   UNL     1     102.412  96.651  98.840  1.00  0.00     0.000 C 
BRANCH  17  18
ATOM     18  C   UNL     1     102.455  97.349 100.212  1.00  0.00    -0.000 C 
BRANCH  18  19
ATOM     19  C   UNL     1     102.947  98.807 100.129  1.00  0.00    -0.000 C 
BRANCH  19  20
ATOM     20  C   UNL     1     102.655  99.518  98.794  1.00  0.00    -0.000 C 
BRANCH  20  21
ATOM     21  C   UNL     1     103.708 100.577  98.433  1.00  0.00    -0.000 C 
BRANCH  21  22
ATOM     22  C   UNL     1     105.096 100.159  98.938  1.00  0.00    -0.000 C 
BRANCH  22  23
ATOM     23  C   UNL     1     106.174 100.227  97.843  1.00  0.00    -0.000 C 
BRANCH  23  24
ATOM     24  C   UNL     1     106.623 101.654  97.474  1.00  0.00    -0.000 C 
BRANCH  24  25
ATOM     25  C   UNL     1     107.229 101.763  96.058  1.00  0.00    -0.003 C 
ATOM     26  C   UNL     1     107.556 100.394  95.459  1.00  0.00     0.004 C 
ENDBRANCH  24  25
ENDBRANCH  23  24
ENDBRANCH  22  23
ENDBRANCH  21  22
ENDBRANCH  20  21
ENDBRANCH  19  20
ENDBRANCH  18  19
ENDBRANCH  17  18
ENDBRANCH  16  17
ENDBRANCH  15  16
ENDBRANCH   1  15
TORSDOF 22
ENDMDL
MODEL 2
REMARK VINA RESULT:    -3.866      3.346      6.496
REMARK INTER + INTRA:         -13.021
REMARK INTER:                  -8.981
REMARK INTRA:                  -4.041
REMARK UNBOUND:                -4.183
REMARK SMILES CCCCCCCCCCCCCCCCCCCCCCCC(=O)[O-]
REMARK SMILES IDX 13 1 14 2 15 3 16 4 17 5 18 6 19 7 20 8 21 9 22 10 23 11
REMARK SMILES IDX 24 12 25 13 26 14 12 15 11 16 10 17 9 18 8 19 7 20 6 21 5 22
REMARK SMILES IDX 4 23 3 24 2 25 1 26
REMARK H PARENT
REMARK Flexibility Score: inf
ROOT
ATOM      1  C   UNL     1     100.557  96.460  98.016  1.00  0.00     0.000 C 
ENDROOT
BRANCH   1   2
ATOM      2  C   UNL     1     101.990  96.107  98.457  1.00  0.00     0.000 C 
BRANCH   2   3
ATOM      3  C   UNL     1     102.571  97.114  99.462  1.00  0.00     0.000 C 
BRANCH   3   4
ATOM      4  C   UNL     1     103.528  98.093  98.767  1.00  0.00     0.000 C 
BRANCH   4   5
ATOM      5  C   UNL     1     102.916  99.490  98.573  1.00  0.00     0.000 C 
BRANCH   5   6
ATOM      6  C   UNL     1     102.983  99.970  97.112  1.00  0.00     0.000 C 
BRANCH   6   7
ATOM      7  C   UNL     1     102.174  99.073  96.157  1.00  0.00     0.000 C 
BRANCH   7   8
ATOM      8  C   UNL     1     103.024  98.302  95.128  1.00  0.00     0.000 C 
BRANCH   8   9
ATOM      9  C   UNL     1     104.516  98.676  95.192  1.00  0.00     0.000 C 
BRANCH   9  10
ATOM     10  C   UNL     1     105.437  97.442  95.224  1.00  0.00     0.006 C 
BRANCH  10  11
ATOM     11  C   UNL     1     106.291  97.322  96.497  1.00  0.00     0.053 C 
BRANCH  11  12
ATOM     12  C   UNL     1     107.106  98.552  96.748  1.00  0.00     0.041 C 
ATOM     13  O   UNL     1     106.941  99.218  97.805  1.00  0.00    -0.550 OA
ATOM     14  O   UNL     1     108.035  98.976  95.805  1.00  0.00    -0.550 OA
ENDBRANCH  11  12
ENDBRANCH  10  11
ENDBRANCH   9  10
ENDBRANCH   8   9
ENDBRANCH   7   8
ENDBRANCH   6   7
ENDBRANCH   5   6
ENDBRANCH   4   5
ENDBRANCH   3   4
ENDBRANCH   2   3
ENDBRANCH   1   2
BRANCH   1  15
ATOM     15  C   UNL     1      99.609  95.257  97.849  1.00  0.00     0.000 C 
BRANCH  15  16
ATOM     16  C   UNL     1      98.829  95.210  96.521  1.00  0.00     0.000 C 
BRANCH  16  17
ATOM     17  C   UNL     1      99.332  96.214  95.462  1.00  0.00     0.000 C 
BRANCH  17  18
ATOM     18  C   UNL     1      98.305  97.318  95.151  1.00  0.00    -0.000 C 
BRANCH  18  19
ATOM     19  C   UNL     1      97.197  97.425  96.217  1.00  0.00    -0.000 C 
BRANCH  19  20
ATOM     20  C   UNL     1      97.245  98.700  97.080  1.00  0.00    -0.000 C 
BRANCH  20  21
ATOM     21  C   UNL     1      98.487  99.565  96.809  1.00  0.00    -0.000 C 
BRANCH  21  22
ATOM     22  C   UNL     1      99.154  99.985  98.126  1.00  0.00    -0.000 C 
BRANCH  22  23
ATOM     23  C   UNL     1      98.718  99.116  99.318  1.00  0.00    -0.000 C 
BRANCH  23  24
ATOM     24  C   UNL     1      99.696  99.123 100.509  1.00  0.00    -0.000 C 
BRANCH  24  25
ATOM     25  C   UNL     1      99.044  99.552 101.840  1.00  0.00    -0.003 C 
ATOM     26  C   UNL     1     100.078  99.971 102.886  1.00  0.00     0.004 C 
ENDBRANCH  24  25
ENDBRANCH  23  24
ENDBRANCH  22  23
ENDBRANCH  21  22
ENDBRANCH  20  21
ENDBRANCH  19  20
ENDBRANCH  18  19
ENDBRANCH  17  18
ENDBRANCH  16  17
ENDBRANCH  15  16
ENDBRANCH   1  15
TORSDOF 22
ENDMDL
MODEL 3
REMARK VINA RESULT:    -3.860      2.541      6.102
REMARK INTER + INTRA:         -13.007
REMARK INTER:                  -8.821
REMARK INTRA:                  -4.186
REMARK UNBOUND:                -4.183
REMARK SMILES CCCCCCCCCCCCCCCCCCCCCCCC(=O)[O-]
REMARK SMILES IDX 13 1 14 2 15 3 16 4 17 5 18 6 19 7 20 8 21 9 22 10 23 11
REMARK SMILES IDX 24 12 25 13 26 14 12 15 11 16 10 17 9 18 8 19 7 20 6 21 5 22
REMARK SMILES IDX 4 23 3 24 2 25 1 26
REMARK H PARENT
REMARK Flexibility Score: inf
ROOT
ATOM      1  C   UNL     1     107.265 100.959  97.683  1.00  0.00     0.000 C 
ENDROOT
BRANCH   1   2
ATOM      2  C   UNL     1     106.366 101.462  96.537  1.00  0.00     0.000 C 
BRANCH   2   3
ATOM      3  C   UNL     1     106.715 100.829  95.182  1.00  0.00     0.000 C 
BRANCH   3   4
ATOM      4  C   UNL     1     107.505  99.526  95.372  1.00  0.00     0.000 C 
BRANCH   4   5
ATOM      5  C   UNL     1     106.653  98.269  95.133  1.00  0.00     0.000 C 
BRANCH   5   6
ATOM      6  C   UNL     1     106.117  97.658  96.440  1.00  0.00     0.000 C 
BRANCH   6   7
ATOM      7  C   UNL     1     104.590  97.452  96.415  1.00  0.00     0.000 C 
BRANCH   7   8
ATOM      8  C   UNL     1     103.797  98.617  95.791  1.00  0.00     0.000 C 
BRANCH   8   9
ATOM      9  C   UNL     1     102.275  98.444  95.935  1.00  0.00     0.000 C 
BRANCH   9  10
ATOM     10  C   UNL     1     101.566  99.745  96.358  1.00  0.00     0.006 C 
BRANCH  10  11
ATOM     11  C   UNL     1     102.442 101.005  96.254  1.00  0.00     0.053 C 
BRANCH  11  12
ATOM     12  C   UNL     1     101.642 102.262  96.405  1.00  0.00     0.041 C 
ATOM     13  O   UNL     1     101.324 102.676  97.552  1.00  0.00    -0.550 OA
ATOM     14  O   UNL     1     101.230 102.965  95.280  1.00  0.00    -0.550 OA
ENDBRANCH  11  12
ENDBRANCH  10  11
ENDBRANCH   9  10
ENDBRANCH   8   9
ENDBRANCH   7   8
ENDBRANCH   6   7
ENDBRANCH   5   6
ENDBRANCH   4   5
ENDBRANCH   3   4
ENDBRANCH   2   3
ENDBRANCH   1   2
BRANCH   1  15
ATOM     15  C   UNL     1     106.516 100.363  98.889  1.00  0.00     0.000 C 
BRANCH  15  16
ATOM     16  C   UNL     1     104.978 100.453  98.823  1.00  0.00     0.000 C 
BRANCH  16  17
ATOM     17  C   UNL     1     104.250  99.287  99.525  1.00  0.00     0.000 C 
BRANCH  17  18
ATOM     18  C   UNL     1     102.779  99.609  99.844  1.00  0.00    -0.000 C 
BRANCH  18  19
ATOM     19  C   UNL     1     101.875  98.362  99.831  1.00  0.00    -0.000 C 
BRANCH  19  20
ATOM     20  C   UNL     1     102.595  97.039  99.510  1.00  0.00    -0.000 C 
BRANCH  20  21
ATOM     21  C   UNL     1     101.777  96.115  98.593  1.00  0.00    -0.000 C 
BRANCH  21  22
ATOM     22  C   UNL     1     100.401  96.727  98.292  1.00  0.00    -0.000 C 
BRANCH  22  23
ATOM     23  C   UNL     1      99.583  95.889  97.294  1.00  0.00    -0.000 C 
BRANCH  23  24
ATOM     24  C   UNL     1      99.177  94.495  97.809  1.00  0.00    -0.000 C 
BRANCH  24  25
ATOM     25  C   UNL     1      97.655  94.326  97.995  1.00  0.00    -0.003 C 
ATOM     26  C   UNL     1      97.060  95.387  98.922  1.00  0.00     0.004 C 
ENDBRANCH  24  25
ENDBRANCH  23  24
ENDBRANCH  22  23
ENDBRANCH  21  22
ENDBRANCH  20  21
ENDBRANCH  19  20
ENDBRANCH  18  19
ENDBRANCH  17  18
ENDBRANCH  16  17
ENDBRANCH  15  16
ENDBRANCH   1  15
TORSDOF 22
ENDMDL
MODEL 4
REMARK VINA RESULT:    -3.838      2.139      4.828
REMARK INTER + INTRA:         -12.956
REMARK INTER:                  -8.966
REMARK INTRA:                  -3.990
REMARK UNBOUND:                -4.183
REMARK SMILES CCCCCCCCCCCCCCCCCCCCCCCC(=O)[O-]
REMARK SMILES IDX 13 1 14 2 15 3 16 4 17 5 18 6 19 7 20 8 21 9 22 10 23 11
REMARK SMILES IDX 24 12 25 13 26 14 12 15 11 16 10 17 9 18 8 19 7 20 6 21 5 22
REMARK SMILES IDX 4 23 3 24 2 25 1 26
REMARK H PARENT
REMARK Flexibility Score: inf
ROOT
ATOM      1  C   UNL     1     105.628  96.997  96.428  1.00  0.00     0.000 C 
ENDROOT
BRANCH   1   2
ATOM      2  C   UNL     1     104.426  96.954  97.392  1.00  0.00     0.000 C 
BRANCH   2   3
ATOM      3  C   UNL     1     104.205  95.566  98.010  1.00  0.00     0.000 C 
BRANCH   3   4
ATOM      4  C   UNL     1     102.956  95.556  98.903  1.00  0.00     0.000 C 
BRANCH   4   5
ATOM      5  C   UNL     1     102.653  96.931  99.522  1.00  0.00     0.000 C 
BRANCH   5   6
ATOM      6  C   UNL     1     101.346  97.546  98.990  1.00  0.00     0.000 C 
BRANCH   6   7
ATOM      7  C   UNL     1     100.468  96.519  98.250  1.00  0.00     0.000 C 
BRANCH   7   8
ATOM      8  C   UNL     1     100.183  96.865  96.776  1.00  0.00     0.000 C 
BRANCH   8   9
ATOM      9  C   UNL     1     101.006  98.065  96.277  1.00  0.00     0.000 C 
BRANCH   9  10
ATOM     10  C   UNL     1     100.138  99.307  95.998  1.00  0.00     0.006 C 
BRANCH  10  11
ATOM     11  C   UNL     1     100.895 100.475  95.345  1.00  0.00     0.053 C 
BRANCH  11  12
ATOM     12  C   UNL     1     100.220 101.790  95.587  1.00  0.00     0.041 C 
ATOM     13  O   UNL     1      98.963 101.870  95.569  1.00  0.00    -0.550 OA
ATOM     14  O   UNL     1     100.980 102.931  95.812  1.00  0.00    -0.550 OA
ENDBRANCH  11  12
ENDBRANCH  10  11
ENDBRANCH   9  10
ENDBRANCH   8   9
ENDBRANCH   7   8
ENDBRANCH   6   7
ENDBRANCH   5   6
ENDBRANCH   4   5
ENDBRANCH   3   4
ENDBRANCH   2   3
ENDBRANCH   1   2
BRANCH   1  15
ATOM     15  C   UNL     1     105.333  97.595  95.040  1.00  0.00     0.000 C 
BRANCH  15  16
ATOM     16  C   UNL     1     104.179  98.616  94.992  1.00  0.00     0.000 C 
BRANCH  16  17
ATOM     17  C   UNL     1     104.625 100.078  95.210  1.00  0.00     0.000 C 
BRANCH  17  18
ATOM     18  C   UNL     1     105.927 100.420  94.463  1.00  0.00    -0.000 C 
BRANCH  18  19
ATOM     19  C   UNL     1     107.094 100.755  95.413  1.00  0.00    -0.000 C 
BRANCH  19  20
ATOM     20  C   UNL     1     106.680 101.101  96.855  1.00  0.00    -0.000 C 
BRANCH  20  21
ATOM     21  C   UNL     1     107.206 100.096  97.891  1.00  0.00    -0.000 C 
BRANCH  21  22
ATOM     22  C   UNL     1     106.387 100.172  99.188  1.00  0.00    -0.000 C 
BRANCH  22  23
ATOM     23  C   UNL     1     104.876 100.018  98.948  1.00  0.00    -0.000 C 
BRANCH  23  24
ATOM     24  C   UNL     1     103.986 100.782  99.947  1.00  0.00    -0.000 C 
BRANCH  24  25
ATOM     25  C   UNL     1     103.021 101.782  99.275  1.00  0.00    -0.003 C 
ATOM     26  C   UNL     1     101.679 101.142  98.915  1.00  0.00     0.004 C 
ENDBRANCH  24  25
ENDBRANCH  23  24
ENDBRANCH  22  23
ENDBRANCH  21  22
ENDBRANCH  20  21
ENDBRANCH  19  20
ENDBRANCH  18  19
ENDBRANCH  17  18
ENDBRANCH  16  17
ENDBRANCH  15  16
ENDBRANCH   1  15
TORSDOF 22
ENDMDL
MODEL 5
REMARK VINA RESULT:    -3.829      3.315      6.468
REMARK INTER + INTRA:         -12.936
REMARK INTER:                  -8.511
REMARK INTRA:                  -4.425
REMARK UNBOUND:                -4.183
REMARK SMILES CCCCCCCCCCCCCCCCCCCCCCCC(=O)[O-]
REMARK SMILES IDX 13 1 14 2 15 3 16 4 17 5 18 6 19 7 20 8 21 9 22 10 23 11
REMARK SMILES IDX 24 12 25 13 26 14 12 15 11 16 10 17 9 18 8 19 7 20 6 21 5 22
REMARK SMILES IDX 4 23 3 24 2 25 1 26
REMARK H PARENT
REMARK Flexibility Score: inf
ROOT
ATOM      1  C   UNL     1     102.620  97.093  99.293  1.00  0.00     0.000 C 
ENDROOT
BRANCH   1   2
ATOM      2  C   UNL     1     101.800  98.220  99.949  1.00  0.00     0.000 C 
BRANCH   2   3
ATOM      3  C   UNL     1     102.247  99.621  99.505  1.00  0.00     0.000 C 
BRANCH   3   4
ATOM      4  C   UNL     1     102.375  99.698  97.977  1.00  0.00     0.000 C 
BRANCH   4   5
ATOM      5  C   UNL     1     103.411 100.736  97.515  1.00  0.00     0.000 C 
BRANCH   5   6
ATOM      6  C   UNL     1     103.899 100.487  96.077  1.00  0.00     0.000 C 
BRANCH   6   7
ATOM      7  C   UNL     1     103.295  99.211  95.459  1.00  0.00     0.000 C 
BRANCH   7   8
ATOM      8  C   UNL     1     104.327  98.124  95.102  1.00  0.00     0.000 C 
BRANCH   8   9
ATOM      9  C   UNL     1     104.802  97.328  96.330  1.00  0.00     0.000 C 
BRANCH   9  10
ATOM     10  C   UNL     1     106.333  97.353  96.499  1.00  0.00     0.006 C 
BRANCH  10  11
ATOM     11  C   UNL     1     106.888  98.677  97.049  1.00  0.00     0.053 C 
BRANCH  11  12
ATOM     12  C   UNL     1     107.821  99.343  96.085  1.00  0.00     0.041 C 
ATOM     13  O   UNL     1     107.547  99.372  94.855  1.00  0.00    -0.550 OA
ATOM     14  O   UNL     1     109.003  99.913  96.541  1.00  0.00    -0.550 OA
ENDBRANCH  11  12
ENDBRANCH  10  11
ENDBRANCH   9  10
ENDBRANCH   8   9
ENDBRANCH   7   8
ENDBRANCH   6   7
ENDBRANCH   5   6
ENDBRANCH   4   5
ENDBRANCH   3   4
ENDBRANCH   2   3
ENDBRANCH   1   2
BRANCH   1  15
ATOM     15  C   UNL     1     101.813  96.126  98.406  1.00  0.00     0.000 C 
BRANCH  15  16
ATOM     16  C   UNL     1     100.445  96.654  97.928  1.00  0.00     0.000 C 
BRANCH  16  17
ATOM     17  C   UNL     1     100.416  97.061  96.440  1.00  0.00     0.000 C 
BRANCH  17  18
ATOM     18  C   UNL     1      99.370  96.276  95.628  1.00  0.00    -0.000 C 
BRANCH  18  19
ATOM     19  C   UNL     1      98.140  97.125  95.252  1.00  0.00    -0.000 C 
BRANCH  19  20
ATOM     20  C   UNL     1      97.020  97.151  96.309  1.00  0.00    -0.000 C 
BRANCH  20  21
ATOM     21  C   UNL     1      96.733  98.561  96.848  1.00  0.00    -0.000 C 
BRANCH  21  22
ATOM     22  C   UNL     1      97.571  98.845  98.103  1.00  0.00    -0.000 C 
BRANCH  22  23
ATOM     23  C   UNL     1      98.610  99.958  97.885  1.00  0.00    -0.000 C 
BRANCH  23  24
ATOM     24  C   UNL     1      98.456 100.729  96.560  1.00  0.00    -0.000 C 
BRANCH  24  25
ATOM     25  C   UNL     1      99.678 100.603  95.627  1.00  0.00    -0.003 C 
ATOM     26  C   UNL     1     100.466 101.910  95.520  1.00  0.00     0.004 C 
ENDBRANCH  24  25
ENDBRANCH  23  24
ENDBRANCH  22  23
ENDBRANCH  21  22
ENDBRANCH  20  21
ENDBRANCH  19  20
ENDBRANCH  18  19
ENDBRANCH  17  18
ENDBRANCH  16  17
ENDBRANCH  15  16
ENDBRANCH   1  15
TORSDOF 22
ENDMDL
MODEL 6
REMARK VINA RESULT:    -3.793      3.439      6.520
REMARK INTER + INTRA:         -12.855
REMARK INTER:                  -8.684
REMARK INTRA:                  -4.170
REMARK UNBOUND:                -4.183
REMARK SMILES CCCCCCCCCCCCCCCCCCCCCCCC(=O)[O-]
REMARK SMILES IDX 13 1 14 2 15 3 16 4 17 5 18 6 19 7 20 8 21 9 22 10 23 11
REMARK SMILES IDX 24 12 25 13 26 14 12 15 11 16 10 17 9 18 8 19 7 20 6 21 5 22
REMARK SMILES IDX 4 23 3 24 2 25 1 26
REMARK H PARENT
REMARK Flexibility Score: inf
ROOT
ATOM      1  C   UNL     1      99.288 100.008  96.910  1.00  0.00     0.000 C 
ENDROOT
BRANCH   1   2
ATOM      2  C   UNL     1     100.569 100.837  97.127  1.00  0.00     0.000 C 
BRANCH   2   3
ATOM      3  C   UNL     1     101.850 100.052  96.809  1.00  0.00     0.000 C 
BRANCH   3   4
ATOM      4  C   UNL     1     102.651 100.738  95.692  1.00  0.00     0.000 C 
BRANCH   4   5
ATOM      5  C   UNL     1     103.151  99.752  94.624  1.00  0.00     0.000 C 
BRANCH   5   6
ATOM      6  C   UNL     1     103.353  98.330  95.178  1.00  0.00     0.000 C 
BRANCH   6   7
ATOM      7  C   UNL     1     104.801  97.831  95.012  1.00  0.00     0.000 C 
BRANCH   7   8
ATOM      8  C   UNL     1     105.475  97.378  96.322  1.00  0.00     0.000 C 
BRANCH   8   9
ATOM      9  C   UNL     1     105.847  98.557  97.237  1.00  0.00     0.000 C 
BRANCH   9  10
ATOM     10  C   UNL     1     106.996  99.412  96.668  1.00  0.00     0.006 C 
BRANCH  10  11
ATOM     11  C   UNL     1     106.562 100.795  96.157  1.00  0.00     0.053 C 
BRANCH  11  12
ATOM     12  C   UNL     1     107.210 101.144  94.853  1.00  0.00     0.041 C 
ATOM     13  O   UNL     1     108.132 102.002  94.813  1.00  0.00    -0.550 OA
ATOM     14  O   UNL     1     106.784 100.537  93.678  1.00  0.00    -0.550 OA
ENDBRANCH  11  12
ENDBRANCH  10  11
ENDBRANCH   9  10
ENDBRANCH   8   9
ENDBRANCH   7   8
ENDBRANCH   6   7
ENDBRANCH   5   6
ENDBRANCH   4   5
ENDBRANCH   3   4
ENDBRANCH   2   3
ENDBRANCH   1   2
BRANCH   1  15
ATOM     15  C   UNL     1      99.243  99.205  95.597  1.00  0.00     0.000 C 
BRANCH  15  16
ATOM     16  C   UNL     1      98.578  97.817  95.694  1.00  0.00     0.000 C 
BRANCH  16  17
ATOM     17  C   UNL     1      99.580  96.644  95.744  1.00  0.00     0.000 C 
BRANCH  17  18
ATOM     18  C   UNL     1      99.575  95.914  97.100  1.00  0.00    -0.000 C 
BRANCH  18  19
ATOM     19  C   UNL     1     100.291  96.706  98.211  1.00  0.00    -0.000 C 
BRANCH  19  20
ATOM     20  C   UNL     1     101.829  96.702  98.125  1.00  0.00    -0.000 C 
BRANCH  20  21
ATOM     21  C   UNL     1     102.509  96.873  99.493  1.00  0.00    -0.000 C 
BRANCH  21  22
ATOM     22  C   UNL     1     103.254  98.214  99.566  1.00  0.00    -0.000 C 
BRANCH  22  23
ATOM     23  C   UNL     1     102.429  99.316 100.251  1.00  0.00    -0.000 C 
BRANCH  23  24
ATOM     24  C   UNL     1     101.391  98.802 101.267  1.00  0.00    -0.000 C 
BRANCH  24  25
ATOM     25  C   UNL     1     100.134  99.692 101.369  1.00  0.00    -0.003 C 
ATOM     26  C   UNL     1      98.981  99.169 100.510  1.00  0.00     0.004 C 
ENDBRANCH  24  25
ENDBRANCH  23  24
ENDBRANCH  22  23
ENDBRANCH  21  22
ENDBRANCH  20  21
ENDBRANCH  19  20
ENDBRANCH  18  19
ENDBRANCH  17  18
ENDBRANCH  16  17
ENDBRANCH  15  16
ENDBRANCH   1  15
TORSDOF 22
ENDMDL
MODEL 7
REMARK VINA RESULT:    -3.788      1.552      4.171
REMARK INTER + INTRA:         -12.842
REMARK INTER:                  -8.557
REMARK INTRA:                  -4.285
REMARK UNBOUND:                -4.183
REMARK SMILES CCCCCCCCCCCCCCCCCCCCCCCC(=O)[O-]
REMARK SMILES IDX 13 1 14 2 15 3 16 4 17 5 18 6 19 7 20 8 21 9 22 10 23 11
REMARK SMILES IDX 24 12 25 13 26 14 12 15 11 16 10 17 9 18 8 19 7 20 6 21 5 22
REMARK SMILES IDX 4 23 3 24 2 25 1 26
REMARK H PARENT
REMARK Flexibility Score: inf
ROOT
ATOM      1  C   UNL     1     103.364  99.308  94.708  1.00  0.00     0.000 C 
ENDROOT
BRANCH   1   2
ATOM      2  C   UNL     1     103.293 100.499  95.683  1.00  0.00     0.000 C 
BRANCH   2   3
ATOM      3  C   UNL     1     102.783 100.100  97.076  1.00  0.00     0.000 C 
BRANCH   3   4
ATOM      4  C   UNL     1     103.824 100.429  98.156  1.00  0.00     0.000 C 
BRANCH   4   5
ATOM      5  C   UNL     1     104.274  99.191  98.949  1.00  0.00     0.000 C 
BRANCH   5   6
ATOM      6  C   UNL     1     103.092  98.312  99.397  1.00  0.00     0.000 C 
BRANCH   6   7
ATOM      7  C   UNL     1     103.186  96.873  98.856  1.00  0.00     0.000 C 
BRANCH   7   8
ATOM      8  C   UNL     1     101.826  96.198  98.593  1.00  0.00     0.000 C 
BRANCH   8   9
ATOM      9  C   UNL     1     100.943  97.000  97.622  1.00  0.00     0.000 C 
BRANCH   9  10
ATOM     10  C   UNL     1      99.599  97.418  98.249  1.00  0.00     0.006 C 
BRANCH  10  11
ATOM     11  C   UNL     1      98.482  96.370  98.108  1.00  0.00     0.053 C 
BRANCH  11  12
ATOM     12  C   UNL     1      98.412  95.802  96.724  1.00  0.00     0.041 C 
ATOM     13  O   UNL     1      98.739  94.604  96.514  1.00  0.00    -0.550 OA
ATOM     14  O   UNL     1      98.006  96.602  95.663  1.00  0.00    -0.550 OA
ENDBRANCH  11  12
ENDBRANCH  10  11
ENDBRANCH   9  10
ENDBRANCH   8   9
ENDBRANCH   7   8
ENDBRANCH   6   7
ENDBRANCH   5   6
ENDBRANCH   4   5
ENDBRANCH   3   4
ENDBRANCH   2   3
ENDBRANCH   1   2
BRANCH   1  15
ATOM     15  C   UNL     1     103.765  97.964  95.343  1.00  0.00     0.000 C 
BRANCH  15  16
ATOM     16  C   UNL     1     105.227  97.535  95.112  1.00  0.00     0.000 C 
BRANCH  16  17
ATOM     17  C   UNL     1     106.090  97.534  96.392  1.00  0.00     0.000 C 
BRANCH  17  18
ATOM     18  C   UNL     1     107.125  98.673  96.414  1.00  0.00    -0.000 C 
BRANCH  18  19
ATOM     19  C   UNL     1     107.310  99.344  95.039  1.00  0.00    -0.000 C 
BRANCH  19  20
ATOM     20  C   UNL     1     106.852 100.812  94.964  1.00  0.00    -0.000 C 
BRANCH  20  21
ATOM     21  C   UNL     1     106.856 101.515  96.331  1.00  0.00    -0.000 C 
BRANCH  21  22
ATOM     22  C   UNL     1     108.199 102.216  96.579  1.00  0.00    -0.000 C 
BRANCH  22  23
ATOM     23  C   UNL     1     108.573 102.276  98.070  1.00  0.00    -0.000 C 
BRANCH  23  24
ATOM     24  C   UNL     1     109.694 101.305  98.489  1.00  0.00    -0.000 C 
BRANCH  24  25
ATOM     25  C   UNL     1     109.174 100.020  99.168  1.00  0.00    -0.003 C 
ATOM     26  C   UNL     1     107.780 100.203  99.770  1.00  0.00     0.004 C 
ENDBRANCH  24  25
ENDBRANCH  23  24
ENDBRANCH  22  23
ENDBRANCH  21  22
ENDBRANCH  20  21
ENDBRANCH  19  20
ENDBRANCH  18  19
ENDBRANCH  17  18
ENDBRANCH  16  17
ENDBRANCH  15  16
ENDBRANCH   1  15
TORSDOF 22
ENDMDL
MODEL 8
REMARK VINA RESULT:    -3.778      1.486      4.034
REMARK INTER + INTRA:         -12.820
REMARK INTER:                  -8.957
REMARK INTRA:                  -3.863
REMARK UNBOUND:                -4.183
REMARK SMILES CCCCCCCCCCCCCCCCCCCCCCCC(=O)[O-]
REMARK SMILES IDX 13 1 14 2 15 3 16 4 17 5 18 6 19 7 20 8 21 9 22 10 23 11
REMARK SMILES IDX 24 12 25 13 26 14 12 15 11 16 10 17 9 18 8 19 7 20 6 21 5 22
REMARK SMILES IDX 4 23 3 24 2 25 1 26
REMARK H PARENT
REMARK Flexibility Score: inf
ROOT
ATOM      1  C   UNL     1     102.615  96.681  99.598  1.00  0.00     0.000 C 
ENDROOT
BRANCH   1   2
ATOM      2  C   UNL     1     102.861  98.165  99.935  1.00  0.00     0.000 C 
BRANCH   2   3
ATOM      3  C   UNL     1     101.780  98.757 100.851  1.00  0.00     0.000 C 
BRANCH   3   4
ATOM      4  C   UNL     1     100.508  99.088 100.057  1.00  0.00     0.000 C 
BRANCH   4   5
ATOM      5  C   UNL     1     100.730 100.188  99.006  1.00  0.00     0.000 C 
BRANCH   5   6
ATOM      6  C   UNL     1     100.373  99.727  97.581  1.00  0.00     0.000 C 
BRANCH   6   7
ATOM      7  C   UNL     1      99.802  98.297  97.548  1.00  0.00     0.000 C 
BRANCH   7   8
ATOM      8  C   UNL     1      99.952  97.580  96.192  1.00  0.00     0.000 C 
BRANCH   8   9
ATOM      9  C   UNL     1      99.432  96.132  96.225  1.00  0.00     0.000 C 
BRANCH   9  10
ATOM     10  C   UNL     1      99.488  95.513  97.635  1.00  0.00     0.006 C 
BRANCH  10  11
ATOM     11  C   UNL     1      98.396  94.466  97.910  1.00  0.00     0.053 C 
BRANCH  11  12
ATOM     12  C   UNL     1      97.299  95.009  98.774  1.00  0.00     0.041 C 
ATOM     13  O   UNL     1      96.715  94.261  99.602  1.00  0.00    -0.550 OA
ATOM     14  O   UNL     1      96.908  96.336  98.649  1.00  0.00    -0.550 OA
ENDBRANCH  11  12
ENDBRANCH  10  11
ENDBRANCH   9  10
ENDBRANCH   8   9
ENDBRANCH   7   8
ENDBRANCH   6   7
ENDBRANCH   5   6
ENDBRANCH   4   5
ENDBRANCH   3   4
ENDBRANCH   2   3
ENDBRANCH   1   2
BRANCH   1  15
ATOM     15  C   UNL     1     103.139  96.226  98.224  1.00  0.00     0.000 C 
BRANCH  15  16
ATOM     16  C   UNL     1     104.112  97.201  97.532  1.00  0.00     0.000 C 
BRANCH  16  17
ATOM     17  C   UNL     1     103.443  98.124  96.492  1.00  0.00     0.000 C 
BRANCH  17  18
ATOM     18  C   UNL     1     104.122  98.058  95.112  1.00  0.00    -0.000 C 
BRANCH  18  19
ATOM     19  C   UNL     1     105.530  97.436  95.165  1.00  0.00    -0.000 C 
BRANCH  19  20
ATOM     20  C   UNL     1     106.681  98.444  95.343  1.00  0.00    -0.000 C 
BRANCH  20  21
ATOM     21  C   UNL     1     106.334  99.852  94.834  1.00  0.00    -0.000 C 
BRANCH  21  22
ATOM     22  C   UNL     1     107.300 100.894  95.415  1.00  0.00    -0.000 C 
BRANCH  22  23
ATOM     23  C   UNL     1     106.654 101.759  96.511  1.00  0.00    -0.000 C 
BRANCH  23  24
ATOM     24  C   UNL     1     105.257 101.288  96.958  1.00  0.00    -0.000 C 
BRANCH  24  25
ATOM     25  C   UNL     1     105.227 100.716  98.391  1.00  0.00    -0.003 C 
ATOM     26  C   UNL     1     104.287 101.497  99.311  1.00  0.00     0.004 C 
ENDBRANCH  24  25
ENDBRANCH  23  24
ENDBRANCH  22  23
ENDBRANCH  21  22
ENDBRANCH  20  21
ENDBRANCH  19  20
ENDBRANCH  18  19
ENDBRANCH  17  18
ENDBRANCH  16  17
ENDBRANCH  15  16
ENDBRANCH   1  15
TORSDOF 22
ENDMDL
MODEL 9
REMARK VINA RESULT:    -3.743      1.917      4.482
REMARK INTER + INTRA:         -12.740
REMARK INTER:                  -8.240
REMARK INTRA:                  -4.500
REMARK UNBOUND:                -4.183
REMARK SMILES CCCCCCCCCCCCCCCCCCCCCCCC(=O)[O-]
REMARK SMILES IDX 13 1 14 2 15 3 16 4 17 5 18 6 19 7 20 8 21 9 22 10 23 11
REMARK SMILES IDX 24 12 25 13 26 14 12 15 11 16 10 17 9 18 8 19 7 20 6 21 5 22
REMARK SMILES IDX 4 23 3 24 2 25 1 26
REMARK H PARENT
REMARK Flexibility Score: inf
ROOT
ATOM      1  C   UNL     1     102.514 100.222  95.528  1.00  0.00     0.000 C 
ENDROOT
BRANCH   1   2
ATOM      2  C   UNL     1     102.584 101.379  96.543  1.00  0.00     0.000 C 
BRANCH   2   3
ATOM      3  C   UNL     1     101.202 101.817  97.047  1.00  0.00     0.000 C 
BRANCH   3   4
ATOM      4  C   UNL     1     100.627 100.792  98.036  1.00  0.00     0.000 C 
BRANCH   4   5
ATOM      5  C   UNL     1      99.158 100.441  97.747  1.00  0.00     0.000 C 
BRANCH   5   6
ATOM      6  C   UNL     1      98.806 100.547  96.252  1.00  0.00     0.000 C 
BRANCH   6   7
ATOM      7  C   UNL     1      99.163  99.270  95.468  1.00  0.00     0.000 C 
BRANCH   7   8
ATOM      8  C   UNL     1      98.866  97.956  96.217  1.00  0.00     0.000 C 
BRANCH   8   9
ATOM      9  C   UNL     1     100.078  97.008  96.257  1.00  0.00     0.000 C 
BRANCH   9  10
ATOM     10  C   UNL     1     100.571  96.735  97.691  1.00  0.00     0.006 C 
BRANCH  10  11
ATOM     11  C   UNL     1     101.909  97.407  98.040  1.00  0.00     0.053 C 
BRANCH  11  12
ATOM     12  C   UNL     1     102.631  96.691  99.139  1.00  0.00     0.041 C 
ATOM     13  O   UNL     1     103.230  95.608  98.903  1.00  0.00    -0.550 OA
ATOM     14  O   UNL     1     102.627  97.209 100.428  1.00  0.00    -0.550 OA
ENDBRANCH  11  12
ENDBRANCH  10  11
ENDBRANCH   9  10
ENDBRANCH   8   9
ENDBRANCH   7   8
ENDBRANCH   6   7
ENDBRANCH   5   6
ENDBRANCH   4   5
ENDBRANCH   3   4
ENDBRANCH   2   3
ENDBRANCH   1   2
BRANCH   1  15
ATOM     15  C   UNL     1     103.876  99.648  95.094  1.00  0.00     0.000 C 
BRANCH  15  16
ATOM     16  C   UNL     1     103.972  98.110  95.085  1.00  0.00     0.000 C 
BRANCH  16  17
ATOM     17  C   UNL     1     105.419  97.572  95.111  1.00  0.00     0.000 C 
BRANCH  17  18
ATOM     18  C   UNL     1     105.939  97.330  96.540  1.00  0.00    -0.000 C 
BRANCH  18  19
ATOM     19  C   UNL     1     107.366  97.866  96.759  1.00  0.00    -0.000 C 
BRANCH  19  20
ATOM     20  C   UNL     1     107.779  99.019  95.826  1.00  0.00    -0.000 C 
BRANCH  20  21
ATOM     21  C   UNL     1     107.981 100.351  96.565  1.00  0.00    -0.000 C 
BRANCH  21  22
ATOM     22  C   UNL     1     106.877 101.352  96.194  1.00  0.00    -0.000 C 
BRANCH  22  23
ATOM     23  C   UNL     1     106.015 101.762  97.400  1.00  0.00    -0.000 C 
BRANCH  23  24
ATOM     24  C   UNL     1     106.148 100.839  98.627  1.00  0.00    -0.000 C 
BRANCH  24  25
ATOM     25  C   UNL     1     104.950  99.884  98.813  1.00  0.00    -0.003 C 
ATOM     26  C   UNL     1     103.944 100.407  99.840  1.00  0.00     0.004 C 
ENDBRANCH  24  25
ENDBRANCH  23  24
ENDBRANCH  22  23
ENDBRANCH  21  22
ENDBRANCH  20  21
ENDBRANCH  19  20
ENDBRANCH  18  19
ENDBRANCH  17  18
ENDBRANCH  16  17
ENDBRANCH  15  16
ENDBRANCH   1  15
TORSDOF 22
ENDMDL
