MODEL 1
REMARK VINA RESULT:    -4.269      0.000      0.000
REMARK INTER + INTRA:          -7.371
REMARK INTER:                  -6.765
REMARK INTRA:                  -0.606
REMARK UNBOUND:                -0.606
REMARK SMILES CCCCCCCCCCCC(=O)[O-]
REMARK SMILES IDX 7 1 8 2 9 3 10 4 11 5 12 6 13 7 14 8 6 9 5 10 4 11 3 12 2 13
REMARK SMILES IDX 1 14
REMARK H PARENT
REMARK Flexibility Score: inf
ROOT
ATOM      1  C   UNL     1     -23.272  26.816   7.637  1.00  0.00     0.000 C 
ENDROOT
BRANCH   1   2
ATOM      2  C   UNL     1     -24.124  25.546   7.788  1.00  0.00     0.000 C 
BRANCH   2   3
ATOM      3  C   UNL     1     -23.911  24.849   9.142  1.00  0.00     0.000 C 
BRANCH   3   4
ATOM      4  C   UNL     1     -22.694  25.431   9.872  1.00  0.00     0.006 C 
BRANCH   4   5
ATOM      5  C   UNL     1     -22.992  25.634  11.360  1.00  0.00     0.053 C 
BRANCH   5   6
ATOM      6  C   UNL     1     -22.505  24.465  12.157  1.00  0.00     0.041 C 
ATOM      7  O   UNL     1     -21.290  24.137  12.122  1.00  0.00    -0.550 OA
ATOM      8  O   UNL     1     -23.402  23.708  12.900  1.00  0.00    -0.550 OA
ENDBRANCH   5   6
ENDBRANCH   4   5
ENDBRANCH   3   4
ENDBRANCH   2   3
ENDBRANCH   1   2
BRANCH   1   9
ATOM      9  C   UNL     1     -24.125  28.076   7.420  1.00  0.00     0.000 C 
BRANCH   9  10
ATOM     10  C   UNL     1     -23.646  29.274   8.260  1.00  0.00    -0.000 C 
BRANCH  10  11
ATOM     11  C   UNL     1     -23.913  30.641   7.595  1.00  0.00    -0.000 C 
BRANCH  11  12
ATOM     12  C   UNL     1     -23.104  31.772   8.253  1.00  0.00    -0.000 C 
BRANCH  12  13
ATOM     13  C   UNL     1     -21.755  31.289   8.807  1.00  0.00    -0.003 C 
ATOM     14  C   UNL     1     -20.562  31.839   8.026  1.00  0.00     0.004 C 
ENDBRANCH  12  13
ENDBRANCH  11  12
ENDBRANCH  10  11
ENDBRANCH   9  10
ENDBRANCH   1   9
TORSDOF 10
ENDMDL
MODEL 2
REMARK VINA RESULT:    -3.774      3.594      6.991
REMARK INTER + INTRA:          -6.586
REMARK INTER:                  -6.236
REMARK INTRA:                  -0.350
REMARK UNBOUND:                -0.606
REMARK SMILES CCCCCCCCCCCC(=O)[O-]
REMARK SMILES IDX 7 1 8 2 9 3 10 4 11 5 12 6 13 7 14 8 6 9 5 10 4 11 3 12 2 13
REMARK SMILES IDX 1 14
REMARK H PARENT
REMARK Flexibility Score: inf
ROOT
ATOM      1  C   UNL     1     -22.909  26.114   9.523  1.00  0.00     0.000 C 
ENDROOT
BRANCH   1   2
ATOM      2  C   UNL     1     -23.091  26.322   8.011  1.00  0.00     0.000 C 
BRANCH   2   3
ATOM      3  C   UNL     1     -24.125  27.410   7.683  1.00  0.00     0.000 C 
BRANCH   3   4
ATOM      4  C   UNL     1     -23.774  28.729   8.385  1.00  0.00     0.006 C 
BRANCH   4   5
ATOM      5  C   UNL     1     -24.110  29.931   7.498  1.00  0.00     0.053 C 
BRANCH   5   6
ATOM      6  C   UNL     1     -23.335  31.135   7.931  1.00  0.00     0.041 C 
ATOM      7  O   UNL     1     -23.890  32.031   8.620  1.00  0.00    -0.550 OA
ATOM      8  O   UNL     1     -22.014  31.292   7.531  1.00  0.00    -0.550 OA
ENDBRANCH   5   6
ENDBRANCH   4   5
ENDBRANCH   3   4
ENDBRANCH   2   3
ENDBRANCH   1   2
BRANCH   1   9
ATOM      9  C   UNL     1     -23.539  24.803  10.018  1.00  0.00     0.000 C 
BRANCH   9  10
ATOM     10  C   UNL     1     -23.741  24.776  11.544  1.00  0.00    -0.000 C 
BRANCH  10  11
ATOM     11  C   UNL     1     -22.943  23.662  12.254  1.00  0.00    -0.000 C 
BRANCH  11  12
ATOM     12  C   UNL     1     -21.509  24.103  12.593  1.00  0.00    -0.000 C 
BRANCH  12  13
ATOM     13  C   UNL     1     -21.043  23.595  13.966  1.00  0.00    -0.003 C 
ATOM     14  C   UNL     1     -19.617  24.025  14.305  1.00  0.00     0.004 C 
ENDBRANCH  12  13
ENDBRANCH  11  12
ENDBRANCH  10  11
ENDBRANCH   9  10
ENDBRANCH   1   9
TORSDOF 10
ENDMDL
MODEL 3
REMARK VINA RESULT:    -3.755      1.509      2.498
REMARK INTER + INTRA:          -6.556
REMARK INTER:                  -6.209
REMARK INTRA:                  -0.347
REMARK UNBOUND:                -0.606
REMARK SMILES CCCCCCCCCCCC(=O)[O-]
REMARK SMILES IDX 7 1 8 2 9 3 10 4 11 5 12 6 13 7 14 8 6 9 5 10 4 11 3 12 2 13
REMARK SMILES IDX 1 14
REMARK H PARENT
REMARK Flexibility Score: inf
ROOT
ATOM      1  C   UNL     1     -24.029  25.772   9.441  1.00  0.00     0.000 C 
ENDROOT
BRANCH   1   2
ATOM      2  C   UNL     1     -23.056  25.442  10.584  1.00  0.00     0.000 C 
BRANCH   2   3
ATOM      3  C   UNL     1     -22.387  24.068  10.414  1.00  0.00     0.000 C 
BRANCH   3   4
ATOM      4  C   UNL     1     -22.184  23.387  11.773  1.00  0.00     0.006 C 
BRANCH   4   5
ATOM      5  C   UNL     1     -21.010  24.013  12.532  1.00  0.00     0.053 C 
BRANCH   5   6
ATOM      6  C   UNL     1     -21.076  23.658  13.984  1.00  0.00     0.041 C 
ATOM      7  O   UNL     1     -22.101  23.097  14.453  1.00  0.00    -0.550 OA
ATOM      8  O   UNL     1     -20.025  23.991  14.829  1.00  0.00    -0.550 OA
ENDBRANCH   5   6
ENDBRANCH   4   5
ENDBRANCH   3   4
ENDBRANCH   2   3
ENDBRANCH   1   2
BRANCH   1   9
ATOM      9  C   UNL     1     -23.306  26.124   8.132  1.00  0.00     0.000 C 
BRANCH   9  10
ATOM     10  C   UNL     1     -23.928  27.334   7.412  1.00  0.00    -0.000 C 
BRANCH  10  11
ATOM     11  C   UNL     1     -24.086  28.577   8.314  1.00  0.00    -0.000 C 
BRANCH  11  12
ATOM     12  C   UNL     1     -24.002  29.888   7.513  1.00  0.00    -0.000 C 
BRANCH  12  13
ATOM     13  C   UNL     1     -23.356  31.029   8.313  1.00  0.00    -0.003 C 
ATOM     14  C   UNL     1     -22.047  31.518   7.695  1.00  0.00     0.004 C 
ENDBRANCH  12  13
ENDBRANCH  11  12
ENDBRANCH  10  11
ENDBRANCH   9  10
ENDBRANCH   1   9
TORSDOF 10
ENDMDL
MODEL 4
REMARK VINA RESULT:    -3.685     12.839     15.023
REMARK INTER + INTRA:          -6.446
REMARK INTER:                  -5.479
REMARK INTRA:                  -0.967
REMARK UNBOUND:                -0.606
REMARK SMILES CCCCCCCCCCCC(=O)[O-]
REMARK SMILES IDX 7 1 8 2 9 3 10 4 11 5 12 6 13 7 14 8 6 9 5 10 4 11 3 12 2 13
REMARK SMILES IDX 1 14
REMARK H PARENT
REMARK Flexibility Score: inf
ROOT
ATOM      1  C   UNL     1     -18.498  32.156  23.762  1.00  0.00     0.000 C 
ENDROOT
BRANCH   1   2
ATOM      2  C   UNL     1     -19.665  33.094  23.415  1.00  0.00     0.000 C 
BRANCH   2   3
ATOM      3  C   UNL     1     -20.963  32.332  23.100  1.00  0.00     0.000 C 
BRANCH   3   4
ATOM      4  C   UNL     1     -21.735  33.013  21.962  1.00  0.00     0.006 C 
BRANCH   4   5
ATOM      5  C   UNL     1     -21.323  34.481  21.820  1.00  0.00     0.053 C 
BRANCH   5   6
ATOM      6  C   UNL     1     -22.278  35.210  20.929  1.00  0.00     0.041 C 
ATOM      7  O   UNL     1     -22.585  34.733  19.804  1.00  0.00    -0.550 OA
ATOM      8  O   UNL     1     -22.792  36.440  21.319  1.00  0.00    -0.550 OA
ENDBRANCH   5   6
ENDBRANCH   4   5
ENDBRANCH   3   4
ENDBRANCH   2   3
ENDBRANCH   1   2
BRANCH   1   9
ATOM      9  C   UNL     1     -18.921  30.680  23.812  1.00  0.00     0.000 C 
BRANCH   9  10
ATOM     10  C   UNL     1     -17.856  29.732  23.232  1.00  0.00    -0.000 C 
BRANCH  10  11
ATOM     11  C   UNL     1     -18.352  28.913  22.021  1.00  0.00    -0.000 C 
BRANCH  11  12
ATOM     12  C   UNL     1     -19.837  29.173  21.715  1.00  0.00    -0.000 C 
BRANCH  12  13
ATOM     13  C   UNL     1     -20.049  29.858  20.356  1.00  0.00    -0.003 C 
ATOM     14  C   UNL     1     -20.311  28.864  19.226  1.00  0.00     0.004 C 
ENDBRANCH  12  13
ENDBRANCH  11  12
ENDBRANCH  10  11
ENDBRANCH   9  10
ENDBRANCH   1   9
TORSDOF 10
ENDMDL
MODEL 5
REMARK VINA RESULT:    -3.590     12.030     14.349
REMARK INTER + INTRA:          -6.294
REMARK INTER:                  -5.148
REMARK INTRA:                  -1.146
REMARK UNBOUND:                -0.606
REMARK SMILES CCCCCCCCCCCC(=O)[O-]
REMARK SMILES IDX 7 1 8 2 9 3 10 4 11 5 12 6 13 7 14 8 6 9 5 10 4 11 3 12 2 13
REMARK SMILES IDX 1 14
REMARK H PARENT
REMARK Flexibility Score: inf
ROOT
ATOM      1  C   UNL     1     -18.931  30.712  23.950  1.00  0.00     0.000 C 
ENDROOT
BRANCH   1   2
ATOM      2  C   UNL     1     -18.583  32.202  23.801  1.00  0.00     0.000 C 
BRANCH   2   3
ATOM      3  C   UNL     1     -19.800  33.058  23.414  1.00  0.00     0.000 C 
BRANCH   3   4
ATOM      4  C   UNL     1     -20.974  32.174  22.975  1.00  0.00     0.006 C 
BRANCH   4   5
ATOM      5  C   UNL     1     -21.577  32.674  21.659  1.00  0.00     0.053 C 
BRANCH   5   6
ATOM      6  C   UNL     1     -22.717  31.802  21.239  1.00  0.00     0.041 C 
ATOM      7  O   UNL     1     -22.787  30.612  21.647  1.00  0.00    -0.550 OA
ATOM      8  O   UNL     1     -23.676  32.286  20.358  1.00  0.00    -0.550 OA
ENDBRANCH   5   6
ENDBRANCH   4   5
ENDBRANCH   3   4
ENDBRANCH   2   3
ENDBRANCH   1   2
BRANCH   1   9
ATOM      9  C   UNL     1     -17.779  29.791  23.518  1.00  0.00     0.000 C 
BRANCH   9  10
ATOM     10  C   UNL     1     -17.988  29.191  22.116  1.00  0.00    -0.000 C 
BRANCH  10  11
ATOM     11  C   UNL     1     -19.469  29.123  21.687  1.00  0.00    -0.000 C 
BRANCH  11  12
ATOM     12  C   UNL     1     -19.697  29.732  20.292  1.00  0.00    -0.000 C 
BRANCH  12  13
ATOM     13  C   UNL     1     -20.462  28.788  19.352  1.00  0.00    -0.003 C 
ATOM     14  C   UNL     1     -20.331  27.319  19.753  1.00  0.00     0.004 C 
ENDBRANCH  12  13
ENDBRANCH  11  12
ENDBRANCH  10  11
ENDBRANCH   9  10
ENDBRANCH   1   9
TORSDOF 10
ENDMDL
MODEL 6
REMARK VINA RESULT:    -3.588      4.055      8.189
REMARK INTER + INTRA:          -6.292
REMARK INTER:                  -5.607
REMARK INTRA:                  -0.684
REMARK UNBOUND:                -0.606
REMARK SMILES CCCCCCCCCCCC(=O)[O-]
REMARK SMILES IDX 7 1 8 2 9 3 10 4 11 5 12 6 13 7 14 8 6 9 5 10 4 11 3 12 2 13
REMARK SMILES IDX 1 14
REMARK H PARENT
REMARK Flexibility Score: inf
ROOT
ATOM      1  C   UNL     1     -20.874  24.034  12.675  1.00  0.00     0.000 C 
ENDROOT
BRANCH   1   2
ATOM      2  C   UNL     1     -21.984  23.051  12.268  1.00  0.00     0.000 C 
BRANCH   2   3
ATOM      3  C   UNL     1     -23.356  23.438  12.843  1.00  0.00     0.000 C 
BRANCH   3   4
ATOM      4  C   UNL     1     -23.955  24.626  12.078  1.00  0.00     0.006 C 
BRANCH   4   5
ATOM      5  C   UNL     1     -23.880  24.400  10.565  1.00  0.00     0.053 C 
BRANCH   5   6
ATOM      6  C   UNL     1     -23.234  25.569   9.892  1.00  0.00     0.041 C 
ATOM      7  O   UNL     1     -22.748  26.506  10.578  1.00  0.00    -0.550 OA
ATOM      8  O   UNL     1     -23.212  25.648   8.505  1.00  0.00    -0.550 OA
ENDBRANCH   5   6
ENDBRANCH   4   5
ENDBRANCH   3   4
ENDBRANCH   2   3
ENDBRANCH   1   2
BRANCH   1   9
ATOM      9  C   UNL     1     -19.747  23.355  13.469  1.00  0.00     0.000 C 
BRANCH   9  10
ATOM     10  C   UNL     1     -19.609  23.905  14.900  1.00  0.00    -0.000 C 
BRANCH  10  11
ATOM     11  C   UNL     1     -20.748  23.463  15.844  1.00  0.00    -0.000 C 
BRANCH  11  12
ATOM     12  C   UNL     1     -20.263  23.288  17.294  1.00  0.00    -0.000 C 
BRANCH  12  13
ATOM     13  C   UNL     1     -18.731  23.252  17.404  1.00  0.00    -0.003 C 
ATOM     14  C   UNL     1     -18.241  23.228  18.851  1.00  0.00     0.004 C 
ENDBRANCH  12  13
ENDBRANCH  11  12
ENDBRANCH  10  11
ENDBRANCH   9  10
ENDBRANCH   1   9
TORSDOF 10
ENDMDL
MODEL 7
REMARK VINA RESULT:    -3.537     12.183     14.155
REMARK INTER + INTRA:          -6.211
REMARK INTER:                  -5.179
REMARK INTRA:                  -1.032
REMARK UNBOUND:                -0.606
REMARK SMILES CCCCCCCCCCCC(=O)[O-]
REMARK SMILES IDX 7 1 8 2 9 3 10 4 11 5 12 6 13 7 14 8 6 9 5 10 4 11 3 12 2 13
REMARK SMILES IDX 1 14
REMARK H PARENT
REMARK Flexibility Score: inf
ROOT
ATOM      1  C   UNL     1     -23.083  31.335  21.681  1.00  0.00     0.000 C 
ENDROOT
BRANCH   1   2
ATOM      2  C   UNL     1     -23.554  32.212  20.510  1.00  0.00     0.000 C 
BRANCH   2   3
ATOM      3  C   UNL     1     -23.601  33.705  20.869  1.00  0.00     0.000 C 
BRANCH   3   4
ATOM      4  C   UNL     1     -22.739  34.528  19.903  1.00  0.00     0.006 C 
BRANCH   4   5
ATOM      5  C   UNL     1     -21.572  35.194  20.637  1.00  0.00     0.053 C 
BRANCH   5   6
ATOM      6  C   UNL     1     -22.072  36.000  21.794  1.00  0.00     0.041 C 
ATOM      7  O   UNL     1     -21.783  35.663  22.973  1.00  0.00    -0.550 OA
ATOM      8  O   UNL     1     -22.898  37.095  21.574  1.00  0.00    -0.550 OA
ENDBRANCH   5   6
ENDBRANCH   4   5
ENDBRANCH   3   4
ENDBRANCH   2   3
ENDBRANCH   1   2
BRANCH   1   9
ATOM      9  C   UNL     1     -21.903  31.954  22.444  1.00  0.00     0.000 C 
BRANCH   9  10
ATOM     10  C   UNL     1     -20.560  31.272  22.126  1.00  0.00    -0.000 C 
BRANCH  10  11
ATOM     11  C   UNL     1     -20.714  29.876  21.484  1.00  0.00    -0.000 C 
BRANCH  11  12
ATOM     12  C   UNL     1     -19.729  29.662  20.321  1.00  0.00    -0.000 C 
BRANCH  12  13
ATOM     13  C   UNL     1     -20.360  28.901  19.145  1.00  0.00    -0.003 C 
ATOM     14  C   UNL     1     -21.865  28.692  19.313  1.00  0.00     0.004 C 
ENDBRANCH  12  13
ENDBRANCH  11  12
ENDBRANCH  10  11
ENDBRANCH   9  10
ENDBRANCH   1   9
TORSDOF 10
ENDMDL
MODEL 8
REMARK VINA RESULT:    -3.531     11.437     13.174
REMARK INTER + INTRA:          -6.201
REMARK INTER:                  -5.282
REMARK INTRA:                  -0.919
REMARK UNBOUND:                -0.606
REMARK SMILES CCCCCCCCCCCC(=O)[O-]
REMARK SMILES IDX 7 1 8 2 9 3 10 4 11 5 12 6 13 7 14 8 6 9 5 10 4 11 3 12 2 13
REMARK SMILES IDX 1 14
REMARK H PARENT
REMARK Flexibility Score: inf
ROOT
ATOM      1  C   UNL     1     -19.583  30.253  23.303  1.00  0.00     0.000 C 
ENDROOT
BRANCH   1   2
ATOM      2  C   UNL     1     -18.485  29.440  22.600  1.00  0.00     0.000 C 
BRANCH   2   3
ATOM      3  C   UNL     1     -19.004  28.688  21.364  1.00  0.00     0.000 C 
BRANCH   3   4
ATOM      4  C   UNL     1     -19.625  29.660  20.352  1.00  0.00     0.006 C 
BRANCH   4   5
ATOM      5  C   UNL     1     -20.320  28.903  19.217  1.00  0.00     0.053 C 
BRANCH   5   6
ATOM      6  C   UNL     1     -21.709  28.519  19.617  1.00  0.00     0.041 C 
ATOM      7  O   UNL     1     -22.037  27.305  19.683  1.00  0.00    -0.550 OA
ATOM      8  O   UNL     1     -22.657  29.503  19.868  1.00  0.00    -0.550 OA
ENDBRANCH   5   6
ENDBRANCH   4   5
ENDBRANCH   3   4
ENDBRANCH   2   3
ENDBRANCH   1   2
BRANCH   1   9
ATOM      9  C   UNL     1     -19.213  31.737  23.455  1.00  0.00     0.000 C 
BRANCH   9  10
ATOM     10  C   UNL     1     -20.339  32.683  23.003  1.00  0.00    -0.000 C 
BRANCH  10  11
ATOM     11  C   UNL     1     -21.577  31.949  22.444  1.00  0.00    -0.000 C 
BRANCH  11  12
ATOM     12  C   UNL     1     -22.373  32.823  21.460  1.00  0.00    -0.000 C 
BRANCH  12  13
ATOM     13  C   UNL     1     -21.876  34.276  21.425  1.00  0.00    -0.003 C 
ATOM     14  C   UNL     1     -22.165  34.970  20.095  1.00  0.00     0.004 C 
ENDBRANCH  12  13
ENDBRANCH  11  12
ENDBRANCH  10  11
ENDBRANCH   9  10
ENDBRANCH   1   9
TORSDOF 10
ENDMDL
MODEL 9
REMARK VINA RESULT:    -3.465     11.315     13.451
REMARK INTER + INTRA:          -6.096
REMARK INTER:                  -4.531
REMARK INTRA:                  -1.566
REMARK UNBOUND:                -0.606
REMARK SMILES CCCCCCCCCCCC(=O)[O-]
REMARK SMILES IDX 7 1 8 2 9 3 10 4 11 5 12 6 13 7 14 8 6 9 5 10 4 11 3 12 2 13
REMARK SMILES IDX 1 14
REMARK H PARENT
REMARK Flexibility Score: inf
ROOT
ATOM      1  C   UNL     1     -20.061  29.169  21.724  1.00  0.00     0.000 C 
ENDROOT
BRANCH   1   2
ATOM      2  C   UNL     1     -20.665  30.323  22.541  1.00  0.00     0.000 C 
BRANCH   2   3
ATOM      3  C   UNL     1     -20.993  31.552  21.678  1.00  0.00     0.000 C 
BRANCH   3   4
ATOM      4  C   UNL     1     -22.253  32.261  22.191  1.00  0.00     0.006 C 
BRANCH   4   5
ATOM      5  C   UNL     1     -22.861  33.155  21.107  1.00  0.00     0.053 C 
BRANCH   5   6
ATOM      6  C   UNL     1     -22.117  34.450  21.018  1.00  0.00     0.041 C 
ATOM      7  O   UNL     1     -21.794  34.919  19.895  1.00  0.00    -0.550 OA
ATOM      8  O   UNL     1     -21.736  35.114  22.177  1.00  0.00    -0.550 OA
ENDBRANCH   5   6
ENDBRANCH   4   5
ENDBRANCH   3   4
ENDBRANCH   2   3
ENDBRANCH   1   2
BRANCH   1   9
ATOM      9  C   UNL     1     -19.602  29.613  20.327  1.00  0.00     0.000 C 
BRANCH   9  10
ATOM     10  C   UNL     1     -20.336  28.875  19.194  1.00  0.00    -0.000 C 
BRANCH  10  11
ATOM     11  C   UNL     1     -21.748  28.389  19.586  1.00  0.00    -0.000 C 
BRANCH  11  12
ATOM     12  C   UNL     1     -22.848  29.340  19.085  1.00  0.00    -0.000 C 
BRANCH  12  13
ATOM     13  C   UNL     1     -23.901  29.646  20.161  1.00  0.00    -0.003 C 
ATOM     14  C   UNL     1     -23.806  28.711  21.366  1.00  0.00     0.004 C 
ENDBRANCH  12  13
ENDBRANCH  11  12
ENDBRANCH  10  11
ENDBRANCH   9  10
ENDBRANCH   1   9
TORSDOF 10
ENDMDL
