MODEL 1
REMARK VINA RESULT:    -4.325      0.000      0.000
REMARK INTER + INTRA:          -9.966
REMARK INTER:                  -7.864
REMARK INTRA:                  -2.102
REMARK UNBOUND:                -2.102
REMARK SMILES CCCCCCCCCCCCCCCC(=O)[O-]
REMARK SMILES IDX 9 1 10 2 11 3 12 4 13 5 14 6 15 7 16 8 17 9 18 10 8 11 7 12
REMARK SMILES IDX 6 13 5 14 4 15 3 16 2 17 1 18
REMARK H PARENT
REMARK Flexibility Score: inf
ROOT
ATOM      1  C   UNL     1      -8.300  25.184  21.430  1.00  0.00     0.000 C 
ENDROOT
BRANCH   1   2
ATOM      2  C   UNL     1      -7.421  26.077  22.324  1.00  0.00     0.000 C 
BRANCH   2   3
ATOM      3  C   UNL     1      -7.432  25.628  23.795  1.00  0.00     0.000 C 
BRANCH   3   4
ATOM      4  C   UNL     1      -7.816  26.767  24.756  1.00  0.00     0.000 C 
BRANCH   4   5
ATOM      5  C   UNL     1      -9.284  26.698  25.212  1.00  0.00     0.000 C 
BRANCH   5   6
ATOM      6  C   UNL     1     -10.181  27.848  24.709  1.00  0.00     0.006 C 
BRANCH   6   7
ATOM      7  C   UNL     1     -10.555  27.762  23.221  1.00  0.00     0.053 C 
BRANCH   7   8
ATOM      8  C   UNL     1     -10.005  28.914  22.437  1.00  0.00     0.041 C 
ATOM      9  O   UNL     1      -8.939  29.476  22.800  1.00  0.00    -0.550 OA
ATOM     10  O   UNL     1     -10.690  29.389  21.325  1.00  0.00    -0.550 OA
ENDBRANCH   7   8
ENDBRANCH   6   7
ENDBRANCH   5   6
ENDBRANCH   4   5
ENDBRANCH   3   4
ENDBRANCH   2   3
ENDBRANCH   1   2
BRANCH   1  11
ATOM     11  C   UNL     1      -8.841  23.953  22.174  1.00  0.00     0.000 C 
BRANCH  11  12
ATOM     12  C   UNL     1     -10.341  24.060  22.489  1.00  0.00    -0.000 C 
BRANCH  12  13
ATOM     13  C   UNL     1     -11.056  22.730  22.207  1.00  0.00    -0.000 C 
BRANCH  13  14
ATOM     14  C   UNL     1     -10.304  21.851  21.194  1.00  0.00    -0.000 C 
BRANCH  14  15
ATOM     15  C   UNL     1     -11.055  21.717  19.857  1.00  0.00    -0.000 C 
BRANCH  15  16
ATOM     16  C   UNL     1     -10.477  22.628  18.763  1.00  0.00    -0.000 C 
BRANCH  16  17
ATOM     17  C   UNL     1     -11.100  24.033  18.769  1.00  0.00    -0.003 C 
ATOM     18  C   UNL     1     -10.137  25.064  18.188  1.00  0.00     0.004 C 
ENDBRANCH  16  17
ENDBRANCH  15  16
ENDBRANCH  14  15
ENDBRANCH  13  14
ENDBRANCH  12  13
ENDBRANCH  11  12
ENDBRANCH   1  11
TORSDOF 14
ENDMDL
MODEL 2
REMARK VINA RESULT:    -4.185      0.916      2.222
REMARK INTER + INTRA:          -9.712
REMARK INTER:                  -8.089
REMARK INTRA:                  -1.623
REMARK UNBOUND:                -2.102
REMARK SMILES CCCCCCCCCCCCCCCC(=O)[O-]
REMARK SMILES IDX 9 1 10 2 11 3 12 4 13 5 14 6 15 7 16 8 17 9 18 10 8 11 7 12
REMARK SMILES IDX 6 13 5 14 4 15 3 16 2 17 1 18
REMARK H PARENT
REMARK Flexibility Score: inf
ROOT
ATOM      1  C   UNL     1      -7.980  24.905  21.921  1.00  0.00     0.000 C 
ENDROOT
BRANCH   1   2
ATOM      2  C   UNL     1      -7.168  26.049  22.552  1.00  0.00     0.000 C 
BRANCH   2   3
ATOM      3  C   UNL     1      -7.186  26.004  24.089  1.00  0.00     0.000 C 
BRANCH   3   4
ATOM      4  C   UNL     1      -8.573  25.652  24.653  1.00  0.00     0.000 C 
BRANCH   4   5
ATOM      5  C   UNL     1      -9.108  26.710  25.635  1.00  0.00     0.000 C 
BRANCH   5   6
ATOM      6  C   UNL     1      -9.497  28.059  24.997  1.00  0.00     0.006 C 
BRANCH   6   7
ATOM      7  C   UNL     1     -10.298  27.941  23.691  1.00  0.00     0.053 C 
BRANCH   7   8
ATOM      8  C   UNL     1      -9.824  28.909  22.652  1.00  0.00     0.041 C 
ATOM      9  O   UNL     1      -8.701  29.466  22.770  1.00  0.00    -0.550 OA
ATOM     10  O   UNL     1     -10.638  29.225  21.571  1.00  0.00    -0.550 OA
ENDBRANCH   7   8
ENDBRANCH   6   7
ENDBRANCH   5   6
ENDBRANCH   4   5
ENDBRANCH   3   4
ENDBRANCH   2   3
ENDBRANCH   1   2
BRANCH   1  11
ATOM     11  C   UNL     1      -9.298  25.392  21.295  1.00  0.00     0.000 C 
BRANCH  11  12
ATOM     12  C   UNL     1      -9.081  26.221  20.021  1.00  0.00    -0.000 C 
BRANCH  12  13
ATOM     13  C   UNL     1      -9.955  25.698  18.871  1.00  0.00    -0.000 C 
BRANCH  13  14
ATOM     14  C   UNL     1      -9.727  24.206  18.580  1.00  0.00    -0.000 C 
BRANCH  14  15
ATOM     15  C   UNL     1     -10.996  23.362  18.797  1.00  0.00    -0.000 C 
BRANCH  15  16
ATOM     16  C   UNL     1     -10.682  21.871  19.006  1.00  0.00    -0.000 C 
BRANCH  16  17
ATOM     17  C   UNL     1     -11.026  21.386  20.422  1.00  0.00    -0.003 C 
ATOM     18  C   UNL     1      -9.928  21.761  21.413  1.00  0.00     0.004 C 
ENDBRANCH  16  17
ENDBRANCH  15  16
ENDBRANCH  14  15
ENDBRANCH  13  14
ENDBRANCH  12  13
ENDBRANCH  11  12
ENDBRANCH   1  11
TORSDOF 14
ENDMDL
MODEL 3
REMARK VINA RESULT:    -4.003      1.198      2.403
REMARK INTER + INTRA:          -9.381
REMARK INTER:                  -7.237
REMARK INTRA:                  -2.145
REMARK UNBOUND:                -2.102
REMARK SMILES CCCCCCCCCCCCCCCC(=O)[O-]
REMARK SMILES IDX 9 1 10 2 11 3 12 4 13 5 14 6 15 7 16 8 17 9 18 10 8 11 7 12
REMARK SMILES IDX 6 13 5 14 4 15 3 16 2 17 1 18
REMARK H PARENT
REMARK Flexibility Score: inf
ROOT
ATOM      1  C   UNL     1      -7.751  25.996  22.207  1.00  0.00     0.000 C 
ENDROOT
BRANCH   1   2
ATOM      2  C   UNL     1      -8.485  25.468  23.453  1.00  0.00     0.000 C 
BRANCH   2   3
ATOM      3  C   UNL     1      -8.024  26.164  24.744  1.00  0.00     0.000 C 
BRANCH   3   4
ATOM      4  C   UNL     1      -9.124  26.199  25.819  1.00  0.00     0.000 C 
BRANCH   4   5
ATOM      5  C   UNL     1     -10.504  26.578  25.253  1.00  0.00     0.000 C 
BRANCH   5   6
ATOM      6  C   UNL     1     -10.858  28.077  25.334  1.00  0.00     0.006 C 
BRANCH   6   7
ATOM      7  C   UNL     1     -11.066  28.758  23.972  1.00  0.00     0.053 C 
BRANCH   7   8
ATOM      8  C   UNL     1      -9.793  29.334  23.432  1.00  0.00     0.041 C 
ATOM      9  O   UNL     1      -9.611  29.411  22.188  1.00  0.00    -0.550 OA
ATOM     10  O   UNL     1      -8.793  29.751  24.302  1.00  0.00    -0.550 OA
ENDBRANCH   7   8
ENDBRANCH   6   7
ENDBRANCH   5   6
ENDBRANCH   4   5
ENDBRANCH   3   4
ENDBRANCH   2   3
ENDBRANCH   1   2
BRANCH   1  11
ATOM     11  C   UNL     1      -8.695  26.213  21.013  1.00  0.00     0.000 C 
BRANCH  11  12
ATOM     12  C   UNL     1     -10.178  26.133  21.405  1.00  0.00    -0.000 C 
BRANCH  12  13
ATOM     13  C   UNL     1     -10.995  25.424  20.314  1.00  0.00    -0.000 C 
BRANCH  13  14
ATOM     14  C   UNL     1     -10.114  24.799  19.220  1.00  0.00    -0.000 C 
BRANCH  14  15
ATOM     15  C   UNL     1     -10.327  23.280  19.088  1.00  0.00    -0.000 C 
BRANCH  15  16
ATOM     16  C   UNL     1     -11.124  22.694  20.265  1.00  0.00    -0.000 C 
BRANCH  16  17
ATOM     17  C   UNL     1     -10.341  21.620  21.035  1.00  0.00    -0.003 C 
ATOM     18  C   UNL     1      -9.302  22.253  21.956  1.00  0.00     0.004 C 
ENDBRANCH  16  17
ENDBRANCH  15  16
ENDBRANCH  14  15
ENDBRANCH  13  14
ENDBRANCH  12  13
ENDBRANCH  11  12
ENDBRANCH   1  11
TORSDOF 14
ENDMDL
MODEL 4
REMARK VINA RESULT:    -3.995      1.903      2.759
REMARK INTER + INTRA:          -9.367
REMARK INTER:                  -7.383
REMARK INTRA:                  -1.984
REMARK UNBOUND:                -2.102
REMARK SMILES CCCCCCCCCCCCCCCC(=O)[O-]
REMARK SMILES IDX 9 1 10 2 11 3 12 4 13 5 14 6 15 7 16 8 17 9 18 10 8 11 7 12
REMARK SMILES IDX 6 13 5 14 4 15 3 16 2 17 1 18
REMARK H PARENT
REMARK Flexibility Score: inf
ROOT
ATOM      1  C   UNL     1      -7.849  25.454  21.856  1.00  0.00     0.000 C 
ENDROOT
BRANCH   1   2
ATOM      2  C   UNL     1      -8.500  26.758  21.363  1.00  0.00     0.000 C 
BRANCH   2   3
ATOM      3  C   UNL     1      -9.992  26.843  21.724  1.00  0.00     0.000 C 
BRANCH   3   4
ATOM      4  C   UNL     1     -10.406  28.247  22.196  1.00  0.00     0.000 C 
BRANCH   4   5
ATOM      5  C   UNL     1      -9.250  29.025  22.850  1.00  0.00     0.000 C 
BRANCH   5   6
ATOM      6  C   UNL     1      -9.223  28.986  24.392  1.00  0.00     0.006 C 
BRANCH   6   7
ATOM      7  C   UNL     1      -8.543  27.742  24.986  1.00  0.00     0.053 C 
BRANCH   7   8
ATOM      8  C   UNL     1      -9.485  26.933  25.824  1.00  0.00     0.041 C 
ATOM      9  O   UNL     1     -10.180  26.025  25.298  1.00  0.00    -0.550 OA
ATOM     10  O   UNL     1      -9.622  27.208  27.179  1.00  0.00    -0.550 OA
ENDBRANCH   7   8
ENDBRANCH   6   7
ENDBRANCH   5   6
ENDBRANCH   4   5
ENDBRANCH   3   4
ENDBRANCH   2   3
ENDBRANCH   1   2
BRANCH   1  11
ATOM     11  C   UNL     1      -8.874  24.458  22.422  1.00  0.00     0.000 C 
BRANCH  11  12
ATOM     12  C   UNL     1      -8.497  22.994  22.146  1.00  0.00    -0.000 C 
BRANCH  12  13
ATOM     13  C   UNL     1      -9.751  22.111  22.066  1.00  0.00    -0.000 C 
BRANCH  13  14
ATOM     14  C   UNL     1     -10.824  22.683  21.125  1.00  0.00    -0.000 C 
BRANCH  14  15
ATOM     15  C   UNL     1     -10.801  22.023  19.735  1.00  0.00    -0.000 C 
BRANCH  15  16
ATOM     16  C   UNL     1     -10.826  23.054  18.594  1.00  0.00    -0.000 C 
BRANCH  16  17
ATOM     17  C   UNL     1      -9.921  24.265  18.869  1.00  0.00    -0.003 C 
ATOM     18  C   UNL     1      -9.992  25.274  17.727  1.00  0.00     0.004 C 
ENDBRANCH  16  17
ENDBRANCH  15  16
ENDBRANCH  14  15
ENDBRANCH  13  14
ENDBRANCH  12  13
ENDBRANCH  11  12
ENDBRANCH   1  11
TORSDOF 14
ENDMDL
MODEL 5
REMARK VINA RESULT:    -3.855      2.789      6.133
REMARK INTER + INTRA:          -9.112
REMARK INTER:                  -7.333
REMARK INTRA:                  -1.779
REMARK UNBOUND:                -2.102
REMARK SMILES CCCCCCCCCCCCCCCC(=O)[O-]
REMARK SMILES IDX 9 1 10 2 11 3 12 4 13 5 14 6 15 7 16 8 17 9 18 10 8 11 7 12
REMARK SMILES IDX 6 13 5 14 4 15 3 16 2 17 1 18
REMARK H PARENT
REMARK Flexibility Score: inf
ROOT
ATOM      1  C   UNL     1      -7.358  25.983  22.807  1.00  0.00     0.000 C 
ENDROOT
BRANCH   1   2
ATOM      2  C   UNL     1      -8.688  25.855  22.045  1.00  0.00     0.000 C 
BRANCH   2   3
ATOM      3  C   UNL     1      -8.487  25.462  20.572  1.00  0.00     0.000 C 
BRANCH   3   4
ATOM      4  C   UNL     1      -9.412  26.242  19.621  1.00  0.00     0.000 C 
BRANCH   4   5
ATOM      5  C   UNL     1     -10.489  25.355  18.972  1.00  0.00     0.000 C 
BRANCH   5   6
ATOM      6  C   UNL     1     -10.056  23.904  18.680  1.00  0.00     0.006 C 
BRANCH   6   7
ATOM      7  C   UNL     1     -11.075  22.836  19.108  1.00  0.00     0.053 C 
BRANCH   7   8
ATOM      8  C   UNL     1     -10.693  22.181  20.400  1.00  0.00     0.041 C 
ATOM      9  O   UNL     1     -10.698  22.844  21.471  1.00  0.00    -0.550 OA
ATOM     10  O   UNL     1     -10.296  20.850  20.416  1.00  0.00    -0.550 OA
ENDBRANCH   7   8
ENDBRANCH   6   7
ENDBRANCH   5   6
ENDBRANCH   4   5
ENDBRANCH   3   4
ENDBRANCH   2   3
ENDBRANCH   1   2
BRANCH   1  11
ATOM     11  C   UNL     1      -7.559  26.197  24.316  1.00  0.00     0.000 C 
BRANCH  11  12
ATOM     12  C   UNL     1      -8.611  25.251  24.916  1.00  0.00    -0.000 C 
BRANCH  12  13
ATOM     13  C   UNL     1      -9.616  26.026  25.780  1.00  0.00    -0.000 C 
BRANCH  13  14
ATOM     14  C   UNL     1     -10.974  26.221  25.085  1.00  0.00    -0.000 C 
BRANCH  14  15
ATOM     15  C   UNL     1     -11.091  27.592  24.395  1.00  0.00    -0.000 C 
BRANCH  15  16
ATOM     16  C   UNL     1     -10.458  28.723  25.222  1.00  0.00    -0.000 C 
BRANCH  16  17
ATOM     17  C   UNL     1      -9.798  29.800  24.347  1.00  0.00    -0.003 C 
ATOM     18  C   UNL     1      -9.432  29.243  22.974  1.00  0.00     0.004 C 
ENDBRANCH  16  17
ENDBRANCH  15  16
ENDBRANCH  14  15
ENDBRANCH  13  14
ENDBRANCH  12  13
ENDBRANCH  11  12
ENDBRANCH   1  11
TORSDOF 14
ENDMDL
MODEL 6
REMARK VINA RESULT:    -3.821      2.208      5.526
REMARK INTER + INTRA:          -9.051
REMARK INTER:                  -7.283
REMARK INTRA:                  -1.768
REMARK UNBOUND:                -2.102
REMARK SMILES CCCCCCCCCCCCCCCC(=O)[O-]
REMARK SMILES IDX 9 1 10 2 11 3 12 4 13 5 14 6 15 7 16 8 17 9 18 10 8 11 7 12
REMARK SMILES IDX 6 13 5 14 4 15 3 16 2 17 1 18
REMARK H PARENT
REMARK Flexibility Score: inf
ROOT
ATOM      1  C   UNL     1      -7.713  25.673  23.277  1.00  0.00     0.000 C 
ENDROOT
BRANCH   1   2
ATOM      2  C   UNL     1      -8.838  24.626  23.196  1.00  0.00     0.000 C 
BRANCH   2   3
ATOM      3  C   UNL     1      -8.695  23.703  21.975  1.00  0.00     0.000 C 
BRANCH   3   4
ATOM      4  C   UNL     1      -9.222  22.283  22.245  1.00  0.00     0.000 C 
BRANCH   4   5
ATOM      5  C   UNL     1     -10.045  21.716  21.074  1.00  0.00     0.000 C 
BRANCH   5   6
ATOM      6  C   UNL     1     -11.034  22.706  20.427  1.00  0.00     0.006 C 
BRANCH   6   7
ATOM      7  C   UNL     1     -10.878  22.862  18.906  1.00  0.00     0.053 C 
BRANCH   7   8
ATOM      8  C   UNL     1     -10.290  24.189  18.535  1.00  0.00     0.041 C 
ATOM      9  O   UNL     1     -11.040  25.138  18.186  1.00  0.00    -0.550 OA
ATOM     10  O   UNL     1      -8.912  24.365  18.539  1.00  0.00    -0.550 OA
ENDBRANCH   7   8
ENDBRANCH   6   7
ENDBRANCH   5   6
ENDBRANCH   4   5
ENDBRANCH   3   4
ENDBRANCH   2   3
ENDBRANCH   1   2
BRANCH   1  11
ATOM     11  C   UNL     1      -7.649  26.368  24.646  1.00  0.00     0.000 C 
BRANCH  11  12
ATOM     12  C   UNL     1      -9.013  26.418  25.352  1.00  0.00    -0.000 C 
BRANCH  12  13
ATOM     13  C   UNL     1      -9.782  27.691  24.970  1.00  0.00    -0.000 C 
BRANCH  13  14
ATOM     14  C   UNL     1      -9.006  28.584  23.988  1.00  0.00    -0.000 C 
BRANCH  14  15
ATOM     15  C   UNL     1      -9.855  29.001  22.774  1.00  0.00    -0.000 C 
BRANCH  15  16
ATOM     16  C   UNL     1     -11.125  28.147  22.623  1.00  0.00    -0.000 C 
BRANCH  16  17
ATOM     17  C   UNL     1     -10.992  27.075  21.531  1.00  0.00    -0.003 C 
ATOM     18  C   UNL     1      -9.708  27.263  20.729  1.00  0.00     0.004 C 
ENDBRANCH  16  17
ENDBRANCH  15  16
ENDBRANCH  14  15
ENDBRANCH  13  14
ENDBRANCH  12  13
ENDBRANCH  11  12
ENDBRANCH   1  11
TORSDOF 14
ENDMDL
MODEL 7
REMARK VINA RESULT:    -3.664      1.944      3.565
REMARK INTER + INTRA:          -8.765
REMARK INTER:                  -6.918
REMARK INTRA:                  -1.846
REMARK UNBOUND:                -2.102
REMARK SMILES CCCCCCCCCCCCCCCC(=O)[O-]
REMARK SMILES IDX 9 1 10 2 11 3 12 4 13 5 14 6 15 7 16 8 17 9 18 10 8 11 7 12
REMARK SMILES IDX 6 13 5 14 4 15 3 16 2 17 1 18
REMARK H PARENT
REMARK Flexibility Score: inf
ROOT
ATOM      1  C   UNL     1      -9.097  26.303  21.255  1.00  0.00     0.000 C 
ENDROOT
BRANCH   1   2
ATOM      2  C   UNL     1     -10.558  26.764  21.399  1.00  0.00     0.000 C 
BRANCH   2   3
ATOM      3  C   UNL     1     -10.726  27.864  22.460  1.00  0.00     0.000 C 
BRANCH   3   4
ATOM      4  C   UNL     1      -9.445  28.693  22.659  1.00  0.00     0.000 C 
BRANCH   4   5
ATOM      5  C   UNL     1      -9.240  29.140  24.117  1.00  0.00     0.000 C 
BRANCH   5   6
ATOM      6  C   UNL     1      -9.842  28.201  25.182  1.00  0.00     0.006 C 
BRANCH   6   7
ATOM      7  C   UNL     1      -8.827  27.261  25.852  1.00  0.00     0.053 C 
BRANCH   7   8
ATOM      8  C   UNL     1      -8.365  26.180  24.924  1.00  0.00     0.041 C 
ATOM      9  O   UNL     1      -9.157  25.266  24.574  1.00  0.00    -0.550 OA
ATOM     10  O   UNL     1      -7.050  26.161  24.476  1.00  0.00    -0.550 OA
ENDBRANCH   7   8
ENDBRANCH   6   7
ENDBRANCH   5   6
ENDBRANCH   4   5
ENDBRANCH   3   4
ENDBRANCH   2   3
ENDBRANCH   1   2
BRANCH   1  11
ATOM     11  C   UNL     1      -8.863  25.464  19.989  1.00  0.00     0.000 C 
BRANCH  11  12
ATOM     12  C   UNL     1      -9.711  25.936  18.797  1.00  0.00    -0.000 C 
BRANCH  12  13
ATOM     13  C   UNL     1     -10.506  24.768  18.194  1.00  0.00    -0.000 C 
BRANCH  13  14
ATOM     14  C   UNL     1     -10.065  23.401  18.741  1.00  0.00    -0.000 C 
BRANCH  14  15
ATOM     15  C   UNL     1     -11.124  22.765  19.660  1.00  0.00    -0.000 C 
BRANCH  15  16
ATOM     16  C   UNL     1     -10.514  21.762  20.654  1.00  0.00    -0.000 C 
BRANCH  16  17
ATOM     17  C   UNL     1     -10.296  22.368  22.049  1.00  0.00    -0.003 C 
ATOM     18  C   UNL     1      -8.810  22.548  22.344  1.00  0.00     0.004 C 
ENDBRANCH  16  17
ENDBRANCH  15  16
ENDBRANCH  14  15
ENDBRANCH  13  14
ENDBRANCH  12  13
ENDBRANCH  11  12
ENDBRANCH   1  11
TORSDOF 14
ENDMDL
MODEL 8
REMARK VINA RESULT:    -3.621      2.082      6.253
REMARK INTER + INTRA:          -8.687
REMARK INTER:                  -7.190
REMARK INTRA:                  -1.497
REMARK UNBOUND:                -2.102
REMARK SMILES CCCCCCCCCCCCCCCC(=O)[O-]
REMARK SMILES IDX 9 1 10 2 11 3 12 4 13 5 14 6 15 7 16 8 17 9 18 10 8 11 7 12
REMARK SMILES IDX 6 13 5 14 4 15 3 16 2 17 1 18
REMARK H PARENT
REMARK Flexibility Score: inf
ROOT
ATOM      1  C   UNL     1      -7.746  25.939  22.217  1.00  0.00     0.000 C 
ENDROOT
BRANCH   1   2
ATOM      2  C   UNL     1      -7.989  24.489  21.763  1.00  0.00     0.000 C 
BRANCH   2   3
ATOM      3  C   UNL     1      -9.029  23.766  22.635  1.00  0.00     0.000 C 
BRANCH   3   4
ATOM      4  C   UNL     1      -9.312  22.333  22.150  1.00  0.00     0.000 C 
BRANCH   4   5
ATOM      5  C   UNL     1     -10.655  22.205  21.408  1.00  0.00     0.000 C 
BRANCH   5   6
ATOM      6  C   UNL     1     -10.548  21.792  19.926  1.00  0.00     0.006 C 
BRANCH   6   7
ATOM      7  C   UNL     1     -11.120  22.818  18.935  1.00  0.00     0.053 C 
BRANCH   7   8
ATOM      8  C   UNL     1     -10.375  24.116  18.979  1.00  0.00     0.041 C 
ATOM      9  O   UNL     1      -9.244  24.216  18.434  1.00  0.00    -0.550 OA
ATOM     10  O   UNL     1     -10.914  25.206  19.652  1.00  0.00    -0.550 OA
ENDBRANCH   7   8
ENDBRANCH   6   7
ENDBRANCH   5   6
ENDBRANCH   4   5
ENDBRANCH   3   4
ENDBRANCH   2   3
ENDBRANCH   1   2
BRANCH   1  11
ATOM     11  C   UNL     1      -9.025  26.618  22.734  1.00  0.00     0.000 C 
BRANCH  11  12
ATOM     12  C   UNL     1      -9.420  27.850  21.906  1.00  0.00    -0.000 C 
BRANCH  12  13
ATOM     13  C   UNL     1      -9.525  29.098  22.796  1.00  0.00    -0.000 C 
BRANCH  13  14
ATOM     14  C   UNL     1     -10.881  29.205  23.514  1.00  0.00    -0.000 C 
BRANCH  14  15
ATOM     15  C   UNL     1     -10.737  29.216  25.046  1.00  0.00    -0.000 C 
BRANCH  15  16
ATOM     16  C   UNL     1     -11.077  27.857  25.680  1.00  0.00    -0.000 C 
BRANCH  16  17
ATOM     17  C   UNL     1      -9.918  27.281  26.507  1.00  0.00    -0.003 C 
ATOM     18  C   UNL     1      -9.704  25.803  26.198  1.00  0.00     0.004 C 
ENDBRANCH  16  17
ENDBRANCH  15  16
ENDBRANCH  14  15
ENDBRANCH  13  14
ENDBRANCH  12  13
ENDBRANCH  11  12
ENDBRANCH   1  11
TORSDOF 14
ENDMDL
MODEL 9
REMARK VINA RESULT:    -3.566      2.607      5.426
REMARK INTER + INTRA:          -8.587
REMARK INTER:                  -6.735
REMARK INTRA:                  -1.852
REMARK UNBOUND:                -2.102
REMARK SMILES CCCCCCCCCCCCCCCC(=O)[O-]
REMARK SMILES IDX 9 1 10 2 11 3 12 4 13 5 14 6 15 7 16 8 17 9 18 10 8 11 7 12
REMARK SMILES IDX 6 13 5 14 4 15 3 16 2 17 1 18
REMARK H PARENT
REMARK Flexibility Score: inf
ROOT
ATOM      1  C   UNL     1      -9.135  29.668  23.641  1.00  0.00     0.000 C 
ENDROOT
BRANCH   1   2
ATOM      2  C   UNL     1      -9.418  28.866  22.359  1.00  0.00     0.000 C 
BRANCH   2   3
ATOM      3  C   UNL     1     -10.896  28.463  22.231  1.00  0.00     0.000 C 
BRANCH   3   4
ATOM      4  C   UNL     1     -11.125  27.394  21.149  1.00  0.00     0.000 C 
BRANCH   4   5
ATOM      5  C   UNL     1      -9.828  26.977  20.434  1.00  0.00     0.000 C 
BRANCH   5   6
ATOM      6  C   UNL     1     -10.014  26.423  19.006  1.00  0.00     0.006 C 
BRANCH   6   7
ATOM      7  C   UNL     1     -10.926  25.189  18.915  1.00  0.00     0.053 C 
BRANCH   7   8
ATOM      8  C   UNL     1     -10.156  23.945  18.594  1.00  0.00     0.041 C 
ATOM      9  O   UNL     1      -8.916  24.004  18.384  1.00  0.00    -0.550 OA
ATOM     10  O   UNL     1     -10.815  22.726  18.491  1.00  0.00    -0.550 OA
ENDBRANCH   7   8
ENDBRANCH   6   7
ENDBRANCH   5   6
ENDBRANCH   4   5
ENDBRANCH   3   4
ENDBRANCH   2   3
ENDBRANCH   1   2
BRANCH   1  11
ATOM     11  C   UNL     1      -8.576  28.793  24.775  1.00  0.00     0.000 C 
BRANCH  11  12
ATOM     12  C   UNL     1      -9.515  27.638  25.155  1.00  0.00    -0.000 C 
BRANCH  12  13
ATOM     13  C   UNL     1      -8.724  26.341  25.381  1.00  0.00    -0.000 C 
BRANCH  13  14
ATOM     14  C   UNL     1      -7.418  26.290  24.571  1.00  0.00    -0.000 C 
BRANCH  14  15
ATOM     15  C   UNL     1      -7.628  25.743  23.148  1.00  0.00    -0.000 C 
BRANCH  15  16
ATOM     16  C   UNL     1      -8.817  24.773  23.060  1.00  0.00    -0.000 C 
BRANCH  16  17
ATOM     17  C   UNL     1      -8.690  23.783  21.892  1.00  0.00    -0.003 C 
ATOM     18  C   UNL     1      -9.554  22.547  22.123  1.00  0.00     0.004 C 
ENDBRANCH  16  17
ENDBRANCH  15  16
ENDBRANCH  14  15
ENDBRANCH  13  14
ENDBRANCH  12  13
ENDBRANCH  11  12
ENDBRANCH   1  11
TORSDOF 14
ENDMDL
