MODEL 1
REMARK VINA RESULT:    -3.171      0.000      0.000
REMARK INTER + INTRA:          -6.167
REMARK INTER:                  -5.025
REMARK INTRA:                  -1.142
REMARK UNBOUND:                -1.142
REMARK SMILES CCCCCCCCCCCC(=O)[O-]
REMARK SMILES IDX 7 1 8 2 9 3 10 4 11 5 12 6 13 7 14 8 6 9 5 10 4 11 3 12 2 13
REMARK SMILES IDX 1 14
REMARK H PARENT
REMARK Flexibility Score: inf
ROOT
ATOM      1  C   UNL     1      16.310   4.350  41.803  1.00  0.00     0.000 C 
ENDROOT
BRANCH   1   2
ATOM      2  C   UNL     1      16.839   3.745  40.489  1.00  0.00     0.000 C 
BRANCH   2   3
ATOM      3  C   UNL     1      15.759   3.150  39.570  1.00  0.00     0.000 C 
BRANCH   3   4
ATOM      4  C   UNL     1      15.766   1.611  39.564  1.00  0.00     0.006 C 
BRANCH   4   5
ATOM      5  C   UNL     1      15.980   1.040  38.156  1.00  0.00     0.053 C 
BRANCH   5   6
ATOM      6  C   UNL     1      14.686   0.638  37.515  1.00  0.00     0.041 C 
ATOM      7  O   UNL     1      14.656   0.314  36.298  1.00  0.00    -0.550 OA
ATOM      8  O   UNL     1      13.509   0.652  38.252  1.00  0.00    -0.550 OA
ENDBRANCH   5   6
ENDBRANCH   4   5
ENDBRANCH   3   4
ENDBRANCH   2   3
ENDBRANCH   1   2
BRANCH   1   9
ATOM      9  C   UNL     1      16.901   3.697  43.071  1.00  0.00     0.000 C 
BRANCH   9  10
ATOM     10  C   UNL     1      16.640   2.181  43.119  1.00  0.00    -0.000 C 
BRANCH  10  11
ATOM     11  C   UNL     1      17.925   1.364  43.327  1.00  0.00    -0.000 C 
BRANCH  11  12
ATOM     12  C   UNL     1      18.438   0.726  42.028  1.00  0.00    -0.000 C 
BRANCH  12  13
ATOM     13  C   UNL     1      19.863   1.195  41.712  1.00  0.00    -0.003 C 
ATOM     14  C   UNL     1      20.418   2.069  42.832  1.00  0.00     0.004 C 
ENDBRANCH  12  13
ENDBRANCH  11  12
ENDBRANCH  10  11
ENDBRANCH   9  10
ENDBRANCH   1   9
TORSDOF 10
ENDMDL
MODEL 2
REMARK VINA RESULT:    -3.151      4.085      6.307
REMARK INTER + INTRA:          -6.135
REMARK INTER:                  -5.032
REMARK INTRA:                  -1.103
REMARK UNBOUND:                -1.142
REMARK SMILES CCCCCCCCCCCC(=O)[O-]
REMARK SMILES IDX 7 1 8 2 9 3 10 4 11 5 12 6 13 7 14 8 6 9 5 10 4 11 3 12 2 13
REMARK SMILES IDX 1 14
REMARK H PARENT
REMARK Flexibility Score: inf
ROOT
ATOM      1  C   UNL     1      14.485   1.294  38.092  1.00  0.00     0.000 C 
ENDROOT
BRANCH   1   2
ATOM      2  C   UNL     1      14.539   2.812  38.347  1.00  0.00     0.000 C 
BRANCH   2   3
ATOM      3  C   UNL     1      15.924   3.353  38.740  1.00  0.00     0.000 C 
BRANCH   3   4
ATOM      4  C   UNL     1      16.459   4.397  37.745  1.00  0.00     0.006 C 
BRANCH   4   5
ATOM      5  C   UNL     1      16.486   3.864  36.307  1.00  0.00     0.053 C 
BRANCH   5   6
ATOM      6  C   UNL     1      15.674   4.717  35.380  1.00  0.00     0.041 C 
ATOM      7  O   UNL     1      14.795   5.493  35.840  1.00  0.00    -0.550 OA
ATOM      8  O   UNL     1      15.866   4.633  34.007  1.00  0.00    -0.550 OA
ENDBRANCH   5   6
ENDBRANCH   4   5
ENDBRANCH   3   4
ENDBRANCH   2   3
ENDBRANCH   1   2
BRANCH   1   9
ATOM      9  C   UNL     1      15.853   0.591  38.229  1.00  0.00     0.000 C 
BRANCH   9  10
ATOM     10  C   UNL     1      16.343   0.006  36.893  1.00  0.00    -0.000 C 
BRANCH  10  11
ATOM     11  C   UNL     1      15.221  -0.110  35.849  1.00  0.00    -0.000 C 
BRANCH  11  12
ATOM     12  C   UNL     1      15.478   0.753  34.605  1.00  0.00    -0.000 C 
BRANCH  12  13
ATOM     13  C   UNL     1      15.632  -0.121  33.355  1.00  0.00    -0.003 C 
ATOM     14  C   UNL     1      17.024  -0.740  33.282  1.00  0.00     0.004 C 
ENDBRANCH  12  13
ENDBRANCH  11  12
ENDBRANCH  10  11
ENDBRANCH   9  10
ENDBRANCH   1   9
TORSDOF 10
ENDMDL
MODEL 3
REMARK VINA RESULT:    -3.139      9.709     10.892
REMARK INTER + INTRA:          -6.117
REMARK INTER:                  -5.067
REMARK INTRA:                  -1.050
REMARK UNBOUND:                -1.142
REMARK SMILES CCCCCCCCCCCC(=O)[O-]
REMARK SMILES IDX 7 1 8 2 9 3 10 4 11 5 12 6 13 7 14 8 6 9 5 10 4 11 3 12 2 13
REMARK SMILES IDX 1 14
REMARK H PARENT
REMARK Flexibility Score: inf
ROOT
ATOM      1  C   UNL     1       6.245  -0.170  45.827  1.00  0.00     0.000 C 
ENDROOT
BRANCH   1   2
ATOM      2  C   UNL     1       6.232   0.583  44.483  1.00  0.00     0.000 C 
BRANCH   2   3
ATOM      3  C   UNL     1       5.409   1.882  44.476  1.00  0.00     0.000 C 
BRANCH   3   4
ATOM      4  C   UNL     1       6.188   3.076  43.899  1.00  0.00     0.006 C 
BRANCH   4   5
ATOM      5  C   UNL     1       7.198   3.647  44.903  1.00  0.00     0.053 C 
BRANCH   5   6
ATOM      6  C   UNL     1       6.518   4.336  46.048  1.00  0.00     0.041 C 
ATOM      7  O   UNL     1       6.683   3.921  47.225  1.00  0.00    -0.550 OA
ATOM      8  O   UNL     1       5.676   5.416  45.810  1.00  0.00    -0.550 OA
ENDBRANCH   5   6
ENDBRANCH   4   5
ENDBRANCH   3   4
ENDBRANCH   2   3
ENDBRANCH   1   2
BRANCH   1   9
ATOM      9  C   UNL     1       7.663  -0.453  46.367  1.00  0.00     0.000 C 
BRANCH   9  10
ATOM     10  C   UNL     1       8.317   0.802  46.971  1.00  0.00    -0.000 C 
BRANCH  10  11
ATOM     11  C   UNL     1       9.683   1.119  46.343  1.00  0.00    -0.000 C 
BRANCH  11  12
ATOM     12  C   UNL     1      10.133   0.054  45.333  1.00  0.00    -0.000 C 
BRANCH  12  13
ATOM     13  C   UNL     1      11.494  -0.534  45.726  1.00  0.00    -0.003 C 
ATOM     14  C   UNL     1      12.446  -0.567  44.534  1.00  0.00     0.004 C 
ENDBRANCH  12  13
ENDBRANCH  11  12
ENDBRANCH  10  11
ENDBRANCH   9  10
ENDBRANCH   1   9
TORSDOF 10
ENDMDL
MODEL 4
REMARK VINA RESULT:    -3.138     10.828     13.280
REMARK INTER + INTRA:          -6.114
REMARK INTER:                  -5.705
REMARK INTRA:                  -0.409
REMARK UNBOUND:                -1.142
REMARK SMILES CCCCCCCCCCCC(=O)[O-]
REMARK SMILES IDX 7 1 8 2 9 3 10 4 11 5 12 6 13 7 14 8 6 9 5 10 4 11 3 12 2 13
REMARK SMILES IDX 1 14
REMARK H PARENT
REMARK Flexibility Score: inf
ROOT
ATOM      1  C   UNL     1       8.010  12.313  42.037  1.00  0.00     0.000 C 
ENDROOT
BRANCH   1   2
ATOM      2  C   UNL     1       9.460  11.935  41.681  1.00  0.00     0.000 C 
BRANCH   2   3
ATOM      3  C   UNL     1      10.463  12.057  42.840  1.00  0.00     0.000 C 
BRANCH   3   4
ATOM      4  C   UNL     1      11.051  10.700  43.264  1.00  0.00     0.006 C 
BRANCH   4   5
ATOM      5  C   UNL     1      12.583  10.730  43.337  1.00  0.00     0.053 C 
BRANCH   5   6
ATOM      6  C   UNL     1      13.196   9.527  42.686  1.00  0.00     0.041 C 
ATOM      7  O   UNL     1      14.262   9.639  42.025  1.00  0.00    -0.550 OA
ATOM      8  O   UNL     1      12.573   8.289  42.782  1.00  0.00    -0.550 OA
ENDBRANCH   5   6
ENDBRANCH   4   5
ENDBRANCH   3   4
ENDBRANCH   2   3
ENDBRANCH   1   2
BRANCH   1   9
ATOM      9  C   UNL     1       6.981  11.918  40.955  1.00  0.00     0.000 C 
BRANCH   9  10
ATOM     10  C   UNL     1       5.589  11.642  41.549  1.00  0.00    -0.000 C 
BRANCH  10  11
ATOM     11  C   UNL     1       4.638  10.972  40.545  1.00  0.00    -0.000 C 
BRANCH  11  12
ATOM     12  C   UNL     1       4.728   9.440  40.576  1.00  0.00    -0.000 C 
BRANCH  12  13
ATOM     13  C   UNL     1       4.965   8.876  39.170  1.00  0.00    -0.003 C 
ATOM     14  C   UNL     1       4.996   9.988  38.127  1.00  0.00     0.004 C 
ENDBRANCH  12  13
ENDBRANCH  11  12
ENDBRANCH  10  11
ENDBRANCH   9  10
ENDBRANCH   1   9
TORSDOF 10
ENDMDL
MODEL 5
REMARK VINA RESULT:    -3.129      9.186     10.863
REMARK INTER + INTRA:          -6.100
REMARK INTER:                  -4.788
REMARK INTRA:                  -1.312
REMARK UNBOUND:                -1.142
REMARK SMILES CCCCCCCCCCCC(=O)[O-]
REMARK SMILES IDX 7 1 8 2 9 3 10 4 11 5 12 6 13 7 14 8 6 9 5 10 4 11 3 12 2 13
REMARK SMILES IDX 1 14
REMARK H PARENT
REMARK Flexibility Score: inf
ROOT
ATOM      1  C   UNL     1       6.357   0.365  45.645  1.00  0.00     0.000 C 
ENDROOT
BRANCH   1   2
ATOM      2  C   UNL     1       7.752   0.044  46.214  1.00  0.00     0.000 C 
BRANCH   2   3
ATOM      3  C   UNL     1       8.928   0.426  45.299  1.00  0.00     0.000 C 
BRANCH   3   4
ATOM      4  C   UNL     1      10.266   0.507  46.054  1.00  0.00     0.006 C 
BRANCH   4   5
ATOM      5  C   UNL     1      11.368  -0.312  45.368  1.00  0.00     0.053 C 
BRANCH   5   6
ATOM      6  C   UNL     1      11.957  -1.336  46.291  1.00  0.00     0.041 C 
ATOM      7  O   UNL     1      12.119  -1.071  47.511  1.00  0.00    -0.550 OA
ATOM      8  O   UNL     1      12.358  -2.571  45.796  1.00  0.00    -0.550 OA
ENDBRANCH   5   6
ENDBRANCH   4   5
ENDBRANCH   3   4
ENDBRANCH   2   3
ENDBRANCH   1   2
BRANCH   1   9
ATOM      9  C   UNL     1       6.384   0.898  44.196  1.00  0.00     0.000 C 
BRANCH   9  10
ATOM     10  C   UNL     1       5.700   2.270  44.067  1.00  0.00    -0.000 C 
BRANCH  10  11
ATOM     11  C   UNL     1       6.152   3.262  45.151  1.00  0.00    -0.000 C 
BRANCH  11  12
ATOM     12  C   UNL     1       7.481   3.951  44.806  1.00  0.00    -0.000 C 
BRANCH  12  13
ATOM     13  C   UNL     1       8.413   3.985  46.023  1.00  0.00    -0.003 C 
ATOM     14  C   UNL     1       7.660   3.644  47.305  1.00  0.00     0.004 C 
ENDBRANCH  12  13
ENDBRANCH  11  12
ENDBRANCH  10  11
ENDBRANCH   9  10
ENDBRANCH   1   9
TORSDOF 10
ENDMDL
MODEL 6
REMARK VINA RESULT:    -3.127      4.232      6.429
REMARK INTER + INTRA:          -6.097
REMARK INTER:                  -4.816
REMARK INTRA:                  -1.282
REMARK UNBOUND:                -1.142
REMARK SMILES CCCCCCCCCCCC(=O)[O-]
REMARK SMILES IDX 7 1 8 2 9 3 10 4 11 5 12 6 13 7 14 8 6 9 5 10 4 11 3 12 2 13
REMARK SMILES IDX 1 14
REMARK H PARENT
REMARK Flexibility Score: inf
ROOT
ATOM      1  C   UNL     1      16.617   2.735  37.412  1.00  0.00     0.000 C 
ENDROOT
BRANCH   1   2
ATOM      2  C   UNL     1      17.921   2.816  36.595  1.00  0.00     0.000 C 
BRANCH   2   3
ATOM      3  C   UNL     1      17.734   3.175  35.112  1.00  0.00     0.000 C 
BRANCH   3   4
ATOM      4  C   UNL     1      16.264   3.449  34.747  1.00  0.00     0.006 C 
BRANCH   4   5
ATOM      5  C   UNL     1      16.029   4.913  34.355  1.00  0.00     0.053 C 
BRANCH   5   6
ATOM      6  C   UNL     1      15.474   5.713  35.495  1.00  0.00     0.041 C 
ATOM      7  O   UNL     1      16.024   6.794  35.837  1.00  0.00    -0.550 OA
ATOM      8  O   UNL     1      14.371   5.250  36.200  1.00  0.00    -0.550 OA
ENDBRANCH   5   6
ENDBRANCH   4   5
ENDBRANCH   3   4
ENDBRANCH   2   3
ENDBRANCH   1   2
BRANCH   1   9
ATOM      9  C   UNL     1      16.483   1.440  38.241  1.00  0.00     0.000 C 
BRANCH   9  10
ATOM     10  C   UNL     1      15.132   0.739  38.012  1.00  0.00    -0.000 C 
BRANCH  10  11
ATOM     11  C   UNL     1      14.802   0.562  36.521  1.00  0.00    -0.000 C 
BRANCH  11  12
ATOM     12  C   UNL     1      15.683  -0.495  35.841  1.00  0.00    -0.000 C 
BRANCH  12  13
ATOM     13  C   UNL     1      15.914  -0.150  34.365  1.00  0.00    -0.003 C 
ATOM     14  C   UNL     1      14.602  -0.146  33.587  1.00  0.00     0.004 C 
ENDBRANCH  12  13
ENDBRANCH  11  12
ENDBRANCH  10  11
ENDBRANCH   9  10
ENDBRANCH   1   9
TORSDOF 10
ENDMDL
MODEL 7
REMARK VINA RESULT:    -3.108      4.072      7.298
REMARK INTER + INTRA:          -6.068
REMARK INTER:                  -4.581
REMARK INTRA:                  -1.486
REMARK UNBOUND:                -1.142
REMARK SMILES CCCCCCCCCCCC(=O)[O-]
REMARK SMILES IDX 7 1 8 2 9 3 10 4 11 5 12 6 13 7 14 8 6 9 5 10 4 11 3 12 2 13
REMARK SMILES IDX 1 14
REMARK H PARENT
REMARK Flexibility Score: inf
ROOT
ATOM      1  C   UNL     1      14.758  -0.141  35.063  1.00  0.00     0.000 C 
ENDROOT
BRANCH   1   2
ATOM      2  C   UNL     1      16.004  -0.353  35.944  1.00  0.00     0.000 C 
BRANCH   2   3
ATOM      3  C   UNL     1      16.162   0.653  37.095  1.00  0.00     0.000 C 
BRANCH   3   4
ATOM      4  C   UNL     1      14.863   1.420  37.398  1.00  0.00     0.006 C 
BRANCH   4   5
ATOM      5  C   UNL     1      15.071   2.940  37.378  1.00  0.00     0.053 C 
BRANCH   5   6
ATOM      6  C   UNL     1      15.978   3.394  38.482  1.00  0.00     0.041 C 
ATOM      7  O   UNL     1      15.639   3.235  39.685  1.00  0.00    -0.550 OA
ATOM      8  O   UNL     1      17.181   4.019  38.183  1.00  0.00    -0.550 OA
ENDBRANCH   5   6
ENDBRANCH   4   5
ENDBRANCH   3   4
ENDBRANCH   2   3
ENDBRANCH   1   2
BRANCH   1   9
ATOM      9  C   UNL     1      15.067  -0.075  33.552  1.00  0.00     0.000 C 
BRANCH   9  10
ATOM     10  C   UNL     1      16.572  -0.211  33.260  1.00  0.00    -0.000 C 
BRANCH  10  11
ATOM     11  C   UNL     1      17.232   1.132  32.910  1.00  0.00    -0.000 C 
BRANCH  11  12
ATOM     12  C   UNL     1      16.229   2.294  32.875  1.00  0.00    -0.000 C 
BRANCH  12  13
ATOM     13  C   UNL     1      16.559   3.335  33.951  1.00  0.00    -0.003 C 
ATOM     14  C   UNL     1      17.822   2.956  34.718  1.00  0.00     0.004 C 
ENDBRANCH  12  13
ENDBRANCH  11  12
ENDBRANCH  10  11
ENDBRANCH   9  10
ENDBRANCH   1   9
TORSDOF 10
ENDMDL
MODEL 8
REMARK VINA RESULT:    -3.079      1.299      2.036
REMARK INTER + INTRA:          -6.022
REMARK INTER:                  -5.031
REMARK INTRA:                  -0.991
REMARK UNBOUND:                -1.142
REMARK SMILES CCCCCCCCCCCC(=O)[O-]
REMARK SMILES IDX 7 1 8 2 9 3 10 4 11 5 12 6 13 7 14 8 6 9 5 10 4 11 3 12 2 13
REMARK SMILES IDX 1 14
REMARK H PARENT
REMARK Flexibility Score: inf
ROOT
ATOM      1  C   UNL     1      16.634   3.374  41.981  1.00  0.00     0.000 C 
ENDROOT
BRANCH   1   2
ATOM      2  C   UNL     1      16.504   1.926  41.471  1.00  0.00     0.000 C 
BRANCH   2   3
ATOM      3  C   UNL     1      16.182   1.794  39.973  1.00  0.00     0.000 C 
BRANCH   3   4
ATOM      4  C   UNL     1      15.777   3.133  39.332  1.00  0.00     0.006 C 
BRANCH   4   5
ATOM      5  C   UNL     1      14.475   3.020  38.529  1.00  0.00     0.053 C 
BRANCH   5   6
ATOM      6  C   UNL     1      14.420   1.752  37.730  1.00  0.00     0.041 C 
ATOM      7  O   UNL     1      13.629   0.829  38.061  1.00  0.00    -0.550 OA
ATOM      8  O   UNL     1      15.264   1.578  36.642  1.00  0.00    -0.550 OA
ENDBRANCH   5   6
ENDBRANCH   4   5
ENDBRANCH   3   4
ENDBRANCH   2   3
ENDBRANCH   1   2
BRANCH   1   9
ATOM      9  C   UNL     1      18.034   3.713  42.537  1.00  0.00     0.000 C 
BRANCH   9  10
ATOM     10  C   UNL     1      19.162   3.173  41.641  1.00  0.00    -0.000 C 
BRANCH  10  11
ATOM     11  C   UNL     1      20.099   2.207  42.383  1.00  0.00    -0.000 C 
BRANCH  11  12
ATOM     12  C   UNL     1      20.151   0.817  41.734  1.00  0.00    -0.000 C 
BRANCH  12  13
ATOM     13  C   UNL     1      19.709  -0.267  42.724  1.00  0.00    -0.003 C 
ATOM     14  C   UNL     1      19.336   0.336  44.074  1.00  0.00     0.004 C 
ENDBRANCH  12  13
ENDBRANCH  11  12
ENDBRANCH  10  11
ENDBRANCH   9  10
ENDBRANCH   1   9
TORSDOF 10
ENDMDL
MODEL 9
REMARK VINA RESULT:    -3.060      2.696      5.088
REMARK INTER + INTRA:          -5.991
REMARK INTER:                  -4.893
REMARK INTRA:                  -1.098
REMARK UNBOUND:                -1.142
REMARK SMILES CCCCCCCCCCCC(=O)[O-]
REMARK SMILES IDX 7 1 8 2 9 3 10 4 11 5 12 6 13 7 14 8 6 9 5 10 4 11 3 12 2 13
REMARK SMILES IDX 1 14
REMARK H PARENT
REMARK Flexibility Score: inf
ROOT
ATOM      1  C   UNL     1      14.735   0.417  36.788  1.00  0.00     0.000 C 
ENDROOT
BRANCH   1   2
ATOM      2  C   UNL     1      16.203  -0.038  36.680  1.00  0.00     0.000 C 
BRANCH   2   3
ATOM      3  C   UNL     1      17.125   0.927  35.915  1.00  0.00     0.000 C 
BRANCH   3   4
ATOM      4  C   UNL     1      16.379   1.730  34.835  1.00  0.00     0.006 C 
BRANCH   4   5
ATOM      5  C   UNL     1      16.643   1.186  33.424  1.00  0.00     0.053 C 
BRANCH   5   6
ATOM      6  C   UNL     1      16.156  -0.223  33.270  1.00  0.00     0.041 C 
ATOM      7  O   UNL     1      16.975  -1.156  33.055  1.00  0.00    -0.550 OA
ATOM      8  O   UNL     1      14.797  -0.502  33.331  1.00  0.00    -0.550 OA
ENDBRANCH   5   6
ENDBRANCH   4   5
ENDBRANCH   3   4
ENDBRANCH   2   3
ENDBRANCH   1   2
BRANCH   1   9
ATOM      9  C   UNL     1      14.354   0.960  38.182  1.00  0.00     0.000 C 
BRANCH   9  10
ATOM     10  C   UNL     1      14.074   2.473  38.160  1.00  0.00    -0.000 C 
BRANCH  10  11
ATOM     11  C   UNL     1      15.360   3.314  38.173  1.00  0.00    -0.000 C 
BRANCH  11  12
ATOM     12  C   UNL     1      16.423   2.757  39.131  1.00  0.00    -0.000 C 
BRANCH  12  13
ATOM     13  C   UNL     1      16.166   3.225  40.568  1.00  0.00    -0.003 C 
ATOM     14  C   UNL     1      16.578   2.159  41.578  1.00  0.00     0.004 C 
ENDBRANCH  12  13
ENDBRANCH  11  12
ENDBRANCH  10  11
ENDBRANCH   9  10
ENDBRANCH   1   9
TORSDOF 10
ENDMDL
