MODEL 1
REMARK VINA RESULT:    -8.682      0.000      0.000
REMARK INTER + INTRA:          -9.025
REMARK INTER:                  -9.443
REMARK INTRA:                   0.418
REMARK UNBOUND:                 0.418
REMARK SMILES C[C@@H]1[C@@H](C)CC[C@]2(C(=O)[O-])CC[C@@]3(C)C(=CC[C@H]4[C@@]5(C)CC[C@@H](O)C(C)(C)[C@H]5CC[C@@]43C)[C@@H]12
REMARK SMILES IDX 7 1 6 2 11 3 33 4 5 5 12 6 15 7 2 8 3 9 13 10 16 11 1 12
REMARK SMILES IDX 4 13 14 14 31 15 17 16 18 17 30 18 32 19 19 20 29 21 28 22
REMARK SMILES IDX 21 23 20 24 25 25 22 26 23 27 26 28 27 29 8 30 9 31 10 32
REMARK SMILES IDX 24 33
REMARK H PARENT 24 34
REMARK Flexibility Score: inf
ROOT
ATOM      1  C   UNL     1      21.731 -17.247 -12.323  1.00  0.00     0.017 C 
ATOM      2  C   UNL     1      21.390 -16.102 -11.340  1.00  0.00     0.014 C 
ATOM      3  C   UNL     1      20.425 -17.622 -13.127  1.00  0.00     0.014 C 
ATOM      4  C   UNL     1      22.221 -18.500 -11.524  1.00  0.00     0.030 C 
ATOM      5  C   UNL     1      22.582 -15.746 -10.453  1.00  0.00     0.004 C 
ATOM      6  C   UNL     1      20.167 -19.143 -13.321  1.00  0.00     0.013 C 
ATOM      7  C   UNL     1      22.537 -19.619 -12.538  1.00  0.00    -0.063 C 
ATOM      8  C   UNL     1      23.306 -18.211 -10.420  1.00  0.00    -0.003 C 
ATOM      9  C   UNL     1      22.971 -16.940  -9.574  1.00  0.00    -0.011 C 
ATOM     10  C   UNL     1      21.462 -19.989 -13.558  1.00  0.00    -0.006 C 
ATOM     11  C   UNL     1      23.678 -20.352 -12.521  1.00  0.00    -0.027 C 
ATOM     12  C   UNL     1      23.429 -19.419  -9.453  1.00  0.00     0.008 C 
ATOM     13  C   UNL     1      24.141 -16.533  -8.661  1.00  0.00     0.008 C 
ATOM     14  C   UNL     1      21.988 -19.572 -14.978  1.00  0.00     0.017 C 
ATOM     15  C   UNL     1      21.228 -21.571 -13.401  1.00  0.00    -0.020 C 
ATOM     16  C   UNL     1      23.829 -21.693 -13.223  1.00  0.00     0.032 C 
ATOM     17  C   UNL     1      22.538 -22.291 -13.892  1.00  0.00     0.006 C 
ATOM     18  C   UNL     1      20.054 -22.056 -14.282  1.00  0.00     0.008 C 
ATOM     19  C   UNL     1      20.926 -21.914 -11.896  1.00  0.00     0.012 C 
ATOM     20  C   UNL     1      22.516 -23.878 -14.061  1.00  0.00    -0.025 C 
ATOM     21  C   UNL     1      19.929 -23.582 -14.348  1.00  0.00     0.005 C 
ATOM     22  C   UNL     1      21.204 -24.328 -14.847  1.00  0.00     0.003 C 
ATOM     23  C   UNL     1      22.620 -24.638 -12.704  1.00  0.00     0.010 C 
ATOM     24  C   UNL     1      23.787 -24.219 -14.908  1.00  0.00     0.012 C 
ATOM     25  C   UNL     1      20.967 -25.913 -14.910  1.00  0.00    -0.006 C 
ATOM     26  C   UNL     1      22.483 -26.161 -12.830  1.00  0.00     0.033 C 
ATOM     27  C   UNL     1      21.169 -26.578 -13.506  1.00  0.00     0.120 C 
ATOM     28  C   UNL     1      19.531 -26.260 -15.407  1.00  0.00     0.014 C 
ATOM     29  C   UNL     1      21.919 -26.585 -15.953  1.00  0.00     0.014 C 
ENDROOT
BRANCH   1  30
ATOM     30  C   UNL     1      22.792 -16.725 -13.296  1.00  0.00     0.048 C 
ATOM     31  O   UNL     1      23.932 -17.254 -13.374  1.00  0.00    -0.550 OA
ATOM     32  O   UNL     1      22.524 -15.606 -14.077  1.00  0.00    -0.550 OA
ENDBRANCH   1  30
BRANCH  27  33
ATOM     33  O   UNL     1      20.109 -26.257 -12.639  1.00  0.00    -0.393 OA
ATOM     34  H   UNL     1      20.233 -26.767 -11.799  1.00  0.00     0.210 HD
ENDBRANCH  27  33
TORSDOF 2
ENDMDL
MODEL 2
REMARK VINA RESULT:    -8.597      1.567      2.092
REMARK INTER + INTRA:          -8.933
REMARK INTER:                  -9.134
REMARK INTRA:                   0.201
REMARK UNBOUND:                 0.418
REMARK SMILES C[C@@H]1[C@@H](C)CC[C@]2(C(=O)[O-])CC[C@@]3(C)C(=CC[C@H]4[C@@]5(C)CC[C@@H](O)C(C)(C)[C@H]5CC[C@@]43C)[C@@H]12
REMARK SMILES IDX 7 1 6 2 11 3 33 4 5 5 12 6 15 7 2 8 3 9 13 10 16 11 1 12
REMARK SMILES IDX 4 13 14 14 31 15 17 16 18 17 30 18 32 19 19 20 29 21 28 22
REMARK SMILES IDX 21 23 20 24 25 25 22 26 23 27 26 28 27 29 8 30 9 31 10 32
REMARK SMILES IDX 24 33
REMARK H PARENT 24 34
REMARK Flexibility Score: inf
ROOT
ATOM      1  C   UNL     1      21.549 -18.958 -11.903  1.00  0.00     0.017 C 
ATOM      2  C   UNL     1      20.975 -18.009 -10.825  1.00  0.00     0.014 C 
ATOM      3  C   UNL     1      20.348 -19.701 -12.607  1.00  0.00     0.014 C 
ATOM      4  C   UNL     1      22.485 -20.017 -11.228  1.00  0.00     0.030 C 
ATOM      5  C   UNL     1      22.083 -17.322 -10.028  1.00  0.00     0.004 C 
ATOM      6  C   UNL     1      20.556 -21.219 -12.870  1.00  0.00     0.013 C 
ATOM      7  C   UNL     1      23.025 -20.948 -12.334  1.00  0.00    -0.063 C 
ATOM      8  C   UNL     1      23.536 -19.434 -10.210  1.00  0.00    -0.003 C 
ATOM      9  C   UNL     1      22.913 -18.359  -9.262  1.00  0.00    -0.011 C 
ATOM     10  C   UNL     1      22.018 -21.607 -13.274  1.00  0.00    -0.006 C 
ATOM     11  C   UNL     1      24.332 -21.285 -12.464  1.00  0.00    -0.027 C 
ATOM     12  C   UNL     1      24.127 -20.571  -9.335  1.00  0.00     0.008 C 
ATOM     13  C   UNL     1      23.988 -17.632  -8.434  1.00  0.00     0.008 C 
ATOM     14  C   UNL     1      22.237 -21.003 -14.707  1.00  0.00     0.017 C 
ATOM     15  C   UNL     1      22.304 -23.187 -13.194  1.00  0.00    -0.020 C 
ATOM     16  C   UNL     1      24.817 -22.489 -13.258  1.00  0.00     0.032 C 
ATOM     17  C   UNL     1      23.713 -23.443 -13.843  1.00  0.00     0.006 C 
ATOM     18  C   UNL     1      21.253 -23.990 -13.994  1.00  0.00     0.008 C 
ATOM     19  C   UNL     1      22.282 -23.652 -11.691  1.00  0.00     0.012 C 
ATOM     20  C   UNL     1      24.167 -24.950 -14.107  1.00  0.00    -0.025 C 
ATOM     21  C   UNL     1      21.601 -25.475 -14.142  1.00  0.00     0.005 C 
ATOM     22  C   UNL     1      22.986 -25.767 -14.797  1.00  0.00     0.003 C 
ATOM     23  C   UNL     1      24.643 -25.679 -12.813  1.00  0.00     0.010 C 
ATOM     24  C   UNL     1      25.386 -24.848 -15.083  1.00  0.00     0.012 C 
ATOM     25  C   UNL     1      23.247 -27.342 -14.936  1.00  0.00    -0.006 C 
ATOM     26  C   UNL     1      24.973 -27.163 -13.020  1.00  0.00     0.033 C 
ATOM     27  C   UNL     1      23.791 -27.952 -13.599  1.00  0.00     0.120 C 
ATOM     28  C   UNL     1      21.945 -28.109 -15.322  1.00  0.00     0.014 C 
ATOM     29  C   UNL     1      24.246 -27.649 -16.099  1.00  0.00     0.014 C 
ENDROOT
BRANCH   1  30
ATOM     30  C   UNL     1      22.288 -18.100 -12.933  1.00  0.00     0.048 C 
ATOM     31  O   UNL     1      21.690 -17.586 -13.914  1.00  0.00    -0.550 OA
ATOM     32  O   UNL     1      23.664 -17.923 -12.828  1.00  0.00    -0.550 OA
ENDBRANCH   1  30
BRANCH  27  33
ATOM     33  O   UNL     1      22.779 -28.007 -12.622  1.00  0.00    -0.393 OA
ATOM     34  H   UNL     1      21.904 -27.984 -13.086  1.00  0.00     0.210 HD
ENDBRANCH  27  33
TORSDOF 2
ENDMDL
MODEL 3
REMARK VINA RESULT:    -8.534      1.908      3.078
REMARK INTER + INTRA:          -8.865
REMARK INTER:                  -9.096
REMARK INTRA:                   0.232
REMARK UNBOUND:                 0.418
REMARK SMILES C[C@@H]1[C@@H](C)CC[C@]2(C(=O)[O-])CC[C@@]3(C)C(=CC[C@H]4[C@@]5(C)CC[C@@H](O)C(C)(C)[C@H]5CC[C@@]43C)[C@@H]12
REMARK SMILES IDX 7 1 6 2 11 3 33 4 5 5 12 6 15 7 2 8 3 9 13 10 16 11 1 12
REMARK SMILES IDX 4 13 14 14 31 15 17 16 18 17 30 18 32 19 19 20 29 21 28 22
REMARK SMILES IDX 21 23 20 24 25 25 22 26 23 27 26 28 27 29 8 30 9 31 10 32
REMARK SMILES IDX 24 33
REMARK H PARENT 24 34
REMARK Flexibility Score: inf
ROOT
ATOM      1  C   UNL     1      21.110 -19.823 -13.989  1.00  0.00     0.017 C 
ATOM      2  C   UNL     1      20.184 -18.793 -13.301  1.00  0.00     0.014 C 
ATOM      3  C   UNL     1      20.253 -20.658 -15.019  1.00  0.00     0.014 C 
ATOM      4  C   UNL     1      21.712 -20.790 -12.916  1.00  0.00     0.030 C 
ATOM      5  C   UNL     1      20.920 -18.007 -12.216  1.00  0.00     0.004 C 
ATOM      6  C   UNL     1      20.527 -22.188 -15.038  1.00  0.00     0.013 C 
ATOM      7  C   UNL     1      22.618 -21.805 -13.645  1.00  0.00    -0.063 C 
ATOM      8  C   UNL     1      22.311 -20.089 -11.639  1.00  0.00    -0.003 C 
ATOM      9  C   UNL     1      21.390 -18.948 -11.100  1.00  0.00    -0.011 C 
ATOM     10  C   UNL     1      22.030 -22.574 -14.827  1.00  0.00    -0.006 C 
ATOM     11  C   UNL     1      23.875 -22.119 -13.243  1.00  0.00    -0.027 C 
ATOM     12  C   UNL     1      22.518 -21.125 -10.502  1.00  0.00     0.008 C 
ATOM     13  C   UNL     1      22.083 -18.120 -10.003  1.00  0.00     0.008 C 
ATOM     14  C   UNL     1      22.777 -22.099 -16.124  1.00  0.00     0.017 C 
ATOM     15  C   UNL     1      22.248 -24.131 -14.495  1.00  0.00    -0.020 C 
ATOM     16  C   UNL     1      24.608 -23.378 -13.679  1.00  0.00     0.032 C 
ATOM     17  C   UNL     1      23.794 -24.410 -14.542  1.00  0.00     0.006 C 
ATOM     18  C   UNL     1      21.565 -25.031 -15.551  1.00  0.00     0.008 C 
ATOM     19  C   UNL     1      21.658 -24.457 -13.073  1.00  0.00     0.012 C 
ATOM     20  C   UNL     1      24.298 -25.924 -14.472  1.00  0.00    -0.025 C 
ATOM     21  C   UNL     1      21.927 -26.514 -15.415  1.00  0.00     0.005 C 
ATOM     22  C   UNL     1      23.452 -26.830 -15.474  1.00  0.00     0.003 C 
ATOM     23  C   UNL     1      24.245 -26.518 -13.031  1.00  0.00     0.010 C 
ATOM     24  C   UNL     1      25.794 -25.881 -14.925  1.00  0.00     0.012 C 
ATOM     25  C   UNL     1      23.729 -28.405 -15.354  1.00  0.00    -0.006 C 
ATOM     26  C   UNL     1      24.612 -28.005 -12.957  1.00  0.00     0.033 C 
ATOM     27  C   UNL     1      23.725 -28.875 -13.859  1.00  0.00     0.120 C 
ATOM     28  C   UNL     1      22.659 -29.237 -16.124  1.00  0.00     0.014 C 
ATOM     29  C   UNL     1      25.088 -28.792 -16.023  1.00  0.00     0.014 C 
ENDROOT
BRANCH   1  30
ATOM     30  C   UNL     1      22.191 -19.045 -14.744  1.00  0.00     0.048 C 
ATOM     31  O   UNL     1      23.221 -18.612 -14.162  1.00  0.00    -0.550 OA
ATOM     32  O   UNL     1      22.019 -18.751 -16.093  1.00  0.00    -0.550 OA
ENDBRANCH   1  30
BRANCH  27  33
ATOM     33  O   UNL     1      22.420 -28.865 -13.332  1.00  0.00    -0.393 OA
ATOM     34  H   UNL     1      21.783 -28.922 -14.088  1.00  0.00     0.210 HD
ENDBRANCH  27  33
TORSDOF 2
ENDMDL
MODEL 4
REMARK VINA RESULT:    -7.963      1.655      8.133
REMARK INTER + INTRA:          -8.243
REMARK INTER:                  -8.434
REMARK INTRA:                   0.191
REMARK UNBOUND:                 0.418
REMARK SMILES C[C@@H]1[C@@H](C)CC[C@]2(C(=O)[O-])CC[C@@]3(C)C(=CC[C@H]4[C@@]5(C)CC[C@@H](O)C(C)(C)[C@H]5CC[C@@]43C)[C@@H]12
REMARK SMILES IDX 7 1 6 2 11 3 33 4 5 5 12 6 15 7 2 8 3 9 13 10 16 11 1 12
REMARK SMILES IDX 4 13 14 14 31 15 17 16 18 17 30 18 32 19 19 20 29 21 28 22
REMARK SMILES IDX 21 23 20 24 25 25 22 26 23 27 26 28 27 29 8 30 9 31 10 32
REMARK SMILES IDX 24 33
REMARK H PARENT 24 34
REMARK Flexibility Score: inf
ROOT
ATOM      1  C   UNL     1      22.072 -26.471 -14.784  1.00  0.00     0.017 C 
ATOM      2  C   UNL     1      22.364 -27.572 -15.830  1.00  0.00     0.014 C 
ATOM      3  C   UNL     1      20.733 -25.738 -15.189  1.00  0.00     0.014 C 
ATOM      4  C   UNL     1      23.243 -25.433 -14.771  1.00  0.00     0.030 C 
ATOM      5  C   UNL     1      23.698 -28.267 -15.562  1.00  0.00     0.004 C 
ATOM      6  C   UNL     1      20.746 -24.189 -15.054  1.00  0.00     0.013 C 
ATOM      7  C   UNL     1      22.907 -24.348 -13.726  1.00  0.00    -0.063 C 
ATOM      8  C   UNL     1      24.690 -26.053 -14.715  1.00  0.00    -0.003 C 
ATOM      9  C   UNL     1      24.855 -27.267 -15.685  1.00  0.00    -0.011 C 
ATOM     10  C   UNL     1      21.547 -23.659 -13.818  1.00  0.00    -0.006 C 
ATOM     11  C   UNL     1      23.781 -23.910 -12.786  1.00  0.00    -0.027 C 
ATOM     12  C   UNL     1      25.751 -24.983 -15.091  1.00  0.00     0.008 C 
ATOM     13  C   UNL     1      26.185 -28.007 -15.457  1.00  0.00     0.008 C 
ATOM     14  C   UNL     1      20.712 -24.082 -12.557  1.00  0.00     0.017 C 
ATOM     15  C   UNL     1      21.853 -22.082 -13.885  1.00  0.00    -0.020 C 
ATOM     16  C   UNL     1      23.625 -22.594 -12.039  1.00  0.00     0.032 C 
ATOM     17  C   UNL     1      22.445 -21.659 -12.490  1.00  0.00     0.006 C 
ATOM     18  C   UNL     1      20.561 -21.269 -14.126  1.00  0.00     0.008 C 
ATOM     19  C   UNL     1      22.877 -21.791 -15.044  1.00  0.00     0.012 C 
ATOM     20  C   UNL     1      22.636 -20.104 -12.186  1.00  0.00    -0.025 C 
ATOM     21  C   UNL     1      20.754 -19.756 -13.974  1.00  0.00     0.005 C 
ATOM     22  C   UNL     1      21.324 -19.298 -12.597  1.00  0.00     0.003 C 
ATOM     23  C   UNL     1      23.887 -19.494 -12.890  1.00  0.00     0.010 C 
ATOM     24  C   UNL     1      22.856 -20.011 -10.640  1.00  0.00     0.012 C 
ATOM     25  C   UNL     1      21.462 -17.703 -12.522  1.00  0.00    -0.006 C 
ATOM     26  C   UNL     1      24.026 -17.977 -12.707  1.00  0.00     0.033 C 
ATOM     27  C   UNL     1      22.789 -17.211 -13.195  1.00  0.00     0.120 C 
ATOM     28  C   UNL     1      20.269 -16.989 -13.228  1.00  0.00     0.014 C 
ATOM     29  C   UNL     1      21.405 -17.199 -11.043  1.00  0.00     0.014 C 
ENDROOT
BRANCH   1  30
ATOM     30  C   UNL     1      21.884 -27.155 -13.427  1.00  0.00     0.048 C 
ATOM     31  O   UNL     1      22.853 -27.348 -12.647  1.00  0.00    -0.550 OA
ATOM     32  O   UNL     1      20.631 -27.631 -13.060  1.00  0.00    -0.550 OA
ENDBRANCH   1  30
BRANCH  27  33
ATOM     33  O   UNL     1      22.719 -17.335 -14.595  1.00  0.00    -0.393 OA
ATOM     34  H   UNL     1      22.563 -18.290 -14.811  1.00  0.00     0.210 HD
ENDBRANCH  27  33
TORSDOF 2
ENDMDL
MODEL 5
REMARK VINA RESULT:    -7.918      1.923      3.711
REMARK INTER + INTRA:          -8.194
REMARK INTER:                  -8.385
REMARK INTRA:                   0.191
REMARK UNBOUND:                 0.418
REMARK SMILES C[C@@H]1[C@@H](C)CC[C@]2(C(=O)[O-])CC[C@@]3(C)C(=CC[C@H]4[C@@]5(C)CC[C@@H](O)C(C)(C)[C@H]5CC[C@@]43C)[C@@H]12
REMARK SMILES IDX 7 1 6 2 11 3 33 4 5 5 12 6 15 7 2 8 3 9 13 10 16 11 1 12
REMARK SMILES IDX 4 13 14 14 31 15 17 16 18 17 30 18 32 19 19 20 29 21 28 22
REMARK SMILES IDX 21 23 20 24 25 25 22 26 23 27 26 28 27 29 8 30 9 31 10 32
REMARK SMILES IDX 24 33
REMARK H PARENT 24 34
REMARK Flexibility Score: inf
ROOT
ATOM      1  C   UNL     1      23.264 -18.079 -11.222  1.00  0.00     0.017 C 
ATOM      2  C   UNL     1      23.567 -16.602 -11.566  1.00  0.00     0.014 C 
ATOM      3  C   UNL     1      24.630 -18.868 -11.154  1.00  0.00     0.014 C 
ATOM      4  C   UNL     1      22.362 -18.705 -12.338  1.00  0.00     0.030 C 
ATOM      5  C   UNL     1      22.287 -15.789 -11.746  1.00  0.00     0.004 C 
ATOM      6  C   UNL     1      24.630 -20.272 -11.823  1.00  0.00     0.013 C 
ATOM      7  C   UNL     1      22.094 -20.178 -11.963  1.00  0.00    -0.063 C 
ATOM      8  C   UNL     1      21.117 -17.839 -12.761  1.00  0.00    -0.003 C 
ATOM      9  C   UNL     1      21.473 -16.327 -12.929  1.00  0.00    -0.011 C 
ATOM     10  C   UNL     1      23.294 -21.068 -11.646  1.00  0.00    -0.006 C 
ATOM     11  C   UNL     1      20.865 -20.750 -11.986  1.00  0.00    -0.027 C 
ATOM     12  C   UNL     1      20.532 -18.353 -14.104  1.00  0.00     0.008 C 
ATOM     13  C   UNL     1      20.216 -15.458 -13.113  1.00  0.00     0.008 C 
ATOM     14  C   UNL     1      23.221 -21.441 -10.122  1.00  0.00     0.017 C 
ATOM     15  C   UNL     1      23.174 -22.339 -12.623  1.00  0.00    -0.020 C 
ATOM     16  C   UNL     1      20.636 -22.253 -12.025  1.00  0.00     0.032 C 
ATOM     17  C   UNL     1      21.911 -23.161 -12.173  1.00  0.00     0.006 C 
ATOM     18  C   UNL     1      24.413 -23.257 -12.505  1.00  0.00     0.008 C 
ATOM     19  C   UNL     1      23.028 -21.849 -14.111  1.00  0.00     0.012 C 
ATOM     20  C   UNL     1      21.669 -24.599 -12.821  1.00  0.00    -0.025 C 
ATOM     21  C   UNL     1      24.255 -24.593 -13.239  1.00  0.00     0.005 C 
ATOM     22  C   UNL     1      23.021 -25.443 -12.806  1.00  0.00     0.003 C 
ATOM     23  C   UNL     1      21.093 -24.527 -14.268  1.00  0.00     0.010 C 
ATOM     24  C   UNL     1      20.602 -25.288 -11.907  1.00  0.00     0.012 C 
ATOM     25  C   UNL     1      22.958 -26.831 -13.605  1.00  0.00    -0.006 C 
ATOM     26  C   UNL     1      20.961 -25.892 -14.954  1.00  0.00     0.033 C 
ATOM     27  C   UNL     1      22.295 -26.651 -15.014  1.00  0.00     0.120 C 
ATOM     28  C   UNL     1      24.378 -27.440 -13.815  1.00  0.00     0.014 C 
ATOM     29  C   UNL     1      22.178 -27.916 -12.793  1.00  0.00     0.014 C 
ENDROOT
BRANCH   1  30
ATOM     30  C   UNL     1      22.593 -18.109  -9.847  1.00  0.00     0.048 C 
ATOM     31  O   UNL     1      21.342 -18.037  -9.721  1.00  0.00    -0.550 OA
ATOM     32  O   UNL     1      23.373 -18.157  -8.697  1.00  0.00    -0.550 OA
ENDBRANCH   1  30
BRANCH  27  33
ATOM     33  O   UNL     1      23.153 -25.960 -15.890  1.00  0.00    -0.393 OA
ATOM     34  H   UNL     1      23.653 -25.287 -15.362  1.00  0.00     0.210 HD
ENDBRANCH  27  33
TORSDOF 2
ENDMDL
MODEL 6
REMARK VINA RESULT:    -7.903      2.220      8.657
REMARK INTER + INTRA:          -8.178
REMARK INTER:                  -8.368
REMARK INTRA:                   0.190
REMARK UNBOUND:                 0.418
REMARK SMILES C[C@@H]1[C@@H](C)CC[C@]2(C(=O)[O-])CC[C@@]3(C)C(=CC[C@H]4[C@@]5(C)CC[C@@H](O)C(C)(C)[C@H]5CC[C@@]43C)[C@@H]12
REMARK SMILES IDX 7 1 6 2 11 3 33 4 5 5 12 6 15 7 2 8 3 9 13 10 16 11 1 12
REMARK SMILES IDX 4 13 14 14 31 15 17 16 18 17 30 18 32 19 19 20 29 21 28 22
REMARK SMILES IDX 21 23 20 24 25 25 22 26 23 27 26 28 27 29 8 30 9 31 10 32
REMARK SMILES IDX 24 33
REMARK H PARENT 24 34
REMARK Flexibility Score: inf
ROOT
ATOM      1  C   UNL     1      22.222 -28.181 -13.711  1.00  0.00     0.017 C 
ATOM      2  C   UNL     1      22.184 -29.600 -13.097  1.00  0.00     0.014 C 
ATOM      3  C   UNL     1      23.687 -27.612 -13.567  1.00  0.00     0.014 C 
ATOM      4  C   UNL     1      21.228 -27.248 -12.941  1.00  0.00     0.030 C 
ATOM      5  C   UNL     1      20.773 -30.185 -13.110  1.00  0.00     0.004 C 
ATOM      6  C   UNL     1      23.791 -26.125 -13.125  1.00  0.00     0.013 C 
ATOM      7  C   UNL     1      21.306 -25.844 -13.575  1.00  0.00    -0.063 C 
ATOM      8  C   UNL     1      19.791 -27.846 -12.704  1.00  0.00    -0.003 C 
ATOM      9  C   UNL     1      19.835 -29.338 -12.242  1.00  0.00    -0.011 C 
ATOM     10  C   UNL     1      22.681 -25.197 -13.725  1.00  0.00    -0.006 C 
ATOM     11  C   UNL     1      20.217 -25.114 -13.926  1.00  0.00    -0.027 C 
ATOM     12  C   UNL     1      19.035 -27.025 -11.625  1.00  0.00     0.008 C 
ATOM     13  C   UNL     1      18.436 -29.979 -12.238  1.00  0.00     0.008 C 
ATOM     14  C   UNL     1      22.996 -25.096 -15.260  1.00  0.00     0.017 C 
ATOM     15  C   UNL     1      22.581 -23.768 -12.996  1.00  0.00    -0.020 C 
ATOM     16  C   UNL     1      20.250 -23.611 -14.157  1.00  0.00     0.032 C 
ATOM     17  C   UNL     1      21.604 -22.875 -13.845  1.00  0.00     0.006 C 
ATOM     18  C   UNL     1      23.957 -23.064 -12.949  1.00  0.00     0.008 C 
ATOM     19  C   UNL     1      22.043 -23.959 -11.530  1.00  0.00     0.012 C 
ATOM     20  C   UNL     1      21.484 -21.324 -13.485  1.00  0.00    -0.025 C 
ATOM     21  C   UNL     1      23.883 -21.610 -12.472  1.00  0.00     0.005 C 
ATOM     22  C   UNL     1      22.935 -20.690 -13.301  1.00  0.00     0.003 C 
ATOM     23  C   UNL     1      20.613 -21.057 -12.220  1.00  0.00     0.010 C 
ATOM     24  C   UNL     1      20.770 -20.671 -14.714  1.00  0.00     0.012 C 
ATOM     25  C   UNL     1      22.947 -19.186 -12.746  1.00  0.00    -0.006 C 
ATOM     26  C   UNL     1      20.580 -19.586 -11.786  1.00  0.00     0.033 C 
ATOM     27  C   UNL     1      21.982 -19.019 -11.523  1.00  0.00     0.120 C 
ATOM     28  C   UNL     1      24.375 -18.750 -12.297  1.00  0.00     0.014 C 
ATOM     29  C   UNL     1      22.557 -18.168 -13.866  1.00  0.00     0.014 C 
ENDROOT
BRANCH   1  30
ATOM     30  C   UNL     1      21.871 -28.307 -15.196  1.00  0.00     0.048 C 
ATOM     31  O   UNL     1      20.682 -28.218 -15.602  1.00  0.00    -0.550 OA
ATOM     32  O   UNL     1      22.870 -28.582 -16.122  1.00  0.00    -0.550 OA
ENDBRANCH   1  30
BRANCH  27  33
ATOM     33  O   UNL     1      22.504 -19.653 -10.380  1.00  0.00    -0.393 OA
ATOM     34  H   UNL     1      22.710 -18.954  -9.709  1.00  0.00     0.210 HD
ENDBRANCH  27  33
TORSDOF 2
ENDMDL
MODEL 7
REMARK VINA RESULT:    -7.752      3.721      6.657
REMARK INTER + INTRA:          -8.014
REMARK INTER:                  -8.217
REMARK INTRA:                   0.203
REMARK UNBOUND:                 0.418
REMARK SMILES C[C@@H]1[C@@H](C)CC[C@]2(C(=O)[O-])CC[C@@]3(C)C(=CC[C@H]4[C@@]5(C)CC[C@@H](O)C(C)(C)[C@H]5CC[C@@]43C)[C@@H]12
REMARK SMILES IDX 7 1 6 2 11 3 33 4 5 5 12 6 15 7 2 8 3 9 13 10 16 11 1 12
REMARK SMILES IDX 4 13 14 14 31 15 17 16 18 17 30 18 32 19 19 20 29 21 28 22
REMARK SMILES IDX 21 23 20 24 25 25 22 26 23 27 26 28 27 29 8 30 9 31 10 32
REMARK SMILES IDX 24 33
REMARK H PARENT 24 34
REMARK Flexibility Score: inf
ROOT
ATOM      1  C   UNL     1      20.825 -23.645 -14.159  1.00  0.00     0.017 C 
ATOM      2  C   UNL     1      20.404 -22.157 -14.157  1.00  0.00     0.014 C 
ATOM      3  C   UNL     1      19.739 -24.472 -14.952  1.00  0.00     0.014 C 
ATOM      4  C   UNL     1      20.901 -24.173 -12.687  1.00  0.00     0.030 C 
ATOM      5  C   UNL     1      21.357 -21.301 -13.324  1.00  0.00     0.004 C 
ATOM      6  C   UNL     1      19.326 -25.828 -14.313  1.00  0.00     0.013 C 
ATOM      7  C   UNL     1      21.311 -25.660 -12.736  1.00  0.00    -0.063 C 
ATOM      8  C   UNL     1      21.685 -23.249 -11.681  1.00  0.00    -0.003 C 
ATOM      9  C   UNL     1      21.324 -21.739 -11.855  1.00  0.00    -0.011 C 
ATOM     10  C   UNL     1      20.503 -26.600 -13.628  1.00  0.00    -0.006 C 
ATOM     11  C   UNL     1      22.290 -26.198 -11.965  1.00  0.00    -0.027 C 
ATOM     12  C   UNL     1      21.373 -23.659 -10.217  1.00  0.00     0.008 C 
ATOM     13  C   UNL     1      22.256 -20.828 -11.037  1.00  0.00     0.008 C 
ATOM     14  C   UNL     1      21.440 -27.070 -14.797  1.00  0.00     0.017 C 
ATOM     15  C   UNL     1      20.012 -27.800 -12.678  1.00  0.00    -0.020 C 
ATOM     16  C   UNL     1      22.427 -27.688 -11.697  1.00  0.00     0.032 C 
ATOM     17  C   UNL     1      21.287 -28.617 -12.255  1.00  0.00     0.006 C 
ATOM     18  C   UNL     1      19.056 -28.755 -13.429  1.00  0.00     0.008 C 
ATOM     19  C   UNL     1      19.276 -27.210 -11.419  1.00  0.00     0.012 C 
ATOM     20  C   UNL     1      21.084 -30.003 -11.490  1.00  0.00    -0.025 C 
ATOM     21  C   UNL     1      18.736 -30.035 -12.650  1.00  0.00     0.005 C 
ATOM     22  C   UNL     1      19.977 -30.880 -12.227  1.00  0.00     0.003 C 
ATOM     23  C   UNL     1      20.715 -29.820  -9.986  1.00  0.00     0.010 C 
ATOM     24  C   UNL     1      22.472 -30.722 -11.566  1.00  0.00     0.012 C 
ATOM     25  C   UNL     1      19.541 -32.210 -11.447  1.00  0.00    -0.006 C 
ATOM     26  C   UNL     1      20.400 -31.134  -9.258  1.00  0.00     0.033 C 
ATOM     27  C   UNL     1      19.267 -31.921  -9.931  1.00  0.00     0.120 C 
ATOM     28  C   UNL     1      18.253 -32.840 -12.058  1.00  0.00     0.014 C 
ATOM     29  C   UNL     1      20.628 -33.326 -11.580  1.00  0.00     0.014 C 
ENDROOT
BRANCH   1  30
ATOM     30  C   UNL     1      22.169 -23.748 -14.885  1.00  0.00     0.048 C 
ATOM     31  O   UNL     1      22.234 -23.961 -16.124  1.00  0.00    -0.550 OA
ATOM     32  O   UNL     1      23.354 -23.663 -14.163  1.00  0.00    -0.550 OA
ENDBRANCH   1  30
BRANCH  27  33
ATOM     33  O   UNL     1      18.072 -31.197  -9.765  1.00  0.00    -0.393 OA
ATOM     34  H   UNL     1      18.124 -30.712  -8.903  1.00  0.00     0.210 HD
ENDBRANCH  27  33
TORSDOF 2
ENDMDL
MODEL 8
REMARK VINA RESULT:    -7.724      2.024      4.151
REMARK INTER + INTRA:          -7.983
REMARK INTER:                  -8.186
REMARK INTRA:                   0.203
REMARK UNBOUND:                 0.418
REMARK SMILES C[C@@H]1[C@@H](C)CC[C@]2(C(=O)[O-])CC[C@@]3(C)C(=CC[C@H]4[C@@]5(C)CC[C@@H](O)C(C)(C)[C@H]5CC[C@@]43C)[C@@H]12
REMARK SMILES IDX 7 1 6 2 11 3 33 4 5 5 12 6 15 7 2 8 3 9 13 10 16 11 1 12
REMARK SMILES IDX 4 13 14 14 31 15 17 16 18 17 30 18 32 19 19 20 29 21 28 22
REMARK SMILES IDX 21 23 20 24 25 25 22 26 23 27 26 28 27 29 8 30 9 31 10 32
REMARK SMILES IDX 24 33
REMARK H PARENT 24 34
REMARK Flexibility Score: inf
ROOT
ATOM      1  C   UNL     1      22.653 -19.643 -12.309  1.00  0.00     0.017 C 
ATOM      2  C   UNL     1      23.753 -18.557 -12.375  1.00  0.00     0.014 C 
ATOM      3  C   UNL     1      22.926 -20.556 -11.050  1.00  0.00     0.014 C 
ATOM      4  C   UNL     1      22.701 -20.522 -13.603  1.00  0.00     0.030 C 
ATOM      5  C   UNL     1      23.615 -17.688 -13.624  1.00  0.00     0.004 C 
ATOM      6  C   UNL     1      22.744 -22.083 -11.275  1.00  0.00     0.013 C 
ATOM      7  C   UNL     1      21.599 -21.596 -13.491  1.00  0.00    -0.063 C 
ATOM      8  C   UNL     1      22.781 -19.721 -14.957  1.00  0.00    -0.003 C 
ATOM      9  C   UNL     1      23.798 -18.536 -14.889  1.00  0.00    -0.011 C 
ATOM     10  C   UNL     1      21.560 -22.456 -12.229  1.00  0.00    -0.006 C 
ATOM     11  C   UNL     1      20.720 -21.881 -14.483  1.00  0.00    -0.027 C 
ATOM     12  C   UNL     1      23.208 -20.661 -16.116  1.00  0.00     0.008 C 
ATOM     13  C   UNL     1      23.701 -17.625 -16.125  1.00  0.00     0.008 C 
ATOM     14  C   UNL     1      20.250 -22.091 -11.444  1.00  0.00     0.017 C 
ATOM     15  C   UNL     1      21.602 -23.982 -12.732  1.00  0.00    -0.020 C 
ATOM     16  C   UNL     1      19.922 -23.173 -14.556  1.00  0.00     0.032 C 
ATOM     17  C   UNL     1      20.248 -24.269 -13.477  1.00  0.00     0.006 C 
ATOM     18  C   UNL     1      21.713 -24.963 -11.542  1.00  0.00     0.008 C 
ATOM     19  C   UNL     1      22.830 -24.189 -13.694  1.00  0.00     0.012 C 
ATOM     20  C   UNL     1      19.911 -25.774 -13.892  1.00  0.00    -0.025 C 
ATOM     21  C   UNL     1      21.530 -26.431 -11.941  1.00  0.00     0.005 C 
ATOM     22  C   UNL     1      20.190 -26.756 -12.668  1.00  0.00     0.003 C 
ATOM     23  C   UNL     1      20.694 -26.248 -15.154  1.00  0.00     0.010 C 
ATOM     24  C   UNL     1      18.385 -25.773 -14.238  1.00  0.00     0.012 C 
ATOM     25  C   UNL     1      20.077 -28.316 -13.018  1.00  0.00    -0.006 C 
ATOM     26  C   UNL     1      20.476 -27.726 -15.503  1.00  0.00     0.033 C 
ATOM     27  C   UNL     1      20.839 -28.663 -14.342  1.00  0.00     0.120 C 
ATOM     28  C   UNL     1      20.662 -29.205 -11.878  1.00  0.00     0.014 C 
ATOM     29  C   UNL     1      18.583 -28.761 -13.139  1.00  0.00     0.014 C 
ENDROOT
BRANCH   1  30
ATOM     30  C   UNL     1      21.308 -18.932 -12.137  1.00  0.00     0.048 C 
ATOM     31  O   UNL     1      20.572 -18.665 -13.124  1.00  0.00    -0.550 OA
ATOM     32  O   UNL     1      20.901 -18.515 -10.875  1.00  0.00    -0.550 OA
ENDBRANCH   1  30
BRANCH  27  33
ATOM     33  O   UNL     1      22.232 -28.606 -14.152  1.00  0.00    -0.393 OA
ATOM     34  H   UNL     1      22.466 -27.683 -13.877  1.00  0.00     0.210 HD
ENDBRANCH  27  33
TORSDOF 2
ENDMDL
MODEL 9
REMARK VINA RESULT:    -7.516      3.129      9.472
REMARK INTER + INTRA:          -7.757
REMARK INTER:                  -7.947
REMARK INTRA:                   0.191
REMARK UNBOUND:                 0.418
REMARK SMILES C[C@@H]1[C@@H](C)CC[C@]2(C(=O)[O-])CC[C@@]3(C)C(=CC[C@H]4[C@@]5(C)CC[C@@H](O)C(C)(C)[C@H]5CC[C@@]43C)[C@@H]12
REMARK SMILES IDX 7 1 6 2 11 3 33 4 5 5 12 6 15 7 2 8 3 9 13 10 16 11 1 12
REMARK SMILES IDX 4 13 14 14 31 15 17 16 18 17 30 18 32 19 19 20 29 21 28 22
REMARK SMILES IDX 21 23 20 24 25 25 22 26 23 27 26 28 27 29 8 30 9 31 10 32
REMARK SMILES IDX 24 33
REMARK H PARENT 24 34
REMARK Flexibility Score: inf
ROOT
ATOM      1  C   UNL     1      20.126 -30.123 -12.948  1.00  0.00     0.017 C 
ATOM      2  C   UNL     1      20.452 -31.561 -13.417  1.00  0.00     0.014 C 
ATOM      3  C   UNL     1      19.204 -29.440 -14.033  1.00  0.00     0.014 C 
ATOM      4  C   UNL     1      21.451 -29.302 -12.806  1.00  0.00     0.030 C 
ATOM      5  C   UNL     1      21.422 -32.260 -12.466  1.00  0.00     0.004 C 
ATOM      6  C   UNL     1      19.553 -27.965 -14.380  1.00  0.00     0.013 C 
ATOM      7  C   UNL     1      21.080 -27.875 -12.350  1.00  0.00    -0.063 C 
ATOM      8  C   UNL     1      22.608 -30.024 -12.020  1.00  0.00    -0.003 C 
ATOM      9  C   UNL     1      22.766 -31.522 -12.436  1.00  0.00    -0.011 C 
ATOM     10  C   UNL     1      20.030 -27.113 -13.156  1.00  0.00    -0.006 C 
ATOM     11  C   UNL     1      21.694 -27.227 -11.329  1.00  0.00    -0.027 C 
ATOM     12  C   UNL     1      23.961 -29.305 -12.270  1.00  0.00     0.008 C 
ATOM     13  C   UNL     1      23.734 -32.277 -11.507  1.00  0.00     0.008 C 
ATOM     14  C   UNL     1      18.765 -26.935 -12.243  1.00  0.00     0.017 C 
ATOM     15  C   UNL     1      20.718 -25.722 -13.576  1.00  0.00    -0.020 C 
ATOM     16  C   UNL     1      21.639 -25.719 -11.135  1.00  0.00     0.032 C 
ATOM     17  C   UNL     1      20.927 -24.885 -12.262  1.00  0.00     0.006 C 
ATOM     18  C   UNL     1      19.807 -24.909 -14.525  1.00  0.00     0.008 C 
ATOM     19  C   UNL     1      22.092 -26.006 -14.289  1.00  0.00     0.012 C 
ATOM     20  C   UNL     1      21.388 -23.362 -12.394  1.00  0.00    -0.025 C 
ATOM     21  C   UNL     1      20.307 -23.483 -14.777  1.00  0.00     0.005 C 
ATOM     22  C   UNL     1      20.510 -22.617 -13.496  1.00  0.00     0.003 C 
ATOM     23  C   UNL     1      22.905 -23.211 -12.719  1.00  0.00     0.010 C 
ATOM     24  C   UNL     1      21.127 -22.730 -10.988  1.00  0.00     0.012 C 
ATOM     25  C   UNL     1      21.004 -21.137 -13.863  1.00  0.00    -0.006 C 
ATOM     26  C   UNL     1      23.347 -21.763 -12.967  1.00  0.00     0.033 C 
ATOM     27  C   UNL     1      22.553 -21.091 -14.096  1.00  0.00     0.120 C 
ATOM     28  C   UNL     1      20.306 -20.600 -15.149  1.00  0.00     0.014 C 
ATOM     29  C   UNL     1      20.611 -20.117 -12.744  1.00  0.00     0.014 C 
ENDROOT
BRANCH   1  30
ATOM     30  C   UNL     1      19.361 -30.228 -11.626  1.00  0.00     0.048 C 
ATOM     31  O   UNL     1      19.958 -30.235 -10.518  1.00  0.00    -0.550 OA
ATOM     32  O   UNL     1      17.978 -30.376 -11.637  1.00  0.00    -0.550 OA
ENDBRANCH   1  30
BRANCH  27  33
ATOM     33  O   UNL     1      22.898 -21.718 -15.308  1.00  0.00    -0.393 OA
ATOM     34  H   UNL     1      23.671 -21.234 -15.694  1.00  0.00     0.210 HD
ENDBRANCH  27  33
TORSDOF 2
ENDMDL
