MODEL 1
REMARK VINA RESULT:    -4.951      0.000      0.000
REMARK INTER + INTRA:          -6.178
REMARK INTER:                  -5.964
REMARK INTRA:                  -0.214
REMARK UNBOUND:                -0.214
REMARK SMILES O=c1c(O)c(-c2ccc(O)c(O)c2)oc2cc(O)cc(O)c12
REMARK SMILES IDX 5 1 3 2 2 3 1 4 22 5 20 6 19 7 17 8 16 9 15 10 14 11 6 12
REMARK SMILES IDX 7 13 8 14 9 15 13 16 11 17 10 18 12 20 4 22 21 24 18 26
REMARK H PARENT 10 19 12 21 4 23 21 25 18 27
REMARK Flexibility Score: inf
ROOT
ATOM      1  C   UNL     1      27.334  30.645  39.633  1.00  0.00     0.180 A 
ATOM      2  C   UNL     1      26.052  30.464  40.178  1.00  0.00     0.208 A 
ATOM      3  C   UNL     1      24.953  31.074  39.551  1.00  0.00     0.238 A 
ATOM      4  O   UNL     1      23.801  30.864  40.012  1.00  0.00    -0.285 OA
ATOM      5  C   UNL     1      25.153  31.871  38.398  1.00  0.00     0.111 A 
ATOM      6  C   UNL     1      24.119  32.569  37.705  1.00  0.00     0.134 A 
ATOM      7  C   UNL     1      24.412  33.219  36.500  1.00  0.00     0.093 A 
ATOM      8  C   UNL     1      25.715  33.253  35.998  1.00  0.00     0.123 A 
ATOM      9  C   UNL     1      26.742  32.625  36.698  1.00  0.00     0.094 A 
ATOM     10  C   UNL     1      26.475  31.937  37.883  1.00  0.00     0.146 A 
ATOM     11  O   UNL     1      27.481  31.343  38.513  1.00  0.00    -0.452 OA
ENDROOT
BRANCH   1  12
ATOM     12  C   UNL     1      28.544  30.054  40.251  1.00  0.00     0.025 A 
ATOM     13  C   UNL     1      28.994  30.539  41.489  1.00  0.00     0.016 A 
ATOM     14  C   UNL     1      30.121  29.983  42.100  1.00  0.00     0.051 A 
ATOM     15  C   UNL     1      30.804  28.926  41.493  1.00  0.00     0.157 A 
ATOM     16  C   UNL     1      29.221  28.978  39.652  1.00  0.00     0.062 A 
ATOM     17  C   UNL     1      30.351  28.416  40.264  1.00  0.00     0.158 A 
BRANCH  15  18
ATOM     18  O   UNL     1      31.927  28.391  42.125  1.00  0.00    -0.504 OA
ATOM     19  H   UNL     1      32.338  27.511  41.840  1.00  0.00     0.293 HD
ENDBRANCH  15  18
BRANCH  17  20
ATOM     20  O   UNL     1      31.020  27.353  39.660  1.00  0.00    -0.504 OA
ATOM     21  H   UNL     1      30.699  26.951  38.788  1.00  0.00     0.293 HD
ENDBRANCH  17  20
ENDBRANCH   1  12
BRANCH   2  22
ATOM     22  O   UNL     1      25.873  29.657  41.304  1.00  0.00    -0.502 OA
ATOM     23  H   UNL     1      25.317  28.811  41.285  1.00  0.00     0.293 HD
ENDBRANCH   2  22
BRANCH   6  24
ATOM     24  O   UNL     1      22.804  32.675  38.168  1.00  0.00    -0.507 OA
ATOM     25  H   UNL     1      22.397  32.090  38.883  1.00  0.00     0.293 HD
ENDBRANCH   6  24
BRANCH   8  26
ATOM     26  O   UNL     1      26.000  33.916  34.805  1.00  0.00    -0.508 OA
ATOM     27  H   UNL     1      26.759  34.583  34.739  1.00  0.00     0.293 HD
ENDBRANCH   8  26
TORSDOF 6
ENDMDL
MODEL 2
REMARK VINA RESULT:    -4.866      2.427      4.041
REMARK INTER + INTRA:          -6.076
REMARK INTER:                  -5.751
REMARK INTRA:                  -0.324
REMARK UNBOUND:                -0.214
REMARK SMILES O=c1c(O)c(-c2ccc(O)c(O)c2)oc2cc(O)cc(O)c12
REMARK SMILES IDX 5 1 3 2 2 3 1 4 22 5 20 6 19 7 17 8 16 9 15 10 14 11 6 12
REMARK SMILES IDX 7 13 8 14 9 15 13 16 11 17 10 18 12 20 4 22 21 24 18 26
REMARK H PARENT 10 19 12 21 4 23 21 25 18 27
REMARK Flexibility Score: inf
ROOT
ATOM      1  C   UNL     1      27.607  30.425  37.110  1.00  0.00     0.180 A 
ATOM      2  C   UNL     1      27.403  31.279  36.013  1.00  0.00     0.208 A 
ATOM      3  C   UNL     1      26.304  32.153  36.026  1.00  0.00     0.238 A 
ATOM      4  O   UNL     1      26.159  32.954  35.066  1.00  0.00    -0.285 OA
ATOM      5  C   UNL     1      25.413  32.149  37.126  1.00  0.00     0.111 A 
ATOM      6  C   UNL     1      24.246  32.963  37.226  1.00  0.00     0.134 A 
ATOM      7  C   UNL     1      23.511  32.973  38.418  1.00  0.00     0.093 A 
ATOM      8  C   UNL     1      23.863  32.148  39.488  1.00  0.00     0.123 A 
ATOM      9  C   UNL     1      24.967  31.306  39.378  1.00  0.00     0.094 A 
ATOM     10  C   UNL     1      25.742  31.301  38.216  1.00  0.00     0.146 A 
ATOM     11  O   UNL     1      26.792  30.491  38.157  1.00  0.00    -0.452 OA
ENDROOT
BRANCH   1  12
ATOM     12  C   UNL     1      28.728  29.458  37.159  1.00  0.00     0.025 A 
ATOM     13  C   UNL     1      28.557  28.173  36.622  1.00  0.00     0.016 A 
ATOM     14  C   UNL     1      29.608  27.253  36.639  1.00  0.00     0.051 A 
ATOM     15  C   UNL     1      30.848  27.606  37.178  1.00  0.00     0.157 A 
ATOM     16  C   UNL     1      29.982  29.819  37.683  1.00  0.00     0.062 A 
ATOM     17  C   UNL     1      31.040  28.897  37.700  1.00  0.00     0.158 A 
BRANCH  15  18
ATOM     18  O   UNL     1      31.879  26.666  37.184  1.00  0.00    -0.504 OA
ATOM     19  H   UNL     1      31.720  25.695  37.425  1.00  0.00     0.293 HD
ENDBRANCH  15  18
BRANCH  17  20
ATOM     20  O   UNL     1      32.279  29.260  38.226  1.00  0.00    -0.504 OA
ATOM     21  H   UNL     1      33.071  29.460  37.628  1.00  0.00     0.293 HD
ENDBRANCH  17  20
ENDBRANCH   1  12
BRANCH   2  22
ATOM     22  O   UNL     1      28.307  31.282  34.947  1.00  0.00    -0.502 OA
ATOM     23  H   UNL     1      28.050  31.590  34.017  1.00  0.00     0.293 HD
ENDBRANCH   2  22
BRANCH   6  24
ATOM     24  O   UNL     1      23.754  33.754  36.183  1.00  0.00    -0.507 OA
ATOM     25  H   UNL     1      24.296  34.437  35.675  1.00  0.00     0.293 HD
ENDBRANCH   6  24
BRANCH   8  26
ATOM     26  O   UNL     1      23.116  32.152  40.665  1.00  0.00    -0.508 OA
ATOM     27  H   UNL     1      23.065  31.335  41.262  1.00  0.00     0.293 HD
ENDBRANCH   8  26
TORSDOF 6
ENDMDL
MODEL 3
REMARK VINA RESULT:    -4.843     10.898     13.379
REMARK INTER + INTRA:          -6.048
REMARK INTER:                  -5.831
REMARK INTRA:                  -0.217
REMARK UNBOUND:                -0.214
REMARK SMILES O=c1c(O)c(-c2ccc(O)c(O)c2)oc2cc(O)cc(O)c12
REMARK SMILES IDX 5 1 3 2 2 3 1 4 22 5 20 6 19 7 17 8 16 9 15 10 14 11 6 12
REMARK SMILES IDX 7 13 8 14 9 15 13 16 11 17 10 18 12 20 4 22 21 24 18 26
REMARK H PARENT 10 19 12 21 4 23 21 25 18 27
REMARK Flexibility Score: inf
ROOT
ATOM      1  C   UNL     1      22.465  31.840  27.696  1.00  0.00     0.180 A 
ATOM      2  C   UNL     1      22.901  31.135  28.831  1.00  0.00     0.208 A 
ATOM      3  C   UNL     1      22.012  30.955  29.903  1.00  0.00     0.238 A 
ATOM      4  O   UNL     1      22.390  30.276  30.893  1.00  0.00    -0.285 OA
ATOM      5  C   UNL     1      20.705  31.497  29.834  1.00  0.00     0.111 A 
ATOM      6  C   UNL     1      19.736  31.409  30.877  1.00  0.00     0.134 A 
ATOM      7  C   UNL     1      18.432  31.866  30.648  1.00  0.00     0.093 A 
ATOM      8  C   UNL     1      18.082  32.467  29.437  1.00  0.00     0.123 A 
ATOM      9  C   UNL     1      19.038  32.611  28.434  1.00  0.00     0.094 A 
ATOM     10  C   UNL     1      20.337  32.132  28.618  1.00  0.00     0.146 A 
ATOM     11  O   UNL     1      21.213  32.279  27.633  1.00  0.00    -0.452 OA
ENDROOT
BRANCH   1  12
ATOM     12  C   UNL     1      23.352  32.092  26.536  1.00  0.00     0.025 A 
ATOM     13  C   UNL     1      23.040  31.524  25.292  1.00  0.00     0.016 A 
ATOM     14  C   UNL     1      23.851  31.765  24.180  1.00  0.00     0.051 A 
ATOM     15  C   UNL     1      24.975  32.588  24.290  1.00  0.00     0.157 A 
ATOM     16  C   UNL     1      24.472  32.936  26.641  1.00  0.00     0.062 A 
ATOM     17  C   UNL     1      25.287  33.182  25.526  1.00  0.00     0.158 A 
BRANCH  15  18
ATOM     18  O   UNL     1      25.768  32.809  23.164  1.00  0.00    -0.504 OA
ATOM     19  H   UNL     1      26.042  33.740  22.873  1.00  0.00     0.293 HD
ENDBRANCH  15  18
BRANCH  17  20
ATOM     20  O   UNL     1      26.399  34.014  25.639  1.00  0.00    -0.504 OA
ATOM     21  H   UNL     1      26.559  34.575  26.467  1.00  0.00     0.293 HD
ENDBRANCH  17  20
ENDBRANCH   1  12
BRANCH   2  22
ATOM     22  O   UNL     1      24.187  30.591  28.870  1.00  0.00    -0.502 OA
ATOM     23  H   UNL     1      24.755  30.596  29.708  1.00  0.00     0.293 HD
ENDBRANCH   2  22
BRANCH   6  24
ATOM     24  O   UNL     1      20.007  30.912  32.155  1.00  0.00    -0.507 OA
ATOM     25  H   UNL     1      20.913  30.593  32.467  1.00  0.00     0.293 HD
ENDBRANCH   6  24
BRANCH   8  26
ATOM     26  O   UNL     1      16.786  32.934  29.223  1.00  0.00    -0.508 OA
ATOM     27  H   UNL     1      16.164  33.139  29.995  1.00  0.00     0.293 HD
ENDBRANCH   8  26
TORSDOF 6
ENDMDL
MODEL 4
REMARK VINA RESULT:    -4.807     14.751     16.363
REMARK INTER + INTRA:          -6.005
REMARK INTER:                  -5.702
REMARK INTRA:                  -0.303
REMARK UNBOUND:                -0.214
REMARK SMILES O=c1c(O)c(-c2ccc(O)c(O)c2)oc2cc(O)cc(O)c12
REMARK SMILES IDX 5 1 3 2 2 3 1 4 22 5 20 6 19 7 17 8 16 9 15 10 14 11 6 12
REMARK SMILES IDX 7 13 8 14 9 15 13 16 11 17 10 18 12 20 4 22 21 24 18 26
REMARK H PARENT 10 19 12 21 4 23 21 25 18 27
REMARK Flexibility Score: inf
ROOT
ATOM      1  C   UNL     1      21.714  31.863  24.403  1.00  0.00     0.180 A 
ATOM      2  C   UNL     1      21.345  31.887  25.759  1.00  0.00     0.208 A 
ATOM      3  C   UNL     1      20.068  32.356  26.109  1.00  0.00     0.238 A 
ATOM      4  O   UNL     1      19.723  32.324  27.319  1.00  0.00    -0.285 OA
ATOM      5  C   UNL     1      19.184  32.811  25.101  1.00  0.00     0.111 A 
ATOM      6  C   UNL     1      17.883  33.344  25.344  1.00  0.00     0.134 A 
ATOM      7  C   UNL     1      17.044  33.640  24.262  1.00  0.00     0.093 A 
ATOM      8  C   UNL     1      17.485  33.484  22.946  1.00  0.00     0.123 A 
ATOM      9  C   UNL     1      18.775  33.020  22.699  1.00  0.00     0.094 A 
ATOM     10  C   UNL     1      19.622  32.682  23.756  1.00  0.00     0.146 A 
ATOM     11  O   UNL     1      20.838  32.234  23.476  1.00  0.00    -0.452 OA
ENDROOT
BRANCH   1  12
ATOM     12  C   UNL     1      23.051  31.406  23.959  1.00  0.00     0.025 A 
ATOM     13  C   UNL     1      23.188  30.138  23.373  1.00  0.00     0.016 A 
ATOM     14  C   UNL     1      24.436  29.695  22.928  1.00  0.00     0.051 A 
ATOM     15  C   UNL     1      25.561  30.515  23.046  1.00  0.00     0.157 A 
ATOM     16  C   UNL     1      24.180  32.238  24.059  1.00  0.00     0.062 A 
ATOM     17  C   UNL     1      25.434  31.796  23.611  1.00  0.00     0.158 A 
BRANCH  15  18
ATOM     18  O   UNL     1      26.795  30.045  22.595  1.00  0.00    -0.504 OA
ATOM     19  H   UNL     1      26.989  29.901  21.612  1.00  0.00     0.293 HD
ENDBRANCH  15  18
BRANCH  17  20
ATOM     20  O   UNL     1      26.549  32.625  23.720  1.00  0.00    -0.504 OA
ATOM     21  H   UNL     1      27.136  32.618  24.546  1.00  0.00     0.293 HD
ENDBRANCH  17  20
ENDBRANCH   1  12
BRANCH   2  22
ATOM     22  O   UNL     1      22.225  31.414  26.736  1.00  0.00    -0.502 OA
ATOM     23  H   UNL     1      22.629  30.487  26.701  1.00  0.00     0.293 HD
ENDBRANCH   2  22
BRANCH   6  24
ATOM     24  O   UNL     1      17.381  33.625  26.618  1.00  0.00    -0.507 OA
ATOM     25  H   UNL     1      16.489  34.061  26.801  1.00  0.00     0.293 HD
ENDBRANCH   6  24
BRANCH   8  26
ATOM     26  O   UNL     1      16.649  33.796  21.875  1.00  0.00    -0.508 OA
ATOM     27  H   UNL     1      16.449  34.756  21.622  1.00  0.00     0.293 HD
ENDBRANCH   8  26
TORSDOF 6
ENDMDL
MODEL 5
REMARK VINA RESULT:    -4.796     11.244     14.047
REMARK INTER + INTRA:          -5.991
REMARK INTER:                  -5.753
REMARK INTRA:                  -0.237
REMARK UNBOUND:                -0.214
REMARK SMILES O=c1c(O)c(-c2ccc(O)c(O)c2)oc2cc(O)cc(O)c12
REMARK SMILES IDX 5 1 3 2 2 3 1 4 22 5 20 6 19 7 17 8 16 9 15 10 14 11 6 12
REMARK SMILES IDX 7 13 8 14 9 15 13 16 11 17 10 18 12 20 4 22 21 24 18 26
REMARK H PARENT 10 19 12 21 4 23 21 25 18 27
REMARK Flexibility Score: inf
ROOT
ATOM      1  C   UNL     1      21.898  31.969  26.778  1.00  0.00     0.180 A 
ATOM      2  C   UNL     1      20.692  32.289  26.130  1.00  0.00     0.208 A 
ATOM      3  C   UNL     1      19.499  32.281  26.871  1.00  0.00     0.238 A 
ATOM      4  O   UNL     1      18.431  32.621  26.298  1.00  0.00    -0.285 OA
ATOM      5  C   UNL     1      19.524  31.937  28.244  1.00  0.00     0.111 A 
ATOM      6  C   UNL     1      18.371  31.858  29.080  1.00  0.00     0.134 A 
ATOM      7  C   UNL     1      18.528  31.638  30.454  1.00  0.00     0.093 A 
ATOM      8  C   UNL     1      19.793  31.428  31.010  1.00  0.00     0.123 A 
ATOM      9  C   UNL     1      20.919  31.445  30.191  1.00  0.00     0.094 A 
ATOM     10  C   UNL     1      20.798  31.699  28.823  1.00  0.00     0.146 A 
ATOM     11  O   UNL     1      21.898  31.716  28.081  1.00  0.00    -0.452 OA
ENDROOT
BRANCH   1  12
ATOM     12  C   UNL     1      23.193  31.932  26.059  1.00  0.00     0.025 A 
ATOM     13  C   UNL     1      23.449  30.894  25.151  1.00  0.00     0.016 A 
ATOM     14  C   UNL     1      24.655  30.851  24.447  1.00  0.00     0.051 A 
ATOM     15  C   UNL     1      25.615  31.850  24.627  1.00  0.00     0.157 A 
ATOM     16  C   UNL     1      24.151  32.948  26.225  1.00  0.00     0.062 A 
ATOM     17  C   UNL     1      25.362  32.908  25.518  1.00  0.00     0.158 A 
BRANCH  15  18
ATOM     18  O   UNL     1      26.811  31.780  23.913  1.00  0.00    -0.504 OA
ATOM     19  H   UNL     1      27.577  32.421  24.080  1.00  0.00     0.293 HD
ENDBRANCH  15  18
BRANCH  17  20
ATOM     20  O   UNL     1      26.310  33.915  25.692  1.00  0.00    -0.504 OA
ATOM     21  H   UNL     1      26.880  34.245  24.923  1.00  0.00     0.293 HD
ENDBRANCH  17  20
ENDBRANCH   1  12
BRANCH   2  22
ATOM     22  O   UNL     1      20.692  32.646  24.779  1.00  0.00    -0.502 OA
ATOM     23  H   UNL     1      20.068  32.221  24.104  1.00  0.00     0.293 HD
ENDBRANCH   2  22
BRANCH   6  24
ATOM     24  O   UNL     1      17.058  31.961  28.611  1.00  0.00    -0.507 OA
ATOM     25  H   UNL     1      16.234  31.761  29.160  1.00  0.00     0.293 HD
ENDBRANCH   6  24
BRANCH   8  26
ATOM     26  O   UNL     1      19.939  31.193  32.376  1.00  0.00    -0.508 OA
ATOM     27  H   UNL     1      19.650  31.878  33.064  1.00  0.00     0.293 HD
ENDBRANCH   8  26
TORSDOF 6
ENDMDL
MODEL 6
REMARK VINA RESULT:    -4.744      1.948      7.356
REMARK INTER + INTRA:          -5.929
REMARK INTER:                  -5.687
REMARK INTRA:                  -0.242
REMARK UNBOUND:                -0.214
REMARK SMILES O=c1c(O)c(-c2ccc(O)c(O)c2)oc2cc(O)cc(O)c12
REMARK SMILES IDX 5 1 3 2 2 3 1 4 22 5 20 6 19 7 17 8 16 9 15 10 14 11 6 12
REMARK SMILES IDX 7 13 8 14 9 15 13 16 11 17 10 18 12 20 4 22 21 24 18 26
REMARK H PARENT 10 19 12 21 4 23 21 25 18 27
REMARK Flexibility Score: inf
ROOT
ATOM      1  C   UNL     1      28.167  30.032  37.811  1.00  0.00     0.180 A 
ATOM      2  C   UNL     1      28.644  29.253  36.743  1.00  0.00     0.208 A 
ATOM      3  C   UNL     1      29.785  28.458  36.938  1.00  0.00     0.238 A 
ATOM      4  O   UNL     1      30.176  27.721  35.996  1.00  0.00    -0.285 OA
ATOM      5  C   UNL     1      30.444  28.465  38.192  1.00  0.00     0.111 A 
ATOM      6  C   UNL     1      31.630  27.730  38.488  1.00  0.00     0.134 A 
ATOM      7  C   UNL     1      32.120  27.708  39.800  1.00  0.00     0.093 A 
ATOM      8  C   UNL     1      31.504  28.449  40.811  1.00  0.00     0.123 A 
ATOM      9  C   UNL     1      30.379  29.217  40.518  1.00  0.00     0.094 A 
ATOM     10  C   UNL     1      29.845  29.230  39.228  1.00  0.00     0.146 A 
ATOM     11  O   UNL     1      28.767  29.967  38.994  1.00  0.00    -0.452 OA
ENDROOT
BRANCH   1  12
ATOM     12  C   UNL     1      26.984  30.914  37.676  1.00  0.00     0.025 A 
ATOM     13  C   UNL     1      25.812  30.613  38.386  1.00  0.00     0.016 A 
ATOM     14  C   UNL     1      24.693  31.442  38.289  1.00  0.00     0.051 A 
ATOM     15  C   UNL     1      24.731  32.592  37.495  1.00  0.00     0.157 A 
ATOM     16  C   UNL     1      27.028  32.082  36.893  1.00  0.00     0.062 A 
ATOM     17  C   UNL     1      25.906  32.918  36.796  1.00  0.00     0.158 A 
BRANCH  15  18
ATOM     18  O   UNL     1      23.597  33.401  37.415  1.00  0.00    -0.504 OA
ATOM     19  H   UNL     1      23.603  34.291  36.932  1.00  0.00     0.293 HD
ENDBRANCH  15  18
BRANCH  17  20
ATOM     20  O   UNL     1      25.956  34.070  36.013  1.00  0.00    -0.504 OA
ATOM     21  H   UNL     1      26.542  34.127  35.189  1.00  0.00     0.293 HD
ENDBRANCH  17  20
ENDBRANCH   1  12
BRANCH   2  22
ATOM     22  O   UNL     1      27.967  29.244  35.521  1.00  0.00    -0.502 OA
ATOM     23  H   UNL     1      27.433  30.038  35.189  1.00  0.00     0.293 HD
ENDBRANCH   2  22
BRANCH   6  24
ATOM     24  O   UNL     1      32.375  27.032  37.533  1.00  0.00    -0.507 OA
ATOM     25  H   UNL     1      32.176  26.092  37.223  1.00  0.00     0.293 HD
ENDBRANCH   6  24
BRANCH   8  26
ATOM     26  O   UNL     1      32.007  28.435  42.110  1.00  0.00    -0.508 OA
ATOM     27  H   UNL     1      32.332  27.579  42.543  1.00  0.00     0.293 HD
ENDBRANCH   8  26
TORSDOF 6
ENDMDL
MODEL 7
REMARK VINA RESULT:    -4.727      1.713      6.911
REMARK INTER + INTRA:          -5.908
REMARK INTER:                  -5.694
REMARK INTRA:                  -0.214
REMARK UNBOUND:                -0.214
REMARK SMILES O=c1c(O)c(-c2ccc(O)c(O)c2)oc2cc(O)cc(O)c12
REMARK SMILES IDX 5 1 3 2 2 3 1 4 22 5 20 6 19 7 17 8 16 9 15 10 14 11 6 12
REMARK SMILES IDX 7 13 8 14 9 15 13 16 11 17 10 18 12 20 4 22 21 24 18 26
REMARK H PARENT 10 19 12 21 4 23 21 25 18 27
REMARK Flexibility Score: inf
ROOT
ATOM      1  C   UNL     1      27.996  30.496  38.736  1.00  0.00     0.180 A 
ATOM      2  C   UNL     1      28.322  30.620  40.097  1.00  0.00     0.208 A 
ATOM      3  C   UNL     1      29.439  29.928  40.595  1.00  0.00     0.238 A 
ATOM      4  O   UNL     1      29.757  30.086  41.802  1.00  0.00    -0.285 OA
ATOM      5  C   UNL     1      30.203  29.109  39.730  1.00  0.00     0.111 A 
ATOM      6  C   UNL     1      31.329  28.332  40.135  1.00  0.00     0.134 A 
ATOM      7  C   UNL     1      32.090  27.662  39.169  1.00  0.00     0.093 A 
ATOM      8  C   UNL     1      31.726  27.688  37.820  1.00  0.00     0.123 A 
ATOM      9  C   UNL     1      30.594  28.395  37.423  1.00  0.00     0.094 A 
ATOM     10  C   UNL     1      29.836  29.104  38.358  1.00  0.00     0.146 A 
ATOM     11  O   UNL     1      28.771  29.773  37.936  1.00  0.00    -0.452 OA
ENDROOT
BRANCH   1  12
ATOM     12  C   UNL     1      26.820  31.174  38.142  1.00  0.00     0.025 A 
ATOM     13  C   UNL     1      25.529  30.755  38.496  1.00  0.00     0.016 A 
ATOM     14  C   UNL     1      24.406  31.394  37.965  1.00  0.00     0.051 A 
ATOM     15  C   UNL     1      24.555  32.469  37.085  1.00  0.00     0.157 A 
ATOM     16  C   UNL     1      26.969  32.269  37.272  1.00  0.00     0.062 A 
ATOM     17  C   UNL     1      25.843  32.914  36.739  1.00  0.00     0.158 A 
BRANCH  15  18
ATOM     18  O   UNL     1      23.416  33.087  36.568  1.00  0.00    -0.504 OA
ATOM     19  H   UNL     1      23.036  32.843  35.661  1.00  0.00     0.293 HD
ENDBRANCH  15  18
BRANCH  17  20
ATOM     20  O   UNL     1      25.999  33.995  35.872  1.00  0.00    -0.504 OA
ATOM     21  H   UNL     1      26.913  34.292  35.554  1.00  0.00     0.293 HD
ENDBRANCH  17  20
ENDBRANCH   1  12
BRANCH   2  22
ATOM     22  O   UNL     1      27.567  31.450  40.929  1.00  0.00    -0.502 OA
ATOM     23  H   UNL     1      27.986  32.167  41.508  1.00  0.00     0.293 HD
ENDBRANCH   2  22
BRANCH   6  24
ATOM     24  O   UNL     1      31.724  28.164  41.466  1.00  0.00    -0.507 OA
ATOM     25  H   UNL     1      31.288  28.617  42.256  1.00  0.00     0.293 HD
ENDBRANCH   6  24
BRANCH   8  26
ATOM     26  O   UNL     1      32.480  27.006  36.867  1.00  0.00    -0.508 OA
ATOM     27  H   UNL     1      32.042  26.511  36.100  1.00  0.00     0.293 HD
ENDBRANCH   8  26
TORSDOF 6
ENDMDL
MODEL 8
REMARK VINA RESULT:    -4.724     13.930     16.259
REMARK INTER + INTRA:          -5.905
REMARK INTER:                  -5.598
REMARK INTRA:                  -0.307
REMARK UNBOUND:                -0.214
REMARK SMILES O=c1c(O)c(-c2ccc(O)c(O)c2)oc2cc(O)cc(O)c12
REMARK SMILES IDX 5 1 3 2 2 3 1 4 22 5 20 6 19 7 17 8 16 9 15 10 14 11 6 12
REMARK SMILES IDX 7 13 8 14 9 15 13 16 11 17 10 18 12 20 4 22 21 24 18 26
REMARK H PARENT 10 19 12 21 4 23 21 25 18 27
REMARK Flexibility Score: inf
ROOT
ATOM      1  C   UNL     1      20.013  18.431  38.003  1.00  0.00     0.180 A 
ATOM      2  C   UNL     1      20.682  17.952  36.864  1.00  0.00     0.208 A 
ATOM      3  C   UNL     1      21.571  16.873  37.000  1.00  0.00     0.238 A 
ATOM      4  O   UNL     1      22.126  16.413  35.969  1.00  0.00    -0.285 OA
ATOM      5  C   UNL     1      21.792  16.299  38.276  1.00  0.00     0.111 A 
ATOM      6  C   UNL     1      22.700  15.230  38.537  1.00  0.00     0.134 A 
ATOM      7  C   UNL     1      22.741  14.654  39.813  1.00  0.00     0.093 A 
ATOM      8  C   UNL     1      21.954  15.153  40.853  1.00  0.00     0.123 A 
ATOM      9  C   UNL     1      21.108  16.235  40.623  1.00  0.00     0.094 A 
ATOM     10  C   UNL     1      21.018  16.807  39.352  1.00  0.00     0.146 A 
ATOM     11  O   UNL     1      20.191  17.830  39.173  1.00  0.00    -0.452 OA
ENDROOT
BRANCH   1  12
ATOM     12  C   UNL     1      19.080  19.580  37.943  1.00  0.00     0.025 A 
ATOM     13  C   UNL     1      19.592  20.887  37.949  1.00  0.00     0.016 A 
ATOM     14  C   UNL     1      18.731  21.985  37.873  1.00  0.00     0.051 A 
ATOM     15  C   UNL     1      17.350  21.795  37.774  1.00  0.00     0.157 A 
ATOM     16  C   UNL     1      17.692  19.390  37.825  1.00  0.00     0.062 A 
ATOM     17  C   UNL     1      16.825  20.491  37.746  1.00  0.00     0.158 A 
BRANCH  15  18
ATOM     18  O   UNL     1      16.514  22.910  37.702  1.00  0.00    -0.504 OA
ATOM     19  H   UNL     1      16.430  23.570  38.466  1.00  0.00     0.293 HD
ENDBRANCH  15  18
BRANCH  17  20
ATOM     20  O   UNL     1      15.450  20.294  37.635  1.00  0.00    -0.504 OA
ATOM     21  H   UNL     1      14.910  19.889  38.390  1.00  0.00     0.293 HD
ENDBRANCH  17  20
ENDBRANCH   1  12
BRANCH   2  22
ATOM     22  O   UNL     1      20.434  18.518  35.611  1.00  0.00    -0.502 OA
ATOM     23  H   UNL     1      20.547  19.508  35.429  1.00  0.00     0.293 HD
ENDBRANCH   2  22
BRANCH   6  24
ATOM     24  O   UNL     1      23.596  14.719  37.593  1.00  0.00    -0.507 OA
ATOM     25  H   UNL     1      23.503  14.829  36.594  1.00  0.00     0.293 HD
ENDBRANCH   6  24
BRANCH   8  26
ATOM     26  O   UNL     1      22.012  14.584  42.124  1.00  0.00    -0.508 OA
ATOM     27  H   UNL     1      22.828  14.690  42.715  1.00  0.00     0.293 HD
ENDBRANCH   8  26
TORSDOF 6
ENDMDL
