MODEL 1
REMARK VINA RESULT:    -4.808      0.000      0.000
REMARK INTER + INTRA:         -11.097
REMARK INTER:                  -9.305
REMARK INTRA:                  -1.792
REMARK UNBOUND:                -1.792
REMARK SMILES CCCCCCCCCCCCCCCCCC(=O)[O-]
REMARK SMILES IDX 10 1 11 2 12 3 13 4 14 5 15 6 16 7 17 8 18 9 19 10 20 11
REMARK SMILES IDX 9 12 8 13 7 14 6 15 5 16 4 17 3 18 2 19 1 20
REMARK H PARENT
REMARK Flexibility Score: inf
ROOT
ATOM      1  C   UNL     1       5.964  -8.816 -22.079  1.00  0.00     0.000 C 
ENDROOT
BRANCH   1   2
ATOM      2  C   UNL     1       6.773  -9.330 -23.281  1.00  0.00     0.000 C 
BRANCH   2   3
ATOM      3  C   UNL     1       6.462 -10.794 -23.630  1.00  0.00     0.000 C 
BRANCH   3   4
ATOM      4  C   UNL     1       4.984 -11.158 -23.416  1.00  0.00     0.000 C 
BRANCH   4   5
ATOM      5  C   UNL     1       4.765 -12.226 -22.323  1.00  0.00     0.000 C 
BRANCH   5   6
ATOM      6  C   UNL     1       5.772 -13.385 -22.433  1.00  0.00     0.000 C 
BRANCH   6   7
ATOM      7  C   UNL     1       5.414 -14.583 -21.533  1.00  0.00     0.006 C 
BRANCH   7   8
ATOM      8  C   UNL     1       4.535 -15.642 -22.222  1.00  0.00     0.053 C 
BRANCH   8   9
ATOM      9  C   UNL     1       3.168 -15.742 -21.615  1.00  0.00     0.041 C 
ATOM     10  O   UNL     1       2.365 -14.776 -21.692  1.00  0.00    -0.550 OA
ATOM     11  O   UNL     1       2.769 -16.919 -20.995  1.00  0.00    -0.550 OA
ENDBRANCH   8   9
ENDBRANCH   7   8
ENDBRANCH   6   7
ENDBRANCH   5   6
ENDBRANCH   4   5
ENDBRANCH   3   4
ENDBRANCH   2   3
ENDBRANCH   1   2
BRANCH   1  12
ATOM     12  C   UNL     1       5.602  -7.319 -22.173  1.00  0.00     0.000 C 
BRANCH  12  13
ATOM     13  C   UNL     1       4.093  -7.095 -22.360  1.00  0.00    -0.000 C 
BRANCH  13  14
ATOM     14  C   UNL     1       3.285  -8.235 -21.723  1.00  0.00    -0.000 C 
BRANCH  14  15
ATOM     15  C   UNL     1       2.771  -7.891 -20.314  1.00  0.00    -0.000 C 
BRANCH  15  16
ATOM     16  C   UNL     1       1.814  -6.683 -20.244  1.00  0.00    -0.000 C 
BRANCH  16  17
ATOM     17  C   UNL     1       2.332  -5.486 -19.426  1.00  0.00    -0.000 C 
BRANCH  17  18
ATOM     18  C   UNL     1       3.502  -5.855 -18.503  1.00  0.00    -0.000 C 
BRANCH  18  19
ATOM     19  C   UNL     1       4.638  -4.834 -18.624  1.00  0.00    -0.003 C 
ATOM     20  C   UNL     1       4.728  -4.271 -20.039  1.00  0.00     0.004 C 
ENDBRANCH  18  19
ENDBRANCH  17  18
ENDBRANCH  16  17
ENDBRANCH  15  16
ENDBRANCH  14  15
ENDBRANCH  13  14
ENDBRANCH  12  13
ENDBRANCH   1  12
TORSDOF 16
ENDMDL
MODEL 2
REMARK VINA RESULT:    -4.749      4.195      8.456
REMARK INTER + INTRA:         -10.982
REMARK INTER:                  -9.182
REMARK INTRA:                  -1.800
REMARK UNBOUND:                -1.792
REMARK SMILES CCCCCCCCCCCCCCCCCC(=O)[O-]
REMARK SMILES IDX 10 1 11 2 12 3 13 4 14 5 15 6 16 7 17 8 18 9 19 10 20 11
REMARK SMILES IDX 9 12 8 13 7 14 6 15 5 16 4 17 3 18 2 19 1 20
REMARK H PARENT
REMARK Flexibility Score: inf
ROOT
ATOM      1  C   UNL     1       3.136  -8.085 -21.017  1.00  0.00     0.000 C 
ENDROOT
BRANCH   1   2
ATOM      2  C   UNL     1       2.755  -7.244 -22.248  1.00  0.00     0.000 C 
BRANCH   2   3
ATOM      3  C   UNL     1       1.819  -6.075 -21.906  1.00  0.00     0.000 C 
BRANCH   3   4
ATOM      4  C   UNL     1       1.468  -6.007 -20.410  1.00  0.00     0.000 C 
BRANCH   4   5
ATOM      5  C   UNL     1       1.612  -4.593 -19.808  1.00  0.00     0.000 C 
BRANCH   5   6
ATOM      6  C   UNL     1       2.215  -4.623 -18.392  1.00  0.00     0.000 C 
BRANCH   6   7
ATOM      7  C   UNL     1       3.354  -5.648 -18.243  1.00  0.00     0.006 C 
BRANCH   7   8
ATOM      8  C   UNL     1       4.659  -5.241 -18.951  1.00  0.00     0.053 C 
BRANCH   8   9
ATOM      9  C   UNL     1       5.313  -4.049 -18.319  1.00  0.00     0.041 C 
ATOM     10  O   UNL     1       5.347  -2.946 -18.925  1.00  0.00    -0.550 OA
ATOM     11  O   UNL     1       5.853  -4.148 -17.043  1.00  0.00    -0.550 OA
ENDBRANCH   8   9
ENDBRANCH   7   8
ENDBRANCH   6   7
ENDBRANCH   5   6
ENDBRANCH   4   5
ENDBRANCH   3   4
ENDBRANCH   2   3
ENDBRANCH   1   2
BRANCH   1  12
ATOM     12  C   UNL     1       4.607  -8.554 -21.022  1.00  0.00     0.000 C 
BRANCH  12  13
ATOM     13  C   UNL     1       5.288  -8.322 -22.379  1.00  0.00    -0.000 C 
BRANCH  13  14
ATOM     14  C   UNL     1       6.591  -9.127 -22.486  1.00  0.00    -0.000 C 
BRANCH  14  15
ATOM     15  C   UNL     1       6.665  -9.980 -23.764  1.00  0.00    -0.000 C 
BRANCH  15  16
ATOM     16  C   UNL     1       6.237 -11.452 -23.593  1.00  0.00    -0.000 C 
BRANCH  16  17
ATOM     17  C   UNL     1       4.728 -11.674 -23.379  1.00  0.00    -0.000 C 
BRANCH  17  18
ATOM     18  C   UNL     1       4.393 -12.171 -21.965  1.00  0.00    -0.000 C 
BRANCH  18  19
ATOM     19  C   UNL     1       5.116 -13.488 -21.661  1.00  0.00    -0.003 C 
ATOM     20  C   UNL     1       4.210 -14.688 -21.920  1.00  0.00     0.004 C 
ENDBRANCH  18  19
ENDBRANCH  17  18
ENDBRANCH  16  17
ENDBRANCH  15  16
ENDBRANCH  14  15
ENDBRANCH  13  14
ENDBRANCH  12  13
ENDBRANCH   1  12
TORSDOF 16
ENDMDL
MODEL 3
REMARK VINA RESULT:    -4.621      4.464      7.824
REMARK INTER + INTRA:         -10.735
REMARK INTER:                  -8.219
REMARK INTRA:                  -2.515
REMARK UNBOUND:                -1.792
REMARK SMILES CCCCCCCCCCCCCCCCCC(=O)[O-]
REMARK SMILES IDX 10 1 11 2 12 3 13 4 14 5 15 6 16 7 17 8 18 9 19 10 20 11
REMARK SMILES IDX 9 12 8 13 7 14 6 15 5 16 4 17 3 18 2 19 1 20
REMARK H PARENT
REMARK Flexibility Score: inf
ROOT
ATOM      1  C   UNL     1       5.002  -4.956 -22.409  1.00  0.00     0.000 C 
ENDROOT
BRANCH   1   2
ATOM      2  C   UNL     1       4.301  -5.335 -23.725  1.00  0.00     0.000 C 
BRANCH   2   3
ATOM      3  C   UNL     1       2.819  -5.692 -23.531  1.00  0.00     0.000 C 
BRANCH   3   4
ATOM      4  C   UNL     1       2.265  -5.228 -22.173  1.00  0.00     0.000 C 
BRANCH   4   5
ATOM      5  C   UNL     1       1.562  -6.351 -21.381  1.00  0.00     0.000 C 
BRANCH   5   6
ATOM      6  C   UNL     1       2.008  -6.391 -19.908  1.00  0.00     0.000 C 
BRANCH   6   7
ATOM      7  C   UNL     1       2.699  -5.093 -19.452  1.00  0.00     0.006 C 
BRANCH   7   8
ATOM      8  C   UNL     1       3.917  -5.320 -18.539  1.00  0.00     0.053 C 
BRANCH   8   9
ATOM      9  C   UNL     1       4.762  -4.092 -18.385  1.00  0.00     0.041 C 
ATOM     10  O   UNL     1       4.512  -3.059 -19.059  1.00  0.00    -0.550 OA
ATOM     11  O   UNL     1       5.805  -4.077 -17.467  1.00  0.00    -0.550 OA
ENDBRANCH   8   9
ENDBRANCH   7   8
ENDBRANCH   6   7
ENDBRANCH   5   6
ENDBRANCH   4   5
ENDBRANCH   3   4
ENDBRANCH   2   3
ENDBRANCH   1   2
BRANCH   1  12
ATOM     12  C   UNL     1       5.718  -6.142 -21.728  1.00  0.00     0.000 C 
BRANCH  12  13
ATOM     13  C   UNL     1       5.816  -7.369 -22.648  1.00  0.00    -0.000 C 
BRANCH  13  14
ATOM     14  C   UNL     1       5.723  -8.671 -21.840  1.00  0.00    -0.000 C 
BRANCH  14  15
ATOM     15  C   UNL     1       4.331  -8.895 -21.222  1.00  0.00    -0.000 C 
BRANCH  15  16
ATOM     16  C   UNL     1       3.308  -9.583 -22.149  1.00  0.00    -0.000 C 
BRANCH  16  17
ATOM     17  C   UNL     1       3.485 -11.105 -22.302  1.00  0.00    -0.000 C 
BRANCH  17  18
ATOM     18  C   UNL     1       4.273 -11.490 -23.563  1.00  0.00    -0.000 C 
BRANCH  18  19
ATOM     19  C   UNL     1       5.633 -12.092 -23.196  1.00  0.00    -0.003 C 
ATOM     20  C   UNL     1       6.681 -11.776 -24.259  1.00  0.00     0.004 C 
ENDBRANCH  18  19
ENDBRANCH  17  18
ENDBRANCH  16  17
ENDBRANCH  15  16
ENDBRANCH  14  15
ENDBRANCH  13  14
ENDBRANCH  12  13
ENDBRANCH   1  12
TORSDOF 16
ENDMDL
MODEL 4
REMARK VINA RESULT:    -4.618      1.518      3.445
REMARK INTER + INTRA:         -10.730
REMARK INTER:                  -8.717
REMARK INTRA:                  -2.013
REMARK UNBOUND:                -1.792
REMARK SMILES CCCCCCCCCCCCCCCCCC(=O)[O-]
REMARK SMILES IDX 10 1 11 2 12 3 13 4 14 5 15 6 16 7 17 8 18 9 19 10 20 11
REMARK SMILES IDX 9 12 8 13 7 14 6 15 5 16 4 17 3 18 2 19 1 20
REMARK H PARENT
REMARK Flexibility Score: inf
ROOT
ATOM      1  C   UNL     1       4.378  -7.810 -20.632  1.00  0.00     0.000 C 
ENDROOT
BRANCH   1   2
ATOM      2  C   UNL     1       4.868  -6.898 -21.769  1.00  0.00     0.000 C 
BRANCH   2   3
ATOM      3  C   UNL     1       5.874  -7.592 -22.701  1.00  0.00     0.000 C 
BRANCH   3   4
ATOM      4  C   UNL     1       6.185  -9.037 -22.275  1.00  0.00     0.000 C 
BRANCH   4   5
ATOM      5  C   UNL     1       6.553  -9.961 -23.456  1.00  0.00     0.000 C 
BRANCH   5   6
ATOM      6  C   UNL     1       5.648 -11.203 -23.526  1.00  0.00     0.000 C 
BRANCH   6   7
ATOM      7  C   UNL     1       4.255 -10.971 -22.914  1.00  0.00     0.006 C 
BRANCH   7   8
ATOM      8  C   UNL     1       3.982 -11.800 -21.646  1.00  0.00     0.053 C 
BRANCH   8   9
ATOM      9  C   UNL     1       4.234 -13.264 -21.847  1.00  0.00     0.041 C 
ATOM     10  O   UNL     1       3.412 -13.969 -22.488  1.00  0.00    -0.550 OA
ATOM     11  O   UNL     1       5.398 -13.842 -21.355  1.00  0.00    -0.550 OA
ENDBRANCH   8   9
ENDBRANCH   7   8
ENDBRANCH   6   7
ENDBRANCH   5   6
ENDBRANCH   4   5
ENDBRANCH   3   4
ENDBRANCH   2   3
ENDBRANCH   1   2
BRANCH   1  12
ATOM     12  C   UNL     1       2.973  -7.444 -20.110  1.00  0.00     0.000 C 
BRANCH  12  13
ATOM     13  C   UNL     1       2.836  -5.944 -19.809  1.00  0.00    -0.000 C 
BRANCH  13  14
ATOM     14  C   UNL     1       3.176  -5.642 -18.342  1.00  0.00    -0.000 C 
BRANCH  14  15
ATOM     15  C   UNL     1       4.547  -4.964 -18.173  1.00  0.00    -0.000 C 
BRANCH  15  16
ATOM     16  C   UNL     1       5.045  -4.181 -19.405  1.00  0.00    -0.000 C 
BRANCH  16  17
ATOM     17  C   UNL     1       4.619  -2.703 -19.456  1.00  0.00    -0.000 C 
BRANCH  17  18
ATOM     18  C   UNL     1       4.059  -2.290 -20.825  1.00  0.00    -0.000 C 
BRANCH  18  19
ATOM     19  C   UNL     1       4.406  -3.331 -21.895  1.00  0.00    -0.003 C 
ATOM     20  C   UNL     1       3.262  -3.502 -22.890  1.00  0.00     0.004 C 
ENDBRANCH  18  19
ENDBRANCH  17  18
ENDBRANCH  16  17
ENDBRANCH  15  16
ENDBRANCH  14  15
ENDBRANCH  13  14
ENDBRANCH  12  13
ENDBRANCH   1  12
TORSDOF 16
ENDMDL
MODEL 5
REMARK VINA RESULT:    -4.616      1.778      3.964
REMARK INTER + INTRA:         -10.725
REMARK INTER:                  -8.314
REMARK INTRA:                  -2.410
REMARK UNBOUND:                -1.792
REMARK SMILES CCCCCCCCCCCCCCCCCC(=O)[O-]
REMARK SMILES IDX 10 1 11 2 12 3 13 4 14 5 15 6 16 7 17 8 18 9 19 10 20 11
REMARK SMILES IDX 9 12 8 13 7 14 6 15 5 16 4 17 3 18 2 19 1 20
REMARK H PARENT
REMARK Flexibility Score: inf
ROOT
ATOM      1  C   UNL     1       4.631  -6.506 -20.000  1.00  0.00     0.000 C 
ENDROOT
BRANCH   1   2
ATOM      2  C   UNL     1       4.955  -5.860 -21.357  1.00  0.00     0.000 C 
BRANCH   2   3
ATOM      3  C   UNL     1       4.940  -6.867 -22.517  1.00  0.00     0.000 C 
BRANCH   3   4
ATOM      4  C   UNL     1       6.148  -7.819 -22.499  1.00  0.00     0.000 C 
BRANCH   4   5
ATOM      5  C   UNL     1       5.755  -9.310 -22.425  1.00  0.00     0.000 C 
BRANCH   5   6
ATOM      6  C   UNL     1       6.494 -10.159 -23.474  1.00  0.00     0.000 C 
BRANCH   6   7
ATOM      7  C   UNL     1       5.902 -11.571 -23.633  1.00  0.00     0.006 C 
BRANCH   7   8
ATOM      8  C   UNL     1       4.423 -11.679 -23.223  1.00  0.00     0.053 C 
BRANCH   8   9
ATOM      9  C   UNL     1       4.187 -12.725 -22.175  1.00  0.00     0.041 C 
ATOM     10  O   UNL     1       5.155 -13.364 -21.685  1.00  0.00    -0.550 OA
ATOM     11  O   UNL     1       2.900 -12.970 -21.715  1.00  0.00    -0.550 OA
ENDBRANCH   8   9
ENDBRANCH   7   8
ENDBRANCH   6   7
ENDBRANCH   5   6
ENDBRANCH   4   5
ENDBRANCH   3   4
ENDBRANCH   2   3
ENDBRANCH   1   2
BRANCH   1  12
ATOM     12  C   UNL     1       4.439  -5.484 -18.860  1.00  0.00     0.000 C 
BRANCH  12  13
ATOM     13  C   UNL     1       3.088  -5.651 -18.148  1.00  0.00    -0.000 C 
BRANCH  13  14
ATOM     14  C   UNL     1       2.184  -4.433 -18.389  1.00  0.00    -0.000 C 
BRANCH  14  15
ATOM     15  C   UNL     1       1.851  -4.218 -19.876  1.00  0.00    -0.000 C 
BRANCH  15  16
ATOM     16  C   UNL     1       0.660  -5.044 -20.404  1.00  0.00    -0.000 C 
BRANCH  16  17
ATOM     17  C   UNL     1       1.036  -6.208 -21.339  1.00  0.00    -0.000 C 
BRANCH  17  18
ATOM     18  C   UNL     1       1.115  -7.557 -20.609  1.00  0.00    -0.000 C 
BRANCH  18  19
ATOM     19  C   UNL     1       1.919  -8.576 -21.424  1.00  0.00    -0.003 C 
ATOM     20  C   UNL     1       2.594  -9.600 -20.517  1.00  0.00     0.004 C 
ENDBRANCH  18  19
ENDBRANCH  17  18
ENDBRANCH  16  17
ENDBRANCH  15  16
ENDBRANCH  14  15
ENDBRANCH  13  14
ENDBRANCH  12  13
ENDBRANCH   1  12
TORSDOF 16
ENDMDL
MODEL 6
REMARK VINA RESULT:    -4.588      4.480      7.679
REMARK INTER + INTRA:         -10.672
REMARK INTER:                  -8.780
REMARK INTRA:                  -1.892
REMARK UNBOUND:                -1.792
REMARK SMILES CCCCCCCCCCCCCCCCCC(=O)[O-]
REMARK SMILES IDX 10 1 11 2 12 3 13 4 14 5 15 6 16 7 17 8 18 9 19 10 20 11
REMARK SMILES IDX 9 12 8 13 7 14 6 15 5 16 4 17 3 18 2 19 1 20
REMARK H PARENT
REMARK Flexibility Score: inf
ROOT
ATOM      1  C   UNL     1       6.252  -8.985 -22.348  1.00  0.00     0.000 C 
ENDROOT
BRANCH   1   2
ATOM      2  C   UNL     1       5.899  -7.495 -22.481  1.00  0.00     0.000 C 
BRANCH   2   3
ATOM      3  C   UNL     1       4.514  -7.156 -21.909  1.00  0.00     0.000 C 
BRANCH   3   4
ATOM      4  C   UNL     1       4.025  -8.185 -20.877  1.00  0.00     0.000 C 
BRANCH   4   5
ATOM      5  C   UNL     1       2.738  -7.754 -20.141  1.00  0.00     0.000 C 
BRANCH   5   6
ATOM      6  C   UNL     1       2.687  -6.235 -19.898  1.00  0.00     0.000 C 
BRANCH   6   7
ATOM      7  C   UNL     1       3.314  -5.818 -18.555  1.00  0.00     0.006 C 
BRANCH   7   8
ATOM      8  C   UNL     1       3.294  -4.300 -18.300  1.00  0.00     0.053 C 
BRANCH   8   9
ATOM      9  C   UNL     1       4.510  -3.607 -18.837  1.00  0.00     0.041 C 
ATOM     10  O   UNL     1       5.618  -3.722 -18.252  1.00  0.00    -0.550 OA
ATOM     11  O   UNL     1       4.424  -2.862 -20.007  1.00  0.00    -0.550 OA
ENDBRANCH   8   9
ENDBRANCH   7   8
ENDBRANCH   6   7
ENDBRANCH   5   6
ENDBRANCH   4   5
ENDBRANCH   3   4
ENDBRANCH   2   3
ENDBRANCH   1   2
BRANCH   1  12
ATOM     12  C   UNL     1       7.005  -9.553 -23.571  1.00  0.00     0.000 C 
BRANCH  12  13
ATOM     13  C   UNL     1       6.522 -10.961 -23.950  1.00  0.00    -0.000 C 
BRANCH  13  14
ATOM     14  C   UNL     1       5.352 -11.401 -23.057  1.00  0.00    -0.000 C 
BRANCH  14  15
ATOM     15  C   UNL     1       4.078 -11.727 -23.856  1.00  0.00    -0.000 C 
BRANCH  15  16
ATOM     16  C   UNL     1       2.815 -10.960 -23.414  1.00  0.00    -0.000 C 
BRANCH  16  17
ATOM     17  C   UNL     1       1.647 -10.991 -24.417  1.00  0.00    -0.000 C 
BRANCH  17  18
ATOM     18  C   UNL     1       0.932  -9.638 -24.541  1.00  0.00    -0.000 C 
BRANCH  18  19
ATOM     19  C   UNL     1       1.470  -8.636 -23.514  1.00  0.00    -0.003 C 
ATOM     20  C   UNL     1       1.367  -7.205 -24.031  1.00  0.00     0.004 C 
ENDBRANCH  18  19
ENDBRANCH  17  18
ENDBRANCH  16  17
ENDBRANCH  15  16
ENDBRANCH  14  15
ENDBRANCH  13  14
ENDBRANCH  12  13
ENDBRANCH   1  12
TORSDOF 16
ENDMDL
MODEL 7
REMARK VINA RESULT:    -4.572      4.207      8.210
REMARK INTER + INTRA:         -10.640
REMARK INTER:                  -8.531
REMARK INTRA:                  -2.109
REMARK UNBOUND:                -1.792
REMARK SMILES CCCCCCCCCCCCCCCCCC(=O)[O-]
REMARK SMILES IDX 10 1 11 2 12 3 13 4 14 5 15 6 16 7 17 8 18 9 19 10 20 11
REMARK SMILES IDX 9 12 8 13 7 14 6 15 5 16 4 17 3 18 2 19 1 20
REMARK H PARENT
REMARK Flexibility Score: inf
ROOT
ATOM      1  C   UNL     1       4.786  -6.980 -21.881  1.00  0.00     0.000 C 
ENDROOT
BRANCH   1   2
ATOM      2  C   UNL     1       4.433  -7.892 -20.695  1.00  0.00     0.000 C 
BRANCH   2   3
ATOM      3  C   UNL     1       3.283  -7.340 -19.837  1.00  0.00     0.000 C 
BRANCH   3   4
ATOM      4  C   UNL     1       2.178  -6.676 -20.675  1.00  0.00     0.000 C 
BRANCH   4   5
ATOM      5  C   UNL     1       1.703  -5.323 -20.103  1.00  0.00     0.000 C 
BRANCH   5   6
ATOM      6  C   UNL     1       2.155  -5.115 -18.647  1.00  0.00     0.000 C 
BRANCH   6   7
ATOM      7  C   UNL     1       2.393  -3.635 -18.294  1.00  0.00     0.006 C 
BRANCH   7   8
ATOM      8  C   UNL     1       3.578  -2.997 -19.040  1.00  0.00     0.053 C 
BRANCH   8   9
ATOM      9  C   UNL     1       4.874  -3.706 -18.782  1.00  0.00     0.041 C 
ATOM     10  O   UNL     1       5.409  -3.659 -17.644  1.00  0.00    -0.550 OA
ATOM     11  O   UNL     1       5.472  -4.449 -19.792  1.00  0.00    -0.550 OA
ENDBRANCH   8   9
ENDBRANCH   7   8
ENDBRANCH   6   7
ENDBRANCH   5   6
ENDBRANCH   4   5
ENDBRANCH   3   4
ENDBRANCH   2   3
ENDBRANCH   1   2
BRANCH   1  12
ATOM     12  C   UNL     1       5.877  -7.562 -22.804  1.00  0.00     0.000 C 
BRANCH  12  13
ATOM     13  C   UNL     1       6.257  -9.001 -22.420  1.00  0.00    -0.000 C 
BRANCH  13  14
ATOM     14  C   UNL     1       6.877  -9.743 -23.613  1.00  0.00    -0.000 C 
BRANCH  14  15
ATOM     15  C   UNL     1       6.279 -11.145 -23.822  1.00  0.00    -0.000 C 
BRANCH  15  16
ATOM     16  C   UNL     1       4.930 -11.392 -23.115  1.00  0.00    -0.000 C 
BRANCH  16  17
ATOM     17  C   UNL     1       3.807 -11.932 -24.020  1.00  0.00    -0.000 C 
BRANCH  17  18
ATOM     18  C   UNL     1       2.416 -11.433 -23.606  1.00  0.00    -0.000 C 
BRANCH  18  19
ATOM     19  C   UNL     1       2.516 -10.122 -22.818  1.00  0.00    -0.003 C 
ATOM     20  C   UNL     1       1.725  -9.008 -23.497  1.00  0.00     0.004 C 
ENDBRANCH  18  19
ENDBRANCH  17  18
ENDBRANCH  16  17
ENDBRANCH  15  16
ENDBRANCH  14  15
ENDBRANCH  13  14
ENDBRANCH  12  13
ENDBRANCH   1  12
TORSDOF 16
ENDMDL
MODEL 8
REMARK VINA RESULT:    -4.549      1.996      2.511
REMARK INTER + INTRA:         -10.596
REMARK INTER:                  -8.634
REMARK INTRA:                  -1.962
REMARK UNBOUND:                -1.792
REMARK SMILES CCCCCCCCCCCCCCCCCC(=O)[O-]
REMARK SMILES IDX 10 1 11 2 12 3 13 4 14 5 15 6 16 7 17 8 18 9 19 10 20 11
REMARK SMILES IDX 9 12 8 13 7 14 6 15 5 16 4 17 3 18 2 19 1 20
REMARK H PARENT
REMARK Flexibility Score: inf
ROOT
ATOM      1  C   UNL     1       6.055  -7.826 -22.631  1.00  0.00     0.000 C 
ENDROOT
BRANCH   1   2
ATOM      2  C   UNL     1       6.319  -9.336 -22.505  1.00  0.00     0.000 C 
BRANCH   2   3
ATOM      3  C   UNL     1       6.939  -9.942 -23.774  1.00  0.00     0.000 C 
BRANCH   3   4
ATOM      4  C   UNL     1       6.456 -11.375 -24.049  1.00  0.00     0.000 C 
BRANCH   4   5
ATOM      5  C   UNL     1       5.246 -11.794 -23.187  1.00  0.00     0.000 C 
BRANCH   5   6
ATOM      6  C   UNL     1       3.913 -11.638 -23.940  1.00  0.00     0.000 C 
BRANCH   6   7
ATOM      7  C   UNL     1       2.810 -10.985 -23.087  1.00  0.00     0.006 C 
BRANCH   7   8
ATOM      8  C   UNL     1       2.704 -11.551 -21.660  1.00  0.00     0.053 C 
BRANCH   8   9
ATOM      9  C   UNL     1       1.456 -12.354 -21.447  1.00  0.00     0.041 C 
ATOM     10  O   UNL     1       0.997 -13.074 -22.372  1.00  0.00    -0.550 OA
ATOM     11  O   UNL     1       0.819 -12.332 -20.213  1.00  0.00    -0.550 OA
ENDBRANCH   8   9
ENDBRANCH   7   8
ENDBRANCH   6   7
ENDBRANCH   5   6
ENDBRANCH   4   5
ENDBRANCH   3   4
ENDBRANCH   2   3
ENDBRANCH   1   2
BRANCH   1  12
ATOM     12  C   UNL     1       4.835  -7.343 -21.818  1.00  0.00     0.000 C 
BRANCH  12  13
ATOM     13  C   UNL     1       4.333  -8.409 -20.831  1.00  0.00    -0.000 C 
BRANCH  13  14
ATOM     14  C   UNL     1       2.950  -8.039 -20.277  1.00  0.00    -0.000 C 
BRANCH  14  15
ATOM     15  C   UNL     1       2.571  -6.572 -20.544  1.00  0.00    -0.000 C 
BRANCH  15  16
ATOM     16  C   UNL     1       2.410  -5.699 -19.283  1.00  0.00    -0.000 C 
BRANCH  16  17
ATOM     17  C   UNL     1       3.618  -5.701 -18.328  1.00  0.00    -0.000 C 
BRANCH  17  18
ATOM     18  C   UNL     1       4.598  -4.551 -18.602  1.00  0.00    -0.000 C 
BRANCH  18  19
ATOM     19  C   UNL     1       3.851  -3.287 -19.041  1.00  0.00    -0.003 C 
ATOM     20  C   UNL     1       4.443  -2.713 -20.325  1.00  0.00     0.004 C 
ENDBRANCH  18  19
ENDBRANCH  17  18
ENDBRANCH  16  17
ENDBRANCH  15  16
ENDBRANCH  14  15
ENDBRANCH  13  14
ENDBRANCH  12  13
ENDBRANCH   1  12
TORSDOF 16
ENDMDL
MODEL 9
REMARK VINA RESULT:    -4.545      2.637      3.441
REMARK INTER + INTRA:         -10.588
REMARK INTER:                  -8.707
REMARK INTRA:                  -1.882
REMARK UNBOUND:                -1.792
REMARK SMILES CCCCCCCCCCCCCCCCCC(=O)[O-]
REMARK SMILES IDX 10 1 11 2 12 3 13 4 14 5 15 6 16 7 17 8 18 9 19 10 20 11
REMARK SMILES IDX 9 12 8 13 7 14 6 15 5 16 4 17 3 18 2 19 1 20
REMARK H PARENT
REMARK Flexibility Score: inf
ROOT
ATOM      1  C   UNL     1       6.936  -9.234 -22.867  1.00  0.00     0.000 C 
ENDROOT
BRANCH   1   2
ATOM      2  C   UNL     1       6.588 -10.451 -23.741  1.00  0.00     0.000 C 
BRANCH   2   3
ATOM      3  C   UNL     1       5.260 -11.112 -23.342  1.00  0.00     0.000 C 
BRANCH   3   4
ATOM      4  C   UNL     1       5.440 -12.544 -22.811  1.00  0.00     0.000 C 
BRANCH   4   5
ATOM      5  C   UNL     1       4.425 -12.924 -21.712  1.00  0.00     0.000 C 
BRANCH   5   6
ATOM      6  C   UNL     1       2.970 -12.837 -22.208  1.00  0.00     0.000 C 
BRANCH   6   7
ATOM      7  C   UNL     1       2.069 -11.994 -21.288  1.00  0.00     0.006 C 
BRANCH   7   8
ATOM      8  C   UNL     1       2.647 -10.609 -20.944  1.00  0.00     0.053 C 
BRANCH   8   9
ATOM      9  C   UNL     1       1.794  -9.484 -21.449  1.00  0.00     0.041 C 
ATOM     10  O   UNL     1       0.725  -9.181 -20.858  1.00  0.00    -0.550 OA
ATOM     11  O   UNL     1       2.201  -8.748 -22.554  1.00  0.00    -0.550 OA
ENDBRANCH   8   9
ENDBRANCH   7   8
ENDBRANCH   6   7
ENDBRANCH   5   6
ENDBRANCH   4   5
ENDBRANCH   3   4
ENDBRANCH   2   3
ENDBRANCH   1   2
BRANCH   1  12
ATOM     12  C   UNL     1       5.708  -8.587 -22.194  1.00  0.00     0.000 C 
BRANCH  12  13
ATOM     13  C   UNL     1       5.609  -7.082 -22.486  1.00  0.00    -0.000 C 
BRANCH  13  14
ATOM     14  C   UNL     1       4.912  -6.341 -21.336  1.00  0.00    -0.000 C 
BRANCH  14  15
ATOM     15  C   UNL     1       4.447  -7.284 -20.212  1.00  0.00    -0.000 C 
BRANCH  15  16
ATOM     16  C   UNL     1       3.270  -6.760 -19.365  1.00  0.00    -0.000 C 
BRANCH  16  17
ATOM     17  C   UNL     1       2.857  -5.304 -19.649  1.00  0.00    -0.000 C 
BRANCH  17  18
ATOM     18  C   UNL     1       3.139  -4.363 -18.468  1.00  0.00    -0.000 C 
BRANCH  18  19
ATOM     19  C   UNL     1       4.413  -3.547 -18.710  1.00  0.00    -0.003 C 
ATOM     20  C   UNL     1       5.560  -4.042 -17.834  1.00  0.00     0.004 C 
ENDBRANCH  18  19
ENDBRANCH  17  18
ENDBRANCH  16  17
ENDBRANCH  15  16
ENDBRANCH  14  15
ENDBRANCH  13  14
ENDBRANCH  12  13
ENDBRANCH   1  12
TORSDOF 16
ENDMDL
