MODEL 1
REMARK VINA RESULT:    -4.623      0.000      0.000
REMARK INTER + INTRA:         -16.394
REMARK INTER:                 -12.189
REMARK INTRA:                  -4.205
REMARK UNBOUND:                -4.205
REMARK SMILES CCCCCCCCCCCCCCCCCCCCCCCCCCCCCC(=O)[O-]
REMARK SMILES IDX 16 1 17 2 18 3 19 4 20 5 21 6 22 7 23 8 24 9 25 10 26 11
REMARK SMILES IDX 27 12 28 13 29 14 30 15 31 16 32 17 15 18 14 19 13 20 12 21
REMARK SMILES IDX 11 22 10 23 9 24 8 25 7 26 6 27 5 28 4 29 3 30 2 31 1 32
REMARK H PARENT
REMARK Flexibility Score: inf
ROOT
ATOM      1  C   UNL     1      11.648  -5.843  -0.809  1.00  0.00     0.000 C 
ENDROOT
BRANCH   1   2
ATOM      2  C   UNL     1      11.820  -6.892   0.303  1.00  0.00     0.000 C 
BRANCH   2   3
ATOM      3  C   UNL     1      13.185  -6.789   1.001  1.00  0.00     0.000 C 
BRANCH   3   4
ATOM      4  C   UNL     1      13.907  -8.144   1.087  1.00  0.00     0.000 C 
BRANCH   4   5
ATOM      5  C   UNL     1      13.398  -9.163   0.051  1.00  0.00     0.000 C 
BRANCH   5   6
ATOM      6  C   UNL     1      12.803 -10.443   0.673  1.00  0.00     0.000 C 
BRANCH   6   7
ATOM      7  C   UNL     1      11.533 -10.916  -0.051  1.00  0.00     0.000 C 
BRANCH   7   8
ATOM      8  C   UNL     1      10.271 -10.391   0.642  1.00  0.00     0.000 C 
BRANCH   8   9
ATOM      9  C   UNL     1       9.499  -9.430  -0.277  1.00  0.00     0.000 C 
BRANCH   9  10
ATOM     10  C   UNL     1       9.966  -9.498  -1.741  1.00  0.00     0.000 C 
BRANCH  10  11
ATOM     11  C   UNL     1       9.360  -8.425  -2.664  1.00  0.00     0.000 C 
BRANCH  11  12
ATOM     12  C   UNL     1       8.604  -7.311  -1.909  1.00  0.00     0.000 C 
BRANCH  12  13
ATOM     13  C   UNL     1       8.204  -6.148  -2.834  1.00  0.00     0.006 C 
BRANCH  13  14
ATOM     14  C   UNL     1       7.745  -4.912  -2.050  1.00  0.00     0.053 C 
BRANCH  14  15
ATOM     15  C   UNL     1       6.630  -4.197  -2.751  1.00  0.00     0.041 C 
ATOM     16  O   UNL     1       6.472  -4.334  -3.991  1.00  0.00    -0.550 OA
ATOM     17  O   UNL     1       5.743  -3.410  -2.025  1.00  0.00    -0.550 OA
ENDBRANCH  14  15
ENDBRANCH  13  14
ENDBRANCH  12  13
ENDBRANCH  11  12
ENDBRANCH  10  11
ENDBRANCH   9  10
ENDBRANCH   8   9
ENDBRANCH   7   8
ENDBRANCH   6   7
ENDBRANCH   5   6
ENDBRANCH   4   5
ENDBRANCH   3   4
ENDBRANCH   2   3
ENDBRANCH   1   2
BRANCH   1  18
ATOM     18  C   UNL     1      10.877  -4.604  -0.324  1.00  0.00     0.000 C 
BRANCH  18  19
ATOM     19  C   UNL     1      11.816  -3.463   0.103  1.00  0.00     0.000 C 
BRANCH  19  20
ATOM     20  C   UNL     1      11.017  -2.216   0.495  1.00  0.00     0.000 C 
BRANCH  20  21
ATOM     21  C   UNL     1      11.766  -0.932   0.106  1.00  0.00     0.000 C 
BRANCH  21  22
ATOM     22  C   UNL     1      11.273   0.299   0.883  1.00  0.00     0.000 C 
BRANCH  22  23
ATOM     23  C   UNL     1      12.163   0.640   2.087  1.00  0.00     0.000 C 
BRANCH  23  24
ATOM     24  C   UNL     1      11.479   0.239   3.401  1.00  0.00    -0.000 C 
BRANCH  24  25
ATOM     25  C   UNL     1      12.423  -0.593   4.283  1.00  0.00    -0.000 C 
BRANCH  25  26
ATOM     26  C   UNL     1      12.880  -1.878   3.575  1.00  0.00    -0.000 C 
BRANCH  26  27
ATOM     27  C   UNL     1      14.293  -2.323   4.017  1.00  0.00    -0.000 C 
BRANCH  27  28
ATOM     28  C   UNL     1      15.400  -1.792   3.095  1.00  0.00    -0.000 C 
BRANCH  28  29
ATOM     29  C   UNL     1      15.045  -1.981   1.610  1.00  0.00    -0.000 C 
BRANCH  29  30
ATOM     30  C   UNL     1      15.336  -0.710   0.804  1.00  0.00    -0.000 C 
BRANCH  30  31
ATOM     31  C   UNL     1      15.848  -1.059  -0.598  1.00  0.00    -0.003 C 
ATOM     32  C   UNL     1      15.040  -0.345  -1.678  1.00  0.00     0.004 C 
ENDBRANCH  30  31
ENDBRANCH  29  30
ENDBRANCH  28  29
ENDBRANCH  27  28
ENDBRANCH  26  27
ENDBRANCH  25  26
ENDBRANCH  24  25
ENDBRANCH  23  24
ENDBRANCH  22  23
ENDBRANCH  21  22
ENDBRANCH  20  21
ENDBRANCH  19  20
ENDBRANCH  18  19
ENDBRANCH   1  18
TORSDOF 28
ENDMDL
MODEL 2
REMARK VINA RESULT:    -4.590      3.142      5.013
REMARK INTER + INTRA:         -16.307
REMARK INTER:                 -12.306
REMARK INTRA:                  -4.001
REMARK UNBOUND:                -4.205
REMARK SMILES CCCCCCCCCCCCCCCCCCCCCCCCCCCCCC(=O)[O-]
REMARK SMILES IDX 16 1 17 2 18 3 19 4 20 5 21 6 22 7 23 8 24 9 25 10 26 11
REMARK SMILES IDX 27 12 28 13 29 14 30 15 31 16 32 17 15 18 14 19 13 20 12 21
REMARK SMILES IDX 11 22 10 23 9 24 8 25 7 26 6 27 5 28 4 29 3 30 2 31 1 32
REMARK H PARENT
REMARK Flexibility Score: inf
ROOT
ATOM      1  C   UNL     1      11.749  -0.398   0.113  1.00  0.00     0.000 C 
ENDROOT
BRANCH   1   2
ATOM      2  C   UNL     1      12.032  -1.909   0.070  1.00  0.00     0.000 C 
BRANCH   2   3
ATOM      3  C   UNL     1      10.833  -2.744   0.544  1.00  0.00     0.000 C 
BRANCH   3   4
ATOM      4  C   UNL     1      10.662  -4.042  -0.263  1.00  0.00     0.000 C 
BRANCH   4   5
ATOM      5  C   UNL     1       9.187  -4.397  -0.525  1.00  0.00     0.000 C 
BRANCH   5   6
ATOM      6  C   UNL     1       8.990  -5.693  -1.337  1.00  0.00     0.000 C 
BRANCH   6   7
ATOM      7  C   UNL     1       7.874  -5.568  -2.385  1.00  0.00     0.000 C 
BRANCH   7   8
ATOM      8  C   UNL     1       8.379  -5.950  -3.782  1.00  0.00     0.000 C 
BRANCH   8   9
ATOM      9  C   UNL     1       7.938  -4.914  -4.828  1.00  0.00     0.000 C 
BRANCH   9  10
ATOM     10  C   UNL     1       8.367  -5.288  -6.257  1.00  0.00     0.000 C 
BRANCH  10  11
ATOM     11  C   UNL     1       8.776  -6.761  -6.444  1.00  0.00     0.000 C 
BRANCH  11  12
ATOM     12  C   UNL     1      10.194  -6.944  -7.026  1.00  0.00     0.000 C 
BRANCH  12  13
ATOM     13  C   UNL     1      11.259  -6.184  -6.216  1.00  0.00     0.006 C 
BRANCH  13  14
ATOM     14  C   UNL     1      12.251  -7.131  -5.528  1.00  0.00     0.053 C 
BRANCH  14  15
ATOM     15  C   UNL     1      11.718  -7.632  -4.220  1.00  0.00     0.041 C 
ATOM     16  O   UNL     1      11.066  -8.707  -4.172  1.00  0.00    -0.550 OA
ATOM     17  O   UNL     1      11.975  -6.928  -3.049  1.00  0.00    -0.550 OA
ENDBRANCH  14  15
ENDBRANCH  13  14
ENDBRANCH  12  13
ENDBRANCH  11  12
ENDBRANCH  10  11
ENDBRANCH   9  10
ENDBRANCH   8   9
ENDBRANCH   7   8
ENDBRANCH   6   7
ENDBRANCH   5   6
ENDBRANCH   4   5
ENDBRANCH   3   4
ENDBRANCH   2   3
ENDBRANCH   1   2
BRANCH   1  18
ATOM     18  C   UNL     1      10.966   0.010   1.372  1.00  0.00     0.000 C 
BRANCH  18  19
ATOM     19  C   UNL     1      11.816   0.850   2.341  1.00  0.00     0.000 C 
BRANCH  19  20
ATOM     20  C   UNL     1      11.699   0.317   3.773  1.00  0.00     0.000 C 
BRANCH  20  21
ATOM     21  C   UNL     1      12.886  -0.591   4.126  1.00  0.00     0.000 C 
BRANCH  21  22
ATOM     22  C   UNL     1      12.643  -2.060   3.742  1.00  0.00     0.000 C 
BRANCH  22  23
ATOM     23  C   UNL     1      13.910  -2.758   3.229  1.00  0.00     0.000 C 
BRANCH  23  24
ATOM     24  C   UNL     1      15.089  -2.519   4.181  1.00  0.00    -0.000 C 
BRANCH  24  25
ATOM     25  C   UNL     1      16.413  -2.973   3.546  1.00  0.00    -0.000 C 
BRANCH  25  26
ATOM     26  C   UNL     1      17.499  -1.891   3.659  1.00  0.00    -0.000 C 
BRANCH  26  27
ATOM     27  C   UNL     1      16.903  -0.475   3.833  1.00  0.00    -0.000 C 
BRANCH  27  28
ATOM     28  C   UNL     1      16.939   0.349   2.539  1.00  0.00    -0.000 C 
BRANCH  28  29
ATOM     29  C   UNL     1      15.542   0.485   1.909  1.00  0.00    -0.000 C 
BRANCH  29  30
ATOM     30  C   UNL     1      15.332  -0.547   0.795  1.00  0.00    -0.000 C 
BRANCH  30  31
ATOM     31  C   UNL     1      15.877  -0.028  -0.540  1.00  0.00    -0.003 C 
ATOM     32  C   UNL     1      15.006  -0.479  -1.708  1.00  0.00     0.004 C 
ENDBRANCH  30  31
ENDBRANCH  29  30
ENDBRANCH  28  29
ENDBRANCH  27  28
ENDBRANCH  26  27
ENDBRANCH  25  26
ENDBRANCH  24  25
ENDBRANCH  23  24
ENDBRANCH  22  23
ENDBRANCH  21  22
ENDBRANCH  20  21
ENDBRANCH  19  20
ENDBRANCH  18  19
ENDBRANCH   1  18
TORSDOF 28
ENDMDL
MODEL 3
REMARK VINA RESULT:    -4.575      1.747      3.272
REMARK INTER + INTRA:         -16.268
REMARK INTER:                 -11.575
REMARK INTRA:                  -4.693
REMARK UNBOUND:                -4.205
REMARK SMILES CCCCCCCCCCCCCCCCCCCCCCCCCCCCCC(=O)[O-]
REMARK SMILES IDX 16 1 17 2 18 3 19 4 20 5 21 6 22 7 23 8 24 9 25 10 26 11
REMARK SMILES IDX 27 12 28 13 29 14 30 15 31 16 32 17 15 18 14 19 13 20 12 21
REMARK SMILES IDX 11 22 10 23 9 24 8 25 7 26 6 27 5 28 4 29 3 30 2 31 1 32
REMARK H PARENT
REMARK Flexibility Score: inf
ROOT
ATOM      1  C   UNL     1      13.348  -4.957   1.259  1.00  0.00     0.000 C 
ENDROOT
BRANCH   1   2
ATOM      2  C   UNL     1      14.453  -6.027   1.225  1.00  0.00     0.000 C 
BRANCH   2   3
ATOM      3  C   UNL     1      13.888  -7.455   1.256  1.00  0.00     0.000 C 
BRANCH   3   4
ATOM      4  C   UNL     1      12.586  -7.556   2.068  1.00  0.00     0.000 C 
BRANCH   4   5
ATOM      5  C   UNL     1      12.236  -9.002   2.465  1.00  0.00     0.000 C 
BRANCH   5   6
ATOM      6  C   UNL     1      12.044  -9.951   1.265  1.00  0.00     0.000 C 
BRANCH   6   7
ATOM      7  C   UNL     1      10.607  -9.931   0.721  1.00  0.00     0.000 C 
BRANCH   7   8
ATOM      8  C   UNL     1      10.510 -10.668  -0.619  1.00  0.00     0.000 C 
BRANCH   8   9
ATOM      9  C   UNL     1      11.772 -10.438  -1.466  1.00  0.00     0.000 C 
BRANCH   9  10
ATOM     10  C   UNL     1      11.459  -9.873  -2.862  1.00  0.00     0.000 C 
BRANCH  10  11
ATOM     11  C   UNL     1      11.871  -8.404  -3.071  1.00  0.00     0.000 C 
BRANCH  11  12
ATOM     12  C   UNL     1      12.264  -7.676  -1.769  1.00  0.00     0.000 C 
BRANCH  12  13
ATOM     13  C   UNL     1      11.541  -6.327  -1.613  1.00  0.00     0.006 C 
BRANCH  13  14
ATOM     14  C   UNL     1      10.346  -6.415  -0.654  1.00  0.00     0.053 C 
BRANCH  14  15
ATOM     15  C   UNL     1       9.449  -5.221  -0.779  1.00  0.00     0.041 C 
ATOM     16  O   UNL     1       9.679  -4.183  -0.107  1.00  0.00    -0.550 OA
ATOM     17  O   UNL     1       8.381  -5.245  -1.668  1.00  0.00    -0.550 OA
ENDBRANCH  14  15
ENDBRANCH  13  14
ENDBRANCH  12  13
ENDBRANCH  11  12
ENDBRANCH  10  11
ENDBRANCH   9  10
ENDBRANCH   8   9
ENDBRANCH   7   8
ENDBRANCH   6   7
ENDBRANCH   5   6
ENDBRANCH   4   5
ENDBRANCH   3   4
ENDBRANCH   2   3
ENDBRANCH   1   2
BRANCH   1  18
ATOM     18  C   UNL     1      13.819  -3.658   1.934  1.00  0.00     0.000 C 
BRANCH  18  19
ATOM     19  C   UNL     1      15.309  -3.374   1.677  1.00  0.00     0.000 C 
BRANCH  19  20
ATOM     20  C   UNL     1      16.050  -3.115   2.993  1.00  0.00     0.000 C 
BRANCH  20  21
ATOM     21  C   UNL     1      16.056  -1.619   3.341  1.00  0.00     0.000 C 
BRANCH  21  22
ATOM     22  C   UNL     1      15.087  -1.273   4.483  1.00  0.00     0.000 C 
BRANCH  22  23
ATOM     23  C   UNL     1      14.135  -0.121   4.128  1.00  0.00     0.000 C 
BRANCH  23  24
ATOM     24  C   UNL     1      12.675  -0.587   4.171  1.00  0.00    -0.000 C 
BRANCH  24  25
ATOM     25  C   UNL     1      11.718   0.558   3.804  1.00  0.00    -0.000 C 
BRANCH  25  26
ATOM     26  C   UNL     1      10.864   0.215   2.573  1.00  0.00    -0.000 C 
BRANCH  26  27
ATOM     27  C   UNL     1      11.554   0.613   1.248  1.00  0.00    -0.000 C 
BRANCH  27  28
ATOM     28  C   UNL     1      11.584  -0.531   0.225  1.00  0.00    -0.000 C 
BRANCH  28  29
ATOM     29  C   UNL     1      12.993  -0.746  -0.352  1.00  0.00    -0.000 C 
BRANCH  29  30
ATOM     30  C   UNL     1      14.067  -0.168   0.577  1.00  0.00    -0.000 C 
BRANCH  30  31
ATOM     31  C   UNL     1      15.358   0.123  -0.196  1.00  0.00    -0.003 C 
ATOM     32  C   UNL     1      15.493  -0.787  -1.414  1.00  0.00     0.004 C 
ENDBRANCH  30  31
ENDBRANCH  29  30
ENDBRANCH  28  29
ENDBRANCH  27  28
ENDBRANCH  26  27
ENDBRANCH  25  26
ENDBRANCH  24  25
ENDBRANCH  23  24
ENDBRANCH  22  23
ENDBRANCH  21  22
ENDBRANCH  20  21
ENDBRANCH  19  20
ENDBRANCH  18  19
ENDBRANCH   1  18
TORSDOF 28
ENDMDL
MODEL 4
REMARK VINA RESULT:    -4.573      2.390      3.452
REMARK INTER + INTRA:         -16.264
REMARK INTER:                 -12.233
REMARK INTRA:                  -4.031
REMARK UNBOUND:                -4.205
REMARK SMILES CCCCCCCCCCCCCCCCCCCCCCCCCCCCCC(=O)[O-]
REMARK SMILES IDX 16 1 17 2 18 3 19 4 20 5 21 6 22 7 23 8 24 9 25 10 26 11
REMARK SMILES IDX 27 12 28 13 29 14 30 15 31 16 32 17 15 18 14 19 13 20 12 21
REMARK SMILES IDX 11 22 10 23 9 24 8 25 7 26 6 27 5 28 4 29 3 30 2 31 1 32
REMARK H PARENT
REMARK Flexibility Score: inf
ROOT
ATOM      1  C   UNL     1       9.668  -4.011  -0.241  1.00  0.00     0.000 C 
ENDROOT
BRANCH   1   2
ATOM      2  C   UNL     1       8.962  -5.059  -1.118  1.00  0.00     0.000 C 
BRANCH   2   3
ATOM      3  C   UNL     1       9.669  -6.423  -1.086  1.00  0.00     0.000 C 
BRANCH   3   4
ATOM      4  C   UNL     1      10.145  -6.874  -2.477  1.00  0.00     0.000 C 
BRANCH   4   5
ATOM      5  C   UNL     1      11.649  -7.199  -2.521  1.00  0.00     0.000 C 
BRANCH   5   6
ATOM      6  C   UNL     1      12.127  -7.762  -3.875  1.00  0.00     0.000 C 
BRANCH   6   7
ATOM      7  C   UNL     1      10.994  -8.426  -4.671  1.00  0.00     0.000 C 
BRANCH   7   8
ATOM      8  C   UNL     1      10.984  -7.947  -6.128  1.00  0.00     0.000 C 
BRANCH   8   9
ATOM      9  C   UNL     1      11.410  -6.473  -6.224  1.00  0.00     0.000 C 
BRANCH   9  10
ATOM     10  C   UNL     1      10.280  -5.557  -6.723  1.00  0.00     0.000 C 
BRANCH  10  11
ATOM     11  C   UNL     1       8.876  -5.924  -6.210  1.00  0.00     0.000 C 
BRANCH  11  12
ATOM     12  C   UNL     1       8.303  -4.917  -5.191  1.00  0.00     0.000 C 
BRANCH  12  13
ATOM     13  C   UNL     1       7.170  -5.524  -4.346  1.00  0.00     0.006 C 
BRANCH  13  14
ATOM     14  C   UNL     1       6.017  -4.537  -4.122  1.00  0.00     0.053 C 
BRANCH  14  15
ATOM     15  C   UNL     1       4.755  -5.004  -4.784  1.00  0.00     0.041 C 
ATOM     16  O   UNL     1       4.517  -6.234  -4.895  1.00  0.00    -0.550 OA
ATOM     17  O   UNL     1       3.827  -4.077  -5.243  1.00  0.00    -0.550 OA
ENDBRANCH  14  15
ENDBRANCH  13  14
ENDBRANCH  12  13
ENDBRANCH  11  12
ENDBRANCH  10  11
ENDBRANCH   9  10
ENDBRANCH   8   9
ENDBRANCH   7   8
ENDBRANCH   6   7
ENDBRANCH   5   6
ENDBRANCH   4   5
ENDBRANCH   3   4
ENDBRANCH   2   3
ENDBRANCH   1   2
BRANCH   1  18
ATOM     18  C   UNL     1      11.174  -4.291  -0.102  1.00  0.00     0.000 C 
BRANCH  18  19
ATOM     19  C   UNL     1      11.990  -3.002   0.098  1.00  0.00     0.000 C 
BRANCH  19  20
ATOM     20  C   UNL     1      11.140  -1.915   0.766  1.00  0.00     0.000 C 
BRANCH  20  21
ATOM     21  C   UNL     1      11.431  -0.533   0.161  1.00  0.00     0.000 C 
BRANCH  21  22
ATOM     22  C   UNL     1      10.921   0.618   1.042  1.00  0.00     0.000 C 
BRANCH  22  23
ATOM     23  C   UNL     1      10.041   0.135   2.203  1.00  0.00     0.000 C 
BRANCH  23  24
ATOM     24  C   UNL     1      10.537   0.703   3.538  1.00  0.00    -0.000 C 
BRANCH  24  25
ATOM     25  C   UNL     1      12.052   0.497   3.698  1.00  0.00    -0.000 C 
BRANCH  25  26
ATOM     26  C   UNL     1      12.381  -0.897   4.257  1.00  0.00    -0.000 C 
BRANCH  26  27
ATOM     27  C   UNL     1      13.533  -1.582   3.488  1.00  0.00    -0.000 C 
BRANCH  27  28
ATOM     28  C   UNL     1      14.292  -0.616   2.567  1.00  0.00    -0.000 C 
BRANCH  28  29
ATOM     29  C   UNL     1      15.194  -1.365   1.572  1.00  0.00    -0.000 C 
BRANCH  29  30
ATOM     30  C   UNL     1      15.032  -0.813   0.151  1.00  0.00    -0.000 C 
BRANCH  30  31
ATOM     31  C   UNL     1      16.396  -0.495  -0.470  1.00  0.00    -0.003 C 
ATOM     32  C   UNL     1      17.330   0.156   0.546  1.00  0.00     0.004 C 
ENDBRANCH  30  31
ENDBRANCH  29  30
ENDBRANCH  28  29
ENDBRANCH  27  28
ENDBRANCH  26  27
ENDBRANCH  25  26
ENDBRANCH  24  25
ENDBRANCH  23  24
ENDBRANCH  22  23
ENDBRANCH  21  22
ENDBRANCH  20  21
ENDBRANCH  19  20
ENDBRANCH  18  19
ENDBRANCH   1  18
TORSDOF 28
ENDMDL
MODEL 5
REMARK VINA RESULT:    -4.552      1.910      2.572
REMARK INTER + INTRA:         -16.207
REMARK INTER:                 -12.070
REMARK INTRA:                  -4.137
REMARK UNBOUND:                -4.205
REMARK SMILES CCCCCCCCCCCCCCCCCCCCCCCCCCCCCC(=O)[O-]
REMARK SMILES IDX 16 1 17 2 18 3 19 4 20 5 21 6 22 7 23 8 24 9 25 10 26 11
REMARK SMILES IDX 27 12 28 13 29 14 30 15 31 16 32 17 15 18 14 19 13 20 12 21
REMARK SMILES IDX 11 22 10 23 9 24 8 25 7 26 6 27 5 28 4 29 3 30 2 31 1 32
REMARK H PARENT
REMARK Flexibility Score: inf
ROOT
ATOM      1  C   UNL     1      10.003  -5.357  -0.615  1.00  0.00     0.000 C 
ENDROOT
BRANCH   1   2
ATOM      2  C   UNL     1      11.467  -5.788  -0.419  1.00  0.00     0.000 C 
BRANCH   2   3
ATOM      3  C   UNL     1      11.998  -6.615  -1.600  1.00  0.00     0.000 C 
BRANCH   3   4
ATOM      4  C   UNL     1      12.167  -8.103  -1.249  1.00  0.00     0.000 C 
BRANCH   4   5
ATOM      5  C   UNL     1      11.434  -8.502   0.044  1.00  0.00     0.000 C 
BRANCH   5   6
ATOM      6  C   UNL     1      10.191  -9.384  -0.189  1.00  0.00     0.000 C 
BRANCH   6   7
ATOM      7  C   UNL     1       9.724  -9.372  -1.653  1.00  0.00     0.000 C 
BRANCH   7   8
ATOM      8  C   UNL     1       8.479  -8.496  -1.832  1.00  0.00     0.000 C 
BRANCH   8   9
ATOM      9  C   UNL     1       8.594  -7.629  -3.096  1.00  0.00     0.000 C 
BRANCH   9  10
ATOM     10  C   UNL     1       9.455  -8.281  -4.191  1.00  0.00     0.000 C 
BRANCH  10  11
ATOM     11  C   UNL     1      10.613  -7.408  -4.709  1.00  0.00     0.000 C 
BRANCH  11  12
ATOM     12  C   UNL     1      10.882  -7.565  -6.220  1.00  0.00     0.000 C 
BRANCH  12  13
ATOM     13  C   UNL     1       9.849  -6.812  -7.077  1.00  0.00     0.006 C 
BRANCH  13  14
ATOM     14  C   UNL     1       9.664  -5.359  -6.622  1.00  0.00     0.053 C 
BRANCH  14  15
ATOM     15  C   UNL     1       8.235  -5.065  -6.280  1.00  0.00     0.041 C 
ATOM     16  O   UNL     1       7.341  -5.161  -7.161  1.00  0.00    -0.550 OA
ATOM     17  O   UNL     1       7.887  -4.723  -4.979  1.00  0.00    -0.550 OA
ENDBRANCH  14  15
ENDBRANCH  13  14
ENDBRANCH  12  13
ENDBRANCH  11  12
ENDBRANCH  10  11
ENDBRANCH   9  10
ENDBRANCH   8   9
ENDBRANCH   7   8
ENDBRANCH   6   7
ENDBRANCH   5   6
ENDBRANCH   4   5
ENDBRANCH   3   4
ENDBRANCH   2   3
ENDBRANCH   1   2
BRANCH   1  18
ATOM     18  C   UNL     1       9.783  -3.876  -0.266  1.00  0.00     0.000 C 
BRANCH  18  19
ATOM     19  C   UNL     1      11.095  -3.163   0.104  1.00  0.00     0.000 C 
BRANCH  19  20
ATOM     20  C   UNL     1      10.820  -1.925   0.965  1.00  0.00     0.000 C 
BRANCH  20  21
ATOM     21  C   UNL     1      11.359  -0.652   0.294  1.00  0.00     0.000 C 
BRANCH  21  22
ATOM     22  C   UNL     1      11.229   0.590   1.190  1.00  0.00     0.000 C 
BRANCH  22  23
ATOM     23  C   UNL     1      10.685   0.261   2.588  1.00  0.00     0.000 C 
BRANCH  23  24
ATOM     24  C   UNL     1      11.586   0.856   3.678  1.00  0.00    -0.000 C 
BRANCH  24  25
ATOM     25  C   UNL     1      12.919   0.095   3.769  1.00  0.00    -0.000 C 
BRANCH  25  26
ATOM     26  C   UNL     1      12.711  -1.368   4.190  1.00  0.00    -0.000 C 
BRANCH  26  27
ATOM     27  C   UNL     1      13.938  -2.252   3.867  1.00  0.00    -0.000 C 
BRANCH  27  28
ATOM     28  C   UNL     1      13.888  -2.845   2.452  1.00  0.00    -0.000 C 
BRANCH  28  29
ATOM     29  C   UNL     1      15.278  -2.875   1.794  1.00  0.00    -0.000 C 
BRANCH  29  30
ATOM     30  C   UNL     1      15.741  -1.464   1.412  1.00  0.00    -0.000 C 
BRANCH  30  31
ATOM     31  C   UNL     1      14.733  -0.795   0.470  1.00  0.00    -0.003 C 
ATOM     32  C   UNL     1      15.436  -0.105  -0.695  1.00  0.00     0.004 C 
ENDBRANCH  30  31
ENDBRANCH  29  30
ENDBRANCH  28  29
ENDBRANCH  27  28
ENDBRANCH  26  27
ENDBRANCH  25  26
ENDBRANCH  24  25
ENDBRANCH  23  24
ENDBRANCH  22  23
ENDBRANCH  21  22
ENDBRANCH  20  21
ENDBRANCH  19  20
ENDBRANCH  18  19
ENDBRANCH   1  18
TORSDOF 28
ENDMDL
MODEL 6
REMARK VINA RESULT:    -4.536      3.624      9.691
REMARK INTER + INTRA:         -16.166
REMARK INTER:                 -12.489
REMARK INTRA:                  -3.677
REMARK UNBOUND:                -4.205
REMARK SMILES CCCCCCCCCCCCCCCCCCCCCCCCCCCCCC(=O)[O-]
REMARK SMILES IDX 16 1 17 2 18 3 19 4 20 5 21 6 22 7 23 8 24 9 25 10 26 11
REMARK SMILES IDX 27 12 28 13 29 14 30 15 31 16 32 17 15 18 14 19 13 20 12 21
REMARK SMILES IDX 11 22 10 23 9 24 8 25 7 26 6 27 5 28 4 29 3 30 2 31 1 32
REMARK H PARENT
REMARK Flexibility Score: inf
ROOT
ATOM      1  C   UNL     1      11.052  -6.295  -0.372  1.00  0.00     0.000 C 
ENDROOT
BRANCH   1   2
ATOM      2  C   UNL     1       9.787  -5.573  -0.866  1.00  0.00     0.000 C 
BRANCH   2   3
ATOM      3  C   UNL     1       9.637  -4.170  -0.257  1.00  0.00     0.000 C 
BRANCH   3   4
ATOM      4  C   UNL     1      10.989  -3.461  -0.071  1.00  0.00     0.000 C 
BRANCH   4   5
ATOM      5  C   UNL     1      10.873  -2.142   0.713  1.00  0.00     0.000 C 
BRANCH   5   6
ATOM      6  C   UNL     1      11.659  -0.971   0.089  1.00  0.00     0.000 C 
BRANCH   6   7
ATOM      7  C   UNL     1      11.440   0.353   0.838  1.00  0.00     0.000 C 
BRANCH   7   8
ATOM      8  C   UNL     1      10.559   0.151   2.076  1.00  0.00     0.000 C 
BRANCH   8   9
ATOM      9  C   UNL     1      11.273   0.642   3.345  1.00  0.00     0.000 C 
BRANCH   9  10
ATOM     10  C   UNL     1      12.667   0.019   3.524  1.00  0.00     0.000 C 
BRANCH  10  11
ATOM     11  C   UNL     1      12.672  -1.384   4.160  1.00  0.00     0.000 C 
BRANCH  11  12
ATOM     12  C   UNL     1      13.923  -2.219   3.814  1.00  0.00     0.000 C 
BRANCH  12  13
ATOM     13  C   UNL     1      13.842  -2.835   2.407  1.00  0.00     0.006 C 
BRANCH  13  14
ATOM     14  C   UNL     1      15.181  -2.762   1.661  1.00  0.00     0.053 C 
BRANCH  14  15
ATOM     15  C   UNL     1      15.663  -1.348   1.532  1.00  0.00     0.041 C 
ATOM     16  O   UNL     1      15.002  -0.513   0.862  1.00  0.00    -0.550 OA
ATOM     17  O   UNL     1      16.823  -0.947   2.183  1.00  0.00    -0.550 OA
ENDBRANCH  14  15
ENDBRANCH  13  14
ENDBRANCH  12  13
ENDBRANCH  11  12
ENDBRANCH  10  11
ENDBRANCH   9  10
ENDBRANCH   8   9
ENDBRANCH   7   8
ENDBRANCH   6   7
ENDBRANCH   5   6
ENDBRANCH   4   5
ENDBRANCH   3   4
ENDBRANCH   2   3
ENDBRANCH   1   2
BRANCH   1  18
ATOM     18  C   UNL     1      11.974  -6.708  -1.531  1.00  0.00     0.000 C 
BRANCH  18  19
ATOM     19  C   UNL     1      12.039  -8.235  -1.709  1.00  0.00     0.000 C 
BRANCH  19  20
ATOM     20  C   UNL     1      12.003  -8.614  -3.193  1.00  0.00     0.000 C 
BRANCH  20  21
ATOM     21  C   UNL     1      11.426  -7.472  -4.043  1.00  0.00     0.000 C 
BRANCH  21  22
ATOM     22  C   UNL     1      12.340  -7.087  -5.217  1.00  0.00     0.000 C 
BRANCH  22  23
ATOM     23  C   UNL     1      11.587  -6.373  -6.349  1.00  0.00     0.000 C 
BRANCH  23  24
ATOM     24  C   UNL     1      11.095  -7.379  -7.397  1.00  0.00    -0.000 C 
BRANCH  24  25
ATOM     25  C   UNL     1       9.626  -7.118  -7.767  1.00  0.00    -0.000 C 
BRANCH  25  26
ATOM     26  C   UNL     1       9.033  -5.952  -6.959  1.00  0.00    -0.000 C 
BRANCH  26  27
ATOM     27  C   UNL     1       7.694  -6.326  -6.283  1.00  0.00    -0.000 C 
BRANCH  27  28
ATOM     28  C   UNL     1       7.879  -7.236  -5.060  1.00  0.00    -0.000 C 
BRANCH  28  29
ATOM     29  C   UNL     1       7.586  -6.493  -3.745  1.00  0.00    -0.000 C 
BRANCH  29  30
ATOM     30  C   UNL     1       7.492  -4.980  -3.972  1.00  0.00    -0.000 C 
BRANCH  30  31
ATOM     31  C   UNL     1       6.087  -4.465  -3.642  1.00  0.00    -0.003 C 
ATOM     32  C   UNL     1       6.074  -3.693  -2.326  1.00  0.00     0.004 C 
ENDBRANCH  30  31
ENDBRANCH  29  30
ENDBRANCH  28  29
ENDBRANCH  27  28
ENDBRANCH  26  27
ENDBRANCH  25  26
ENDBRANCH  24  25
ENDBRANCH  23  24
ENDBRANCH  22  23
ENDBRANCH  21  22
ENDBRANCH  20  21
ENDBRANCH  19  20
ENDBRANCH  18  19
ENDBRANCH   1  18
TORSDOF 28
ENDMDL
MODEL 7
REMARK VINA RESULT:    -4.529      2.912      5.476
REMARK INTER + INTRA:         -16.147
REMARK INTER:                 -12.007
REMARK INTRA:                  -4.140
REMARK UNBOUND:                -4.205
REMARK SMILES CCCCCCCCCCCCCCCCCCCCCCCCCCCCCC(=O)[O-]
REMARK SMILES IDX 16 1 17 2 18 3 19 4 20 5 21 6 22 7 23 8 24 9 25 10 26 11
REMARK SMILES IDX 27 12 28 13 29 14 30 15 31 16 32 17 15 18 14 19 13 20 12 21
REMARK SMILES IDX 11 22 10 23 9 24 8 25 7 26 6 27 5 28 4 29 3 30 2 31 1 32
REMARK H PARENT
REMARK Flexibility Score: inf
ROOT
ATOM      1  C   UNL     1      10.765   0.324   2.479  1.00  0.00     0.000 C 
ENDROOT
BRANCH   1   2
ATOM      2  C   UNL     1      11.045   0.594   0.991  1.00  0.00     0.000 C 
BRANCH   2   3
ATOM      3  C   UNL     1      11.502  -0.667   0.241  1.00  0.00     0.000 C 
BRANCH   3   4
ATOM      4  C   UNL     1      11.048  -1.962   0.935  1.00  0.00     0.000 C 
BRANCH   4   5
ATOM      5  C   UNL     1      11.289  -3.218   0.078  1.00  0.00     0.000 C 
BRANCH   5   6
ATOM      6  C   UNL     1      10.000  -3.980  -0.291  1.00  0.00     0.000 C 
BRANCH   6   7
ATOM      7  C   UNL     1      10.261  -5.461  -0.609  1.00  0.00     0.000 C 
BRANCH   7   8
ATOM      8  C   UNL     1       9.011  -6.133  -1.189  1.00  0.00     0.000 C 
BRANCH   8   9
ATOM      9  C   UNL     1       8.592  -5.467  -2.509  1.00  0.00     0.000 C 
BRANCH   9  10
ATOM     10  C   UNL     1       7.212  -4.792  -2.426  1.00  0.00     0.000 C 
BRANCH  10  11
ATOM     11  C   UNL     1       6.581  -4.441  -3.786  1.00  0.00     0.000 C 
BRANCH  11  12
ATOM     12  C   UNL     1       6.571  -5.615  -4.788  1.00  0.00     0.000 C 
BRANCH  12  13
ATOM     13  C   UNL     1       7.245  -5.248  -6.122  1.00  0.00     0.006 C 
BRANCH  13  14
ATOM     14  C   UNL     1       8.154  -6.369  -6.641  1.00  0.00     0.053 C 
BRANCH  14  15
ATOM     15  C   UNL     1       9.584  -6.145  -6.252  1.00  0.00     0.041 C 
ATOM     16  O   UNL     1      10.226  -5.176  -6.732  1.00  0.00    -0.550 OA
ATOM     17  O   UNL     1      10.194  -6.987  -5.330  1.00  0.00    -0.550 OA
ENDBRANCH  14  15
ENDBRANCH  13  14
ENDBRANCH  12  13
ENDBRANCH  11  12
ENDBRANCH  10  11
ENDBRANCH   9  10
ENDBRANCH   8   9
ENDBRANCH   7   8
ENDBRANCH   6   7
ENDBRANCH   5   6
ENDBRANCH   4   5
ENDBRANCH   3   4
ENDBRANCH   2   3
ENDBRANCH   1   2
BRANCH   1  18
ATOM     18  C   UNL     1      11.853   0.916   3.390  1.00  0.00     0.000 C 
BRANCH  18  19
ATOM     19  C   UNL     1      12.205  -0.018   4.560  1.00  0.00     0.000 C 
BRANCH  19  20
ATOM     20  C   UNL     1      12.760  -1.352   4.047  1.00  0.00     0.000 C 
BRANCH  20  21
ATOM     21  C   UNL     1      13.965  -1.131   3.121  1.00  0.00     0.000 C 
BRANCH  21  22
ATOM     22  C   UNL     1      14.460  -2.433   2.471  1.00  0.00     0.000 C 
BRANCH  22  23
ATOM     23  C   UNL     1      15.358  -2.186   1.251  1.00  0.00     0.000 C 
BRANCH  23  24
ATOM     24  C   UNL     1      15.130  -0.781   0.681  1.00  0.00    -0.000 C 
BRANCH  24  25
ATOM     25  C   UNL     1      16.369  -0.287  -0.084  1.00  0.00    -0.000 C 
BRANCH  25  26
ATOM     26  C   UNL     1      17.403   0.351   0.857  1.00  0.00    -0.000 C 
BRANCH  26  27
ATOM     27  C   UNL     1      16.742   1.066   2.058  1.00  0.00    -0.000 C 
BRANCH  27  28
ATOM     28  C   UNL     1      17.299   0.596   3.410  1.00  0.00    -0.000 C 
BRANCH  28  29
ATOM     29  C   UNL     1      18.117  -0.699   3.272  1.00  0.00    -0.000 C 
BRANCH  29  30
ATOM     30  C   UNL     1      18.126  -1.492   4.584  1.00  0.00    -0.000 C 
BRANCH  30  31
ATOM     31  C   UNL     1      16.764  -1.408   5.282  1.00  0.00    -0.003 C 
ATOM     32  C   UNL     1      16.321  -2.773   5.800  1.00  0.00     0.004 C 
ENDBRANCH  30  31
ENDBRANCH  29  30
ENDBRANCH  28  29
ENDBRANCH  27  28
ENDBRANCH  26  27
ENDBRANCH  25  26
ENDBRANCH  24  25
ENDBRANCH  23  24
ENDBRANCH  22  23
ENDBRANCH  21  22
ENDBRANCH  20  21
ENDBRANCH  19  20
ENDBRANCH  18  19
ENDBRANCH   1  18
TORSDOF 28
ENDMDL
MODEL 8
REMARK VINA RESULT:    -4.507      3.653      9.590
REMARK INTER + INTRA:         -16.090
REMARK INTER:                 -12.448
REMARK INTRA:                  -3.641
REMARK UNBOUND:                -4.205
REMARK SMILES CCCCCCCCCCCCCCCCCCCCCCCCCCCCCC(=O)[O-]
REMARK SMILES IDX 16 1 17 2 18 3 19 4 20 5 21 6 22 7 23 8 24 9 25 10 26 11
REMARK SMILES IDX 27 12 28 13 29 14 30 15 31 16 32 17 15 18 14 19 13 20 12 21
REMARK SMILES IDX 11 22 10 23 9 24 8 25 7 26 6 27 5 28 4 29 3 30 2 31 1 32
REMARK H PARENT
REMARK Flexibility Score: inf
ROOT
ATOM      1  C   UNL     1      10.162  -4.262  -0.287  1.00  0.00     0.000 C 
ENDROOT
BRANCH   1   2
ATOM      2  C   UNL     1      11.371  -3.386   0.084  1.00  0.00     0.000 C 
BRANCH   2   3
ATOM      3  C   UNL     1      10.958  -2.090   0.798  1.00  0.00     0.000 C 
BRANCH   3   4
ATOM      4  C   UNL     1      11.614  -0.842   0.182  1.00  0.00     0.000 C 
BRANCH   4   5
ATOM      5  C   UNL     1      11.149   0.468   0.841  1.00  0.00     0.000 C 
BRANCH   5   6
ATOM      6  C   UNL     1      10.054   0.277   1.910  1.00  0.00     0.000 C 
BRANCH   6   7
ATOM      7  C   UNL     1      10.597   0.410   3.341  1.00  0.00     0.000 C 
BRANCH   7   8
ATOM      8  C   UNL     1      12.095   0.736   3.338  1.00  0.00     0.000 C 
BRANCH   8   9
ATOM      9  C   UNL     1      12.848  -0.127   4.363  1.00  0.00     0.000 C 
BRANCH   9  10
ATOM     10  C   UNL     1      12.787  -1.629   4.039  1.00  0.00     0.000 C 
BRANCH  10  11
ATOM     11  C   UNL     1      14.145  -2.274   3.704  1.00  0.00     0.000 C 
BRANCH  11  12
ATOM     12  C   UNL     1      14.204  -2.903   2.296  1.00  0.00     0.000 C 
BRANCH  12  13
ATOM     13  C   UNL     1      15.313  -2.285   1.427  1.00  0.00     0.006 C 
BRANCH  13  14
ATOM     14  C   UNL     1      15.120  -0.776   1.226  1.00  0.00     0.053 C 
BRANCH  14  15
ATOM     15  C   UNL     1      15.924  -0.267   0.068  1.00  0.00     0.041 C 
ATOM     16  O   UNL     1      15.376  -0.080  -1.050  1.00  0.00    -0.550 OA
ATOM     17  O   UNL     1      17.270   0.035   0.235  1.00  0.00    -0.550 OA
ENDBRANCH  14  15
ENDBRANCH  13  14
ENDBRANCH  12  13
ENDBRANCH  11  12
ENDBRANCH  10  11
ENDBRANCH   9  10
ENDBRANCH   8   9
ENDBRANCH   7   8
ENDBRANCH   6   7
ENDBRANCH   5   6
ENDBRANCH   4   5
ENDBRANCH   3   4
ENDBRANCH   2   3
ENDBRANCH   1   2
BRANCH   1  18
ATOM     18  C   UNL     1      10.571  -5.710  -0.603  1.00  0.00     0.000 C 
BRANCH  18  19
ATOM     19  C   UNL     1       9.365  -6.586  -0.983  1.00  0.00     0.000 C 
BRANCH  19  20
ATOM     20  C   UNL     1       8.446  -5.854  -1.968  1.00  0.00     0.000 C 
BRANCH  20  21
ATOM     21  C   UNL     1       8.518  -6.485  -3.367  1.00  0.00     0.000 C 
BRANCH  21  22
ATOM     22  C   UNL     1       7.149  -6.538  -4.064  1.00  0.00     0.000 C 
BRANCH  22  23
ATOM     23  C   UNL     1       6.935  -5.378  -5.046  1.00  0.00     0.000 C 
BRANCH  23  24
ATOM     24  C   UNL     1       8.270  -4.711  -5.401  1.00  0.00    -0.000 C 
BRANCH  24  25
ATOM     25  C   UNL     1       8.795  -5.211  -6.757  1.00  0.00    -0.000 C 
BRANCH  25  26
ATOM     26  C   UNL     1      10.128  -5.961  -6.609  1.00  0.00    -0.000 C 
BRANCH  26  27
ATOM     27  C   UNL     1      10.357  -6.982  -7.748  1.00  0.00    -0.000 C 
BRANCH  27  28
ATOM     28  C   UNL     1      10.434  -8.430  -7.243  1.00  0.00    -0.000 C 
BRANCH  28  29
ATOM     29  C   UNL     1      10.862  -8.498  -5.767  1.00  0.00    -0.000 C 
BRANCH  29  30
ATOM     30  C   UNL     1      12.341  -8.882  -5.635  1.00  0.00    -0.000 C 
BRANCH  30  31
ATOM     31  C   UNL     1      12.903  -8.432  -4.282  1.00  0.00    -0.003 C 
ATOM     32  C   UNL     1      12.065  -7.308  -3.679  1.00  0.00     0.004 C 
ENDBRANCH  30  31
ENDBRANCH  29  30
ENDBRANCH  28  29
ENDBRANCH  27  28
ENDBRANCH  26  27
ENDBRANCH  25  26
ENDBRANCH  24  25
ENDBRANCH  23  24
ENDBRANCH  22  23
ENDBRANCH  21  22
ENDBRANCH  20  21
ENDBRANCH  19  20
ENDBRANCH  18  19
ENDBRANCH   1  18
TORSDOF 28
ENDMDL
MODEL 9
REMARK VINA RESULT:    -4.498      1.973      3.444
REMARK INTER + INTRA:         -16.065
REMARK INTER:                 -12.308
REMARK INTRA:                  -3.758
REMARK UNBOUND:                -4.205
REMARK SMILES CCCCCCCCCCCCCCCCCCCCCCCCCCCCCC(=O)[O-]
REMARK SMILES IDX 16 1 17 2 18 3 19 4 20 5 21 6 22 7 23 8 24 9 25 10 26 11
REMARK SMILES IDX 27 12 28 13 29 14 30 15 31 16 32 17 15 18 14 19 13 20 12 21
REMARK SMILES IDX 11 22 10 23 9 24 8 25 7 26 6 27 5 28 4 29 3 30 2 31 1 32
REMARK H PARENT
REMARK Flexibility Score: inf
ROOT
ATOM      1  C   UNL     1      10.987  -2.059   0.727  1.00  0.00     0.000 C 
ENDROOT
BRANCH   1   2
ATOM      2  C   UNL     1      11.257  -3.289  -0.157  1.00  0.00     0.000 C 
BRANCH   2   3
ATOM      3  C   UNL     1      10.025  -4.198  -0.289  1.00  0.00     0.000 C 
BRANCH   3   4
ATOM      4  C   UNL     1      10.395  -5.644  -0.661  1.00  0.00     0.000 C 
BRANCH   4   5
ATOM      5  C   UNL     1      11.844  -6.006  -0.293  1.00  0.00     0.000 C 
BRANCH   5   6
ATOM      6  C   UNL     1      12.408  -7.206  -1.081  1.00  0.00     0.000 C 
BRANCH   6   7
ATOM      7  C   UNL     1      11.882  -7.265  -2.523  1.00  0.00     0.000 C 
BRANCH   7   8
ATOM      8  C   UNL     1      11.165  -8.591  -2.799  1.00  0.00     0.000 C 
BRANCH   8   9
ATOM      9  C   UNL     1      10.077  -8.416  -3.871  1.00  0.00     0.000 C 
BRANCH   9  10
ATOM     10  C   UNL     1       8.857  -7.632  -3.360  1.00  0.00     0.000 C 
BRANCH  10  11
ATOM     11  C   UNL     1       8.721  -6.206  -3.927  1.00  0.00     0.000 C 
BRANCH  11  12
ATOM     12  C   UNL     1       7.637  -5.360  -3.227  1.00  0.00     0.000 C 
BRANCH  12  13
ATOM     13  C   UNL     1       6.710  -4.654  -4.232  1.00  0.00     0.006 C 
BRANCH  13  14
ATOM     14  C   UNL     1       5.356  -4.282  -3.612  1.00  0.00     0.053 C 
BRANCH  14  15
ATOM     15  C   UNL     1       4.214  -4.729  -4.474  1.00  0.00     0.041 C 
ATOM     16  O   UNL     1       3.299  -5.445  -3.992  1.00  0.00    -0.550 OA
ATOM     17  O   UNL     1       4.144  -4.323  -5.801  1.00  0.00    -0.550 OA
ENDBRANCH  14  15
ENDBRANCH  13  14
ENDBRANCH  12  13
ENDBRANCH  11  12
ENDBRANCH  10  11
ENDBRANCH   9  10
ENDBRANCH   8   9
ENDBRANCH   7   8
ENDBRANCH   6   7
ENDBRANCH   5   6
ENDBRANCH   4   5
ENDBRANCH   3   4
ENDBRANCH   2   3
ENDBRANCH   1   2
BRANCH   1  18
ATOM     18  C   UNL     1      11.637  -0.786   0.162  1.00  0.00     0.000 C 
BRANCH  18  19
ATOM     19  C   UNL     1      11.215   0.476   0.935  1.00  0.00     0.000 C 
BRANCH  19  20
ATOM     20  C   UNL     1      10.065   0.166   1.900  1.00  0.00     0.000 C 
BRANCH  20  21
ATOM     21  C   UNL     1      10.443   0.524   3.345  1.00  0.00     0.000 C 
BRANCH  21  22
ATOM     22  C   UNL     1      11.959   0.463   3.593  1.00  0.00     0.000 C 
BRANCH  22  23
ATOM     23  C   UNL     1      12.407  -0.864   4.221  1.00  0.00     0.000 C 
BRANCH  23  24
ATOM     24  C   UNL     1      13.936  -0.933   4.318  1.00  0.00    -0.000 C 
BRANCH  24  25
ATOM     25  C   UNL     1      14.446  -2.353   4.021  1.00  0.00    -0.000 C 
BRANCH  25  26
ATOM     26  C   UNL     1      14.020  -2.830   2.624  1.00  0.00    -0.000 C 
BRANCH  26  27
ATOM     27  C   UNL     1      15.111  -2.576   1.558  1.00  0.00    -0.000 C 
BRANCH  27  28
ATOM     28  C   UNL     1      14.903  -1.261   0.794  1.00  0.00    -0.000 C 
BRANCH  28  29
ATOM     29  C   UNL     1      16.203  -0.446   0.694  1.00  0.00    -0.000 C 
BRANCH  29  30
ATOM     30  C   UNL     1      16.366   0.490   1.898  1.00  0.00    -0.000 C 
BRANCH  30  31
ATOM     31  C   UNL     1      17.747   0.319   2.539  1.00  0.00    -0.003 C 
ATOM     32  C   UNL     1      17.754  -0.827   3.546  1.00  0.00     0.004 C 
ENDBRANCH  30  31
ENDBRANCH  29  30
ENDBRANCH  28  29
ENDBRANCH  27  28
ENDBRANCH  26  27
ENDBRANCH  25  26
ENDBRANCH  24  25
ENDBRANCH  23  24
ENDBRANCH  22  23
ENDBRANCH  21  22
ENDBRANCH  20  21
ENDBRANCH  19  20
ENDBRANCH  18  19
ENDBRANCH   1  18
TORSDOF 28
ENDMDL
