MODEL 1
REMARK VINA RESULT:    -8.813      0.000      0.000
REMARK INTER + INTRA:         -13.335
REMARK INTER:                 -12.935
REMARK INTRA:                  -0.400
REMARK UNBOUND:                -0.400
REMARK SMILES O=c1c(O[C@@H]2O[C@@H](CO)[C@H](O)[C@H](O)[C@@H]2O)c(-c2ccc(O)c(O)c2)oc2cc(O)cc(O)c12
REMARK SMILES IDX 4 1 3 2 16 3 25 4 2 5 26 6 1 7 33 8 27 9 31 10 28 11 30 12
REMARK SMILES IDX 17 13 18 14 19 15 20 16 24 17 22 18 21 19 23 21 32 23 29 25
REMARK SMILES IDX 5 27 14 28 6 29 12 30 7 31 10 32 15 33 13 35 8 37 9 38 11 40
REMARK H PARENT 21 20 23 22 32 24 29 26 15 34 13 36 9 39 11 41
REMARK Flexibility Score: inf
ROOT
ATOM      1  O   UNL     1      31.250  32.771  39.116  1.00  0.00    -0.454 OA
ENDROOT
BRANCH   1   2
ATOM      2  C   UNL     1      31.562  33.586  38.016  1.00  0.00     0.214 A 
ATOM      3  C   UNL     1      30.890  34.809  37.828  1.00  0.00     0.180 A 
ATOM      4  O   UNL     1      31.122  35.539  36.742  1.00  0.00    -0.452 OA
ATOM      5  C   UNL     1      32.544  33.209  37.083  1.00  0.00     0.239 A 
ATOM      6  C   UNL     1      32.006  35.196  35.813  1.00  0.00     0.146 A 
ATOM      7  O   UNL     1      33.226  32.169  37.284  1.00  0.00    -0.285 OA
ATOM      8  C   UNL     1      32.771  34.013  35.946  1.00  0.00     0.111 A 
ATOM      9  C   UNL     1      32.184  36.027  34.702  1.00  0.00     0.094 A 
ATOM     10  C   UNL     1      33.718  33.688  34.946  1.00  0.00     0.134 A 
ATOM     11  C   UNL     1      33.119  35.699  33.716  1.00  0.00     0.123 A 
ATOM     12  C   UNL     1      33.881  34.535  33.840  1.00  0.00     0.093 A 
BRANCH   3  13
ATOM     13  C   UNL     1      29.901  35.304  38.803  1.00  0.00     0.025 A 
ATOM     14  C   UNL     1      29.921  36.651  39.193  1.00  0.00     0.016 A 
ATOM     15  C   UNL     1      28.968  37.139  40.090  1.00  0.00     0.051 A 
ATOM     16  C   UNL     1      27.994  36.285  40.620  1.00  0.00     0.157 A 
ATOM     17  C   UNL     1      28.943  34.440  39.358  1.00  0.00     0.062 A 
ATOM     18  C   UNL     1      27.982  34.928  40.256  1.00  0.00     0.158 A 
BRANCH  16  19
ATOM     19  O   UNL     1      27.049  36.802  41.505  1.00  0.00    -0.504 OA
ATOM     20  H   UNL     1      27.000  37.791  41.722  1.00  0.00     0.293 HD
ENDBRANCH  16  19
BRANCH  18  21
ATOM     21  O   UNL     1      27.019  34.071  40.784  1.00  0.00    -0.504 OA
ATOM     22  H   UNL     1      26.031  34.290  40.737  1.00  0.00     0.293 HD
ENDBRANCH  18  21
ENDBRANCH   3  13
BRANCH  10  23
ATOM     23  O   UNL     1      34.493  32.531  35.039  1.00  0.00    -0.507 OA
ATOM     24  H   UNL     1      34.551  31.865  34.277  1.00  0.00     0.293 HD
ENDBRANCH  10  23
BRANCH  11  25
ATOM     25  O   UNL     1      33.299  36.524  32.607  1.00  0.00    -0.508 OA
ATOM     26  H   UNL     1      32.845  37.426  32.539  1.00  0.00     0.293 HD
ENDBRANCH  11  25
ENDBRANCH   1   2
BRANCH   1  27
ATOM     27  C   UNL     1      32.227  31.968  39.792  1.00  0.00     0.339 C 
ATOM     28  C   UNL     1      32.646  32.574  41.152  1.00  0.00     0.214 C 
ATOM     29  O   UNL     1      31.774  30.631  39.940  1.00  0.00    -0.332 OA
ATOM     30  C   UNL     1      31.567  32.407  42.245  1.00  0.00     0.180 C 
ATOM     31  C   UNL     1      30.632  30.549  40.780  1.00  0.00     0.179 C 
ATOM     32  C   UNL     1      30.989  30.977  42.226  1.00  0.00     0.177 C 
BRANCH  28  33
ATOM     33  O   UNL     1      33.057  33.914  41.023  1.00  0.00    -0.384 OA
ATOM     34  H   UNL     1      33.533  34.007  40.158  1.00  0.00     0.211 HD
ENDBRANCH  28  33
BRANCH  30  35
ATOM     35  O   UNL     1      30.559  33.386  42.158  1.00  0.00    -0.387 OA
ATOM     36  H   UNL     1      30.239  33.421  41.223  1.00  0.00     0.211 HD
ENDBRANCH  30  35
BRANCH  31  37
ATOM     37  C   UNL     1      30.111  29.107  40.726  1.00  0.00     0.191 C 
BRANCH  37  38
ATOM     38  O   UNL     1      30.539  28.390  41.851  1.00  0.00    -0.394 OA
ATOM     39  H   UNL     1      31.477  28.122  41.668  1.00  0.00     0.210 HD
ENDBRANCH  37  38
ENDBRANCH  31  37
BRANCH  32  40
ATOM     40  O   UNL     1      29.852  30.930  43.054  1.00  0.00    -0.387 OA
ATOM     41  H   UNL     1      29.280  30.190  42.727  1.00  0.00     0.211 HD
ENDBRANCH  32  40
ENDBRANCH   1  27
TORSDOF 12
ENDMDL
MODEL 2
REMARK VINA RESULT:    -8.706      1.643      4.910
REMARK INTER + INTRA:         -13.177
REMARK INTER:                 -12.105
REMARK INTRA:                  -1.073
REMARK UNBOUND:                -0.400
REMARK SMILES O=c1c(O[C@@H]2O[C@@H](CO)[C@H](O)[C@H](O)[C@@H]2O)c(-c2ccc(O)c(O)c2)oc2cc(O)cc(O)c12
REMARK SMILES IDX 4 1 3 2 16 3 25 4 2 5 26 6 1 7 33 8 27 9 31 10 28 11 30 12
REMARK SMILES IDX 17 13 18 14 19 15 20 16 24 17 22 18 21 19 23 21 32 23 29 25
REMARK SMILES IDX 5 27 14 28 6 29 12 30 7 31 10 32 15 33 13 35 8 37 9 38 11 40
REMARK H PARENT 21 20 23 22 32 24 29 26 15 34 13 36 9 39 11 41
REMARK Flexibility Score: inf
ROOT
ATOM      1  O   UNL     1      30.225  34.818  38.801  1.00  0.00    -0.454 OA
ENDROOT
BRANCH   1   2
ATOM      2  C   UNL     1      31.149  34.327  37.864  1.00  0.00     0.214 A 
ATOM      3  C   UNL     1      31.976  33.235  38.190  1.00  0.00     0.180 A 
ATOM      4  O   UNL     1      32.909  32.826  37.337  1.00  0.00    -0.452 OA
ATOM      5  C   UNL     1      31.271  34.904  36.588  1.00  0.00     0.239 A 
ATOM      6  C   UNL     1      33.090  33.374  36.141  1.00  0.00     0.146 A 
ATOM      7  O   UNL     1      30.474  35.816  36.239  1.00  0.00    -0.285 OA
ATOM      8  C   UNL     1      32.268  34.439  35.704  1.00  0.00     0.111 A 
ATOM      9  C   UNL     1      34.099  32.877  35.310  1.00  0.00     0.094 A 
ATOM     10  C   UNL     1      32.475  34.986  34.415  1.00  0.00     0.134 A 
ATOM     11  C   UNL     1      34.301  33.424  34.039  1.00  0.00     0.123 A 
ATOM     12  C   UNL     1      33.492  34.472  33.597  1.00  0.00     0.093 A 
BRANCH   3  13
ATOM     13  C   UNL     1      31.855  32.533  39.481  1.00  0.00     0.025 A 
ATOM     14  C   UNL     1      32.629  32.948  40.575  1.00  0.00     0.016 A 
ATOM     15  C   UNL     1      32.498  32.311  41.811  1.00  0.00     0.051 A 
ATOM     16  C   UNL     1      31.605  31.246  41.967  1.00  0.00     0.157 A 
ATOM     17  C   UNL     1      30.981  31.444  39.628  1.00  0.00     0.062 A 
ATOM     18  C   UNL     1      30.844  30.807  40.870  1.00  0.00     0.158 A 
BRANCH  16  19
ATOM     19  O   UNL     1      31.487  30.637  43.215  1.00  0.00    -0.504 OA
ATOM     20  H   UNL     1      30.923  29.807  43.358  1.00  0.00     0.293 HD
ENDBRANCH  16  19
BRANCH  18  21
ATOM     21  O   UNL     1      29.957  29.742  41.016  1.00  0.00    -0.504 OA
ATOM     22  H   UNL     1      30.113  28.854  40.553  1.00  0.00     0.293 HD
ENDBRANCH  18  21
ENDBRANCH   3  13
BRANCH  10  23
ATOM     23  O   UNL     1      31.686  36.036  33.944  1.00  0.00    -0.507 OA
ATOM     24  H   UNL     1      32.078  36.947  33.738  1.00  0.00     0.293 HD
ENDBRANCH  10  23
BRANCH  11  25
ATOM     25  O   UNL     1      35.306  32.932  33.207  1.00  0.00    -0.508 OA
ATOM     26  H   UNL     1      36.283  32.996  33.462  1.00  0.00     0.293 HD
ENDBRANCH  11  25
ENDBRANCH   1   2
BRANCH   1  27
ATOM     27  C   UNL     1      29.103  34.054  39.263  1.00  0.00     0.339 C 
ATOM     28  C   UNL     1      28.571  34.557  40.625  1.00  0.00     0.214 C 
ATOM     29  O   UNL     1      28.074  34.020  38.287  1.00  0.00    -0.332 OA
ATOM     30  C   UNL     1      27.784  35.882  40.514  1.00  0.00     0.180 C 
ATOM     31  C   UNL     1      27.527  35.309  38.049  1.00  0.00     0.179 C 
ATOM     32  C   UNL     1      26.813  35.840  39.317  1.00  0.00     0.177 C 
BRANCH  28  33
ATOM     33  O   UNL     1      29.594  34.635  41.589  1.00  0.00    -0.384 OA
ATOM     34  H   UNL     1      30.050  33.755  41.625  1.00  0.00     0.211 HD
ENDBRANCH  28  33
BRANCH  30  35
ATOM     35  O   UNL     1      28.631  37.006  40.468  1.00  0.00    -0.387 OA
ATOM     36  H   UNL     1      28.655  37.340  39.538  1.00  0.00     0.211 HD
ENDBRANCH  30  35
BRANCH  31  37
ATOM     37  C   UNL     1      26.566  35.200  36.858  1.00  0.00     0.191 C 
BRANCH  37  38
ATOM     38  O   UNL     1      27.282  35.080  35.660  1.00  0.00    -0.394 OA
ATOM     39  H   UNL     1      26.614  34.858  34.960  1.00  0.00     0.210 HD
ENDBRANCH  37  38
ENDBRANCH  31  37
BRANCH  32  40
ATOM     40  O   UNL     1      26.300  37.130  39.096  1.00  0.00    -0.387 OA
ATOM     41  H   UNL     1      26.951  37.776  39.475  1.00  0.00     0.211 HD
ENDBRANCH  32  40
ENDBRANCH   1  27
TORSDOF 12
ENDMDL
MODEL 3
REMARK VINA RESULT:    -8.617      1.527      2.491
REMARK INTER + INTRA:         -13.048
REMARK INTER:                 -11.866
REMARK INTRA:                  -1.182
REMARK UNBOUND:                -0.400
REMARK SMILES O=c1c(O[C@@H]2O[C@@H](CO)[C@H](O)[C@H](O)[C@@H]2O)c(-c2ccc(O)c(O)c2)oc2cc(O)cc(O)c12
REMARK SMILES IDX 4 1 3 2 16 3 25 4 2 5 26 6 1 7 33 8 27 9 31 10 28 11 30 12
REMARK SMILES IDX 17 13 18 14 19 15 20 16 24 17 22 18 21 19 23 21 32 23 29 25
REMARK SMILES IDX 5 27 14 28 6 29 12 30 7 31 10 32 15 33 13 35 8 37 9 38 11 40
REMARK H PARENT 21 20 23 22 32 24 29 26 15 34 13 36 9 39 11 41
REMARK Flexibility Score: inf
ROOT
ATOM      1  O   UNL     1      31.118  32.615  38.610  1.00  0.00    -0.454 OA
ENDROOT
BRANCH   1   2
ATOM      2  C   UNL     1      31.505  33.487  37.579  1.00  0.00     0.214 A 
ATOM      3  C   UNL     1      30.916  34.761  37.471  1.00  0.00     0.180 A 
ATOM      4  O   UNL     1      31.219  35.552  36.447  1.00  0.00    -0.452 OA
ATOM      5  C   UNL     1      32.483  33.117  36.639  1.00  0.00     0.239 A 
ATOM      6  C   UNL     1      32.101  35.222  35.511  1.00  0.00     0.146 A 
ATOM      7  O   UNL     1      33.094  32.023  36.774  1.00  0.00    -0.285 OA
ATOM      8  C   UNL     1      32.786  33.986  35.569  1.00  0.00     0.111 A 
ATOM      9  C   UNL     1      32.356  36.119  34.468  1.00  0.00     0.094 A 
ATOM     10  C   UNL     1      33.734  33.675  34.565  1.00  0.00     0.134 A 
ATOM     11  C   UNL     1      33.291  35.804  33.478  1.00  0.00     0.123 A 
ATOM     12  C   UNL     1      33.975  34.589  33.529  1.00  0.00     0.093 A 
BRANCH   3  13
ATOM     13  C   UNL     1      29.938  35.246  38.462  1.00  0.00     0.025 A 
ATOM     14  C   UNL     1      28.798  35.941  38.033  1.00  0.00     0.016 A 
ATOM     15  C   UNL     1      27.848  36.376  38.960  1.00  0.00     0.051 A 
ATOM     16  C   UNL     1      28.033  36.136  40.326  1.00  0.00     0.157 A 
ATOM     17  C   UNL     1      30.139  35.033  39.835  1.00  0.00     0.062 A 
ATOM     18  C   UNL     1      29.185  35.465  40.768  1.00  0.00     0.158 A 
BRANCH  16  19
ATOM     19  O   UNL     1      27.063  36.573  41.227  1.00  0.00    -0.504 OA
ATOM     20  H   UNL     1      26.391  35.938  41.644  1.00  0.00     0.293 HD
ENDBRANCH  16  19
BRANCH  18  21
ATOM     21  O   UNL     1      29.378  35.227  42.127  1.00  0.00    -0.504 OA
ATOM     22  H   UNL     1      30.108  35.699  42.650  1.00  0.00     0.293 HD
ENDBRANCH  18  21
ENDBRANCH   3  13
BRANCH  10  23
ATOM     23  O   UNL     1      34.432  32.466  34.585  1.00  0.00    -0.507 OA
ATOM     24  H   UNL     1      35.050  32.221  35.350  1.00  0.00     0.293 HD
ENDBRANCH  10  23
BRANCH  11  25
ATOM     25  O   UNL     1      33.548  36.696  32.437  1.00  0.00    -0.508 OA
ATOM     26  H   UNL     1      33.282  36.486  31.483  1.00  0.00     0.293 HD
ENDBRANCH  11  25
ENDBRANCH   1   2
BRANCH   1  27
ATOM     27  C   UNL     1      30.438  31.376  38.368  1.00  0.00     0.339 C 
ATOM     28  C   UNL     1      30.344  30.500  39.639  1.00  0.00     0.214 C 
ATOM     29  O   UNL     1      29.158  31.600  37.798  1.00  0.00    -0.332 OA
ATOM     30  C   UNL     1      29.301  31.019  40.653  1.00  0.00     0.180 C 
ATOM     31  C   UNL     1      28.295  32.288  38.692  1.00  0.00     0.179 C 
ATOM     32  C   UNL     1      27.995  31.416  39.937  1.00  0.00     0.177 C 
BRANCH  28  33
ATOM     33  O   UNL     1      31.604  30.307  40.235  1.00  0.00    -0.384 OA
ATOM     34  H   UNL     1      31.568  29.470  40.767  1.00  0.00     0.211 HD
ENDBRANCH  28  33
BRANCH  30  35
ATOM     35  O   UNL     1      29.805  32.064  41.452  1.00  0.00    -0.387 OA
ATOM     36  H   UNL     1      29.904  31.729  42.377  1.00  0.00     0.211 HD
ENDBRANCH  30  35
BRANCH  31  37
ATOM     37  C   UNL     1      27.014  32.646  37.926  1.00  0.00     0.191 C 
BRANCH  37  38
ATOM     38  O   UNL     1      26.187  33.460  38.710  1.00  0.00    -0.394 OA
ATOM     39  H   UNL     1      26.144  33.031  39.605  1.00  0.00     0.210 HD
ENDBRANCH  37  38
ENDBRANCH  31  37
BRANCH  32  40
ATOM     40  O   UNL     1      27.167  32.108  40.841  1.00  0.00    -0.387 OA
ATOM     41  H   UNL     1      27.033  31.519  41.628  1.00  0.00     0.211 HD
ENDBRANCH  32  40
ENDBRANCH   1  27
TORSDOF 12
ENDMDL
MODEL 4
REMARK VINA RESULT:    -8.541      3.383      4.773
REMARK INTER + INTRA:         -12.935
REMARK INTER:                 -10.984
REMARK INTRA:                  -1.951
REMARK UNBOUND:                -0.400
REMARK SMILES O=c1c(O[C@@H]2O[C@@H](CO)[C@H](O)[C@H](O)[C@@H]2O)c(-c2ccc(O)c(O)c2)oc2cc(O)cc(O)c12
REMARK SMILES IDX 4 1 3 2 16 3 25 4 2 5 26 6 1 7 33 8 27 9 31 10 28 11 30 12
REMARK SMILES IDX 17 13 18 14 19 15 20 16 24 17 22 18 21 19 23 21 32 23 29 25
REMARK SMILES IDX 5 27 14 28 6 29 12 30 7 31 10 32 15 33 13 35 8 37 9 38 11 40
REMARK H PARENT 21 20 23 22 32 24 29 26 15 34 13 36 9 39 11 41
REMARK Flexibility Score: inf
ROOT
ATOM      1  O   UNL     1      30.810  30.105  36.036  1.00  0.00    -0.454 OA
ENDROOT
BRANCH   1   2
ATOM      2  C   UNL     1      31.289  31.403  35.793  1.00  0.00     0.214 A 
ATOM      3  C   UNL     1      30.817  32.486  36.558  1.00  0.00     0.180 A 
ATOM      4  O   UNL     1      31.205  33.725  36.272  1.00  0.00    -0.452 OA
ATOM      5  C   UNL     1      32.245  31.652  34.794  1.00  0.00     0.239 A 
ATOM      6  C   UNL     1      32.069  34.010  35.305  1.00  0.00     0.146 A 
ATOM      7  O   UNL     1      32.754  30.686  34.165  1.00  0.00    -0.285 OA
ATOM      8  C   UNL     1      32.641  32.979  34.522  1.00  0.00     0.111 A 
ATOM      9  C   UNL     1      32.419  35.344  35.075  1.00  0.00     0.094 A 
ATOM     10  C   UNL     1      33.574  33.317  33.513  1.00  0.00     0.134 A 
ATOM     11  C   UNL     1      33.338  35.672  34.074  1.00  0.00     0.123 A 
ATOM     12  C   UNL     1      33.912  34.661  33.299  1.00  0.00     0.093 A 
BRANCH   3  13
ATOM     13  C   UNL     1      29.870  32.292  37.671  1.00  0.00     0.025 A 
ATOM     14  C   UNL     1      28.492  32.426  37.445  1.00  0.00     0.016 A 
ATOM     15  C   UNL     1      27.584  32.211  38.484  1.00  0.00     0.051 A 
ATOM     16  C   UNL     1      28.040  31.875  39.764  1.00  0.00     0.157 A 
ATOM     17  C   UNL     1      30.330  31.985  38.961  1.00  0.00     0.062 A 
ATOM     18  C   UNL     1      29.420  31.765  40.006  1.00  0.00     0.158 A 
BRANCH  16  19
ATOM     19  O   UNL     1      27.110  31.656  40.778  1.00  0.00    -0.504 OA
ATOM     20  H   UNL     1      26.135  31.464  40.582  1.00  0.00     0.293 HD
ENDBRANCH  16  19
BRANCH  18  21
ATOM     21  O   UNL     1      29.882  31.436  41.279  1.00  0.00    -0.504 OA
ATOM     22  H   UNL     1      30.799  31.724  41.601  1.00  0.00     0.293 HD
ENDBRANCH  18  21
ENDBRANCH   3  13
BRANCH  10  23
ATOM     23  O   UNL     1      34.162  32.332  32.719  1.00  0.00    -0.507 OA
ATOM     24  H   UNL     1      34.025  31.345  32.905  1.00  0.00     0.293 HD
ENDBRANCH  10  23
BRANCH  11  25
ATOM     25  O   UNL     1      33.690  37.000  33.842  1.00  0.00    -0.508 OA
ATOM     26  H   UNL     1      34.521  37.245  33.318  1.00  0.00     0.293 HD
ENDBRANCH  11  25
ENDBRANCH   1   2
BRANCH   1  27
ATOM     27  C   UNL     1      29.702  29.538  35.323  1.00  0.00     0.339 C 
ATOM     28  C   UNL     1      30.079  28.221  34.604  1.00  0.00     0.214 C 
ATOM     29  O   UNL     1      28.585  29.357  36.179  1.00  0.00    -0.332 OA
ATOM     30  C   UNL     1      30.231  27.027  35.572  1.00  0.00     0.180 C 
ATOM     31  C   UNL     1      28.849  28.408  37.201  1.00  0.00     0.179 C 
ATOM     32  C   UNL     1      29.074  27.001  36.592  1.00  0.00     0.177 C 
BRANCH  28  33
ATOM     33  O   UNL     1      31.213  28.379  33.785  1.00  0.00    -0.384 OA
ATOM     34  H   UNL     1      31.253  27.607  33.164  1.00  0.00     0.211 HD
ENDBRANCH  28  33
BRANCH  30  35
ATOM     35  O   UNL     1      31.491  27.004  36.201  1.00  0.00    -0.387 OA
ATOM     36  H   UNL     1      32.184  27.173  35.517  1.00  0.00     0.211 HD
ENDBRANCH  30  35
BRANCH  31  37
ATOM     37  C   UNL     1      27.663  28.422  38.175  1.00  0.00     0.191 C 
BRANCH  37  38
ATOM     38  O   UNL     1      26.803  27.347  37.914  1.00  0.00    -0.394 OA
ATOM     39  H   UNL     1      26.049  27.434  38.555  1.00  0.00     0.210 HD
ENDBRANCH  37  38
ENDBRANCH  31  37
BRANCH  32  40
ATOM     40  O   UNL     1      29.370  26.064  37.598  1.00  0.00    -0.387 OA
ATOM     41  H   UNL     1      29.958  25.374  37.196  1.00  0.00     0.211 HD
ENDBRANCH  32  40
ENDBRANCH   1  27
TORSDOF 12
ENDMDL
MODEL 5
REMARK VINA RESULT:    -8.517      1.558      5.149
REMARK INTER + INTRA:         -12.900
REMARK INTER:                 -12.349
REMARK INTRA:                  -0.551
REMARK UNBOUND:                -0.400
REMARK SMILES O=c1c(O[C@@H]2O[C@@H](CO)[C@H](O)[C@H](O)[C@@H]2O)c(-c2ccc(O)c(O)c2)oc2cc(O)cc(O)c12
REMARK SMILES IDX 4 1 3 2 16 3 25 4 2 5 26 6 1 7 33 8 27 9 31 10 28 11 30 12
REMARK SMILES IDX 17 13 18 14 19 15 20 16 24 17 22 18 21 19 23 21 32 23 29 25
REMARK SMILES IDX 5 27 14 28 6 29 12 30 7 31 10 32 15 33 13 35 8 37 9 38 11 40
REMARK H PARENT 21 20 23 22 32 24 29 26 15 34 13 36 9 39 11 41
REMARK Flexibility Score: inf
ROOT
ATOM      1  O   UNL     1      30.106  35.147  38.670  1.00  0.00    -0.454 OA
ENDROOT
BRANCH   1   2
ATOM      2  C   UNL     1      31.059  34.578  37.810  1.00  0.00     0.214 A 
ATOM      3  C   UNL     1      31.767  33.426  38.201  1.00  0.00     0.180 A 
ATOM      4  O   UNL     1      32.729  32.938  37.425  1.00  0.00    -0.452 OA
ATOM      5  C   UNL     1      31.329  35.136  36.548  1.00  0.00     0.239 A 
ATOM      6  C   UNL     1      33.049  33.463  36.247  1.00  0.00     0.146 A 
ATOM      7  O   UNL     1      30.638  36.107  36.137  1.00  0.00    -0.285 OA
ATOM      8  C   UNL     1      32.352  34.588  35.746  1.00  0.00     0.111 A 
ATOM      9  C   UNL     1      34.078  32.882  35.499  1.00  0.00     0.094 A 
ATOM     10  C   UNL     1      32.705  35.109  34.479  1.00  0.00     0.134 A 
ATOM     11  C   UNL     1      34.424  33.404  34.249  1.00  0.00     0.123 A 
ATOM     12  C   UNL     1      33.739  34.511  33.744  1.00  0.00     0.093 A 
BRANCH   3  13
ATOM     13  C   UNL     1      31.487  32.743  39.477  1.00  0.00     0.025 A 
ATOM     14  C   UNL     1      32.447  32.756  40.499  1.00  0.00     0.016 A 
ATOM     15  C   UNL     1      32.179  32.141  41.724  1.00  0.00     0.051 A 
ATOM     16  C   UNL     1      30.957  31.493  41.938  1.00  0.00     0.157 A 
ATOM     17  C   UNL     1      30.273  32.067  39.680  1.00  0.00     0.062 A 
ATOM     18  C   UNL     1      30.000  31.453  40.910  1.00  0.00     0.158 A 
BRANCH  16  19
ATOM     19  O   UNL     1      30.713  30.898  43.174  1.00  0.00    -0.504 OA
ATOM     20  H   UNL     1      29.981  31.225  43.794  1.00  0.00     0.293 HD
ENDBRANCH  16  19
BRANCH  18  21
ATOM     21  O   UNL     1      28.782  30.805  41.114  1.00  0.00    -0.504 OA
ATOM     22  H   UNL     1      28.453  30.575  42.045  1.00  0.00     0.293 HD
ENDBRANCH  18  21
ENDBRANCH   3  13
BRANCH  10  23
ATOM     23  O   UNL     1      32.043  36.216  33.947  1.00  0.00    -0.507 OA
ATOM     24  H   UNL     1      32.339  36.650  33.080  1.00  0.00     0.293 HD
ENDBRANCH  10  23
BRANCH  11  25
ATOM     25  O   UNL     1      35.449  32.828  33.500  1.00  0.00    -0.508 OA
ATOM     26  H   UNL     1      35.558  33.025  32.513  1.00  0.00     0.293 HD
ENDBRANCH  11  25
ENDBRANCH   1   2
BRANCH   1  27
ATOM     27  C   UNL     1      28.932  35.821  38.196  1.00  0.00     0.339 C 
ATOM     28  C   UNL     1      27.629  35.133  38.668  1.00  0.00     0.214 C 
ATOM     29  O   UNL     1      28.952  37.193  38.556  1.00  0.00    -0.332 OA
ATOM     30  C   UNL     1      27.323  35.383  40.161  1.00  0.00     0.180 C 
ATOM     31  C   UNL     1      28.896  37.372  39.964  1.00  0.00     0.179 C 
ATOM     32  C   UNL     1      27.543  36.866  40.523  1.00  0.00     0.177 C 
BRANCH  28  33
ATOM     33  O   UNL     1      27.618  33.762  38.353  1.00  0.00    -0.384 OA
ATOM     34  H   UNL     1      27.393  33.259  39.178  1.00  0.00     0.211 HD
ENDBRANCH  28  33
BRANCH  30  35
ATOM     35  O   UNL     1      28.045  34.519  41.008  1.00  0.00    -0.387 OA
ATOM     36  H   UNL     1      28.406  35.050  41.759  1.00  0.00     0.211 HD
ENDBRANCH  30  35
BRANCH  31  37
ATOM     37  C   UNL     1      29.111  38.862  40.258  1.00  0.00     0.191 C 
BRANCH  37  38
ATOM     38  O   UNL     1      30.146  39.373  39.464  1.00  0.00    -0.394 OA
ATOM     39  H   UNL     1      30.938  38.798  39.638  1.00  0.00     0.210 HD
ENDBRANCH  37  38
ENDBRANCH  31  37
BRANCH  32  40
ATOM     40  O   UNL     1      27.497  37.009  41.921  1.00  0.00    -0.387 OA
ATOM     41  H   UNL     1      28.261  36.500  42.295  1.00  0.00     0.211 HD
ENDBRANCH  32  40
ENDBRANCH   1  27
TORSDOF 12
ENDMDL
MODEL 6
REMARK VINA RESULT:    -8.475      4.090      7.120
REMARK INTER + INTRA:         -12.839
REMARK INTER:                 -10.767
REMARK INTRA:                  -2.071
REMARK UNBOUND:                -0.400
REMARK SMILES O=c1c(O[C@@H]2O[C@@H](CO)[C@H](O)[C@H](O)[C@@H]2O)c(-c2ccc(O)c(O)c2)oc2cc(O)cc(O)c12
REMARK SMILES IDX 4 1 3 2 16 3 25 4 2 5 26 6 1 7 33 8 27 9 31 10 28 11 30 12
REMARK SMILES IDX 17 13 18 14 19 15 20 16 24 17 22 18 21 19 23 21 32 23 29 25
REMARK SMILES IDX 5 27 14 28 6 29 12 30 7 31 10 32 15 33 13 35 8 37 9 38 11 40
REMARK H PARENT 21 20 23 22 32 24 29 26 15 34 13 36 9 39 11 41
REMARK Flexibility Score: inf
ROOT
ATOM      1  O   UNL     1      30.451  30.943  35.665  1.00  0.00    -0.454 OA
ENDROOT
BRANCH   1   2
ATOM      2  C   UNL     1      30.052  29.619  35.910  1.00  0.00     0.214 A 
ATOM      3  C   UNL     1      29.285  29.310  37.050  1.00  0.00     0.180 A 
ATOM      4  O   UNL     1      28.982  28.046  37.327  1.00  0.00    -0.452 OA
ATOM      5  C   UNL     1      30.402  28.578  35.033  1.00  0.00     0.239 A 
ATOM      6  C   UNL     1      29.333  27.027  36.551  1.00  0.00     0.146 A 
ATOM      7  O   UNL     1      31.002  28.845  33.958  1.00  0.00    -0.285 OA
ATOM      8  C   UNL     1      30.056  27.248  35.355  1.00  0.00     0.111 A 
ATOM      9  C   UNL     1      28.970  25.729  36.925  1.00  0.00     0.094 A 
ATOM     10  C   UNL     1      30.397  26.141  34.542  1.00  0.00     0.134 A 
ATOM     11  C   UNL     1      29.313  24.640  36.118  1.00  0.00     0.123 A 
ATOM     12  C   UNL     1      30.022  24.848  34.933  1.00  0.00     0.093 A 
BRANCH   3  13
ATOM     13  C   UNL     1      28.819  30.358  37.975  1.00  0.00     0.025 A 
ATOM     14  C   UNL     1      27.777  31.214  37.591  1.00  0.00     0.016 A 
ATOM     15  C   UNL     1      27.305  32.189  38.472  1.00  0.00     0.051 A 
ATOM     16  C   UNL     1      27.878  32.332  39.741  1.00  0.00     0.157 A 
ATOM     17  C   UNL     1      29.415  30.521  39.236  1.00  0.00     0.062 A 
ATOM     18  C   UNL     1      28.940  31.497  40.125  1.00  0.00     0.158 A 
BRANCH  16  19
ATOM     19  O   UNL     1      27.379  33.307  40.603  1.00  0.00    -0.504 OA
ATOM     20  H   UNL     1      27.851  34.193  40.744  1.00  0.00     0.293 HD
ENDBRANCH  16  19
BRANCH  18  21
ATOM     21  O   UNL     1      29.519  31.636  41.385  1.00  0.00    -0.504 OA
ATOM     22  H   UNL     1      30.507  31.832  41.496  1.00  0.00     0.293 HD
ENDBRANCH  18  21
ENDBRANCH   3  13
BRANCH  10  23
ATOM     23  O   UNL     1      31.108  26.315  33.353  1.00  0.00    -0.507 OA
ATOM     24  H   UNL     1      30.641  26.515  32.476  1.00  0.00     0.293 HD
ENDBRANCH  10  23
BRANCH  11  25
ATOM     25  O   UNL     1      28.953  23.345  36.486  1.00  0.00    -0.508 OA
ATOM     26  H   UNL     1      29.115  22.995  37.422  1.00  0.00     0.293 HD
ENDBRANCH  11  25
ENDBRANCH   1   2
BRANCH   1  27
ATOM     27  C   UNL     1      31.753  31.440  36.002  1.00  0.00     0.339 C 
ATOM     28  C   UNL     1      32.403  32.221  34.835  1.00  0.00     0.214 C 
ATOM     29  O   UNL     1      31.710  32.221  37.186  1.00  0.00    -0.332 OA
ATOM     30  C   UNL     1      31.784  33.621  34.627  1.00  0.00     0.180 C 
ATOM     31  C   UNL     1      30.935  33.399  37.015  1.00  0.00     0.179 C 
ATOM     32  C   UNL     1      31.597  34.341  35.978  1.00  0.00     0.177 C 
BRANCH  28  33
ATOM     33  O   UNL     1      32.411  31.470  33.645  1.00  0.00    -0.384 OA
ATOM     34  H   UNL     1      33.284  31.616  33.196  1.00  0.00     0.211 HD
ENDBRANCH  28  33
BRANCH  30  35
ATOM     35  O   UNL     1      30.588  33.573  33.884  1.00  0.00    -0.387 OA
ATOM     36  H   UNL     1      30.308  32.628  33.806  1.00  0.00     0.211 HD
ENDBRANCH  30  35
BRANCH  31  37
ATOM     37  C   UNL     1      30.793  34.072  38.386  1.00  0.00     0.191 C 
BRANCH  37  38
ATOM     38  O   UNL     1      29.754  35.011  38.366  1.00  0.00    -0.394 OA
ATOM     39  H   UNL     1      29.461  35.078  37.419  1.00  0.00     0.210 HD
ENDBRANCH  37  38
ENDBRANCH  31  37
BRANCH  32  40
ATOM     40  O   UNL     1      30.815  35.493  35.781  1.00  0.00    -0.387 OA
ATOM     41  H   UNL     1      29.867  35.230  35.905  1.00  0.00     0.211 HD
ENDBRANCH  32  40
ENDBRANCH   1  27
TORSDOF 12
ENDMDL
MODEL 7
REMARK VINA RESULT:    -8.399      4.000      7.047
REMARK INTER + INTRA:         -12.728
REMARK INTER:                 -10.671
REMARK INTRA:                  -2.057
REMARK UNBOUND:                -0.400
REMARK SMILES O=c1c(O[C@@H]2O[C@@H](CO)[C@H](O)[C@H](O)[C@@H]2O)c(-c2ccc(O)c(O)c2)oc2cc(O)cc(O)c12
REMARK SMILES IDX 4 1 3 2 16 3 25 4 2 5 26 6 1 7 33 8 27 9 31 10 28 11 30 12
REMARK SMILES IDX 17 13 18 14 19 15 20 16 24 17 22 18 21 19 23 21 32 23 29 25
REMARK SMILES IDX 5 27 14 28 6 29 12 30 7 31 10 32 15 33 13 35 8 37 9 38 11 40
REMARK H PARENT 21 20 23 22 32 24 29 26 15 34 13 36 9 39 11 41
REMARK Flexibility Score: inf
ROOT
ATOM      1  O   UNL     1      30.331  31.118  35.740  1.00  0.00    -0.454 OA
ENDROOT
BRANCH   1   2
ATOM      2  C   UNL     1      29.927  29.800  36.010  1.00  0.00     0.214 A 
ATOM      3  C   UNL     1      29.128  29.522  37.135  1.00  0.00     0.180 A 
ATOM      4  O   UNL     1      28.817  28.266  37.439  1.00  0.00    -0.452 OA
ATOM      5  C   UNL     1      30.302  28.736  35.173  1.00  0.00     0.239 A 
ATOM      6  C   UNL     1      29.191  27.226  36.702  1.00  0.00     0.146 A 
ATOM      7  O   UNL     1      30.933  28.974  34.108  1.00  0.00    -0.285 OA
ATOM      8  C   UNL     1      29.948  27.415  35.521  1.00  0.00     0.111 A 
ATOM      9  C   UNL     1      28.818  25.939  37.101  1.00  0.00     0.094 A 
ATOM     10  C   UNL     1      30.313  26.286  34.749  1.00  0.00     0.134 A 
ATOM     11  C   UNL     1      29.185  24.828  36.335  1.00  0.00     0.123 A 
ATOM     12  C   UNL     1      29.928  25.004  35.166  1.00  0.00     0.093 A 
BRANCH   3  13
ATOM     13  C   UNL     1      28.635  30.595  38.017  1.00  0.00     0.025 A 
ATOM     14  C   UNL     1      29.110  30.688  39.333  1.00  0.00     0.016 A 
ATOM     15  C   UNL     1      28.675  31.721  40.167  1.00  0.00     0.051 A 
ATOM     16  C   UNL     1      27.750  32.663  39.703  1.00  0.00     0.157 A 
ATOM     17  C   UNL     1      27.683  31.521  37.561  1.00  0.00     0.062 A 
ATOM     18  C   UNL     1      27.248  32.561  38.394  1.00  0.00     0.158 A 
BRANCH  16  19
ATOM     19  O   UNL     1      27.342  33.688  40.554  1.00  0.00    -0.504 OA
ATOM     20  H   UNL     1      26.894  34.529  40.208  1.00  0.00     0.293 HD
ENDBRANCH  16  19
BRANCH  18  21
ATOM     21  O   UNL     1      26.322  33.492  37.927  1.00  0.00    -0.504 OA
ATOM     22  H   UNL     1      26.613  34.330  37.436  1.00  0.00     0.293 HD
ENDBRANCH  18  21
ENDBRANCH   3  13
BRANCH  10  23
ATOM     23  O   UNL     1      31.058  26.428  33.577  1.00  0.00    -0.507 OA
ATOM     24  H   UNL     1      30.861  27.160  32.905  1.00  0.00     0.293 HD
ENDBRANCH  10  23
BRANCH  11  25
ATOM     25  O   UNL     1      28.815  23.543  36.728  1.00  0.00    -0.508 OA
ATOM     26  H   UNL     1      28.912  23.234  37.688  1.00  0.00     0.293 HD
ENDBRANCH  11  25
ENDBRANCH   1   2
BRANCH   1  27
ATOM     27  C   UNL     1      31.638  31.613  36.062  1.00  0.00     0.339 C 
ATOM     28  C   UNL     1      32.290  32.364  34.877  1.00  0.00     0.214 C 
ATOM     29  O   UNL     1      31.603  32.420  37.229  1.00  0.00    -0.332 OA
ATOM     30  C   UNL     1      31.679  33.763  34.640  1.00  0.00     0.180 C 
ATOM     31  C   UNL     1      30.835  33.599  37.034  1.00  0.00     0.179 C 
ATOM     32  C   UNL     1      31.501  34.514  35.975  1.00  0.00     0.177 C 
BRANCH  28  33
ATOM     33  O   UNL     1      32.290  31.587  33.703  1.00  0.00    -0.384 OA
ATOM     34  H   UNL     1      32.700  30.709  33.916  1.00  0.00     0.211 HD
ENDBRANCH  28  33
BRANCH  30  35
ATOM     35  O   UNL     1      30.482  33.707  33.901  1.00  0.00    -0.387 OA
ATOM     36  H   UNL     1      30.260  32.757  33.739  1.00  0.00     0.211 HD
ENDBRANCH  30  35
BRANCH  31  37
ATOM     37  C   UNL     1      30.702  34.304  38.391  1.00  0.00     0.191 C 
BRANCH  37  38
ATOM     38  O   UNL     1      29.678  35.258  38.348  1.00  0.00    -0.394 OA
ATOM     39  H   UNL     1      29.367  35.288  37.405  1.00  0.00     0.210 HD
ENDBRANCH  37  38
ENDBRANCH  31  37
BRANCH  32  40
ATOM     40  O   UNL     1      30.726  35.666  35.754  1.00  0.00    -0.387 OA
ATOM     41  H   UNL     1      29.896  35.571  36.289  1.00  0.00     0.211 HD
ENDBRANCH  32  40
ENDBRANCH   1  27
TORSDOF 12
ENDMDL
MODEL 8
REMARK VINA RESULT:    -8.386      1.638      5.322
REMARK INTER + INTRA:         -12.708
REMARK INTER:                 -12.163
REMARK INTRA:                  -0.545
REMARK UNBOUND:                -0.400
REMARK SMILES O=c1c(O[C@@H]2O[C@@H](CO)[C@H](O)[C@H](O)[C@@H]2O)c(-c2ccc(O)c(O)c2)oc2cc(O)cc(O)c12
REMARK SMILES IDX 4 1 3 2 16 3 25 4 2 5 26 6 1 7 33 8 27 9 31 10 28 11 30 12
REMARK SMILES IDX 17 13 18 14 19 15 20 16 24 17 22 18 21 19 23 21 32 23 29 25
REMARK SMILES IDX 5 27 14 28 6 29 12 30 7 31 10 32 15 33 13 35 8 37 9 38 11 40
REMARK H PARENT 21 20 23 22 32 24 29 26 15 34 13 36 9 39 11 41
REMARK Flexibility Score: inf
ROOT
ATOM      1  O   UNL     1      29.994  32.700  39.198  1.00  0.00    -0.454 OA
ENDROOT
BRANCH   1   2
ATOM      2  C   UNL     1      29.970  34.071  38.893  1.00  0.00     0.214 A 
ATOM      3  C   UNL     1      30.576  34.545  37.714  1.00  0.00     0.180 A 
ATOM      4  O   UNL     1      30.630  35.850  37.469  1.00  0.00    -0.452 OA
ATOM      5  C   UNL     1      29.346  34.998  39.746  1.00  0.00     0.239 A 
ATOM      6  C   UNL     1      30.095  36.762  38.271  1.00  0.00     0.146 A 
ATOM      7  O   UNL     1      28.713  34.586  40.756  1.00  0.00    -0.285 OA
ATOM      8  C   UNL     1      29.415  36.375  39.451  1.00  0.00     0.111 A 
ATOM      9  C   UNL     1      30.201  38.115  37.932  1.00  0.00     0.094 A 
ATOM     10  C   UNL     1      28.840  37.373  40.273  1.00  0.00     0.134 A 
ATOM     11  C   UNL     1      29.634  39.095  38.751  1.00  0.00     0.123 A 
ATOM     12  C   UNL     1      28.957  38.724  39.914  1.00  0.00     0.093 A 
BRANCH   3  13
ATOM     13  C   UNL     1      31.186  33.625  36.736  1.00  0.00     0.025 A 
ATOM     14  C   UNL     1      30.366  32.846  35.907  1.00  0.00     0.016 A 
ATOM     15  C   UNL     1      30.932  31.997  34.954  1.00  0.00     0.051 A 
ATOM     16  C   UNL     1      32.323  31.903  34.827  1.00  0.00     0.157 A 
ATOM     17  C   UNL     1      32.581  33.509  36.631  1.00  0.00     0.062 A 
ATOM     18  C   UNL     1      33.152  32.660  35.671  1.00  0.00     0.158 A 
BRANCH  16  19
ATOM     19  O   UNL     1      32.859  31.055  33.860  1.00  0.00    -0.504 OA
ATOM     20  H   UNL     1      33.454  30.271  34.102  1.00  0.00     0.293 HD
ENDBRANCH  16  19
BRANCH  18  21
ATOM     21  O   UNL     1      34.538  32.569  35.555  1.00  0.00    -0.504 OA
ATOM     22  H   UNL     1      35.022  32.876  34.719  1.00  0.00     0.293 HD
ENDBRANCH  18  21
ENDBRANCH   3  13
BRANCH  10  23
ATOM     23  O   UNL     1      28.160  37.035  41.444  1.00  0.00    -0.507 OA
ATOM     24  H   UNL     1      27.423  37.620  41.821  1.00  0.00     0.293 HD
ENDBRANCH  10  23
BRANCH  11  25
ATOM     25  O   UNL     1      29.737  40.445  38.416  1.00  0.00    -0.508 OA
ATOM     26  H   UNL     1      29.736  40.753  37.452  1.00  0.00     0.293 HD
ENDBRANCH  11  25
ENDBRANCH   1   2
BRANCH   1  27
ATOM     27  C   UNL     1      31.210  31.963  39.378  1.00  0.00     0.339 C 
ATOM     28  C   UNL     1      32.102  32.562  40.491  1.00  0.00     0.214 C 
ATOM     29  O   UNL     1      30.943  30.589  39.614  1.00  0.00    -0.332 OA
ATOM     30  C   UNL     1      31.568  32.274  41.912  1.00  0.00     0.180 C 
ATOM     31  C   UNL     1      30.245  30.388  40.834  1.00  0.00     0.179 C 
ATOM     32  C   UNL     1      31.125  30.803  42.040  1.00  0.00     0.177 C 
BRANCH  28  33
ATOM     33  O   UNL     1      32.337  33.935  40.288  1.00  0.00    -0.384 OA
ATOM     34  H   UNL     1      33.232  34.035  39.871  1.00  0.00     0.211 HD
ENDBRANCH  28  33
BRANCH  30  35
ATOM     35  O   UNL     1      30.549  33.169  42.293  1.00  0.00    -0.387 OA
ATOM     36  H   UNL     1      30.968  33.946  42.738  1.00  0.00     0.211 HD
ENDBRANCH  30  35
BRANCH  31  37
ATOM     37  C   UNL     1      29.840  28.910  40.907  1.00  0.00     0.191 C 
BRANCH  37  38
ATOM     38  O   UNL     1      30.777  28.183  41.652  1.00  0.00    -0.394 OA
ATOM     39  H   UNL     1      30.261  27.700  42.350  1.00  0.00     0.210 HD
ENDBRANCH  37  38
ENDBRANCH  31  37
BRANCH  32  40
ATOM     40  O   UNL     1      30.424  30.638  43.248  1.00  0.00    -0.387 OA
ATOM     41  H   UNL     1      30.580  29.707  43.554  1.00  0.00     0.211 HD
ENDBRANCH  32  40
ENDBRANCH   1  27
TORSDOF 12
ENDMDL
MODEL 9
REMARK VINA RESULT:    -8.316      1.365      2.579
REMARK INTER + INTRA:         -12.605
REMARK INTER:                 -11.606
REMARK INTRA:                  -0.999
REMARK UNBOUND:                -0.400
REMARK SMILES O=c1c(O[C@@H]2O[C@@H](CO)[C@H](O)[C@H](O)[C@@H]2O)c(-c2ccc(O)c(O)c2)oc2cc(O)cc(O)c12
REMARK SMILES IDX 4 1 3 2 16 3 25 4 2 5 26 6 1 7 33 8 27 9 31 10 28 11 30 12
REMARK SMILES IDX 17 13 18 14 19 15 20 16 24 17 22 18 21 19 23 21 32 23 29 25
REMARK SMILES IDX 5 27 14 28 6 29 12 30 7 31 10 32 15 33 13 35 8 37 9 38 11 40
REMARK H PARENT 21 20 23 22 32 24 29 26 15 34 13 36 9 39 11 41
REMARK Flexibility Score: inf
ROOT
ATOM      1  O   UNL     1      30.369  33.080  38.490  1.00  0.00    -0.454 OA
ENDROOT
BRANCH   1   2
ATOM      2  C   UNL     1      30.936  33.835  37.450  1.00  0.00     0.214 A 
ATOM      3  C   UNL     1      30.403  35.094  37.118  1.00  0.00     0.180 A 
ATOM      4  O   UNL     1      30.884  35.769  36.079  1.00  0.00    -0.452 OA
ATOM      5  C   UNL     1      32.041  33.360  36.723  1.00  0.00     0.239 A 
ATOM      6  C   UNL     1      31.895  35.336  35.336  1.00  0.00     0.146 A 
ATOM      7  O   UNL     1      32.596  32.282  37.067  1.00  0.00    -0.285 OA
ATOM      8  C   UNL     1      32.531  34.107  35.631  1.00  0.00     0.111 A 
ATOM      9  C   UNL     1      32.333  36.115  34.260  1.00  0.00     0.094 A 
ATOM     10  C   UNL     1      33.619  33.684  34.830  1.00  0.00     0.134 A 
ATOM     11  C   UNL     1      33.406  35.689  33.471  1.00  0.00     0.123 A 
ATOM     12  C   UNL     1      34.044  34.481  33.757  1.00  0.00     0.093 A 
BRANCH   3  13
ATOM     13  C   UNL     1      29.292  35.689  37.883  1.00  0.00     0.025 A 
ATOM     14  C   UNL     1      27.981  35.240  37.670  1.00  0.00     0.016 A 
ATOM     15  C   UNL     1      26.925  35.774  38.414  1.00  0.00     0.051 A 
ATOM     16  C   UNL     1      27.163  36.771  39.365  1.00  0.00     0.157 A 
ATOM     17  C   UNL     1      29.528  36.712  38.816  1.00  0.00     0.062 A 
ATOM     18  C   UNL     1      28.471  37.246  39.566  1.00  0.00     0.158 A 
BRANCH  16  19
ATOM     19  O   UNL     1      26.092  37.277  40.100  1.00  0.00    -0.504 OA
ATOM     20  H   UNL     1      25.221  37.551  39.660  1.00  0.00     0.293 HD
ENDBRANCH  16  19
BRANCH  18  21
ATOM     21  O   UNL     1      28.715  38.243  40.509  1.00  0.00    -0.504 OA
ATOM     22  H   UNL     1      27.962  38.793  40.907  1.00  0.00     0.293 HD
ENDBRANCH  18  21
ENDBRANCH   3  13
BRANCH  10  23
ATOM     23  O   UNL     1      34.276  32.480  35.087  1.00  0.00    -0.507 OA
ATOM     24  H   UNL     1      33.773  31.652  35.386  1.00  0.00     0.293 HD
ENDBRANCH  10  23
BRANCH  11  25
ATOM     25  O   UNL     1      33.847  36.463  32.398  1.00  0.00    -0.508 OA
ATOM     26  H   UNL     1      33.204  37.013  31.842  1.00  0.00     0.293 HD
ENDBRANCH  11  25
ENDBRANCH   1   2
BRANCH   1  27
ATOM     27  C   UNL     1      30.367  33.514  39.857  1.00  0.00     0.339 C 
ATOM     28  C   UNL     1      29.529  32.586  40.767  1.00  0.00     0.214 C 
ATOM     29  O   UNL     1      31.690  33.661  40.346  1.00  0.00    -0.332 OA
ATOM     30  C   UNL     1      30.229  31.241  41.063  1.00  0.00     0.180 C 
ATOM     31  C   UNL     1      32.380  32.421  40.390  1.00  0.00     0.179 C 
ATOM     32  C   UNL     1      31.715  31.464  41.412  1.00  0.00     0.177 C 
BRANCH  28  33
ATOM     33  O   UNL     1      28.227  32.399  40.266  1.00  0.00    -0.384 OA
ATOM     34  H   UNL     1      27.610  32.315  41.038  1.00  0.00     0.211 HD
ENDBRANCH  28  33
BRANCH  30  35
ATOM     35  O   UNL     1      30.065  30.309  40.020  1.00  0.00    -0.387 OA
ATOM     36  H   UNL     1      29.261  29.766  40.211  1.00  0.00     0.211 HD
ENDBRANCH  30  35
BRANCH  31  37
ATOM     37  C   UNL     1      33.844  32.707  40.749  1.00  0.00     0.191 C 
BRANCH  37  38
ATOM     38  O   UNL     1      34.565  33.074  39.606  1.00  0.00    -0.394 OA
ATOM     39  H   UNL     1      34.803  32.227  39.146  1.00  0.00     0.210 HD
ENDBRANCH  37  38
ENDBRANCH  31  37
BRANCH  32  40
ATOM     40  O   UNL     1      32.373  30.222  41.433  1.00  0.00    -0.387 OA
ATOM     41  H   UNL     1      33.242  30.356  41.892  1.00  0.00     0.211 HD
ENDBRANCH  32  40
ENDBRANCH   1  27
TORSDOF 12
ENDMDL
