MODEL 1
REMARK VINA RESULT:    -3.278      0.000      0.000
REMARK INTER + INTRA:          -6.710
REMARK INTER:                  -5.194
REMARK INTRA:                  -1.516
REMARK UNBOUND:                -1.516
REMARK SMILES CCCCCCCCCCCC(=O)[O-]
REMARK SMILES IDX 7 1 8 2 9 3 10 4 11 5 12 6 13 7 14 8 6 9 5 10 4 11 3 12 2 13
REMARK SMILES IDX 1 14
REMARK H PARENT
REMARK Flexibility Score: inf
ROOT
ATOM      1  C   UNL     1      -4.924  -2.490  34.476  1.00  0.00     0.000 C 
ENDROOT
BRANCH   1   2
ATOM      2  C   UNL     1      -3.542  -2.937  33.975  1.00  0.00     0.000 C 
BRANCH   2   3
ATOM      3  C   UNL     1      -2.396  -2.115  34.587  1.00  0.00     0.000 C 
BRANCH   3   4
ATOM      4  C   UNL     1      -1.713  -2.834  35.762  1.00  0.00     0.006 C 
BRANCH   4   5
ATOM      5  C   UNL     1      -0.826  -1.888  36.584  1.00  0.00     0.053 C 
BRANCH   5   6
ATOM      6  C   UNL     1       0.598  -1.922  36.120  1.00  0.00     0.041 C 
ATOM      7  O   UNL     1       1.015  -2.883  35.421  1.00  0.00    -0.550 OA
ATOM      8  O   UNL     1       1.454  -0.874  36.430  1.00  0.00    -0.550 OA
ENDBRANCH   5   6
ENDBRANCH   4   5
ENDBRANCH   3   4
ENDBRANCH   2   3
ENDBRANCH   1   2
BRANCH   1   9
ATOM      9  C   UNL     1      -5.375  -3.345  35.671  1.00  0.00     0.000 C 
BRANCH   9  10
ATOM     10  C   UNL     1      -5.882  -2.500  36.850  1.00  0.00    -0.000 C 
BRANCH  10  11
ATOM     11  C   UNL     1      -4.737  -1.835  37.636  1.00  0.00    -0.000 C 
BRANCH  11  12
ATOM     12  C   UNL     1      -4.877  -0.305  37.700  1.00  0.00    -0.000 C 
BRANCH  12  13
ATOM     13  C   UNL     1      -3.714   0.424  37.010  1.00  0.00    -0.003 C 
ATOM     14  C   UNL     1      -4.144   0.987  35.658  1.00  0.00     0.004 C 
ENDBRANCH  12  13
ENDBRANCH  11  12
ENDBRANCH  10  11
ENDBRANCH   9  10
ENDBRANCH   1   9
TORSDOF 10
ENDMDL
MODEL 2
REMARK VINA RESULT:    -3.253      1.318      2.153
REMARK INTER + INTRA:          -6.671
REMARK INTER:                  -5.113
REMARK INTRA:                  -1.558
REMARK UNBOUND:                -1.516
REMARK SMILES CCCCCCCCCCCC(=O)[O-]
REMARK SMILES IDX 7 1 8 2 9 3 10 4 11 5 12 6 13 7 14 8 6 9 5 10 4 11 3 12 2 13
REMARK SMILES IDX 1 14
REMARK H PARENT
REMARK Flexibility Score: inf
ROOT
ATOM      1  C   UNL     1      -4.817  -1.514  34.078  1.00  0.00     0.000 C 
ENDROOT
BRANCH   1   2
ATOM      2  C   UNL     1      -4.009  -0.253  34.420  1.00  0.00     0.000 C 
BRANCH   2   3
ATOM      3  C   UNL     1      -2.501  -0.530  34.536  1.00  0.00     0.000 C 
BRANCH   3   4
ATOM      4  C   UNL     1      -1.910  -0.043  35.870  1.00  0.00     0.006 C 
BRANCH   4   5
ATOM      5  C   UNL     1      -1.696  -1.194  36.863  1.00  0.00     0.053 C 
BRANCH   5   6
ATOM      6  C   UNL     1      -0.425  -1.936  36.584  1.00  0.00     0.041 C 
ATOM      7  O   UNL     1      -0.417  -3.194  36.556  1.00  0.00    -0.550 OA
ATOM      8  O   UNL     1       0.746  -1.235  36.323  1.00  0.00    -0.550 OA
ENDBRANCH   5   6
ENDBRANCH   4   5
ENDBRANCH   3   4
ENDBRANCH   2   3
ENDBRANCH   1   2
BRANCH   1   9
ATOM      9  C   UNL     1      -3.932  -2.769  34.157  1.00  0.00     0.000 C 
BRANCH   9  10
ATOM     10  C   UNL     1      -4.234  -3.634  35.390  1.00  0.00    -0.000 C 
BRANCH  10  11
ATOM     11  C   UNL     1      -5.416  -3.094  36.216  1.00  0.00    -0.000 C 
BRANCH  11  12
ATOM     12  C   UNL     1      -4.974  -2.527  37.575  1.00  0.00    -0.000 C 
BRANCH  12  13
ATOM     13  C   UNL     1      -5.440  -1.080  37.793  1.00  0.00    -0.003 C 
ATOM     14  C   UNL     1      -6.857  -0.875  37.265  1.00  0.00     0.004 C 
ENDBRANCH  12  13
ENDBRANCH  11  12
ENDBRANCH  10  11
ENDBRANCH   9  10
ENDBRANCH   1   9
TORSDOF 10
ENDMDL
MODEL 3
REMARK VINA RESULT:    -3.237      2.440      4.720
REMARK INTER + INTRA:          -6.645
REMARK INTER:                  -5.380
REMARK INTRA:                  -1.265
REMARK UNBOUND:                -1.516
REMARK SMILES CCCCCCCCCCCC(=O)[O-]
REMARK SMILES IDX 7 1 8 2 9 3 10 4 11 5 12 6 13 7 14 8 6 9 5 10 4 11 3 12 2 13
REMARK SMILES IDX 1 14
REMARK H PARENT
REMARK Flexibility Score: inf
ROOT
ATOM      1  C   UNL     1      -4.508  -1.244  38.838  1.00  0.00     0.000 C 
ENDROOT
BRANCH   1   2
ATOM      2  C   UNL     1      -5.907  -0.827  38.359  1.00  0.00     0.000 C 
BRANCH   2   3
ATOM      3  C   UNL     1      -6.167  -1.206  36.892  1.00  0.00     0.000 C 
BRANCH   3   4
ATOM      4  C   UNL     1      -5.468  -2.515  36.486  1.00  0.00     0.006 C 
BRANCH   4   5
ATOM      5  C   UNL     1      -5.295  -2.632  34.965  1.00  0.00     0.053 C 
BRANCH   5   6
ATOM      6  C   UNL     1      -4.119  -3.488  34.606  1.00  0.00     0.041 C 
ATOM      7  O   UNL     1      -3.514  -4.140  35.497  1.00  0.00    -0.550 OA
ATOM      8  O   UNL     1      -3.713  -3.592  33.282  1.00  0.00    -0.550 OA
ENDBRANCH   5   6
ENDBRANCH   4   5
ENDBRANCH   3   4
ENDBRANCH   2   3
ENDBRANCH   1   2
BRANCH   1   9
ATOM      9  C   UNL     1      -3.638  -0.009  39.125  1.00  0.00     0.000 C 
BRANCH   9  10
ATOM     10  C   UNL     1      -2.494   0.161  38.112  1.00  0.00    -0.000 C 
BRANCH  10  11
ATOM     11  C   UNL     1      -2.215  -1.126  37.315  1.00  0.00    -0.000 C 
BRANCH  11  12
ATOM     12  C   UNL     1      -1.935  -0.849  35.828  1.00  0.00    -0.000 C 
BRANCH  12  13
ATOM     13  C   UNL     1      -0.854  -1.771  35.246  1.00  0.00    -0.003 C 
ATOM     14  C   UNL     1      -0.324  -2.732  36.307  1.00  0.00     0.004 C 
ENDBRANCH  12  13
ENDBRANCH  11  12
ENDBRANCH  10  11
ENDBRANCH   9  10
ENDBRANCH   1   9
TORSDOF 10
ENDMDL
MODEL 4
REMARK VINA RESULT:    -3.229      3.827      5.459
REMARK INTER + INTRA:          -6.632
REMARK INTER:                  -5.081
REMARK INTRA:                  -1.551
REMARK UNBOUND:                -1.516
REMARK SMILES CCCCCCCCCCCC(=O)[O-]
REMARK SMILES IDX 7 1 8 2 9 3 10 4 11 5 12 6 13 7 14 8 6 9 5 10 4 11 3 12 2 13
REMARK SMILES IDX 1 14
REMARK H PARENT
REMARK Flexibility Score: inf
ROOT
ATOM      1  C   UNL     1      -5.084  -2.505  37.318  1.00  0.00     0.000 C 
ENDROOT
BRANCH   1   2
ATOM      2  C   UNL     1      -5.213  -0.991  37.093  1.00  0.00     0.000 C 
BRANCH   2   3
ATOM      3  C   UNL     1      -6.233  -0.639  35.998  1.00  0.00     0.000 C 
BRANCH   3   4
ATOM      4  C   UNL     1      -5.624   0.216  34.874  1.00  0.00     0.006 C 
BRANCH   4   5
ATOM      5  C   UNL     1      -6.113  -0.219  33.485  1.00  0.00     0.053 C 
BRANCH   5   6
ATOM      6  C   UNL     1      -6.329   0.956  32.582  1.00  0.00     0.041 C 
ATOM      7  O   UNL     1      -7.484   1.431  32.424  1.00  0.00    -0.550 OA
ATOM      8  O   UNL     1      -5.249   1.547  31.940  1.00  0.00    -0.550 OA
ENDBRANCH   5   6
ENDBRANCH   4   5
ENDBRANCH   3   4
ENDBRANCH   2   3
ENDBRANCH   1   2
BRANCH   1   9
ATOM      9  C   UNL     1      -5.358  -3.276  36.016  1.00  0.00     0.000 C 
BRANCH   9  10
ATOM     10  C   UNL     1      -4.075  -3.808  35.358  1.00  0.00    -0.000 C 
BRANCH  10  11
ATOM     11  C   UNL     1      -3.631  -2.956  34.156  1.00  0.00    -0.000 C 
BRANCH  11  12
ATOM     12  C   UNL     1      -2.512  -1.965  34.517  1.00  0.00    -0.000 C 
BRANCH  12  13
ATOM     13  C   UNL     1      -1.635  -2.459  35.677  1.00  0.00    -0.003 C 
ATOM     14  C   UNL     1      -1.482  -1.382  36.747  1.00  0.00     0.004 C 
ENDBRANCH  12  13
ENDBRANCH  11  12
ENDBRANCH  10  11
ENDBRANCH   9  10
ENDBRANCH   1   9
TORSDOF 10
ENDMDL
MODEL 5
REMARK VINA RESULT:    -3.218      3.530      5.086
REMARK INTER + INTRA:          -6.615
REMARK INTER:                  -5.069
REMARK INTRA:                  -1.546
REMARK UNBOUND:                -1.516
REMARK SMILES CCCCCCCCCCCC(=O)[O-]
REMARK SMILES IDX 7 1 8 2 9 3 10 4 11 5 12 6 13 7 14 8 6 9 5 10 4 11 3 12 2 13
REMARK SMILES IDX 1 14
REMARK H PARENT
REMARK Flexibility Score: inf
ROOT
ATOM      1  C   UNL     1      -3.963  -3.704  35.330  1.00  0.00     0.000 C 
ENDROOT
BRANCH   1   2
ATOM      2  C   UNL     1      -5.367  -3.324  35.823  1.00  0.00     0.000 C 
BRANCH   2   3
ATOM      3  C   UNL     1      -5.336  -2.500  37.121  1.00  0.00     0.000 C 
BRANCH   3   4
ATOM      4  C   UNL     1      -6.196  -1.227  37.034  1.00  0.00     0.006 C 
BRANCH   4   5
ATOM      5  C   UNL     1      -5.645  -0.224  36.012  1.00  0.00     0.053 C 
BRANCH   5   6
ATOM      6  C   UNL     1      -6.638   0.065  34.929  1.00  0.00     0.041 C 
ATOM      7  O   UNL     1      -7.647   0.779  35.167  1.00  0.00    -0.550 OA
ATOM      8  O   UNL     1      -6.431  -0.428  33.647  1.00  0.00    -0.550 OA
ENDBRANCH   5   6
ENDBRANCH   4   5
ENDBRANCH   3   4
ENDBRANCH   2   3
ENDBRANCH   1   2
BRANCH   1   9
ATOM      9  C   UNL     1      -3.541  -2.819  34.146  1.00  0.00     0.000 C 
BRANCH   9  10
ATOM     10  C   UNL     1      -2.448  -1.805  34.519  1.00  0.00    -0.000 C 
BRANCH  10  11
ATOM     11  C   UNL     1      -1.361  -2.414  35.423  1.00  0.00    -0.000 C 
BRANCH  11  12
ATOM     12  C   UNL     1      -1.206  -1.656  36.751  1.00  0.00    -0.000 C 
BRANCH  12  13
ATOM     13  C   UNL     1      -2.024  -0.357  36.791  1.00  0.00    -0.003 C 
ATOM     14  C   UNL     1      -2.610  -0.119  38.180  1.00  0.00     0.004 C 
ENDBRANCH  12  13
ENDBRANCH  11  12
ENDBRANCH  10  11
ENDBRANCH   9  10
ENDBRANCH   1   9
TORSDOF 10
ENDMDL
MODEL 6
REMARK VINA RESULT:    -3.216      1.036      1.719
REMARK INTER + INTRA:          -6.613
REMARK INTER:                  -5.072
REMARK INTRA:                  -1.542
REMARK UNBOUND:                -1.516
REMARK SMILES CCCCCCCCCCCC(=O)[O-]
REMARK SMILES IDX 7 1 8 2 9 3 10 4 11 5 12 6 13 7 14 8 6 9 5 10 4 11 3 12 2 13
REMARK SMILES IDX 1 14
REMARK H PARENT
REMARK Flexibility Score: inf
ROOT
ATOM      1  C   UNL     1      -5.409  -3.260  36.110  1.00  0.00     0.000 C 
ENDROOT
BRANCH   1   2
ATOM      2  C   UNL     1      -4.165  -3.599  35.275  1.00  0.00     0.000 C 
BRANCH   2   3
ATOM      3  C   UNL     1      -2.869  -3.564  36.102  1.00  0.00     0.000 C 
BRANCH   3   4
ATOM      4  C   UNL     1      -1.808  -2.626  35.501  1.00  0.00     0.006 C 
BRANCH   4   5
ATOM      5  C   UNL     1      -0.967  -1.935  36.584  1.00  0.00     0.053 C 
BRANCH   5   6
ATOM      6  C   UNL     1       0.482  -1.882  36.208  1.00  0.00     0.041 C 
ATOM      7  O   UNL     1       1.071  -2.919  35.803  1.00  0.00    -0.550 OA
ATOM      8  O   UNL     1       1.173  -0.679  36.273  1.00  0.00    -0.550 OA
ENDBRANCH   5   6
ENDBRANCH   4   5
ENDBRANCH   3   4
ENDBRANCH   2   3
ENDBRANCH   1   2
BRANCH   1   9
ATOM      9  C   UNL     1      -5.016  -2.534  37.406  1.00  0.00     0.000 C 
BRANCH   9  10
ATOM     10  C   UNL     1      -5.395  -1.044  37.392  1.00  0.00    -0.000 C 
BRANCH  10  11
ATOM     11  C   UNL     1      -4.222  -0.140  36.976  1.00  0.00    -0.000 C 
BRANCH  11  12
ATOM     12  C   UNL     1      -4.544   0.710  35.736  1.00  0.00    -0.000 C 
BRANCH  12  13
ATOM     13  C   UNL     1      -4.393  -0.075  34.424  1.00  0.00    -0.003 C 
ATOM     14  C   UNL     1      -5.755  -0.372  33.803  1.00  0.00     0.004 C 
ENDBRANCH  12  13
ENDBRANCH  11  12
ENDBRANCH  10  11
ENDBRANCH   9  10
ENDBRANCH   1   9
TORSDOF 10
ENDMDL
MODEL 7
REMARK VINA RESULT:    -3.199      1.312      1.634
REMARK INTER + INTRA:          -6.585
REMARK INTER:                  -5.102
REMARK INTRA:                  -1.483
REMARK UNBOUND:                -1.516
REMARK SMILES CCCCCCCCCCCC(=O)[O-]
REMARK SMILES IDX 7 1 8 2 9 3 10 4 11 5 12 6 13 7 14 8 6 9 5 10 4 11 3 12 2 13
REMARK SMILES IDX 1 14
REMARK H PARENT
REMARK Flexibility Score: inf
ROOT
ATOM      1  C   UNL     1      -3.801  -3.332  35.470  1.00  0.00     0.000 C 
ENDROOT
BRANCH   1   2
ATOM      2  C   UNL     1      -3.462  -2.903  34.034  1.00  0.00     0.000 C 
BRANCH   2   3
ATOM      3  C   UNL     1      -2.532  -1.680  33.986  1.00  0.00     0.000 C 
BRANCH   3   4
ATOM      4  C   UNL     1      -1.872  -1.385  35.344  1.00  0.00     0.006 C 
BRANCH   4   5
ATOM      5  C   UNL     1      -0.340  -1.346  35.247  1.00  0.00     0.053 C 
BRANCH   5   6
ATOM      6  C   UNL     1       0.285  -2.551  35.880  1.00  0.00     0.041 C 
ATOM      7  O   UNL     1      -0.354  -3.224  36.732  1.00  0.00    -0.550 OA
ATOM      8  O   UNL     1       1.560  -2.951  35.505  1.00  0.00    -0.550 OA
ENDBRANCH   5   6
ENDBRANCH   4   5
ENDBRANCH   3   4
ENDBRANCH   2   3
ENDBRANCH   1   2
BRANCH   1   9
ATOM      9  C   UNL     1      -5.323  -3.407  35.673  1.00  0.00     0.000 C 
BRANCH   9  10
ATOM     10  C   UNL     1      -5.807  -2.565  36.864  1.00  0.00    -0.000 C 
BRANCH  10  11
ATOM     11  C   UNL     1      -5.096  -1.202  36.951  1.00  0.00    -0.000 C 
BRANCH  11  12
ATOM     12  C   UNL     1      -5.930  -0.062  36.345  1.00  0.00    -0.000 C 
BRANCH  12  13
ATOM     13  C   UNL     1      -5.392   0.407  34.985  1.00  0.00    -0.003 C 
ATOM     14  C   UNL     1      -6.135  -0.273  33.838  1.00  0.00     0.004 C 
ENDBRANCH  12  13
ENDBRANCH  11  12
ENDBRANCH  10  11
ENDBRANCH   9  10
ENDBRANCH   1   9
TORSDOF 10
ENDMDL
MODEL 8
REMARK VINA RESULT:    -3.176      1.732      3.233
REMARK INTER + INTRA:          -6.548
REMARK INTER:                  -4.983
REMARK INTRA:                  -1.566
REMARK UNBOUND:                -1.516
REMARK SMILES CCCCCCCCCCCC(=O)[O-]
REMARK SMILES IDX 7 1 8 2 9 3 10 4 11 5 12 6 13 7 14 8 6 9 5 10 4 11 3 12 2 13
REMARK SMILES IDX 1 14
REMARK H PARENT
REMARK Flexibility Score: inf
ROOT
ATOM      1  C   UNL     1      -6.411  -1.599  37.260  1.00  0.00     0.000 C 
ENDROOT
BRANCH   1   2
ATOM      2  C   UNL     1      -5.292  -2.628  37.040  1.00  0.00     0.000 C 
BRANCH   2   3
ATOM      3  C   UNL     1      -5.362  -3.292  35.655  1.00  0.00     0.000 C 
BRANCH   3   4
ATOM      4  C   UNL     1      -3.971  -3.597  35.074  1.00  0.00     0.006 C 
BRANCH   4   5
ATOM      5  C   UNL     1      -2.875  -3.568  36.149  1.00  0.00     0.053 C 
BRANCH   5   6
ATOM      6  C   UNL     1      -1.721  -2.705  35.739  1.00  0.00     0.041 C 
ATOM      7  O   UNL     1      -1.885  -1.785  34.895  1.00  0.00    -0.550 OA
ATOM      8  O   UNL     1      -0.472  -2.896  36.314  1.00  0.00    -0.550 OA
ENDBRANCH   5   6
ENDBRANCH   4   5
ENDBRANCH   3   4
ENDBRANCH   2   3
ENDBRANCH   1   2
BRANCH   1   9
ATOM      9  C   UNL     1      -5.834  -0.258  37.740  1.00  0.00     0.000 C 
BRANCH   9  10
ATOM     10  C   UNL     1      -4.602   0.183  36.935  1.00  0.00    -0.000 C 
BRANCH  10  11
ATOM     11  C   UNL     1      -4.976   0.975  35.668  1.00  0.00    -0.000 C 
BRANCH  11  12
ATOM     12  C   UNL     1      -4.720   0.178  34.379  1.00  0.00    -0.000 C 
BRANCH  12  13
ATOM     13  C   UNL     1      -6.019  -0.280  33.698  1.00  0.00    -0.003 C 
ATOM     14  C   UNL     1      -7.219   0.502  34.225  1.00  0.00     0.004 C 
ENDBRANCH  12  13
ENDBRANCH  11  12
ENDBRANCH  10  11
ENDBRANCH   9  10
ENDBRANCH   1   9
TORSDOF 10
ENDMDL
MODEL 9
REMARK VINA RESULT:    -3.127      1.405      3.009
REMARK INTER + INTRA:          -6.472
REMARK INTER:                  -5.100
REMARK INTRA:                  -1.372
REMARK UNBOUND:                -1.516
REMARK SMILES CCCCCCCCCCCC(=O)[O-]
REMARK SMILES IDX 7 1 8 2 9 3 10 4 11 5 12 6 13 7 14 8 6 9 5 10 4 11 3 12 2 13
REMARK SMILES IDX 1 14
REMARK H PARENT
REMARK Flexibility Score: inf
ROOT
ATOM      1  C   UNL     1      -3.707  -0.317  37.928  1.00  0.00     0.000 C 
ENDROOT
BRANCH   1   2
ATOM      2  C   UNL     1      -2.449  -0.895  37.262  1.00  0.00     0.000 C 
BRANCH   2   3
ATOM      3  C   UNL     1      -2.155  -0.255  35.895  1.00  0.00     0.000 C 
BRANCH   3   4
ATOM      4  C   UNL     1      -1.249  -1.132  35.014  1.00  0.00     0.006 C 
BRANCH   4   5
ATOM      5  C   UNL     1       0.194  -1.181  35.535  1.00  0.00     0.053 C 
BRANCH   5   6
ATOM      6  C   UNL     1       0.619  -2.581  35.855  1.00  0.00     0.041 C 
ATOM      7  O   UNL     1       1.678  -3.051  35.363  1.00  0.00    -0.550 OA
ATOM      8  O   UNL     1      -0.138  -3.356  36.725  1.00  0.00    -0.550 OA
ENDBRANCH   5   6
ENDBRANCH   4   5
ENDBRANCH   3   4
ENDBRANCH   2   3
ENDBRANCH   1   2
BRANCH   1   9
ATOM      9  C   UNL     1      -4.638  -1.443  38.407  1.00  0.00     0.000 C 
BRANCH   9  10
ATOM     10  C   UNL     1      -5.884  -1.601  37.522  1.00  0.00    -0.000 C 
BRANCH  10  11
ATOM     11  C   UNL     1      -5.739  -2.736  36.493  1.00  0.00    -0.000 C 
BRANCH  11  12
ATOM     12  C   UNL     1      -5.361  -2.220  35.095  1.00  0.00    -0.000 C 
BRANCH  12  13
ATOM     13  C   UNL     1      -4.305  -3.097  34.405  1.00  0.00    -0.003 C 
ATOM     14  C   UNL     1      -3.571  -3.971  35.418  1.00  0.00     0.004 C 
ENDBRANCH  12  13
ENDBRANCH  11  12
ENDBRANCH  10  11
ENDBRANCH   9  10
ENDBRANCH   1   9
TORSDOF 10
ENDMDL
