MODEL 1
REMARK VINA RESULT:    -5.260      0.000      0.000
REMARK INTER + INTRA:          -9.972
REMARK INTER:                  -8.951
REMARK INTRA:                  -1.021
REMARK UNBOUND:                -1.021
REMARK SMILES CCCCCCCCCCCCCC(=O)[O-]
REMARK SMILES IDX 8 1 9 2 10 3 11 4 12 5 13 6 14 7 15 8 16 9 7 10 6 11 5 12
REMARK SMILES IDX 4 13 3 14 2 15 1 16
REMARK H PARENT
REMARK Flexibility Score: inf
ROOT
ATOM      1  C   UNL     1       6.506   0.721 -35.612  1.00  0.00     0.000 C 
ENDROOT
BRANCH   1   2
ATOM      2  C   UNL     1       6.589   0.479 -34.094  1.00  0.00     0.000 C 
BRANCH   2   3
ATOM      3  C   UNL     1       6.776   1.741 -33.231  1.00  0.00     0.000 C 
BRANCH   3   4
ATOM      4  C   UNL     1       7.635   1.490 -31.980  1.00  0.00     0.000 C 
BRANCH   4   5
ATOM      5  C   UNL     1       6.886   1.810 -30.673  1.00  0.00     0.006 C 
BRANCH   5   6
ATOM      6  C   UNL     1       6.786   0.629 -29.694  1.00  0.00     0.053 C 
BRANCH   6   7
ATOM      7  C   UNL     1       7.654   0.824 -28.489  1.00  0.00     0.041 C 
ATOM      8  O   UNL     1       7.261   0.441 -27.355  1.00  0.00    -0.550 OA
ATOM      9  O   UNL     1       8.885   1.456 -28.612  1.00  0.00    -0.550 OA
ENDBRANCH   6   7
ENDBRANCH   5   6
ENDBRANCH   4   5
ENDBRANCH   3   4
ENDBRANCH   2   3
ENDBRANCH   1   2
BRANCH   1  10
ATOM     10  C   UNL     1       7.869   0.598 -36.316  1.00  0.00     0.000 C 
BRANCH  10  11
ATOM     11  C   UNL     1       8.601   1.946 -36.444  1.00  0.00    -0.000 C 
BRANCH  11  12
ATOM     12  C   UNL     1      10.062   1.955 -35.949  1.00  0.00    -0.000 C 
BRANCH  12  13
ATOM     13  C   UNL     1      10.277   1.382 -34.536  1.00  0.00    -0.000 C 
BRANCH  13  14
ATOM     14  C   UNL     1      11.656   1.728 -33.956  1.00  0.00    -0.000 C 
BRANCH  14  15
ATOM     15  C   UNL     1      12.448   2.617 -34.920  1.00  0.00    -0.003 C 
ATOM     16  C   UNL     1      13.835   2.039 -35.190  1.00  0.00     0.004 C 
ENDBRANCH  14  15
ENDBRANCH  13  14
ENDBRANCH  12  13
ENDBRANCH  11  12
ENDBRANCH  10  11
ENDBRANCH   1  10
TORSDOF 12
ENDMDL
MODEL 2
REMARK VINA RESULT:    -5.142      1.990      3.402
REMARK INTER + INTRA:          -9.770
REMARK INTER:                  -9.021
REMARK INTRA:                  -0.749
REMARK UNBOUND:                -1.021
REMARK SMILES CCCCCCCCCCCCCC(=O)[O-]
REMARK SMILES IDX 8 1 9 2 10 3 11 4 12 5 13 6 14 7 15 8 16 9 7 10 6 11 5 12
REMARK SMILES IDX 4 13 3 14 2 15 1 16
REMARK H PARENT
REMARK Flexibility Score: inf
ROOT
ATOM      1  C   UNL     1       6.372   1.397 -32.680  1.00  0.00     0.000 C 
ENDROOT
BRANCH   1   2
ATOM      2  C   UNL     1       7.340   1.900 -31.594  1.00  0.00     0.000 C 
BRANCH   2   3
ATOM      3  C   UNL     1       6.991   1.484 -30.152  1.00  0.00     0.000 C 
BRANCH   3   4
ATOM      4  C   UNL     1       6.268   0.128 -30.077  1.00  0.00     0.000 C 
BRANCH   4   5
ATOM      5  C   UNL     1       6.835  -0.786 -28.975  1.00  0.00     0.006 C 
BRANCH   5   6
ATOM      6  C   UNL     1       6.555  -0.302 -27.543  1.00  0.00     0.053 C 
BRANCH   6   7
ATOM      7  C   UNL     1       7.809   0.108 -26.834  1.00  0.00     0.041 C 
ATOM      8  O   UNL     1       8.532  -0.756 -26.273  1.00  0.00    -0.550 OA
ATOM      9  O   UNL     1       8.164   1.450 -26.769  1.00  0.00    -0.550 OA
ENDBRANCH   6   7
ENDBRANCH   5   6
ENDBRANCH   4   5
ENDBRANCH   3   4
ENDBRANCH   2   3
ENDBRANCH   1   2
BRANCH   1  10
ATOM     10  C   UNL     1       6.985   1.423 -34.091  1.00  0.00     0.000 C 
BRANCH  10  11
ATOM     11  C   UNL     1       8.522   1.340 -34.078  1.00  0.00    -0.000 C 
BRANCH  11  12
ATOM     12  C   UNL     1       9.204   1.477 -35.455  1.00  0.00    -0.000 C 
BRANCH  12  13
ATOM     13  C   UNL     1       8.383   2.228 -36.518  1.00  0.00    -0.000 C 
BRANCH  13  14
ATOM     14  C   UNL     1       7.867   1.306 -37.633  1.00  0.00    -0.000 C 
BRANCH  14  15
ATOM     15  C   UNL     1       8.957   0.326 -38.082  1.00  0.00    -0.003 C 
ATOM     16  C   UNL     1       8.478  -1.119 -37.971  1.00  0.00     0.004 C 
ENDBRANCH  14  15
ENDBRANCH  13  14
ENDBRANCH  12  13
ENDBRANCH  11  12
ENDBRANCH  10  11
ENDBRANCH   1  10
TORSDOF 12
ENDMDL
MODEL 3
REMARK VINA RESULT:    -5.093      3.804      5.509
REMARK INTER + INTRA:          -9.687
REMARK INTER:                  -8.685
REMARK INTRA:                  -1.002
REMARK UNBOUND:                -1.021
REMARK SMILES CCCCCCCCCCCCCC(=O)[O-]
REMARK SMILES IDX 8 1 9 2 10 3 11 4 12 5 13 6 14 7 15 8 16 9 7 10 6 11 5 12
REMARK SMILES IDX 4 13 3 14 2 15 1 16
REMARK H PARENT
REMARK Flexibility Score: inf
ROOT
ATOM      1  C   UNL     1       8.158   2.208 -36.386  1.00  0.00     0.000 C 
ENDROOT
BRANCH   1   2
ATOM      2  C   UNL     1       7.805   1.302 -37.580  1.00  0.00     0.000 C 
BRANCH   2   3
ATOM      3  C   UNL     1       8.955   0.424 -38.107  1.00  0.00     0.000 C 
BRANCH   3   4
ATOM      4  C   UNL     1       8.640  -1.080 -38.041  1.00  0.00     0.000 C 
BRANCH   4   5
ATOM      5  C   UNL     1       7.778  -1.453 -36.821  1.00  0.00     0.006 C 
BRANCH   5   6
ATOM      6  C   UNL     1       7.165  -2.862 -36.883  1.00  0.00     0.053 C 
BRANCH   6   7
ATOM      7  C   UNL     1       6.347  -3.172 -35.667  1.00  0.00     0.041 C 
ATOM      8  O   UNL     1       6.634  -4.163 -34.946  1.00  0.00    -0.550 OA
ATOM      9  O   UNL     1       5.249  -2.383 -35.347  1.00  0.00    -0.550 OA
ENDBRANCH   6   7
ENDBRANCH   5   6
ENDBRANCH   4   5
ENDBRANCH   3   4
ENDBRANCH   2   3
ENDBRANCH   1   2
BRANCH   1  10
ATOM     10  C   UNL     1       7.622   1.674 -35.047  1.00  0.00     0.000 C 
BRANCH  10  11
ATOM     11  C   UNL     1       8.719   1.529 -33.977  1.00  0.00    -0.000 C 
BRANCH  11  12
ATOM     12  C   UNL     1      10.155   1.372 -34.518  1.00  0.00    -0.000 C 
BRANCH  12  13
ATOM     13  C   UNL     1      11.250   1.265 -33.442  1.00  0.00    -0.000 C 
BRANCH  13  14
ATOM     14  C   UNL     1      11.794   2.633 -33.006  1.00  0.00    -0.000 C 
BRANCH  14  15
ATOM     15  C   UNL     1      11.564   2.861 -31.508  1.00  0.00    -0.003 C 
ATOM     16  C   UNL     1      10.699   1.755 -30.909  1.00  0.00     0.004 C 
ENDBRANCH  14  15
ENDBRANCH  13  14
ENDBRANCH  12  13
ENDBRANCH  11  12
ENDBRANCH  10  11
ENDBRANCH   1  10
TORSDOF 12
ENDMDL
MODEL 4
REMARK VINA RESULT:    -5.061      1.317      2.399
REMARK INTER + INTRA:          -9.633
REMARK INTER:                  -8.792
REMARK INTRA:                  -0.841
REMARK UNBOUND:                -1.021
REMARK SMILES CCCCCCCCCCCCCC(=O)[O-]
REMARK SMILES IDX 8 1 9 2 10 3 11 4 12 5 13 6 14 7 15 8 16 9 7 10 6 11 5 12
REMARK SMILES IDX 4 13 3 14 2 15 1 16
REMARK H PARENT
REMARK Flexibility Score: inf
ROOT
ATOM      1  C   UNL     1       5.344   0.577 -33.721  1.00  0.00     0.000 C 
ENDROOT
BRANCH   1   2
ATOM      2  C   UNL     1       5.843   0.480 -32.269  1.00  0.00     0.000 C 
BRANCH   2   3
ATOM      3  C   UNL     1       6.755   1.632 -31.803  1.00  0.00     0.000 C 
BRANCH   3   4
ATOM      4  C   UNL     1       6.757   1.815 -30.276  1.00  0.00     0.000 C 
BRANCH   4   5
ATOM      5  C   UNL     1       7.566   0.726 -29.548  1.00  0.00     0.006 C 
BRANCH   5   6
ATOM      6  C   UNL     1       6.711  -0.282 -28.763  1.00  0.00     0.053 C 
BRANCH   6   7
ATOM      7  C   UNL     1       6.901  -0.145 -27.283  1.00  0.00     0.041 C 
ATOM      8  O   UNL     1       7.701   0.712 -26.823  1.00  0.00    -0.550 OA
ATOM      9  O   UNL     1       6.216  -0.984 -26.413  1.00  0.00    -0.550 OA
ENDBRANCH   6   7
ENDBRANCH   5   6
ENDBRANCH   4   5
ENDBRANCH   3   4
ENDBRANCH   2   3
ENDBRANCH   1   2
BRANCH   1  10
ATOM     10  C   UNL     1       5.975  -0.478 -34.646  1.00  0.00     0.000 C 
BRANCH  10  11
ATOM     11  C   UNL     1       6.969   0.125 -35.654  1.00  0.00    -0.000 C 
BRANCH  11  12
ATOM     12  C   UNL     1       7.346   1.601 -35.409  1.00  0.00    -0.000 C 
BRANCH  12  13
ATOM     13  C   UNL     1       8.554   2.109 -36.216  1.00  0.00    -0.000 C 
BRANCH  13  14
ATOM     14  C   UNL     1       9.888   1.528 -35.723  1.00  0.00    -0.000 C 
BRANCH  14  15
ATOM     15  C   UNL     1       9.929   1.475 -34.192  1.00  0.00    -0.003 C 
ATOM     16  C   UNL     1      11.366   1.459 -33.680  1.00  0.00     0.004 C 
ENDBRANCH  14  15
ENDBRANCH  13  14
ENDBRANCH  12  13
ENDBRANCH  11  12
ENDBRANCH  10  11
ENDBRANCH   1  10
TORSDOF 12
ENDMDL
MODEL 5
REMARK VINA RESULT:    -5.046      1.865      3.943
REMARK INTER + INTRA:          -9.607
REMARK INTER:                  -8.906
REMARK INTRA:                  -0.702
REMARK UNBOUND:                -1.021
REMARK SMILES CCCCCCCCCCCCCC(=O)[O-]
REMARK SMILES IDX 8 1 9 2 10 3 11 4 12 5 13 6 14 7 15 8 16 9 7 10 6 11 5 12
REMARK SMILES IDX 4 13 3 14 2 15 1 16
REMARK H PARENT
REMARK Flexibility Score: inf
ROOT
ATOM      1  C   UNL     1      11.677   2.154 -32.631  1.00  0.00     0.000 C 
ENDROOT
BRANCH   1   2
ATOM      2  C   UNL     1      10.492   2.270 -31.656  1.00  0.00     0.000 C 
BRANCH   2   3
ATOM      3  C   UNL     1      10.697   1.603 -30.283  1.00  0.00     0.000 C 
BRANCH   3   4
ATOM      4  C   UNL     1       9.382   1.111 -29.652  1.00  0.00     0.000 C 
BRANCH   4   5
ATOM      5  C   UNL     1       8.155   1.400 -30.537  1.00  0.00     0.006 C 
BRANCH   5   6
ATOM      6  C   UNL     1       6.825   1.481 -29.771  1.00  0.00     0.053 C 
BRANCH   6   7
ATOM      7  C   UNL     1       6.501   0.196 -29.073  1.00  0.00     0.041 C 
ATOM      8  O   UNL     1       5.979  -0.757 -29.709  1.00  0.00    -0.550 OA
ATOM      9  O   UNL     1       6.747   0.061 -27.712  1.00  0.00    -0.550 OA
ENDBRANCH   6   7
ENDBRANCH   5   6
ENDBRANCH   4   5
ENDBRANCH   3   4
ENDBRANCH   2   3
ENDBRANCH   1   2
BRANCH   1  10
ATOM     10  C   UNL     1      11.393   1.211 -33.813  1.00  0.00     0.000 C 
BRANCH  10  11
ATOM     11  C   UNL     1      10.714   1.923 -34.997  1.00  0.00    -0.000 C 
BRANCH  11  12
ATOM     12  C   UNL     1       9.305   1.411 -35.358  1.00  0.00    -0.000 C 
BRANCH  12  13
ATOM     13  C   UNL     1       8.555   2.250 -36.408  1.00  0.00    -0.000 C 
BRANCH  13  14
ATOM     14  C   UNL     1       7.941   1.395 -37.526  1.00  0.00    -0.000 C 
BRANCH  14  15
ATOM     15  C   UNL     1       8.996   0.480 -38.158  1.00  0.00    -0.003 C 
ATOM     16  C   UNL     1       8.549  -0.979 -38.131  1.00  0.00     0.004 C 
ENDBRANCH  14  15
ENDBRANCH  13  14
ENDBRANCH  12  13
ENDBRANCH  11  12
ENDBRANCH  10  11
ENDBRANCH   1  10
TORSDOF 12
ENDMDL
MODEL 6
REMARK VINA RESULT:    -4.868      2.544      6.964
REMARK INTER + INTRA:          -9.304
REMARK INTER:                  -8.349
REMARK INTRA:                  -0.955
REMARK UNBOUND:                -1.021
REMARK SMILES CCCCCCCCCCCCCC(=O)[O-]
REMARK SMILES IDX 8 1 9 2 10 3 11 4 12 5 13 6 14 7 15 8 16 9 7 10 6 11 5 12
REMARK SMILES IDX 4 13 3 14 2 15 1 16
REMARK H PARENT
REMARK Flexibility Score: inf
ROOT
ATOM      1  C   UNL     1       6.542   0.791 -31.122  1.00  0.00     0.000 C 
ENDROOT
BRANCH   1   2
ATOM      2  C   UNL     1       6.602   1.546 -32.462  1.00  0.00     0.000 C 
BRANCH   2   3
ATOM      3  C   UNL     1       5.835   0.891 -33.626  1.00  0.00     0.000 C 
BRANCH   3   4
ATOM      4  C   UNL     1       6.735   0.568 -34.831  1.00  0.00     0.000 C 
BRANCH   4   5
ATOM      5  C   UNL     1       7.750   1.687 -35.131  1.00  0.00     0.006 C 
BRANCH   5   6
ATOM      6  C   UNL     1       9.137   1.185 -35.565  1.00  0.00     0.053 C 
BRANCH   6   7
ATOM      7  C   UNL     1      10.186   1.475 -34.536  1.00  0.00     0.041 C 
ATOM      8  O   UNL     1       9.927   1.338 -33.311  1.00  0.00    -0.550 OA
ATOM      9  O   UNL     1      11.441   1.924 -34.927  1.00  0.00    -0.550 OA
ENDBRANCH   6   7
ENDBRANCH   5   6
ENDBRANCH   4   5
ENDBRANCH   3   4
ENDBRANCH   2   3
ENDBRANCH   1   2
BRANCH   1  10
ATOM     10  C   UNL     1       6.996   1.648 -29.928  1.00  0.00     0.000 C 
BRANCH  10  11
ATOM     11  C   UNL     1       8.229   1.070 -29.210  1.00  0.00    -0.000 C 
BRANCH  11  12
ATOM     12  C   UNL     1       8.489   1.622 -27.793  1.00  0.00    -0.000 C 
BRANCH  12  13
ATOM     13  C   UNL     1       8.031   0.708 -26.642  1.00  0.00    -0.000 C 
BRANCH  13  14
ATOM     14  C   UNL     1       7.576  -0.677 -27.125  1.00  0.00    -0.000 C 
BRANCH  14  15
ATOM     15  C   UNL     1       6.055  -0.825 -27.011  1.00  0.00    -0.003 C 
ATOM     16  C   UNL     1       5.453  -1.344 -28.314  1.00  0.00     0.004 C 
ENDBRANCH  14  15
ENDBRANCH  13  14
ENDBRANCH  12  13
ENDBRANCH  11  12
ENDBRANCH  10  11
ENDBRANCH   1  10
TORSDOF 12
ENDMDL
MODEL 7
REMARK VINA RESULT:    -4.856      3.533      7.321
REMARK INTER + INTRA:          -9.284
REMARK INTER:                  -8.467
REMARK INTRA:                  -0.817
REMARK UNBOUND:                -1.021
REMARK SMILES CCCCCCCCCCCCCC(=O)[O-]
REMARK SMILES IDX 8 1 9 2 10 3 11 4 12 5 13 6 14 7 15 8 16 9 7 10 6 11 5 12
REMARK SMILES IDX 4 13 3 14 2 15 1 16
REMARK H PARENT
REMARK Flexibility Score: inf
ROOT
ATOM      1  C   UNL     1       9.876   1.763 -31.140  1.00  0.00     0.000 C 
ENDROOT
BRANCH   1   2
ATOM      2  C   UNL     1      10.937   2.199 -32.166  1.00  0.00     0.000 C 
BRANCH   2   3
ATOM      3  C   UNL     1      11.142   1.241 -33.355  1.00  0.00     0.000 C 
BRANCH   3   4
ATOM      4  C   UNL     1      11.576   1.964 -34.641  1.00  0.00     0.000 C 
BRANCH   4   5
ATOM      5  C   UNL     1      10.483   1.955 -35.726  1.00  0.00     0.006 C 
BRANCH   5   6
ATOM      6  C   UNL     1       9.214   1.177 -35.340  1.00  0.00     0.053 C 
BRANCH   6   7
ATOM      7  C   UNL     1       8.415   0.777 -36.543  1.00  0.00     0.041 C 
ATOM      8  O   UNL     1       8.408  -0.422 -36.929  1.00  0.00    -0.550 OA
ATOM      9  O   UNL     1       7.702   1.733 -37.255  1.00  0.00    -0.550 OA
ENDBRANCH   6   7
ENDBRANCH   5   6
ENDBRANCH   4   5
ENDBRANCH   3   4
ENDBRANCH   2   3
ENDBRANCH   1   2
BRANCH   1  10
ATOM     10  C   UNL     1       8.460   1.686 -31.736  1.00  0.00     0.000 C 
BRANCH  10  11
ATOM     11  C   UNL     1       7.360   1.626 -30.660  1.00  0.00    -0.000 C 
BRANCH  11  12
ATOM     12  C   UNL     1       7.854   1.364 -29.223  1.00  0.00    -0.000 C 
BRANCH  12  13
ATOM     13  C   UNL     1       7.311   0.080 -28.570  1.00  0.00    -0.000 C 
BRANCH  13  14
ATOM     14  C   UNL     1       6.157  -0.550 -29.363  1.00  0.00    -0.000 C 
BRANCH  14  15
ATOM     15  C   UNL     1       5.466  -1.648 -28.546  1.00  0.00    -0.003 C 
ATOM     16  C   UNL     1       6.465  -2.713 -28.100  1.00  0.00     0.004 C 
ENDBRANCH  14  15
ENDBRANCH  13  14
ENDBRANCH  12  13
ENDBRANCH  11  12
ENDBRANCH  10  11
ENDBRANCH   1  10
TORSDOF 12
ENDMDL
MODEL 8
REMARK VINA RESULT:    -4.833     10.268     11.988
REMARK INTER + INTRA:          -9.245
REMARK INTER:                  -7.208
REMARK INTRA:                  -2.037
REMARK UNBOUND:                -1.021
REMARK SMILES CCCCCCCCCCCCCC(=O)[O-]
REMARK SMILES IDX 8 1 9 2 10 3 11 4 12 5 13 6 14 7 15 8 16 9 7 10 6 11 5 12
REMARK SMILES IDX 4 13 3 14 2 15 1 16
REMARK H PARENT
REMARK Flexibility Score: inf
ROOT
ATOM      1  C   UNL     1       7.982  -6.905 -28.810  1.00  0.00     0.000 C 
ENDROOT
BRANCH   1   2
ATOM      2  C   UNL     1       8.551  -8.326 -28.646  1.00  0.00     0.000 C 
BRANCH   2   3
ATOM      3  C   UNL     1       9.400  -8.839 -29.824  1.00  0.00     0.000 C 
BRANCH   3   4
ATOM      4  C   UNL     1       9.086 -10.297 -30.199  1.00  0.00     0.000 C 
BRANCH   4   5
ATOM      5  C   UNL     1       8.246 -11.019 -29.128  1.00  0.00     0.006 C 
BRANCH   5   6
ATOM      6  C   UNL     1       8.821 -12.371 -28.676  1.00  0.00     0.053 C 
BRANCH   6   7
ATOM      7  C   UNL     1       9.436 -12.291 -27.313  1.00  0.00     0.041 C 
ATOM      8  O   UNL     1      10.533 -11.697 -27.145  1.00  0.00    -0.550 OA
ATOM      9  O   UNL     1       8.811 -12.900 -26.231  1.00  0.00    -0.550 OA
ENDBRANCH   6   7
ENDBRANCH   5   6
ENDBRANCH   4   5
ENDBRANCH   3   4
ENDBRANCH   2   3
ENDBRANCH   1   2
BRANCH   1  10
ATOM     10  C   UNL     1       6.467  -6.892 -29.083  1.00  0.00     0.000 C 
BRANCH  10  11
ATOM     11  C   UNL     1       5.855  -8.303 -29.129  1.00  0.00    -0.000 C 
BRANCH  11  12
ATOM     12  C   UNL     1       5.462  -8.808 -30.533  1.00  0.00    -0.000 C 
BRANCH  12  13
ATOM     13  C   UNL     1       5.788  -7.845 -31.689  1.00  0.00    -0.000 C 
BRANCH  13  14
ATOM     14  C   UNL     1       6.878  -8.386 -32.625  1.00  0.00    -0.000 C 
BRANCH  14  15
ATOM     15  C   UNL     1       7.882  -7.286 -32.990  1.00  0.00    -0.003 C 
ATOM     16  C   UNL     1       7.410  -5.923 -32.491  1.00  0.00     0.004 C 
ENDBRANCH  14  15
ENDBRANCH  13  14
ENDBRANCH  12  13
ENDBRANCH  11  12
ENDBRANCH  10  11
ENDBRANCH   1  10
TORSDOF 12
ENDMDL
MODEL 9
REMARK VINA RESULT:    -4.776     10.622     12.002
REMARK INTER + INTRA:          -9.148
REMARK INTER:                  -7.135
REMARK INTRA:                  -2.013
REMARK UNBOUND:                -1.021
REMARK SMILES CCCCCCCCCCCCCC(=O)[O-]
REMARK SMILES IDX 8 1 9 2 10 3 11 4 12 5 13 6 14 7 15 8 16 9 7 10 6 11 5 12
REMARK SMILES IDX 4 13 3 14 2 15 1 16
REMARK H PARENT
REMARK Flexibility Score: inf
ROOT
ATOM      1  C   UNL     1       5.391  -7.536 -29.963  1.00  0.00     0.000 C 
ENDROOT
BRANCH   1   2
ATOM      2  C   UNL     1       6.304  -8.430 -29.107  1.00  0.00     0.000 C 
BRANCH   2   3
ATOM      3  C   UNL     1       7.784  -8.007 -29.053  1.00  0.00     0.000 C 
BRANCH   3   4
ATOM      4  C   UNL     1       8.752  -9.202 -29.107  1.00  0.00     0.000 C 
BRANCH   4   5
ATOM      5  C   UNL     1       8.026 -10.558 -29.040  1.00  0.00     0.006 C 
BRANCH   5   6
ATOM      6  C   UNL     1       8.959 -11.780 -29.075  1.00  0.00     0.053 C 
BRANCH   6   7
ATOM      7  C   UNL     1       9.098 -12.418 -27.727  1.00  0.00     0.041 C 
ATOM      8  O   UNL     1       8.422 -13.439 -27.435  1.00  0.00    -0.550 OA
ATOM      9  O   UNL     1       9.954 -11.867 -26.781  1.00  0.00    -0.550 OA
ENDBRANCH   6   7
ENDBRANCH   5   6
ENDBRANCH   4   5
ENDBRANCH   3   4
ENDBRANCH   2   3
ENDBRANCH   1   2
BRANCH   1  10
ATOM     10  C   UNL     1       4.865  -8.245 -31.224  1.00  0.00     0.000 C 
BRANCH  10  11
ATOM     11  C   UNL     1       5.338  -9.705 -31.331  1.00  0.00    -0.000 C 
BRANCH  11  12
ATOM     12  C   UNL     1       5.982 -10.096 -32.677  1.00  0.00    -0.000 C 
BRANCH  12  13
ATOM     13  C   UNL     1       7.506 -10.310 -32.634  1.00  0.00    -0.000 C 
BRANCH  13  14
ATOM     14  C   UNL     1       8.277  -9.275 -33.466  1.00  0.00    -0.000 C 
BRANCH  14  15
ATOM     15  C   UNL     1       8.439  -7.962 -32.691  1.00  0.00    -0.003 C 
ATOM     16  C   UNL     1       7.678  -6.825 -33.369  1.00  0.00     0.004 C 
ENDBRANCH  14  15
ENDBRANCH  13  14
ENDBRANCH  12  13
ENDBRANCH  11  12
ENDBRANCH  10  11
ENDBRANCH   1  10
TORSDOF 12
ENDMDL
