MODEL 1
REMARK VINA RESULT:    -3.943      0.000      0.000
REMARK INTER + INTRA:         -12.880
REMARK INTER:                  -9.014
REMARK INTRA:                  -3.865
REMARK UNBOUND:                -3.865
REMARK SMILES CCCCCCCCCCCCCCCCCCCCCCCC(=O)[O-]
REMARK SMILES IDX 13 1 14 2 15 3 16 4 17 5 18 6 19 7 20 8 21 9 22 10 23 11
REMARK SMILES IDX 24 12 25 13 26 14 12 15 11 16 10 17 9 18 8 19 7 20 6 21 5 22
REMARK SMILES IDX 4 23 3 24 2 25 1 26
REMARK H PARENT
REMARK Flexibility Score: inf
ROOT
ATOM      1  C   UNL     1      41.142  23.525 226.946  1.00  0.00     0.000 C 
ENDROOT
BRANCH   1   2
ATOM      2  C   UNL     1      41.902  22.903 225.764  1.00  0.00     0.000 C 
BRANCH   2   3
ATOM      3  C   UNL     1      41.864  23.782 224.504  1.00  0.00     0.000 C 
BRANCH   3   4
ATOM      4  C   UNL     1      41.055  23.143 223.363  1.00  0.00     0.000 C 
BRANCH   4   5
ATOM      5  C   UNL     1      39.803  23.959 222.988  1.00  0.00     0.000 C 
BRANCH   5   6
ATOM      6  C   UNL     1      39.473  25.126 223.940  1.00  0.00     0.000 C 
BRANCH   6   7
ATOM      7  C   UNL     1      38.275  24.884 224.878  1.00  0.00     0.000 C 
BRANCH   7   8
ATOM      8  C   UNL     1      36.922  24.676 224.166  1.00  0.00     0.000 C 
BRANCH   8   9
ATOM      9  C   UNL     1      36.584  23.213 223.823  1.00  0.00     0.000 C 
BRANCH   9  10
ATOM     10  C   UNL     1      36.195  23.021 222.347  1.00  0.00     0.006 C 
BRANCH  10  11
ATOM     11  C   UNL     1      36.232  24.340 221.562  1.00  0.00     0.053 C 
BRANCH  11  12
ATOM     12  C   UNL     1      35.939  24.130 220.108  1.00  0.00     0.041 C 
ATOM     13  O   UNL     1      34.753  24.180 219.686  1.00  0.00    -0.550 OA
ATOM     14  O   UNL     1      36.973  23.850 219.223  1.00  0.00    -0.550 OA
ENDBRANCH  11  12
ENDBRANCH  10  11
ENDBRANCH   9  10
ENDBRANCH   8   9
ENDBRANCH   7   8
ENDBRANCH   6   7
ENDBRANCH   5   6
ENDBRANCH   4   5
ENDBRANCH   3   4
ENDBRANCH   2   3
ENDBRANCH   1   2
BRANCH   1  15
ATOM     15  C   UNL     1      40.157  22.518 227.553  1.00  0.00     0.000 C 
BRANCH  15  16
ATOM     16  C   UNL     1      39.286  21.875 226.464  1.00  0.00     0.000 C 
BRANCH  16  17
ATOM     17  C   UNL     1      37.917  21.420 226.998  1.00  0.00     0.000 C 
BRANCH  17  18
ATOM     18  C   UNL     1      37.274  20.329 226.125  1.00  0.00    -0.000 C 
BRANCH  18  19
ATOM     19  C   UNL     1      36.813  19.107 226.939  1.00  0.00    -0.000 C 
BRANCH  19  20
ATOM     20  C   UNL     1      37.795  17.916 226.889  1.00  0.00    -0.000 C 
BRANCH  20  21
ATOM     21  C   UNL     1      38.945  18.150 225.892  1.00  0.00    -0.000 C 
BRANCH  21  22
ATOM     22  C   UNL     1      40.311  18.256 226.595  1.00  0.00    -0.000 C 
BRANCH  22  23
ATOM     23  C   UNL     1      41.413  18.864 225.697  1.00  0.00    -0.000 C 
BRANCH  23  24
ATOM     24  C   UNL     1      40.904  19.306 224.312  1.00  0.00    -0.000 C 
BRANCH  24  25
ATOM     25  C   UNL     1      42.012  19.661 223.308  1.00  0.00    -0.003 C 
ATOM     26  C   UNL     1      43.400  19.222 223.775  1.00  0.00     0.004 C 
ENDBRANCH  24  25
ENDBRANCH  23  24
ENDBRANCH  22  23
ENDBRANCH  21  22
ENDBRANCH  20  21
ENDBRANCH  19  20
ENDBRANCH  18  19
ENDBRANCH  17  18
ENDBRANCH  16  17
ENDBRANCH  15  16
ENDBRANCH   1  15
TORSDOF 22
ENDMDL
MODEL 2
REMARK VINA RESULT:    -3.887      1.633      3.722
REMARK INTER + INTRA:         -12.752
REMARK INTER:                  -9.152
REMARK INTRA:                  -3.600
REMARK UNBOUND:                -3.865
REMARK SMILES CCCCCCCCCCCCCCCCCCCCCCCC(=O)[O-]
REMARK SMILES IDX 13 1 14 2 15 3 16 4 17 5 18 6 19 7 20 8 21 9 22 10 23 11
REMARK SMILES IDX 24 12 25 13 26 14 12 15 11 16 10 17 9 18 8 19 7 20 6 21 5 22
REMARK SMILES IDX 4 23 3 24 2 25 1 26
REMARK H PARENT
REMARK Flexibility Score: inf
ROOT
ATOM      1  C   UNL     1      41.902  22.119 223.193  1.00  0.00     0.000 C 
ENDROOT
BRANCH   1   2
ATOM      2  C   UNL     1      40.847  23.164 223.591  1.00  0.00     0.000 C 
BRANCH   2   3
ATOM      3  C   UNL     1      41.363  24.159 224.642  1.00  0.00     0.000 C 
BRANCH   3   4
ATOM      4  C   UNL     1      40.287  24.536 225.675  1.00  0.00     0.000 C 
BRANCH   4   5
ATOM      5  C   UNL     1      39.825  23.335 226.521  1.00  0.00     0.000 C 
BRANCH   5   6
ATOM      6  C   UNL     1      38.325  22.992 226.407  1.00  0.00     0.000 C 
BRANCH   6   7
ATOM      7  C   UNL     1      37.964  22.024 225.263  1.00  0.00     0.000 C 
BRANCH   7   8
ATOM      8  C   UNL     1      37.148  22.651 224.113  1.00  0.00     0.000 C 
BRANCH   8   9
ATOM      9  C   UNL     1      36.852  24.154 224.268  1.00  0.00     0.000 C 
BRANCH   9  10
ATOM     10  C   UNL     1      36.646  24.863 222.919  1.00  0.00     0.006 C 
BRANCH  10  11
ATOM     11  C   UNL     1      35.716  24.074 221.986  1.00  0.00     0.053 C 
BRANCH  11  12
ATOM     12  C   UNL     1      36.299  23.930 220.613  1.00  0.00     0.041 C 
ATOM     13  O   UNL     1      37.472  23.499 220.464  1.00  0.00    -0.550 OA
ATOM     14  O   UNL     1      35.553  24.298 219.499  1.00  0.00    -0.550 OA
ENDBRANCH  11  12
ENDBRANCH  10  11
ENDBRANCH   9  10
ENDBRANCH   8   9
ENDBRANCH   7   8
ENDBRANCH   6   7
ENDBRANCH   5   6
ENDBRANCH   4   5
ENDBRANCH   3   4
ENDBRANCH   2   3
ENDBRANCH   1   2
BRANCH   1  15
ATOM     15  C   UNL     1      41.523  20.730 223.723  1.00  0.00     0.000 C 
BRANCH  15  16
ATOM     16  C   UNL     1      42.255  20.423 225.038  1.00  0.00     0.000 C 
BRANCH  16  17
ATOM     17  C   UNL     1      41.295  19.982 226.156  1.00  0.00     0.000 C 
BRANCH  17  18
ATOM     18  C   UNL     1      41.755  20.448 227.547  1.00  0.00    -0.000 C 
BRANCH  18  19
ATOM     19  C   UNL     1      41.229  19.551 228.682  1.00  0.00    -0.000 C 
BRANCH  19  20
ATOM     20  C   UNL     1      40.436  20.313 229.766  1.00  0.00    -0.000 C 
BRANCH  20  21
ATOM     21  C   UNL     1      38.938  19.958 229.749  1.00  0.00    -0.000 C 
BRANCH  21  22
ATOM     22  C   UNL     1      38.373  19.888 228.318  1.00  0.00    -0.000 C 
BRANCH  22  23
ATOM     23  C   UNL     1      37.806  18.497 227.954  1.00  0.00    -0.000 C 
BRANCH  23  24
ATOM     24  C   UNL     1      37.980  18.132 226.467  1.00  0.00    -0.000 C 
BRANCH  24  25
ATOM     25  C   UNL     1      36.757  18.440 225.588  1.00  0.00    -0.003 C 
ATOM     26  C   UNL     1      35.591  19.032 226.379  1.00  0.00     0.004 C 
ENDBRANCH  24  25
ENDBRANCH  23  24
ENDBRANCH  22  23
ENDBRANCH  21  22
ENDBRANCH  20  21
ENDBRANCH  19  20
ENDBRANCH  18  19
ENDBRANCH  17  18
ENDBRANCH  16  17
ENDBRANCH  15  16
ENDBRANCH   1  15
TORSDOF 22
ENDMDL
MODEL 3
REMARK VINA RESULT:    -3.776      1.360      4.168
REMARK INTER + INTRA:         -12.499
REMARK INTER:                  -8.694
REMARK INTRA:                  -3.804
REMARK UNBOUND:                -3.865
REMARK SMILES CCCCCCCCCCCCCCCCCCCCCCCC(=O)[O-]
REMARK SMILES IDX 13 1 14 2 15 3 16 4 17 5 18 6 19 7 20 8 21 9 22 10 23 11
REMARK SMILES IDX 24 12 25 13 26 14 12 15 11 16 10 17 9 18 8 19 7 20 6 21 5 22
REMARK SMILES IDX 4 23 3 24 2 25 1 26
REMARK H PARENT
REMARK Flexibility Score: inf
ROOT
ATOM      1  C   UNL     1      37.886  20.627 225.587  1.00  0.00     0.000 C 
ENDROOT
BRANCH   1   2
ATOM      2  C   UNL     1      38.193  22.118 225.800  1.00  0.00     0.000 C 
BRANCH   2   3
ATOM      3  C   UNL     1      37.980  22.566 227.255  1.00  0.00     0.000 C 
BRANCH   3   4
ATOM      4  C   UNL     1      39.161  23.390 227.797  1.00  0.00     0.000 C 
BRANCH   4   5
ATOM      5  C   UNL     1      38.913  24.908 227.725  1.00  0.00     0.000 C 
BRANCH   5   6
ATOM      6  C   UNL     1      37.554  25.322 227.124  1.00  0.00     0.000 C 
BRANCH   6   7
ATOM      7  C   UNL     1      37.616  25.855 225.679  1.00  0.00     0.000 C 
BRANCH   7   8
ATOM      8  C   UNL     1      36.532  25.300 224.733  1.00  0.00     0.000 C 
BRANCH   8   9
ATOM      9  C   UNL     1      36.975  25.118 223.269  1.00  0.00     0.000 C 
BRANCH   9  10
ATOM     10  C   UNL     1      36.510  23.781 222.667  1.00  0.00     0.006 C 
BRANCH  10  11
ATOM     11  C   UNL     1      35.829  23.966 221.304  1.00  0.00     0.053 C 
BRANCH  11  12
ATOM     12  C   UNL     1      36.799  23.807 220.172  1.00  0.00     0.041 C 
ATOM     13  O   UNL     1      37.901  23.227 220.358  1.00  0.00    -0.550 OA
ATOM     14  O   UNL     1      36.496  24.327 218.919  1.00  0.00    -0.550 OA
ENDBRANCH  11  12
ENDBRANCH  10  11
ENDBRANCH   9  10
ENDBRANCH   8   9
ENDBRANCH   7   8
ENDBRANCH   6   7
ENDBRANCH   5   6
ENDBRANCH   4   5
ENDBRANCH   3   4
ENDBRANCH   2   3
ENDBRANCH   1   2
BRANCH   1  15
ATOM     15  C   UNL     1      38.302  19.801 226.811  1.00  0.00     0.000 C 
BRANCH  15  16
ATOM     16  C   UNL     1      38.926  18.463 226.387  1.00  0.00     0.000 C 
BRANCH  16  17
ATOM     17  C   UNL     1      39.959  18.627 225.259  1.00  0.00     0.000 C 
BRANCH  17  18
ATOM     18  C   UNL     1      41.287  19.220 225.756  1.00  0.00    -0.000 C 
BRANCH  18  19
ATOM     19  C   UNL     1      41.653  20.540 225.055  1.00  0.00    -0.000 C 
BRANCH  19  20
ATOM     20  C   UNL     1      42.091  20.366 223.584  1.00  0.00    -0.000 C 
BRANCH  20  21
ATOM     21  C   UNL     1      42.010  21.684 222.792  1.00  0.00    -0.000 C 
BRANCH  21  22
ATOM     22  C   UNL     1      40.693  22.439 223.052  1.00  0.00    -0.000 C 
BRANCH  22  23
ATOM     23  C   UNL     1      40.883  23.967 223.190  1.00  0.00    -0.000 C 
BRANCH  23  24
ATOM     24  C   UNL     1      40.781  24.470 224.643  1.00  0.00    -0.000 C 
BRANCH  24  25
ATOM     25  C   UNL     1      42.020  24.185 225.506  1.00  0.00    -0.003 C 
ATOM     26  C   UNL     1      42.765  25.456 225.914  1.00  0.00     0.004 C 
ENDBRANCH  24  25
ENDBRANCH  23  24
ENDBRANCH  22  23
ENDBRANCH  21  22
ENDBRANCH  20  21
ENDBRANCH  19  20
ENDBRANCH  18  19
ENDBRANCH  17  18
ENDBRANCH  16  17
ENDBRANCH  15  16
ENDBRANCH   1  15
TORSDOF 22
ENDMDL
MODEL 4
REMARK VINA RESULT:    -3.769      1.399      3.790
REMARK INTER + INTRA:         -12.481
REMARK INTER:                  -8.367
REMARK INTRA:                  -4.114
REMARK UNBOUND:                -3.865
REMARK SMILES CCCCCCCCCCCCCCCCCCCCCCCC(=O)[O-]
REMARK SMILES IDX 13 1 14 2 15 3 16 4 17 5 18 6 19 7 20 8 21 9 22 10 23 11
REMARK SMILES IDX 24 12 25 13 26 14 12 15 11 16 10 17 9 18 8 19 7 20 6 21 5 22
REMARK SMILES IDX 4 23 3 24 2 25 1 26
REMARK H PARENT
REMARK Flexibility Score: inf
ROOT
ATOM      1  C   UNL     1      42.336  21.392 222.517  1.00  0.00     0.000 C 
ENDROOT
BRANCH   1   2
ATOM      2  C   UNL     1      41.044  22.120 222.922  1.00  0.00     0.000 C 
BRANCH   2   3
ATOM      3  C   UNL     1      41.292  23.573 223.356  1.00  0.00     0.000 C 
BRANCH   3   4
ATOM      4  C   UNL     1      41.796  23.678 224.806  1.00  0.00     0.000 C 
BRANCH   4   5
ATOM      5  C   UNL     1      41.166  24.855 225.574  1.00  0.00     0.000 C 
BRANCH   5   6
ATOM      6  C   UNL     1      40.405  24.468 226.858  1.00  0.00     0.000 C 
BRANCH   6   7
ATOM      7  C   UNL     1      38.895  24.774 226.838  1.00  0.00     0.000 C 
BRANCH   7   8
ATOM      8  C   UNL     1      38.386  25.459 225.553  1.00  0.00     0.000 C 
BRANCH   8   9
ATOM      9  C   UNL     1      37.275  24.699 224.805  1.00  0.00     0.000 C 
BRANCH   9  10
ATOM     10  C   UNL     1      37.719  24.208 223.417  1.00  0.00     0.006 C 
BRANCH  10  11
ATOM     11  C   UNL     1      36.767  23.147 222.846  1.00  0.00     0.053 C 
BRANCH  11  12
ATOM     12  C   UNL     1      35.940  23.690 221.720  1.00  0.00     0.041 C 
ATOM     13  O   UNL     1      36.476  23.960 220.613  1.00  0.00    -0.550 OA
ATOM     14  O   UNL     1      34.583  23.924 221.904  1.00  0.00    -0.550 OA
ENDBRANCH  11  12
ENDBRANCH  10  11
ENDBRANCH   9  10
ENDBRANCH   8   9
ENDBRANCH   7   8
ENDBRANCH   6   7
ENDBRANCH   5   6
ENDBRANCH   4   5
ENDBRANCH   3   4
ENDBRANCH   2   3
ENDBRANCH   1   2
BRANCH   1  15
ATOM     15  C   UNL     1      42.340  19.952 223.045  1.00  0.00     0.000 C 
BRANCH  15  16
ATOM     16  C   UNL     1      42.460  19.926 224.576  1.00  0.00     0.000 C 
BRANCH  16  17
ATOM     17  C   UNL     1      41.540  18.875 225.219  1.00  0.00     0.000 C 
BRANCH  17  18
ATOM     18  C   UNL     1      40.075  19.339 225.293  1.00  0.00    -0.000 C 
BRANCH  18  19
ATOM     19  C   UNL     1      39.927  20.765 225.852  1.00  0.00    -0.000 C 
BRANCH  19  20
ATOM     20  C   UNL     1      38.470  21.275 225.887  1.00  0.00    -0.000 C 
BRANCH  20  21
ATOM     21  C   UNL     1      37.863  21.209 227.301  1.00  0.00    -0.000 C 
BRANCH  21  22
ATOM     22  C   UNL     1      38.944  21.143 228.395  1.00  0.00    -0.000 C 
BRANCH  22  23
ATOM     23  C   UNL     1      38.818  19.899 229.303  1.00  0.00    -0.000 C 
BRANCH  23  24
ATOM     24  C   UNL     1      38.956  18.566 228.543  1.00  0.00    -0.000 C 
BRANCH  24  25
ATOM     25  C   UNL     1      37.635  17.808 228.338  1.00  0.00    -0.003 C 
ATOM     26  C   UNL     1      37.276  17.629 226.862  1.00  0.00     0.004 C 
ENDBRANCH  24  25
ENDBRANCH  23  24
ENDBRANCH  22  23
ENDBRANCH  21  22
ENDBRANCH  20  21
ENDBRANCH  19  20
ENDBRANCH  18  19
ENDBRANCH  17  18
ENDBRANCH  16  17
ENDBRANCH  15  16
ENDBRANCH   1  15
TORSDOF 22
ENDMDL
MODEL 5
REMARK VINA RESULT:    -3.751      1.558      3.541
REMARK INTER + INTRA:         -12.440
REMARK INTER:                  -8.527
REMARK INTRA:                  -3.913
REMARK UNBOUND:                -3.865
REMARK SMILES CCCCCCCCCCCCCCCCCCCCCCCC(=O)[O-]
REMARK SMILES IDX 13 1 14 2 15 3 16 4 17 5 18 6 19 7 20 8 21 9 22 10 23 11
REMARK SMILES IDX 24 12 25 13 26 14 12 15 11 16 10 17 9 18 8 19 7 20 6 21 5 22
REMARK SMILES IDX 4 23 3 24 2 25 1 26
REMARK H PARENT
REMARK Flexibility Score: inf
ROOT
ATOM      1  C   UNL     1      41.651  21.307 225.829  1.00  0.00     0.000 C 
ENDROOT
BRANCH   1   2
ATOM      2  C   UNL     1      42.399  21.767 227.090  1.00  0.00     0.000 C 
BRANCH   2   3
ATOM      3  C   UNL     1      42.055  23.210 227.493  1.00  0.00     0.000 C 
BRANCH   3   4
ATOM      4  C   UNL     1      43.139  24.215 227.067  1.00  0.00     0.000 C 
BRANCH   4   5
ATOM      5  C   UNL     1      42.684  25.133 225.917  1.00  0.00     0.000 C 
BRANCH   5   6
ATOM      6  C   UNL     1      41.221  24.945 225.469  1.00  0.00     0.000 C 
BRANCH   6   7
ATOM      7  C   UNL     1      41.042  24.341 224.062  1.00  0.00     0.000 C 
BRANCH   7   8
ATOM      8  C   UNL     1      39.598  24.372 223.519  1.00  0.00     0.000 C 
BRANCH   8   9
ATOM      9  C   UNL     1      38.567  25.040 224.447  1.00  0.00     0.000 C 
BRANCH   9  10
ATOM     10  C   UNL     1      37.357  25.607 223.684  1.00  0.00     0.006 C 
BRANCH  10  11
ATOM     11  C   UNL     1      36.090  24.770 223.904  1.00  0.00     0.053 C 
BRANCH  11  12
ATOM     12  C   UNL     1      35.789  23.895 222.725  1.00  0.00     0.041 C 
ATOM     13  O   UNL     1      34.706  24.027 222.097  1.00  0.00    -0.550 OA
ATOM     14  O   UNL     1      36.694  22.914 222.339  1.00  0.00    -0.550 OA
ENDBRANCH  11  12
ENDBRANCH  10  11
ENDBRANCH   9  10
ENDBRANCH   8   9
ENDBRANCH   7   8
ENDBRANCH   6   7
ENDBRANCH   5   6
ENDBRANCH   4   5
ENDBRANCH   3   4
ENDBRANCH   2   3
ENDBRANCH   1   2
BRANCH   1  15
ATOM     15  C   UNL     1      42.252  20.006 225.281  1.00  0.00     0.000 C 
BRANCH  15  16
ATOM     16  C   UNL     1      41.286  19.324 224.301  1.00  0.00     0.000 C 
BRANCH  16  17
ATOM     17  C   UNL     1      40.112  18.635 225.017  1.00  0.00     0.000 C 
BRANCH  17  18
ATOM     18  C   UNL     1      40.578  17.620 226.074  1.00  0.00    -0.000 C 
BRANCH  18  19
ATOM     19  C   UNL     1      39.455  17.205 227.040  1.00  0.00    -0.000 C 
BRANCH  19  20
ATOM     20  C   UNL     1      38.090  17.859 226.732  1.00  0.00    -0.000 C 
BRANCH  20  21
ATOM     21  C   UNL     1      37.515  18.608 227.948  1.00  0.00    -0.000 C 
BRANCH  21  22
ATOM     22  C   UNL     1      38.620  19.146 228.875  1.00  0.00    -0.000 C 
BRANCH  22  23
ATOM     23  C   UNL     1      39.120  20.554 228.477  1.00  0.00    -0.000 C 
BRANCH  23  24
ATOM     24  C   UNL     1      38.027  21.439 227.847  1.00  0.00    -0.000 C 
BRANCH  24  25
ATOM     25  C   UNL     1      38.429  22.100 226.519  1.00  0.00    -0.003 C 
ATOM     26  C   UNL     1      37.758  21.455 225.307  1.00  0.00     0.004 C 
ENDBRANCH  24  25
ENDBRANCH  23  24
ENDBRANCH  22  23
ENDBRANCH  21  22
ENDBRANCH  20  21
ENDBRANCH  19  20
ENDBRANCH  18  19
ENDBRANCH  17  18
ENDBRANCH  16  17
ENDBRANCH  15  16
ENDBRANCH   1  15
TORSDOF 22
ENDMDL
MODEL 6
REMARK VINA RESULT:    -3.747      1.981      3.128
REMARK INTER + INTRA:         -12.431
REMARK INTER:                  -9.020
REMARK INTRA:                  -3.410
REMARK UNBOUND:                -3.865
REMARK SMILES CCCCCCCCCCCCCCCCCCCCCCCC(=O)[O-]
REMARK SMILES IDX 13 1 14 2 15 3 16 4 17 5 18 6 19 7 20 8 21 9 22 10 23 11
REMARK SMILES IDX 24 12 25 13 26 14 12 15 11 16 10 17 9 18 8 19 7 20 6 21 5 22
REMARK SMILES IDX 4 23 3 24 2 25 1 26
REMARK H PARENT
REMARK Flexibility Score: inf
ROOT
ATOM      1  C   UNL     1      40.186  20.513 226.256  1.00  0.00     0.000 C 
ENDROOT
BRANCH   1   2
ATOM      2  C   UNL     1      41.495  21.312 226.363  1.00  0.00     0.000 C 
BRANCH   2   3
ATOM      3  C   UNL     1      41.756  22.191 225.130  1.00  0.00     0.000 C 
BRANCH   3   4
ATOM      4  C   UNL     1      40.913  21.769 223.914  1.00  0.00     0.000 C 
BRANCH   4   5
ATOM      5  C   UNL     1      40.187  22.954 223.250  1.00  0.00     0.000 C 
BRANCH   5   6
ATOM      6  C   UNL     1      40.270  24.288 224.020  1.00  0.00     0.000 C 
BRANCH   6   7
ATOM      7  C   UNL     1      38.996  24.671 224.799  1.00  0.00     0.000 C 
BRANCH   7   8
ATOM      8  C   UNL     1      38.189  25.838 224.193  1.00  0.00     0.000 C 
BRANCH   8   9
ATOM      9  C   UNL     1      36.812  25.451 223.623  1.00  0.00     0.000 C 
BRANCH   9  10
ATOM     10  C   UNL     1      36.505  23.952 223.773  1.00  0.00     0.006 C 
BRANCH  10  11
ATOM     11  C   UNL     1      36.527  23.218 222.425  1.00  0.00     0.053 C 
BRANCH  11  12
ATOM     12  C   UNL     1      35.602  23.852 221.431  1.00  0.00     0.041 C 
ATOM     13  O   UNL     1      36.064  24.408 220.400  1.00  0.00    -0.550 OA
ATOM     14  O   UNL     1      34.231  23.852 221.658  1.00  0.00    -0.550 OA
ENDBRANCH  11  12
ENDBRANCH  10  11
ENDBRANCH   9  10
ENDBRANCH   8   9
ENDBRANCH   7   8
ENDBRANCH   6   7
ENDBRANCH   5   6
ENDBRANCH   4   5
ENDBRANCH   3   4
ENDBRANCH   2   3
ENDBRANCH   1   2
BRANCH   1  15
ATOM     15  C   UNL     1      39.084  21.153 227.109  1.00  0.00     0.000 C 
BRANCH  15  16
ATOM     16  C   UNL     1      37.892  21.581 226.240  1.00  0.00     0.000 C 
BRANCH  16  17
ATOM     17  C   UNL     1      37.488  20.499 225.224  1.00  0.00     0.000 C 
BRANCH  17  18
ATOM     18  C   UNL     1      36.276  19.675 225.688  1.00  0.00    -0.000 C 
BRANCH  18  19
ATOM     19  C   UNL     1      36.644  18.227 226.057  1.00  0.00    -0.000 C 
BRANCH  19  20
ATOM     20  C   UNL     1      37.004  18.033 227.546  1.00  0.00    -0.000 C 
BRANCH  20  21
ATOM     21  C   UNL     1      37.933  16.825 227.769  1.00  0.00    -0.000 C 
BRANCH  21  22
ATOM     22  C   UNL     1      39.327  17.043 227.152  1.00  0.00    -0.000 C 
BRANCH  22  23
ATOM     23  C   UNL     1      40.248  15.807 227.275  1.00  0.00    -0.000 C 
BRANCH  23  24
ATOM     24  C   UNL     1      39.528  14.553 227.807  1.00  0.00    -0.000 C 
BRANCH  24  25
ATOM     25  C   UNL     1      40.189  13.910 229.036  1.00  0.00    -0.003 C 
ATOM     26  C   UNL     1      41.148  14.857 229.758  1.00  0.00     0.004 C 
ENDBRANCH  24  25
ENDBRANCH  23  24
ENDBRANCH  22  23
ENDBRANCH  21  22
ENDBRANCH  20  21
ENDBRANCH  19  20
ENDBRANCH  18  19
ENDBRANCH  17  18
ENDBRANCH  16  17
ENDBRANCH  15  16
ENDBRANCH   1  15
TORSDOF 22
ENDMDL
MODEL 7
REMARK VINA RESULT:    -3.705      3.878      7.070
REMARK INTER + INTRA:         -12.335
REMARK INTER:                  -7.799
REMARK INTRA:                  -4.536
REMARK UNBOUND:                -3.865
REMARK SMILES CCCCCCCCCCCCCCCCCCCCCCCC(=O)[O-]
REMARK SMILES IDX 13 1 14 2 15 3 16 4 17 5 18 6 19 7 20 8 21 9 22 10 23 11
REMARK SMILES IDX 24 12 25 13 26 14 12 15 11 16 10 17 9 18 8 19 7 20 6 21 5 22
REMARK SMILES IDX 4 23 3 24 2 25 1 26
REMARK H PARENT
REMARK Flexibility Score: inf
ROOT
ATOM      1  C   UNL     1      41.653  24.816 225.267  1.00  0.00     0.000 C 
ENDROOT
BRANCH   1   2
ATOM      2  C   UNL     1      42.382  23.729 226.073  1.00  0.00     0.000 C 
BRANCH   2   3
ATOM      3  C   UNL     1      41.848  23.593 227.507  1.00  0.00     0.000 C 
BRANCH   3   4
ATOM      4  C   UNL     1      41.966  22.157 228.046  1.00  0.00     0.000 C 
BRANCH   4   5
ATOM      5  C   UNL     1      42.105  21.108 226.927  1.00  0.00     0.000 C 
BRANCH   5   6
ATOM      6  C   UNL     1      41.294  19.813 227.137  1.00  0.00     0.000 C 
BRANCH   6   7
ATOM      7  C   UNL     1      41.324  18.826 225.954  1.00  0.00     0.000 C 
BRANCH   7   8
ATOM      8  C   UNL     1      40.336  17.646 226.065  1.00  0.00     0.000 C 
BRANCH   8   9
ATOM      9  C   UNL     1      38.875  18.044 226.345  1.00  0.00     0.000 C 
BRANCH   9  10
ATOM     10  C   UNL     1      38.384  17.577 227.726  1.00  0.00     0.006 C 
BRANCH  10  11
ATOM     11  C   UNL     1      38.204  18.747 228.703  1.00  0.00     0.053 C 
BRANCH  11  12
ATOM     12  C   UNL     1      38.940  18.518 229.988  1.00  0.00     0.041 C 
ATOM     13  O   UNL     1      38.444  18.902 231.081  1.00  0.00    -0.550 OA
ATOM     14  O   UNL     1      40.186  17.904 229.976  1.00  0.00    -0.550 OA
ENDBRANCH  11  12
ENDBRANCH  10  11
ENDBRANCH   9  10
ENDBRANCH   8   9
ENDBRANCH   7   8
ENDBRANCH   6   7
ENDBRANCH   5   6
ENDBRANCH   4   5
ENDBRANCH   3   4
ENDBRANCH   2   3
ENDBRANCH   1   2
BRANCH   1  15
ATOM     15  C   UNL     1      41.078  24.240 223.967  1.00  0.00     0.000 C 
BRANCH  15  16
ATOM     16  C   UNL     1      41.646  22.840 223.686  1.00  0.00     0.000 C 
BRANCH  16  17
ATOM     17  C   UNL     1      40.560  21.751 223.706  1.00  0.00     0.000 C 
BRANCH  17  18
ATOM     18  C   UNL     1      39.199  22.282 224.188  1.00  0.00    -0.000 C 
BRANCH  18  19
ATOM     19  C   UNL     1      38.626  21.475 225.366  1.00  0.00    -0.000 C 
BRANCH  19  20
ATOM     20  C   UNL     1      37.875  22.335 226.406  1.00  0.00    -0.000 C 
BRANCH  20  21
ATOM     21  C   UNL     1      38.460  23.754 226.521  1.00  0.00    -0.000 C 
BRANCH  21  22
ATOM     22  C   UNL     1      37.396  24.843 226.291  1.00  0.00    -0.000 C 
BRANCH  22  23
ATOM     23  C   UNL     1      37.782  25.848 225.183  1.00  0.00    -0.000 C 
BRANCH  23  24
ATOM     24  C   UNL     1      37.426  25.366 223.763  1.00  0.00    -0.000 C 
BRANCH  24  25
ATOM     25  C   UNL     1      36.101  24.593 223.666  1.00  0.00    -0.003 C 
ATOM     26  C   UNL     1      36.092  23.571 222.529  1.00  0.00     0.004 C 
ENDBRANCH  24  25
ENDBRANCH  23  24
ENDBRANCH  22  23
ENDBRANCH  21  22
ENDBRANCH  20  21
ENDBRANCH  19  20
ENDBRANCH  18  19
ENDBRANCH  17  18
ENDBRANCH  16  17
ENDBRANCH  15  16
ENDBRANCH   1  15
TORSDOF 22
ENDMDL
MODEL 8
REMARK VINA RESULT:    -3.699      4.075      7.812
REMARK INTER + INTRA:         -12.321
REMARK INTER:                  -8.905
REMARK INTRA:                  -3.416
REMARK UNBOUND:                -3.865
REMARK SMILES CCCCCCCCCCCCCCCCCCCCCCCC(=O)[O-]
REMARK SMILES IDX 13 1 14 2 15 3 16 4 17 5 18 6 19 7 20 8 21 9 22 10 23 11
REMARK SMILES IDX 24 12 25 13 26 14 12 15 11 16 10 17 9 18 8 19 7 20 6 21 5 22
REMARK SMILES IDX 4 23 3 24 2 25 1 26
REMARK H PARENT
REMARK Flexibility Score: inf
ROOT
ATOM      1  C   UNL     1      40.991  20.138 225.999  1.00  0.00     0.000 C 
ENDROOT
BRANCH   1   2
ATOM      2  C   UNL     1      39.504  20.165 225.610  1.00  0.00     0.000 C 
BRANCH   2   3
ATOM      3  C   UNL     1      38.716  21.255 226.352  1.00  0.00     0.000 C 
BRANCH   3   4
ATOM      4  C   UNL     1      37.194  21.059 226.245  1.00  0.00     0.000 C 
BRANCH   4   5
ATOM      5  C   UNL     1      36.796  20.070 225.132  1.00  0.00     0.000 C 
BRANCH   5   6
ATOM      6  C   UNL     1      36.074  18.796 225.615  1.00  0.00     0.000 C 
BRANCH   6   7
ATOM      7  C   UNL     1      36.229  18.488 227.117  1.00  0.00     0.000 C 
BRANCH   7   8
ATOM      8  C   UNL     1      37.082  17.244 227.442  1.00  0.00     0.000 C 
BRANCH   8   9
ATOM      9  C   UNL     1      38.528  17.542 227.880  1.00  0.00     0.000 C 
BRANCH   9  10
ATOM     10  C   UNL     1      38.606  18.558 229.031  1.00  0.00     0.006 C 
BRANCH  10  11
ATOM     11  C   UNL     1      39.510  18.073 230.173  1.00  0.00     0.053 C 
BRANCH  11  12
ATOM     12  C   UNL     1      39.650  19.106 231.249  1.00  0.00     0.041 C 
ATOM     13  O   UNL     1      40.159  18.801 232.359  1.00  0.00    -0.550 OA
ATOM     14  O   UNL     1      39.191  20.401 231.035  1.00  0.00    -0.550 OA
ENDBRANCH  11  12
ENDBRANCH  10  11
ENDBRANCH   9  10
ENDBRANCH   8   9
ENDBRANCH   7   8
ENDBRANCH   6   7
ENDBRANCH   5   6
ENDBRANCH   4   5
ENDBRANCH   3   4
ENDBRANCH   2   3
ENDBRANCH   1   2
BRANCH   1  15
ATOM     15  C   UNL     1      41.806  21.087 225.110  1.00  0.00     0.000 C 
BRANCH  15  16
ATOM     16  C   UNL     1      42.051  22.429 225.815  1.00  0.00     0.000 C 
BRANCH  16  17
ATOM     17  C   UNL     1      41.807  23.632 224.889  1.00  0.00     0.000 C 
BRANCH  17  18
ATOM     18  C   UNL     1      41.274  23.216 223.508  1.00  0.00    -0.000 C 
BRANCH  18  19
ATOM     19  C   UNL     1      40.058  24.046 223.061  1.00  0.00    -0.000 C 
BRANCH  19  20
ATOM     20  C   UNL     1      39.051  24.339 224.194  1.00  0.00    -0.000 C 
BRANCH  20  21
ATOM     21  C   UNL     1      38.282  25.654 223.965  1.00  0.00    -0.000 C 
BRANCH  21  22
ATOM     22  C   UNL     1      36.804  25.409 223.611  1.00  0.00    -0.000 C 
BRANCH  22  23
ATOM     23  C   UNL     1      36.392  23.922 223.706  1.00  0.00    -0.000 C 
BRANCH  23  24
ATOM     24  C   UNL     1      35.946  23.320 222.360  1.00  0.00    -0.000 C 
BRANCH  24  25
ATOM     25  C   UNL     1      36.377  24.129 221.125  1.00  0.00    -0.003 C 
ATOM     26  C   UNL     1      37.390  23.387 220.253  1.00  0.00     0.004 C 
ENDBRANCH  24  25
ENDBRANCH  23  24
ENDBRANCH  22  23
ENDBRANCH  21  22
ENDBRANCH  20  21
ENDBRANCH  19  20
ENDBRANCH  18  19
ENDBRANCH  17  18
ENDBRANCH  16  17
ENDBRANCH  15  16
ENDBRANCH   1  15
TORSDOF 22
ENDMDL
MODEL 9
REMARK VINA RESULT:    -3.668      3.830      6.882
REMARK INTER + INTRA:         -12.250
REMARK INTER:                  -8.253
REMARK INTRA:                  -3.996
REMARK UNBOUND:                -3.865
REMARK SMILES CCCCCCCCCCCCCCCCCCCCCCCC(=O)[O-]
REMARK SMILES IDX 13 1 14 2 15 3 16 4 17 5 18 6 19 7 20 8 21 9 22 10 23 11
REMARK SMILES IDX 24 12 25 13 26 14 12 15 11 16 10 17 9 18 8 19 7 20 6 21 5 22
REMARK SMILES IDX 4 23 3 24 2 25 1 26
REMARK H PARENT
REMARK Flexibility Score: inf
ROOT
ATOM      1  C   UNL     1      41.777  22.729 224.531  1.00  0.00     0.000 C 
ENDROOT
BRANCH   1   2
ATOM      2  C   UNL     1      41.247  22.872 223.095  1.00  0.00     0.000 C 
BRANCH   2   3
ATOM      3  C   UNL     1      40.221  24.006 222.950  1.00  0.00     0.000 C 
BRANCH   3   4
ATOM      4  C   UNL     1      38.788  23.484 222.749  1.00  0.00     0.000 C 
BRANCH   4   5
ATOM      5  C   UNL     1      37.959  23.500 224.047  1.00  0.00     0.000 C 
BRANCH   5   6
ATOM      6  C   UNL     1      37.845  22.142 224.769  1.00  0.00     0.000 C 
BRANCH   6   7
ATOM      7  C   UNL     1      38.375  22.126 226.216  1.00  0.00     0.000 C 
BRANCH   7   8
ATOM      8  C   UNL     1      39.300  20.939 226.557  1.00  0.00     0.000 C 
BRANCH   8   9
ATOM      9  C   UNL     1      39.454  19.890 225.441  1.00  0.00     0.000 C 
BRANCH   9  10
ATOM     10  C   UNL     1      39.112  18.466 225.910  1.00  0.00     0.006 C 
BRANCH  10  11
ATOM     11  C   UNL     1      38.578  18.442 227.348  1.00  0.00     0.053 C 
BRANCH  11  12
ATOM     12  C   UNL     1      37.123  18.085 227.396  1.00  0.00     0.041 C 
ATOM     13  O   UNL     1      36.741  17.067 228.031  1.00  0.00    -0.550 OA
ATOM     14  O   UNL     1      36.194  18.862 226.715  1.00  0.00    -0.550 OA
ENDBRANCH  11  12
ENDBRANCH  10  11
ENDBRANCH   9  10
ENDBRANCH   8   9
ENDBRANCH   7   8
ENDBRANCH   6   7
ENDBRANCH   5   6
ENDBRANCH   4   5
ENDBRANCH   3   4
ENDBRANCH   2   3
ENDBRANCH   1   2
BRANCH   1  15
ATOM     15  C   UNL     1      41.807  24.088 225.241  1.00  0.00     0.000 C 
BRANCH  15  16
ATOM     16  C   UNL     1      41.748  23.915 226.766  1.00  0.00     0.000 C 
BRANCH  16  17
ATOM     17  C   UNL     1      40.697  24.828 227.420  1.00  0.00     0.000 C 
BRANCH  17  18
ATOM     18  C   UNL     1      39.709  25.417 226.400  1.00  0.00    -0.000 C 
BRANCH  18  19
ATOM     19  C   UNL     1      39.978  26.902 226.096  1.00  0.00    -0.000 C 
BRANCH  19  20
ATOM     20  C   UNL     1      40.859  27.607 227.151  1.00  0.00    -0.000 C 
BRANCH  20  21
ATOM     21  C   UNL     1      42.170  28.145 226.549  1.00  0.00    -0.000 C 
BRANCH  21  22
ATOM     22  C   UNL     1      43.392  27.313 226.979  1.00  0.00    -0.000 C 
BRANCH  22  23
ATOM     23  C   UNL     1      43.423  27.013 228.495  1.00  0.00    -0.000 C 
BRANCH  23  24
ATOM     24  C   UNL     1      44.397  25.881 228.877  1.00  0.00    -0.000 C 
BRANCH  24  25
ATOM     25  C   UNL     1      45.210  25.314 227.703  1.00  0.00    -0.003 C 
ATOM     26  C   UNL     1      46.336  24.383 228.154  1.00  0.00     0.004 C 
ENDBRANCH  24  25
ENDBRANCH  23  24
ENDBRANCH  22  23
ENDBRANCH  21  22
ENDBRANCH  20  21
ENDBRANCH  19  20
ENDBRANCH  18  19
ENDBRANCH  17  18
ENDBRANCH  16  17
ENDBRANCH  15  16
ENDBRANCH   1  15
TORSDOF 22
ENDMDL
