MODEL 1
REMARK VINA RESULT:    -7.077      0.000      0.000
REMARK INTER + INTRA:         -11.265
REMARK INTER:                  -9.353
REMARK INTRA:                  -1.912
REMARK UNBOUND:                -1.912
REMARK SMILES CC[C@H](C=C[C@@H](C)[C@H]1CC[C@H]2C3=CC[C@H]4C[C@@H](O)CC[C@]4(C)[C@H]3CC[C@@]12C)C(C)C
REMARK SMILES IDX 6 1 7 2 5 3 4 4 3 5 2 6 1 7 28 8 29 9 30 10 8 11 9 12 26 13
REMARK SMILES IDX 10 14 11 15 25 16 27 17 12 18 24 19 23 20 13 21 21 22 14 23
REMARK SMILES IDX 15 24 20 25 22 26 16 27 19 28 17 29 18 30
REMARK H PARENT 18 31
REMARK Flexibility Score: inf
ROOT
ATOM      1  C   UNL     1     117.087 126.026 129.512  1.00  0.00     0.012 C 
ATOM      2  C   UNL     1     116.989 127.572 129.574  1.00  0.00     0.012 C 
ENDROOT
BRANCH   1   3
ATOM      3  C   UNL     1     116.253 125.395 130.620  1.00  0.00    -0.028 C 
ATOM      4  C   UNL     1     115.706 124.159 130.624  1.00  0.00    -0.027 C 
BRANCH   4   5
ATOM      5  C   UNL     1     115.663 123.170 129.460  1.00  0.00     0.014 C 
BRANCH   5   6
ATOM      6  C   UNL     1     116.504 121.898 129.789  1.00  0.00     0.004 C 
ATOM      7  C   UNL     1     116.731 121.709 131.293  1.00  0.00     0.004 C 
ENDBRANCH   5   6
BRANCH   5   8
ATOM      8  C   UNL     1     114.185 122.840 129.044  1.00  0.00    -0.011 C 
ATOM      9  C   UNL     1     113.246 122.786 130.266  1.00  0.00     0.008 C 
ATOM     10  C   UNL     1     114.047 121.556 128.206  1.00  0.00     0.008 C 
ENDBRANCH   5   8
ENDBRANCH   4   5
ENDBRANCH   1   3
BRANCH   1  11
ATOM     11  C   UNL     1     118.590 125.579 129.531  1.00  0.00     0.002 C 
ATOM     12  C   UNL     1     118.971 124.599 130.650  1.00  0.00     0.005 C 
ATOM     13  C   UNL     1     119.253 125.049 128.217  1.00  0.00    -0.023 C 
ATOM     14  C   UNL     1     120.088 123.730 130.093  1.00  0.00     0.009 C 
ATOM     15  C   UNL     1     120.519 124.356 128.756  1.00  0.00     0.021 C 
ATOM     16  C   UNL     1     118.406 123.995 127.459  1.00  0.00     0.008 C 
ATOM     17  C   UNL     1     119.604 126.230 127.279  1.00  0.00     0.012 C 
ATOM     18  C   UNL     1     121.151 123.316 127.836  1.00  0.00    -0.067 C 
ATOM     19  C   UNL     1     119.105 123.436 126.222  1.00  0.00     0.009 C 
ATOM     20  C   UNL     1     120.597 123.017 126.436  1.00  0.00     0.021 C 
ATOM     21  C   UNL     1     122.281 122.710 128.273  1.00  0.00    -0.027 C 
ATOM     22  C   UNL     1     120.918 121.543 125.983  1.00  0.00    -0.023 C 
ATOM     23  C   UNL     1     122.922 121.525 127.595  1.00  0.00     0.031 C 
ATOM     24  C   UNL     1     122.462 121.346 126.139  1.00  0.00     0.002 C 
ATOM     25  C   UNL     1     120.571 121.350 124.474  1.00  0.00     0.010 C 
ATOM     26  C   UNL     1     120.112 120.528 126.853  1.00  0.00     0.012 C 
ATOM     27  C   UNL     1     122.978 120.006 125.562  1.00  0.00     0.036 C 
ATOM     28  C   UNL     1     121.061 120.005 123.917  1.00  0.00     0.032 C 
ATOM     29  C   UNL     1     122.577 119.841 124.087  1.00  0.00     0.114 C 
BRANCH  29  30
ATOM     30  O   UNL     1     122.959 118.571 123.625  1.00  0.00    -0.393 OA
ATOM     31  H   UNL     1     123.819 118.342 124.067  1.00  0.00     0.210 HD
ENDBRANCH  29  30
ENDBRANCH   1  11
TORSDOF 6
ENDMDL
MODEL 2
REMARK VINA RESULT:    -6.803      3.133      6.950
REMARK INTER + INTRA:         -10.902
REMARK INTER:                  -9.275
REMARK INTRA:                  -1.628
REMARK UNBOUND:                -1.912
REMARK SMILES CC[C@H](C=C[C@@H](C)[C@H]1CC[C@H]2C3=CC[C@H]4C[C@@H](O)CC[C@]4(C)[C@H]3CC[C@@]12C)C(C)C
REMARK SMILES IDX 6 1 7 2 5 3 4 4 3 5 2 6 1 7 28 8 29 9 30 10 8 11 9 12 26 13
REMARK SMILES IDX 10 14 11 15 25 16 27 17 12 18 24 19 23 20 13 21 21 22 14 23
REMARK SMILES IDX 15 24 20 25 22 26 16 27 19 28 17 29 18 30
REMARK H PARENT 18 31
REMARK Flexibility Score: inf
ROOT
ATOM      1  C   UNL     1     115.956 120.364 128.703  1.00  0.00     0.012 C 
ATOM      2  C   UNL     1     114.741 119.401 128.659  1.00  0.00     0.012 C 
ENDROOT
BRANCH   1   3
ATOM      3  C   UNL     1     117.150 119.686 129.362  1.00  0.00    -0.028 C 
ATOM      4  C   UNL     1     118.333 119.379 128.786  1.00  0.00    -0.027 C 
BRANCH   4   5
ATOM      5  C   UNL     1     118.690 119.495 127.304  1.00  0.00     0.014 C 
BRANCH   5   6
ATOM      6  C   UNL     1     120.089 120.163 127.128  1.00  0.00     0.004 C 
ATOM      7  C   UNL     1     120.014 121.517 126.414  1.00  0.00     0.004 C 
ENDBRANCH   5   6
BRANCH   5   8
ATOM      8  C   UNL     1     118.574 118.108 126.577  1.00  0.00    -0.011 C 
ATOM      9  C   UNL     1     119.217 118.142 125.176  1.00  0.00     0.008 C 
ATOM     10  C   UNL     1     117.135 117.569 126.492  1.00  0.00     0.008 C 
ENDBRANCH   5   8
ENDBRANCH   4   5
ENDBRANCH   1   3
BRANCH   1  11
ATOM     11  C   UNL     1     115.549 121.715 129.386  1.00  0.00     0.002 C 
ATOM     12  C   UNL     1     115.836 121.804 130.892  1.00  0.00     0.005 C 
ATOM     13  C   UNL     1     116.013 123.069 128.754  1.00  0.00    -0.023 C 
ATOM     14  C   UNL     1     116.131 123.267 131.184  1.00  0.00     0.009 C 
ATOM     15  C   UNL     1     115.780 124.058 129.913  1.00  0.00     0.021 C 
ATOM     16  C   UNL     1     117.515 123.110 128.374  1.00  0.00     0.008 C 
ATOM     17  C   UNL     1     115.139 123.415 127.524  1.00  0.00     0.012 C 
ATOM     18  C   UNL     1     116.564 125.365 129.840  1.00  0.00    -0.067 C 
ATOM     19  C   UNL     1     117.963 124.465 127.830  1.00  0.00     0.009 C 
ATOM     20  C   UNL     1     117.484 125.703 128.659  1.00  0.00     0.021 C 
ATOM     21  C   UNL     1     116.358 126.264 130.832  1.00  0.00    -0.027 C 
ATOM     22  C   UNL     1     118.647 126.676 129.083  1.00  0.00    -0.023 C 
ATOM     23  C   UNL     1     117.187 127.508 131.030  1.00  0.00     0.031 C 
ATOM     24  C   UNL     1     117.977 127.910 129.775  1.00  0.00     0.002 C 
ATOM     25  C   UNL     1     119.406 127.199 127.825  1.00  0.00     0.010 C 
ATOM     26  C   UNL     1     119.637 125.941 130.040  1.00  0.00     0.012 C 
ATOM     27  C   UNL     1     118.967 129.056 130.092  1.00  0.00     0.036 C 
ATOM     28  C   UNL     1     120.408 128.316 128.153  1.00  0.00     0.032 C 
ATOM     29  C   UNL     1     119.721 129.509 128.831  1.00  0.00     0.114 C 
BRANCH  29  30
ATOM     30  O   UNL     1     120.690 130.468 129.170  1.00  0.00    -0.393 OA
ATOM     31  H   UNL     1     121.265 130.603 128.372  1.00  0.00     0.210 HD
ENDBRANCH  29  30
ENDBRANCH   1  11
TORSDOF 6
ENDMDL
MODEL 3
REMARK VINA RESULT:    -6.729      3.366      6.831
REMARK INTER + INTRA:         -10.804
REMARK INTER:                  -9.185
REMARK INTRA:                  -1.619
REMARK UNBOUND:                -1.912
REMARK SMILES CC[C@H](C=C[C@@H](C)[C@H]1CC[C@H]2C3=CC[C@H]4C[C@@H](O)CC[C@]4(C)[C@H]3CC[C@@]12C)C(C)C
REMARK SMILES IDX 6 1 7 2 5 3 4 4 3 5 2 6 1 7 28 8 29 9 30 10 8 11 9 12 26 13
REMARK SMILES IDX 10 14 11 15 25 16 27 17 12 18 24 19 23 20 13 21 21 22 14 23
REMARK SMILES IDX 15 24 20 25 22 26 16 27 19 28 17 29 18 30
REMARK H PARENT 18 31
REMARK Flexibility Score: inf
ROOT
ATOM      1  C   UNL     1     115.102 120.438 127.652  1.00  0.00     0.012 C 
ATOM      2  C   UNL     1     114.027 120.448 126.534  1.00  0.00     0.012 C 
ENDROOT
BRANCH   1   3
ATOM      3  C   UNL     1     115.109 119.095 128.371  1.00  0.00    -0.028 C 
ATOM      4  C   UNL     1     116.175 118.291 128.584  1.00  0.00    -0.027 C 
BRANCH   4   5
ATOM      5  C   UNL     1     117.583 118.464 128.016  1.00  0.00     0.014 C 
BRANCH   5   6
ATOM      6  C   UNL     1     117.589 118.216 126.476  1.00  0.00     0.004 C 
ATOM      7  C   UNL     1     117.356 116.746 126.111  1.00  0.00     0.004 C 
ENDBRANCH   5   6
BRANCH   5   8
ATOM      8  C   UNL     1     118.195 119.854 128.418  1.00  0.00    -0.011 C 
ATOM      9  C   UNL     1     119.277 120.312 127.419  1.00  0.00     0.008 C 
ATOM     10  C   UNL     1     118.742 119.900 129.856  1.00  0.00     0.008 C 
ENDBRANCH   5   8
ENDBRANCH   4   5
ENDBRANCH   1   3
BRANCH   1  11
ATOM     11  C   UNL     1     114.893 121.659 128.612  1.00  0.00     0.002 C 
ATOM     12  C   UNL     1     115.335 121.437 130.065  1.00  0.00     0.005 C 
ATOM     13  C   UNL     1     115.415 123.071 128.189  1.00  0.00    -0.023 C 
ATOM     14  C   UNL     1     115.793 122.791 130.584  1.00  0.00     0.009 C 
ATOM     15  C   UNL     1     115.392 123.834 129.528  1.00  0.00     0.021 C 
ATOM     16  C   UNL     1     116.870 123.075 127.652  1.00  0.00     0.008 C 
ATOM     17  C   UNL     1     114.459 123.709 127.152  1.00  0.00     0.012 C 
ATOM     18  C   UNL     1     116.283 125.070 129.604  1.00  0.00    -0.067 C 
ATOM     19  C   UNL     1     117.385 124.472 127.316  1.00  0.00     0.009 C 
ATOM     20  C   UNL     1     117.108 125.560 128.406  1.00  0.00     0.021 C 
ATOM     21  C   UNL     1     116.262 125.776 130.760  1.00  0.00    -0.027 C 
ATOM     22  C   UNL     1     118.393 126.347 128.864  1.00  0.00    -0.023 C 
ATOM     23  C   UNL     1     117.218 126.896 131.085  1.00  0.00     0.031 C 
ATOM     24  C   UNL     1     117.914 127.471 129.841  1.00  0.00     0.002 C 
ATOM     25  C   UNL     1     119.068 127.044 127.642  1.00  0.00     0.010 C 
ATOM     26  C   UNL     1     119.401 125.372 129.550  1.00  0.00     0.012 C 
ATOM     27  C   UNL     1     119.033 128.461 130.246  1.00  0.00     0.036 C 
ATOM     28  C   UNL     1     120.198 128.002 128.052  1.00  0.00     0.032 C 
ATOM     29  C   UNL     1     119.696 129.090 129.010  1.00  0.00     0.114 C 
BRANCH  29  30
ATOM     30  O   UNL     1     120.779 129.893 129.404  1.00  0.00    -0.393 OA
ATOM     31  H   UNL     1     121.543 129.287 129.594  1.00  0.00     0.210 HD
ENDBRANCH  29  30
ENDBRANCH   1  11
TORSDOF 6
ENDMDL
MODEL 4
REMARK VINA RESULT:    -6.720      2.819      5.332
REMARK INTER + INTRA:         -10.793
REMARK INTER:                  -8.989
REMARK INTRA:                  -1.804
REMARK UNBOUND:                -1.912
REMARK SMILES CC[C@H](C=C[C@@H](C)[C@H]1CC[C@H]2C3=CC[C@H]4C[C@@H](O)CC[C@]4(C)[C@H]3CC[C@@]12C)C(C)C
REMARK SMILES IDX 6 1 7 2 5 3 4 4 3 5 2 6 1 7 28 8 29 9 30 10 8 11 9 12 26 13
REMARK SMILES IDX 10 14 11 15 25 16 27 17 12 18 24 19 23 20 13 21 21 22 14 23
REMARK SMILES IDX 15 24 20 25 22 26 16 27 19 28 17 29 18 30
REMARK H PARENT 18 31
REMARK Flexibility Score: inf
ROOT
ATOM      1  C   UNL     1     115.106 122.670 129.538  1.00  0.00     0.012 C 
ATOM      2  C   UNL     1     114.157 123.129 130.675  1.00  0.00     0.012 C 
ENDROOT
BRANCH   1   3
ATOM      3  C   UNL     1     114.767 123.388 128.239  1.00  0.00    -0.028 C 
ATOM      4  C   UNL     1     115.617 124.071 127.440  1.00  0.00    -0.027 C 
BRANCH   4   5
ATOM      5  C   UNL     1     117.078 124.413 127.733  1.00  0.00     0.014 C 
BRANCH   5   6
ATOM      6  C   UNL     1     117.947 124.256 126.447  1.00  0.00     0.004 C 
ATOM      7  C   UNL     1     119.157 125.198 126.430  1.00  0.00     0.004 C 
ENDBRANCH   5   6
BRANCH   5   8
ATOM      8  C   UNL     1     117.211 125.830 128.397  1.00  0.00    -0.011 C 
ATOM      9  C   UNL     1     117.221 125.741 129.937  1.00  0.00     0.008 C 
ATOM     10  C   UNL     1     116.148 126.840 127.927  1.00  0.00     0.008 C 
ENDBRANCH   5   8
ENDBRANCH   4   5
ENDBRANCH   1   3
BRANCH   1  11
ATOM     11  C   UNL     1     115.081 121.107 129.412  1.00  0.00     0.002 C 
ATOM     12  C   UNL     1     114.169 120.550 128.310  1.00  0.00     0.005 C 
ATOM     13  C   UNL     1     116.429 120.319 129.328  1.00  0.00    -0.023 C 
ATOM     14  C   UNL     1     114.819 119.263 127.828  1.00  0.00     0.009 C 
ATOM     15  C   UNL     1     115.963 118.946 128.805  1.00  0.00     0.021 C 
ATOM     16  C   UNL     1     117.446 120.906 128.315  1.00  0.00     0.008 C 
ATOM     17  C   UNL     1     117.074 120.206 130.731  1.00  0.00     0.012 C 
ATOM     18  C   UNL     1     117.037 118.088 128.141  1.00  0.00    -0.067 C 
ATOM     19  C   UNL     1     118.723 120.079 128.194  1.00  0.00     0.009 C 
ATOM     20  C   UNL     1     118.502 118.536 128.049  1.00  0.00     0.021 C 
ATOM     21  C   UNL     1     116.661 116.865 127.696  1.00  0.00    -0.027 C 
ATOM     22  C   UNL     1     119.231 117.900 126.806  1.00  0.00    -0.023 C 
ATOM     23  C   UNL     1     117.528 115.973 126.843  1.00  0.00     0.031 C 
ATOM     24  C   UNL     1     119.016 116.353 126.897  1.00  0.00     0.002 C 
ATOM     25  C   UNL     1     120.766 118.165 126.882  1.00  0.00     0.010 C 
ATOM     26  C   UNL     1     118.648 118.491 125.484  1.00  0.00     0.012 C 
ATOM     27  C   UNL     1     119.826 115.552 125.848  1.00  0.00     0.036 C 
ATOM     28  C   UNL     1     121.559 117.390 125.818  1.00  0.00     0.032 C 
ATOM     29  C   UNL     1     121.326 115.877 125.932  1.00  0.00     0.114 C 
BRANCH  29  30
ATOM     30  O   UNL     1     122.016 115.224 124.898  1.00  0.00    -0.393 OA
ATOM     31  H   UNL     1     122.607 115.896 124.466  1.00  0.00     0.210 HD
ENDBRANCH  29  30
ENDBRANCH   1  11
TORSDOF 6
ENDMDL
MODEL 5
REMARK VINA RESULT:    -6.718      0.890      1.147
REMARK INTER + INTRA:         -10.790
REMARK INTER:                  -8.675
REMARK INTRA:                  -2.115
REMARK UNBOUND:                -1.912
REMARK SMILES CC[C@H](C=C[C@@H](C)[C@H]1CC[C@H]2C3=CC[C@H]4C[C@@H](O)CC[C@]4(C)[C@H]3CC[C@@]12C)C(C)C
REMARK SMILES IDX 6 1 7 2 5 3 4 4 3 5 2 6 1 7 28 8 29 9 30 10 8 11 9 12 26 13
REMARK SMILES IDX 10 14 11 15 25 16 27 17 12 18 24 19 23 20 13 21 21 22 14 23
REMARK SMILES IDX 15 24 20 25 22 26 16 27 19 28 17 29 18 30
REMARK H PARENT 18 31
REMARK Flexibility Score: inf
ROOT
ATOM      1  C   UNL     1     116.761 125.048 129.749  1.00  0.00     0.012 C 
ATOM      2  C   UNL     1     116.619 126.571 130.005  1.00  0.00     0.012 C 
ENDROOT
BRANCH   1   3
ATOM      3  C   UNL     1     115.886 124.261 130.717  1.00  0.00    -0.028 C 
ATOM      4  C   UNL     1     115.427 123.000 130.559  1.00  0.00    -0.027 C 
BRANCH   4   5
ATOM      5  C   UNL     1     115.545 122.130 129.308  1.00  0.00     0.014 C 
BRANCH   5   6
ATOM      6  C   UNL     1     115.969 120.677 129.688  1.00  0.00     0.004 C 
ATOM      7  C   UNL     1     117.351 120.301 129.143  1.00  0.00     0.004 C 
ENDBRANCH   5   6
BRANCH   5   8
ATOM      8  C   UNL     1     114.232 122.184 128.448  1.00  0.00    -0.011 C 
ATOM      9  C   UNL     1     114.020 120.882 127.648  1.00  0.00     0.008 C 
ATOM     10  C   UNL     1     114.149 123.405 127.514  1.00  0.00     0.008 C 
ENDBRANCH   5   8
ENDBRANCH   4   5
ENDBRANCH   1   3
BRANCH   1  11
ATOM     11  C   UNL     1     118.272 124.631 129.794  1.00  0.00     0.002 C 
ATOM     12  C   UNL     1     118.612 123.491 130.764  1.00  0.00     0.005 C 
ATOM     13  C   UNL     1     119.029 124.333 128.458  1.00  0.00    -0.023 C 
ATOM     14  C   UNL     1     119.785 122.744 130.149  1.00  0.00     0.009 C 
ATOM     15  C   UNL     1     120.279 123.585 128.961  1.00  0.00     0.021 C 
ATOM     16  C   UNL     1     118.260 123.399 127.488  1.00  0.00     0.008 C 
ATOM     17  C   UNL     1     119.403 125.656 127.745  1.00  0.00     0.012 C 
ATOM     18  C   UNL     1     120.995 122.718 127.929  1.00  0.00    -0.067 C 
ATOM     19  C   UNL     1     119.049 123.060 126.225  1.00  0.00     0.009 C 
ATOM     20  C   UNL     1     120.537 122.639 126.466  1.00  0.00     0.021 C 
ATOM     21  C   UNL     1     122.113 122.071 128.336  1.00  0.00    -0.027 C 
ATOM     22  C   UNL     1     120.926 121.264 125.805  1.00  0.00    -0.023 C 
ATOM     23  C   UNL     1     122.827 121.022 127.520  1.00  0.00     0.031 C 
ATOM     24  C   UNL     1     122.463 121.072 126.028  1.00  0.00     0.002 C 
ATOM     25  C   UNL     1     120.678 121.310 124.266  1.00  0.00     0.010 C 
ATOM     26  C   UNL     1     120.097 120.107 126.448  1.00  0.00     0.012 C 
ATOM     27  C   UNL     1     123.051 119.852 125.278  1.00  0.00     0.036 C 
ATOM     28  C   UNL     1     121.239 120.081 123.534  1.00  0.00     0.032 C 
ATOM     29  C   UNL     1     122.746 119.920 123.773  1.00  0.00     0.114 C 
BRANCH  29  30
ATOM     30  O   UNL     1     123.191 118.748 123.140  1.00  0.00    -0.393 OA
ATOM     31  H   UNL     1     124.185 118.762 123.157  1.00  0.00     0.210 HD
ENDBRANCH  29  30
ENDBRANCH   1  11
TORSDOF 6
ENDMDL
MODEL 6
REMARK VINA RESULT:    -6.242      3.762      6.425
REMARK INTER + INTRA:         -10.161
REMARK INTER:                  -8.810
REMARK INTRA:                  -1.350
REMARK UNBOUND:                -1.912
REMARK SMILES CC[C@H](C=C[C@@H](C)[C@H]1CC[C@H]2C3=CC[C@H]4C[C@@H](O)CC[C@]4(C)[C@H]3CC[C@@]12C)C(C)C
REMARK SMILES IDX 6 1 7 2 5 3 4 4 3 5 2 6 1 7 28 8 29 9 30 10 8 11 9 12 26 13
REMARK SMILES IDX 10 14 11 15 25 16 27 17 12 18 24 19 23 20 13 21 21 22 14 23
REMARK SMILES IDX 15 24 20 25 22 26 16 27 19 28 17 29 18 30
REMARK H PARENT 18 31
REMARK Flexibility Score: inf
ROOT
ATOM      1  C   UNL     1     117.162 120.449 130.054  1.00  0.00     0.012 C 
ATOM      2  C   UNL     1     117.873 119.705 131.214  1.00  0.00     0.012 C 
ENDROOT
BRANCH   1   3
ATOM      3  C   UNL     1     116.371 119.468 129.198  1.00  0.00    -0.028 C 
ATOM      4  C   UNL     1     115.079 119.578 128.816  1.00  0.00    -0.027 C 
BRANCH   4   5
ATOM      5  C   UNL     1     114.070 120.627 129.284  1.00  0.00     0.014 C 
BRANCH   5   6
ATOM      6  C   UNL     1     114.451 121.163 130.698  1.00  0.00     0.004 C 
ATOM      7  C   UNL     1     113.923 120.276 131.831  1.00  0.00     0.004 C 
ENDBRANCH   5   6
BRANCH   5   8
ATOM      8  C   UNL     1     113.896 121.768 128.219  1.00  0.00    -0.011 C 
ATOM      9  C   UNL     1     114.332 121.309 126.812  1.00  0.00     0.008 C 
ATOM     10  C   UNL     1     114.604 123.082 128.595  1.00  0.00     0.008 C 
ENDBRANCH   5   8
ENDBRANCH   4   5
ENDBRANCH   1   3
BRANCH   1  11
ATOM     11  C   UNL     1     118.201 121.293 129.237  1.00  0.00     0.002 C 
ATOM     12  C   UNL     1     117.867 121.489 127.752  1.00  0.00     0.005 C 
ATOM     13  C   UNL     1     118.667 122.681 129.786  1.00  0.00    -0.023 C 
ATOM     14  C   UNL     1     118.440 122.842 127.361  1.00  0.00     0.009 C 
ATOM     15  C   UNL     1     119.308 123.318 128.537  1.00  0.00     0.021 C 
ATOM     16  C   UNL     1     117.509 123.598 130.259  1.00  0.00     0.008 C 
ATOM     17  C   UNL     1     119.699 122.491 130.923  1.00  0.00     0.012 C 
ATOM     18  C   UNL     1     119.431 124.839 128.555  1.00  0.00    -0.067 C 
ATOM     19  C   UNL     1     117.980 124.976 130.719  1.00  0.00     0.009 C 
ATOM     20  C   UNL     1     118.998 125.681 129.763  1.00  0.00     0.021 C 
ATOM     21  C   UNL     1     120.015 125.424 127.482  1.00  0.00    -0.027 C 
ATOM     22  C   UNL     1     118.571 127.137 129.338  1.00  0.00    -0.023 C 
ATOM     23  C   UNL     1     120.039 126.912 127.238  1.00  0.00     0.031 C 
ATOM     24  C   UNL     1     119.754 127.733 128.506  1.00  0.00     0.002 C 
ATOM     25  C   UNL     1     118.382 128.038 130.597  1.00  0.00     0.010 C 
ATOM     26  C   UNL     1     117.248 127.086 128.511  1.00  0.00     0.012 C 
ATOM     27  C   UNL     1     119.579 129.231 128.162  1.00  0.00     0.036 C 
ATOM     28  C   UNL     1     118.178 129.520 130.245  1.00  0.00     0.032 C 
ATOM     29  C   UNL     1     119.354 130.073 129.429  1.00  0.00     0.114 C 
BRANCH  29  30
ATOM     30  O   UNL     1     119.085 131.406 129.077  1.00  0.00    -0.393 OA
ATOM     31  H   UNL     1     119.736 131.663 128.372  1.00  0.00     0.210 HD
ENDBRANCH  29  30
ENDBRANCH   1  11
TORSDOF 6
ENDMDL
MODEL 7
REMARK VINA RESULT:    -6.143      1.683      4.330
REMARK INTER + INTRA:         -10.030
REMARK INTER:                  -7.984
REMARK INTRA:                  -2.046
REMARK UNBOUND:                -1.912
REMARK SMILES CC[C@H](C=C[C@@H](C)[C@H]1CC[C@H]2C3=CC[C@H]4C[C@@H](O)CC[C@]4(C)[C@H]3CC[C@@]12C)C(C)C
REMARK SMILES IDX 6 1 7 2 5 3 4 4 3 5 2 6 1 7 28 8 29 9 30 10 8 11 9 12 26 13
REMARK SMILES IDX 10 14 11 15 25 16 27 17 12 18 24 19 23 20 13 21 21 22 14 23
REMARK SMILES IDX 15 24 20 25 22 26 16 27 19 28 17 29 18 30
REMARK H PARENT 18 31
REMARK Flexibility Score: inf
ROOT
ATOM      1  C   UNL     1     115.845 121.833 131.314  1.00  0.00     0.012 C 
ATOM      2  C   UNL     1     115.341 121.208 132.640  1.00  0.00     0.012 C 
ENDROOT
BRANCH   1   3
ATOM      3  C   UNL     1     114.834 122.840 130.780  1.00  0.00    -0.028 C 
ATOM      4  C   UNL     1     115.073 123.860 129.927  1.00  0.00    -0.027 C 
BRANCH   4   5
ATOM      5  C   UNL     1     116.436 124.337 129.425  1.00  0.00     0.014 C 
BRANCH   5   6
ATOM      6  C   UNL     1     116.344 124.790 127.934  1.00  0.00     0.004 C 
ATOM      7  C   UNL     1     117.397 124.120 127.045  1.00  0.00     0.004 C 
ENDBRANCH   5   6
BRANCH   5   8
ATOM      8  C   UNL     1     117.039 125.439 130.367  1.00  0.00    -0.011 C 
ATOM      9  C   UNL     1     116.631 126.858 129.921  1.00  0.00     0.008 C 
ATOM     10  C   UNL     1     118.568 125.349 130.530  1.00  0.00     0.008 C 
ENDBRANCH   5   8
ENDBRANCH   4   5
ENDBRANCH   1   3
BRANCH   1  11
ATOM     11  C   UNL     1     116.203 120.704 130.287  1.00  0.00     0.002 C 
ATOM     12  C   UNL     1     115.427 120.748 128.963  1.00  0.00     0.005 C 
ATOM     13  C   UNL     1     117.701 120.435 129.927  1.00  0.00    -0.023 C 
ATOM     14  C   UNL     1     116.361 120.188 127.902  1.00  0.00     0.009 C 
ATOM     15  C   UNL     1     117.574 119.598 128.640  1.00  0.00     0.021 C 
ATOM     16  C   UNL     1     118.514 121.714 129.598  1.00  0.00     0.008 C 
ATOM     17  C   UNL     1     118.392 119.639 131.061  1.00  0.00     0.012 C 
ATOM     18  C   UNL     1     118.807 119.568 127.742  1.00  0.00    -0.067 C 
ATOM     19  C   UNL     1     119.952 121.423 129.175  1.00  0.00     0.009 C 
ATOM     20  C   UNL     1     120.114 120.278 128.121  1.00  0.00     0.021 C 
ATOM     21  C   UNL     1     118.733 118.817 126.616  1.00  0.00    -0.027 C 
ATOM     22  C   UNL     1     120.943 120.695 126.848  1.00  0.00    -0.023 C 
ATOM     23  C   UNL     1     119.770 118.831 125.521  1.00  0.00     0.031 C 
ATOM     24  C   UNL     1     121.120 119.406 125.978  1.00  0.00     0.002 C 
ATOM     25  C   UNL     1     122.368 121.180 127.262  1.00  0.00     0.010 C 
ATOM     26  C   UNL     1     120.197 121.824 126.070  1.00  0.00     0.012 C 
ATOM     27  C   UNL     1     122.073 119.596 124.774  1.00  0.00     0.036 C 
ATOM     28  C   UNL     1     123.298 121.395 126.058  1.00  0.00     0.032 C 
ATOM     29  C   UNL     1     123.448 120.114 125.226  1.00  0.00     0.114 C 
BRANCH  29  30
ATOM     30  O   UNL     1     124.250 120.384 124.104  1.00  0.00    -0.393 OA
ATOM     31  H   UNL     1     123.640 120.559 123.340  1.00  0.00     0.210 HD
ENDBRANCH  29  30
ENDBRANCH   1  11
TORSDOF 6
ENDMDL
MODEL 8
REMARK VINA RESULT:    -6.139      2.390      4.036
REMARK INTER + INTRA:         -10.025
REMARK INTER:                  -8.131
REMARK INTRA:                  -1.894
REMARK UNBOUND:                -1.912
REMARK SMILES CC[C@H](C=C[C@@H](C)[C@H]1CC[C@H]2C3=CC[C@H]4C[C@@H](O)CC[C@]4(C)[C@H]3CC[C@@]12C)C(C)C
REMARK SMILES IDX 6 1 7 2 5 3 4 4 3 5 2 6 1 7 28 8 29 9 30 10 8 11 9 12 26 13
REMARK SMILES IDX 10 14 11 15 25 16 27 17 12 18 24 19 23 20 13 21 21 22 14 23
REMARK SMILES IDX 15 24 20 25 22 26 16 27 19 28 17 29 18 30
REMARK H PARENT 18 31
REMARK Flexibility Score: inf
ROOT
ATOM      1  C   UNL     1     114.683 122.305 130.324  1.00  0.00     0.012 C 
ATOM      2  C   UNL     1     113.487 123.121 130.881  1.00  0.00     0.012 C 
ENDROOT
BRANCH   1   3
ATOM      3  C   UNL     1     114.361 120.816 130.331  1.00  0.00    -0.028 C 
ATOM      4  C   UNL     1     114.650 119.916 129.366  1.00  0.00    -0.027 C 
BRANCH   4   5
ATOM      5  C   UNL     1     115.222 120.208 127.979  1.00  0.00     0.014 C 
BRANCH   5   6
ATOM      6  C   UNL     1     115.840 118.918 127.357  1.00  0.00     0.004 C 
ATOM      7  C   UNL     1     117.371 118.955 127.311  1.00  0.00     0.004 C 
ENDBRANCH   5   6
BRANCH   5   8
ATOM      8  C   UNL     1     114.154 120.889 127.051  1.00  0.00    -0.011 C 
ATOM      9  C   UNL     1     113.909 120.071 125.767  1.00  0.00     0.008 C 
ATOM     10  C   UNL     1     114.479 122.352 126.699  1.00  0.00     0.008 C 
ENDBRANCH   5   8
ENDBRANCH   4   5
ENDBRANCH   1   3
BRANCH   1  11
ATOM     11  C   UNL     1     115.993 122.664 131.107  1.00  0.00     0.002 C 
ATOM     12  C   UNL     1     116.548 121.550 132.006  1.00  0.00     0.005 C 
ATOM     13  C   UNL     1     117.208 123.276 130.337  1.00  0.00    -0.023 C 
ATOM     14  C   UNL     1     118.058 121.731 132.024  1.00  0.00     0.009 C 
ATOM     15  C   UNL     1     118.357 123.077 131.345  1.00  0.00     0.021 C 
ATOM     16  C   UNL     1     117.573 122.527 129.029  1.00  0.00     0.008 C 
ATOM     17  C   UNL     1     116.959 124.776 130.044  1.00  0.00     0.012 C 
ATOM     18  C   UNL     1     119.766 123.102 130.760  1.00  0.00    -0.067 C 
ATOM     19  C   UNL     1     118.808 123.094 128.333  1.00  0.00     0.009 C 
ATOM     20  C   UNL     1     120.031 123.366 129.272  1.00  0.00     0.021 C 
ATOM     21  C   UNL     1     120.797 122.956 131.627  1.00  0.00    -0.027 C 
ATOM     22  C   UNL     1     121.370 122.692 128.787  1.00  0.00    -0.023 C 
ATOM     23  C   UNL     1     122.232 122.755 131.209  1.00  0.00     0.031 C 
ATOM     24  C   UNL     1     122.499 123.177 129.756  1.00  0.00     0.002 C 
ATOM     25  C   UNL     1     121.739 123.184 127.353  1.00  0.00     0.010 C 
ATOM     26  C   UNL     1     121.221 121.138 128.800  1.00  0.00     0.012 C 
ATOM     27  C   UNL     1     123.920 122.754 129.313  1.00  0.00     0.036 C 
ATOM     28  C   UNL     1     123.139 122.734 126.911  1.00  0.00     0.032 C 
ATOM     29  C   UNL     1     124.222 123.224 127.881  1.00  0.00     0.114 C 
BRANCH  29  30
ATOM     30  O   UNL     1     125.471 122.728 127.468  1.00  0.00    -0.393 OA
ATOM     31  H   UNL     1     125.330 121.797 127.154  1.00  0.00     0.210 HD
ENDBRANCH  29  30
ENDBRANCH   1  11
TORSDOF 6
ENDMDL
MODEL 9
REMARK VINA RESULT:    -6.126      3.458      7.134
REMARK INTER + INTRA:         -10.007
REMARK INTER:                  -8.163
REMARK INTRA:                  -1.845
REMARK UNBOUND:                -1.912
REMARK SMILES CC[C@H](C=C[C@@H](C)[C@H]1CC[C@H]2C3=CC[C@H]4C[C@@H](O)CC[C@]4(C)[C@H]3CC[C@@]12C)C(C)C
REMARK SMILES IDX 6 1 7 2 5 3 4 4 3 5 2 6 1 7 28 8 29 9 30 10 8 11 9 12 26 13
REMARK SMILES IDX 10 14 11 15 25 16 27 17 12 18 24 19 23 20 13 21 21 22 14 23
REMARK SMILES IDX 15 24 20 25 22 26 16 27 19 28 17 29 18 30
REMARK H PARENT 18 31
REMARK Flexibility Score: inf
ROOT
ATOM      1  C   UNL     1     120.788 118.651 126.341  1.00  0.00     0.012 C 
ATOM      2  C   UNL     1     122.070 117.787 126.224  1.00  0.00     0.012 C 
ENDROOT
BRANCH   1   3
ATOM      3  C   UNL     1     119.721 118.156 125.373  1.00  0.00    -0.028 C 
ATOM      4  C   UNL     1     118.447 117.816 125.669  1.00  0.00    -0.027 C 
BRANCH   4   5
ATOM      5  C   UNL     1     117.829 117.698 127.062  1.00  0.00     0.014 C 
BRANCH   5   6
ATOM      6  C   UNL     1     116.364 118.237 127.059  1.00  0.00     0.004 C 
ATOM      7  C   UNL     1     116.117 119.288 128.147  1.00  0.00     0.004 C 
ENDBRANCH   5   6
BRANCH   5   8
ATOM      8  C   UNL     1     117.944 116.234 127.618  1.00  0.00    -0.011 C 
ATOM      9  C   UNL     1     119.240 116.033 128.431  1.00  0.00     0.008 C 
ATOM     10  C   UNL     1     117.817 115.146 126.536  1.00  0.00     0.008 C 
ENDBRANCH   5   8
ENDBRANCH   4   5
ENDBRANCH   1   3
BRANCH   1  11
ATOM     11  C   UNL     1     121.140 120.168 126.158  1.00  0.00     0.002 C 
ATOM     12  C   UNL     1     120.625 120.812 124.864  1.00  0.00     0.005 C 
ATOM     13  C   UNL     1     120.841 121.174 127.318  1.00  0.00    -0.023 C 
ATOM     14  C   UNL     1     120.351 122.271 125.193  1.00  0.00     0.009 C 
ATOM     15  C   UNL     1     120.932 122.531 126.593  1.00  0.00     0.021 C 
ATOM     16  C   UNL     1     119.420 121.040 127.923  1.00  0.00     0.008 C 
ATOM     17  C   UNL     1     121.911 121.048 128.429  1.00  0.00     0.012 C 
ATOM     18  C   UNL     1     120.226 123.699 127.277  1.00  0.00    -0.067 C 
ATOM     19  C   UNL     1     119.122 122.081 129.000  1.00  0.00     0.009 C 
ATOM     20  C   UNL     1     119.519 123.549 128.631  1.00  0.00     0.021 C 
ATOM     21  C   UNL     1     120.312 124.910 126.676  1.00  0.00    -0.027 C 
ATOM     22  C   UNL     1     118.346 124.588 128.796  1.00  0.00    -0.023 C 
ATOM     23  C   UNL     1     119.517 126.121 127.095  1.00  0.00     0.031 C 
ATOM     24  C   UNL     1     118.952 126.004 128.520  1.00  0.00     0.002 C 
ATOM     25  C   UNL     1     117.818 124.582 130.264  1.00  0.00     0.010 C 
ATOM     26  C   UNL     1     117.187 124.249 127.807  1.00  0.00     0.012 C 
ATOM     27  C   UNL     1     117.975 127.166 128.820  1.00  0.00     0.036 C 
ATOM     28  C   UNL     1     116.826 125.721 130.545  1.00  0.00     0.032 C 
ATOM     29  C   UNL     1     117.449 127.095 130.263  1.00  0.00     0.114 C 
BRANCH  29  30
ATOM     30  O   UNL     1     116.481 128.092 130.469  1.00  0.00    -0.393 OA
ATOM     31  H   UNL     1     116.964 128.948 130.611  1.00  0.00     0.210 HD
ENDBRANCH  29  30
ENDBRANCH   1  11
TORSDOF 6
ENDMDL
