MODEL 1
REMARK VINA RESULT:    -4.272      0.000      0.000
REMARK INTER + INTRA:          -7.880
REMARK INTER:                  -7.269
REMARK INTRA:                  -0.611
REMARK UNBOUND:                -0.611
REMARK SMILES CCCCCCCCCCCCCC(=O)[O-]
REMARK SMILES IDX 8 1 9 2 10 3 11 4 12 5 13 6 14 7 15 8 16 9 7 10 6 11 5 12
REMARK SMILES IDX 4 13 3 14 2 15 1 16
REMARK H PARENT
REMARK Flexibility Score: inf
ROOT
ATOM      1  C   UNL     1      21.433   6.637 -12.257  1.00  0.00     0.000 C 
ENDROOT
BRANCH   1   2
ATOM      2  C   UNL     1      22.410   5.470 -12.479  1.00  0.00     0.000 C 
BRANCH   2   3
ATOM      3  C   UNL     1      23.700   5.907 -13.194  1.00  0.00     0.000 C 
BRANCH   3   4
ATOM      4  C   UNL     1      24.309   4.784 -14.047  1.00  0.00     0.000 C 
BRANCH   4   5
ATOM      5  C   UNL     1      25.750   5.093 -14.495  1.00  0.00     0.006 C 
BRANCH   5   6
ATOM      6  C   UNL     1      26.684   3.891 -14.306  1.00  0.00     0.053 C 
BRANCH   6   7
ATOM      7  C   UNL     1      28.025   4.126 -14.935  1.00  0.00     0.041 C 
ATOM      8  O   UNL     1      28.936   3.265 -14.822  1.00  0.00    -0.550 OA
ATOM      9  O   UNL     1      28.276   5.311 -15.613  1.00  0.00    -0.550 OA
ENDBRANCH   6   7
ENDBRANCH   5   6
ENDBRANCH   4   5
ENDBRANCH   3   4
ENDBRANCH   2   3
ENDBRANCH   1   2
BRANCH   1  10
ATOM     10  C   UNL     1      21.412   7.125 -10.801  1.00  0.00     0.000 C 
BRANCH  10  11
ATOM     11  C   UNL     1      20.429   6.300  -9.961  1.00  0.00    -0.000 C 
BRANCH  11  12
ATOM     12  C   UNL     1      19.011   6.878 -10.045  1.00  0.00    -0.000 C 
BRANCH  12  13
ATOM     13  C   UNL     1      18.137   6.055 -11.002  1.00  0.00    -0.000 C 
BRANCH  13  14
ATOM     14  C   UNL     1      18.420   4.547 -10.913  1.00  0.00    -0.000 C 
BRANCH  14  15
ATOM     15  C   UNL     1      17.137   3.710 -10.809  1.00  0.00    -0.003 C 
ATOM     16  C   UNL     1      15.926   4.592 -10.514  1.00  0.00     0.004 C 
ENDBRANCH  14  15
ENDBRANCH  13  14
ENDBRANCH  12  13
ENDBRANCH  11  12
ENDBRANCH  10  11
ENDBRANCH   1  10
TORSDOF 12
ENDMDL
MODEL 2
REMARK VINA RESULT:    -3.951      4.760      8.953
REMARK INTER + INTRA:          -7.334
REMARK INTER:                  -6.673
REMARK INTRA:                  -0.661
REMARK UNBOUND:                -0.611
REMARK SMILES CCCCCCCCCCCCCC(=O)[O-]
REMARK SMILES IDX 8 1 9 2 10 3 11 4 12 5 13 6 14 7 15 8 16 9 7 10 6 11 5 12
REMARK SMILES IDX 4 13 3 14 2 15 1 16
REMARK H PARENT
REMARK Flexibility Score: inf
ROOT
ATOM      1  C   UNL     1      21.434   4.981 -12.992  1.00  0.00     0.000 C 
ENDROOT
BRANCH   1   2
ATOM      2  C   UNL     1      19.928   5.286 -13.054  1.00  0.00     0.000 C 
BRANCH   2   3
ATOM      3  C   UNL     1      19.608   6.750 -12.708  1.00  0.00     0.000 C 
BRANCH   3   4
ATOM      4  C   UNL     1      18.699   6.878 -11.474  1.00  0.00     0.000 C 
BRANCH   4   5
ATOM      5  C   UNL     1      18.414   5.522 -10.803  1.00  0.00     0.006 C 
BRANCH   5   6
ATOM      6  C   UNL     1      16.949   5.388 -10.369  1.00  0.00     0.053 C 
BRANCH   6   7
ATOM      7  C   UNL     1      16.335   4.116 -10.872  1.00  0.00     0.041 C 
ATOM      8  O   UNL     1      15.106   4.068 -11.139  1.00  0.00    -0.550 OA
ATOM      9  O   UNL     1      17.115   2.976 -11.011  1.00  0.00    -0.550 OA
ENDBRANCH   6   7
ENDBRANCH   5   6
ENDBRANCH   4   5
ENDBRANCH   3   4
ENDBRANCH   2   3
ENDBRANCH   1   2
BRANCH   1  10
ATOM     10  C   UNL     1      22.244   6.116 -12.349  1.00  0.00     0.000 C 
BRANCH  10  11
ATOM     11  C   UNL     1      23.540   6.375 -13.127  1.00  0.00    -0.000 C 
BRANCH  11  12
ATOM     12  C   UNL     1      24.134   5.064 -13.660  1.00  0.00    -0.000 C 
BRANCH  12  13
ATOM     13  C   UNL     1      25.419   5.329 -14.460  1.00  0.00    -0.000 C 
BRANCH  13  14
ATOM     14  C   UNL     1      26.366   4.119 -14.476  1.00  0.00    -0.000 C 
BRANCH  14  15
ATOM     15  C   UNL     1      27.770   4.475 -14.985  1.00  0.00    -0.003 C 
ATOM     16  C   UNL     1      28.778   3.388 -14.621  1.00  0.00     0.004 C 
ENDBRANCH  14  15
ENDBRANCH  13  14
ENDBRANCH  12  13
ENDBRANCH  11  12
ENDBRANCH  10  11
ENDBRANCH   1  10
TORSDOF 12
ENDMDL
MODEL 3
REMARK VINA RESULT:    -3.828      1.262      2.378
REMARK INTER + INTRA:          -7.124
REMARK INTER:                  -6.059
REMARK INTRA:                  -1.065
REMARK UNBOUND:                -0.611
REMARK SMILES CCCCCCCCCCCCCC(=O)[O-]
REMARK SMILES IDX 8 1 9 2 10 3 11 4 12 5 13 6 14 7 15 8 16 9 7 10 6 11 5 12
REMARK SMILES IDX 4 13 3 14 2 15 1 16
REMARK H PARENT
REMARK Flexibility Score: inf
ROOT
ATOM      1  C   UNL     1      21.853   4.901 -12.859  1.00  0.00     0.000 C 
ENDROOT
BRANCH   1   2
ATOM      2  C   UNL     1      22.577   6.235 -12.609  1.00  0.00     0.000 C 
BRANCH   2   3
ATOM      3  C   UNL     1      23.916   6.330 -13.359  1.00  0.00     0.000 C 
BRANCH   3   4
ATOM      4  C   UNL     1      24.405   4.964 -13.867  1.00  0.00     0.000 C 
BRANCH   4   5
ATOM      5  C   UNL     1      25.756   5.051 -14.600  1.00  0.00     0.006 C 
BRANCH   5   6
ATOM      6  C   UNL     1      26.644   3.831 -14.323  1.00  0.00     0.053 C 
BRANCH   6   7
ATOM      7  C   UNL     1      28.001   3.982 -14.941  1.00  0.00     0.041 C 
ATOM      8  O   UNL     1      28.889   3.113 -14.737  1.00  0.00    -0.550 OA
ATOM      9  O   UNL     1      28.295   5.099 -15.711  1.00  0.00    -0.550 OA
ENDBRANCH   6   7
ENDBRANCH   5   6
ENDBRANCH   4   5
ENDBRANCH   3   4
ENDBRANCH   2   3
ENDBRANCH   1   2
BRANCH   1  10
ATOM     10  C   UNL     1      20.329   5.063 -12.963  1.00  0.00     0.000 C 
BRANCH  10  11
ATOM     11  C   UNL     1      19.935   6.545 -12.967  1.00  0.00    -0.000 C 
BRANCH  11  12
ATOM     12  C   UNL     1      18.684   6.786 -12.113  1.00  0.00    -0.000 C 
BRANCH  12  13
ATOM     13  C   UNL     1      18.732   5.955 -10.822  1.00  0.00    -0.000 C 
BRANCH  13  14
ATOM     14  C   UNL     1      19.380   6.713  -9.653  1.00  0.00    -0.000 C 
BRANCH  14  15
ATOM     15  C   UNL     1      20.897   6.486  -9.570  1.00  0.00    -0.003 C 
ATOM     16  C   UNL     1      21.217   5.165  -8.875  1.00  0.00     0.004 C 
ENDBRANCH  14  15
ENDBRANCH  13  14
ENDBRANCH  12  13
ENDBRANCH  11  12
ENDBRANCH  10  11
ENDBRANCH   1  10
TORSDOF 12
ENDMDL
MODEL 4
REMARK VINA RESULT:    -3.077      5.054      7.125
REMARK INTER + INTRA:          -5.846
REMARK INTER:                  -4.832
REMARK INTRA:                  -1.015
REMARK UNBOUND:                -0.611
REMARK SMILES CCCCCCCCCCCCCC(=O)[O-]
REMARK SMILES IDX 8 1 9 2 10 3 11 4 12 5 13 6 14 7 15 8 16 9 7 10 6 11 5 12
REMARK SMILES IDX 4 13 3 14 2 15 1 16
REMARK H PARENT
REMARK Flexibility Score: inf
ROOT
ATOM      1  C   UNL     1      17.772   4.745 -10.752  1.00  0.00     0.000 C 
ENDROOT
BRANCH   1   2
ATOM      2  C   UNL     1      18.189   3.626 -11.722  1.00  0.00     0.000 C 
BRANCH   2   3
ATOM      3  C   UNL     1      19.117   4.130 -12.840  1.00  0.00     0.000 C 
BRANCH   3   4
ATOM      4  C   UNL     1      19.625   2.992 -13.741  1.00  0.00     0.000 C 
BRANCH   4   5
ATOM      5  C   UNL     1      18.612   1.840 -13.870  1.00  0.00     0.006 C 
BRANCH   5   6
ATOM      6  C   UNL     1      18.727   1.118 -15.219  1.00  0.00     0.053 C 
BRANCH   6   7
ATOM      7  C   UNL     1      17.541   0.239 -15.481  1.00  0.00     0.041 C 
ATOM      8  O   UNL     1      17.133  -0.555 -14.594  1.00  0.00    -0.550 OA
ATOM      9  O   UNL     1      16.910   0.273 -16.717  1.00  0.00    -0.550 OA
ENDBRANCH   6   7
ENDBRANCH   5   6
ENDBRANCH   4   5
ENDBRANCH   3   4
ENDBRANCH   2   3
ENDBRANCH   1   2
BRANCH   1  10
ATOM     10  C   UNL     1      18.307   6.123 -11.170  1.00  0.00     0.000 C 
BRANCH  10  11
ATOM     11  C   UNL     1      19.064   6.789 -10.015  1.00  0.00    -0.000 C 
BRANCH  11  12
ATOM     12  C   UNL     1      20.577   6.787 -10.272  1.00  0.00    -0.000 C 
BRANCH  12  13
ATOM     13  C   UNL     1      20.882   7.027 -11.758  1.00  0.00    -0.000 C 
BRANCH  13  14
ATOM     14  C   UNL     1      22.331   6.678 -12.128  1.00  0.00    -0.000 C 
BRANCH  14  15
ATOM     15  C   UNL     1      22.441   5.361 -12.911  1.00  0.00    -0.003 C 
ATOM     16  C   UNL     1      23.864   5.139 -13.416  1.00  0.00     0.004 C 
ENDBRANCH  14  15
ENDBRANCH  13  14
ENDBRANCH  12  13
ENDBRANCH  11  12
ENDBRANCH  10  11
ENDBRANCH   1  10
TORSDOF 12
ENDMDL
MODEL 5
REMARK VINA RESULT:    -2.385     19.542     22.828
REMARK INTER + INTRA:          -4.669
REMARK INTER:                  -4.110
REMARK INTRA:                  -0.559
REMARK UNBOUND:                -0.611
REMARK SMILES CCCCCCCCCCCCCC(=O)[O-]
REMARK SMILES IDX 8 1 9 2 10 3 11 4 12 5 13 6 14 7 15 8 16 9 7 10 6 11 5 12
REMARK SMILES IDX 4 13 3 14 2 15 1 16
REMARK H PARENT
REMARK Flexibility Score: inf
ROOT
ATOM      1  C   UNL     1      27.797 -13.096 -26.954  1.00  0.00     0.000 C 
ENDROOT
BRANCH   1   2
ATOM      2  C   UNL     1      26.714 -12.037 -27.223  1.00  0.00     0.000 C 
BRANCH   2   3
ATOM      3  C   UNL     1      26.112 -11.465 -25.929  1.00  0.00     0.000 C 
BRANCH   3   4
ATOM      4  C   UNL     1      25.242 -10.223 -26.183  1.00  0.00     0.000 C 
BRANCH   4   5
ATOM      5  C   UNL     1      23.992 -10.180 -25.286  1.00  0.00     0.006 C 
BRANCH   5   6
ATOM      6  C   UNL     1      22.751  -9.696 -26.048  1.00  0.00     0.053 C 
BRANCH   6   7
ATOM      7  C   UNL     1      21.642  -9.313 -25.115  1.00  0.00     0.041 C 
ATOM      8  O   UNL     1      20.953  -8.283 -25.339  1.00  0.00    -0.550 OA
ATOM      9  O   UNL     1      21.394 -10.073 -23.980  1.00  0.00    -0.550 OA
ENDBRANCH   6   7
ENDBRANCH   5   6
ENDBRANCH   4   5
ENDBRANCH   3   4
ENDBRANCH   2   3
ENDBRANCH   1   2
BRANCH   1  10
ATOM     10  C   UNL     1      28.882 -13.124 -28.041  1.00  0.00     0.000 C 
BRANCH  10  11
ATOM     11  C   UNL     1      30.275 -12.944 -27.428  1.00  0.00    -0.000 C 
BRANCH  11  12
ATOM     12  C   UNL     1      30.184 -12.652 -25.925  1.00  0.00    -0.000 C 
BRANCH  12  13
ATOM     13  C   UNL     1      30.082 -11.142 -25.663  1.00  0.00    -0.000 C 
BRANCH  13  14
ATOM     14  C   UNL     1      29.764 -10.815 -24.197  1.00  0.00    -0.000 C 
BRANCH  14  15
ATOM     15  C   UNL     1      31.005 -10.874 -23.294  1.00  0.00    -0.003 C 
ATOM     16  C   UNL     1      31.236  -9.540 -22.588  1.00  0.00     0.004 C 
ENDBRANCH  14  15
ENDBRANCH  13  14
ENDBRANCH  12  13
ENDBRANCH  11  12
ENDBRANCH  10  11
ENDBRANCH   1  10
TORSDOF 12
ENDMDL
MODEL 6
REMARK VINA RESULT:    -2.125      1.034      1.628
REMARK INTER + INTRA:          -4.227
REMARK INTER:                  -3.676
REMARK INTRA:                  -0.551
REMARK UNBOUND:                -0.611
REMARK SMILES CCCCCCCCCCCCCC(=O)[O-]
REMARK SMILES IDX 8 1 9 2 10 3 11 4 12 5 13 6 14 7 15 8 16 9 7 10 6 11 5 12
REMARK SMILES IDX 4 13 3 14 2 15 1 16
REMARK H PARENT
REMARK Flexibility Score: inf
ROOT
ATOM      1  C   UNL     1      21.791   4.880 -13.136  1.00  0.00     0.000 C 
ENDROOT
BRANCH   1   2
ATOM      2  C   UNL     1      23.285   4.807 -12.778  1.00  0.00     0.000 C 
BRANCH   2   3
ATOM      3  C   UNL     1      24.069   6.039 -13.261  1.00  0.00     0.000 C 
BRANCH   3   4
ATOM      4  C   UNL     1      24.936   5.740 -14.494  1.00  0.00     0.000 C 
BRANCH   4   5
ATOM      5  C   UNL     1      25.939   4.597 -14.252  1.00  0.00     0.006 C 
BRANCH   5   6
ATOM      6  C   UNL     1      27.166   4.700 -15.167  1.00  0.00     0.053 C 
BRANCH   6   7
ATOM      7  C   UNL     1      28.291   3.834 -14.686  1.00  0.00     0.041 C 
ATOM      8  O   UNL     1      28.294   3.397 -13.506  1.00  0.00    -0.550 OA
ATOM      9  O   UNL     1      29.353   3.541 -15.532  1.00  0.00    -0.550 OA
ENDBRANCH   6   7
ENDBRANCH   5   6
ENDBRANCH   4   5
ENDBRANCH   3   4
ENDBRANCH   2   3
ENDBRANCH   1   2
BRANCH   1  10
ATOM     10  C   UNL     1      21.222   6.302 -13.018  1.00  0.00     0.000 C 
BRANCH  10  11
ATOM     11  C   UNL     1      21.520   6.898 -11.638  1.00  0.00    -0.000 C 
BRANCH  11  12
ATOM     12  C   UNL     1      20.230   7.088 -10.828  1.00  0.00    -0.000 C 
BRANCH  12  13
ATOM     13  C   UNL     1      20.220   6.180  -9.590  1.00  0.00    -0.000 C 
BRANCH  13  14
ATOM     14  C   UNL     1      19.256   4.993  -9.734  1.00  0.00    -0.000 C 
BRANCH  14  15
ATOM     15  C   UNL     1      18.180   5.231 -10.804  1.00  0.00    -0.003 C 
ATOM     16  C   UNL     1      17.340   3.975 -11.028  1.00  0.00     0.004 C 
ENDBRANCH  14  15
ENDBRANCH  13  14
ENDBRANCH  12  13
ENDBRANCH  11  12
ENDBRANCH  10  11
ENDBRANCH   1  10
TORSDOF 12
ENDMDL
