MODEL 1
REMARK VINA RESULT:    -7.054      0.000      0.000
REMARK INTER + INTRA:          -9.031
REMARK INTER:                  -8.703
REMARK INTRA:                  -0.328
REMARK UNBOUND:                -0.328
REMARK SMILES Oc1cc(O)c2cc(O)c(-c3cc(O)c(O)c(O)c3)[o+]c2c1
REMARK SMILES IDX 10 1 20 2 21 3 22 4 2 5 3 6 4 7 6 8 7 9 8 10 11 11 12 12
REMARK SMILES IDX 13 13 19 14 15 15 17 16 14 17 16 19 18 21 9 23 1 25 5 27
REMARK H PARENT 14 18 16 20 18 22 9 24 1 26 5 28
REMARK Flexibility Score: inf
ROOT
ATOM      1  C   UNL     1       7.933  40.338  22.901  1.00  0.00     0.402 A 
ATOM      2  O   UNL     1       7.170  40.517  23.977  1.00  0.00    -0.202 OA
ATOM      3  C   UNL     1       6.502  39.533  24.569  1.00  0.00     0.368 A 
ATOM      4  C   UNL     1       5.725  39.820  25.694  1.00  0.00     0.162 A 
ATOM      5  C   UNL     1       5.009  38.808  26.334  1.00  0.00     0.128 A 
ATOM      6  C   UNL     1       5.070  37.497  25.848  1.00  0.00     0.093 A 
ATOM      7  C   UNL     1       5.842  37.183  24.723  1.00  0.00     0.136 A 
ATOM      8  C   UNL     1       6.573  38.210  24.070  1.00  0.00     0.125 A 
ATOM      9  C   UNL     1       7.382  37.987  22.945  1.00  0.00     0.078 A 
ATOM     10  C   UNL     1       8.077  39.048  22.358  1.00  0.00     0.223 A 
ENDROOT
BRANCH   1  11
ATOM     11  C   UNL     1       8.620  41.517  22.327  1.00  0.00     0.091 A 
ATOM     12  C   UNL     1       9.985  41.715  22.585  1.00  0.00     0.068 A 
ATOM     13  C   UNL     1      10.656  42.830  22.071  1.00  0.00     0.162 A 
ATOM     14  C   UNL     1       7.922  42.475  21.572  1.00  0.00     0.068 A 
ATOM     15  C   UNL     1       9.957  43.774  21.300  1.00  0.00     0.200 A 
ATOM     16  C   UNL     1       8.585  43.596  21.055  1.00  0.00     0.162 A 
BRANCH  13  17
ATOM     17  O   UNL     1      12.016  42.981  22.339  1.00  0.00    -0.504 OA
ATOM     18  H   UNL     1      12.394  43.828  22.747  1.00  0.00     0.293 HD
ENDBRANCH  13  17
BRANCH  15  19
ATOM     19  O   UNL     1      10.635  44.882  20.788  1.00  0.00    -0.502 OA
ATOM     20  H   UNL     1      10.532  45.808  21.187  1.00  0.00     0.293 HD
ENDBRANCH  15  19
BRANCH  16  21
ATOM     21  O   UNL     1       7.883  44.537  20.302  1.00  0.00    -0.504 OA
ATOM     22  H   UNL     1       7.300  44.263  19.519  1.00  0.00     0.293 HD
ENDBRANCH  16  21
ENDBRANCH   1  11
BRANCH  10  23
ATOM     23  O   UNL     1       8.920  38.817  21.271  1.00  0.00    -0.500 OA
ATOM     24  H   UNL     1       8.555  38.605  20.350  1.00  0.00     0.294 HD
ENDBRANCH  10  23
BRANCH   5  25
ATOM     25  O   UNL     1       4.240  39.114  27.454  1.00  0.00    -0.507 OA
ATOM     26  H   UNL     1       3.840  40.035  27.588  1.00  0.00     0.293 HD
ENDBRANCH   5  25
BRANCH   7  27
ATOM     27  O   UNL     1       5.848  35.852  24.297  1.00  0.00    -0.507 OA
ATOM     28  H   UNL     1       6.388  35.504  23.518  1.00  0.00     0.293 HD
ENDBRANCH   7  27
TORSDOF 7
ENDMDL
MODEL 2
REMARK VINA RESULT:    -7.023      4.542     10.492
REMARK INTER + INTRA:          -8.994
REMARK INTER:                  -8.683
REMARK INTRA:                  -0.312
REMARK UNBOUND:                -0.328
REMARK SMILES Oc1cc(O)c2cc(O)c(-c3cc(O)c(O)c(O)c3)[o+]c2c1
REMARK SMILES IDX 10 1 20 2 21 3 22 4 2 5 3 6 4 7 6 8 7 9 8 10 11 11 12 12
REMARK SMILES IDX 13 13 19 14 15 15 17 16 14 17 16 19 18 21 9 23 1 25 5 27
REMARK H PARENT 14 18 16 20 18 22 9 24 1 26 5 28
REMARK Flexibility Score: inf
ROOT
ATOM      1  C   UNL     1       3.651  36.086  28.106  1.00  0.00     0.402 A 
ATOM      2  O   UNL     1       4.497  35.911  27.093  1.00  0.00    -0.202 OA
ATOM      3  C   UNL     1       4.979  36.912  26.364  1.00  0.00     0.368 A 
ATOM      4  C   UNL     1       5.861  36.627  25.318  1.00  0.00     0.162 A 
ATOM      5  C   UNL     1       6.381  37.658  24.534  1.00  0.00     0.128 A 
ATOM      6  C   UNL     1       6.017  38.984  24.796  1.00  0.00     0.093 A 
ATOM      7  C   UNL     1       5.136  39.295  25.838  1.00  0.00     0.136 A 
ATOM      8  C   UNL     1       4.607  38.249  26.639  1.00  0.00     0.125 A 
ATOM      9  C   UNL     1       3.728  38.468  27.712  1.00  0.00     0.078 A 
ATOM     10  C   UNL     1       3.252  37.387  28.461  1.00  0.00     0.223 A 
ENDROOT
BRANCH   1  11
ATOM     11  C   UNL     1       3.177  34.888  28.835  1.00  0.00     0.091 A 
ATOM     12  C   UNL     1       3.709  34.593  30.100  1.00  0.00     0.068 A 
ATOM     13  C   UNL     1       3.294  33.458  30.803  1.00  0.00     0.162 A 
ATOM     14  C   UNL     1       2.242  34.006  28.265  1.00  0.00     0.068 A 
ATOM     15  C   UNL     1       2.343  32.591  30.237  1.00  0.00     0.200 A 
ATOM     16  C   UNL     1       1.821  32.866  28.963  1.00  0.00     0.162 A 
BRANCH  13  17
ATOM     17  O   UNL     1       3.838  33.209  32.063  1.00  0.00    -0.504 OA
ATOM     18  H   UNL     1       3.893  32.275  32.451  1.00  0.00     0.293 HD
ENDBRANCH  13  17
BRANCH  15  19
ATOM     19  O   UNL     1       1.931  31.462  30.948  1.00  0.00    -0.502 OA
ATOM     20  H   UNL     1       1.300  30.776  30.552  1.00  0.00     0.293 HD
ENDBRANCH  15  19
BRANCH  16  21
ATOM     21  O   UNL     1       0.888  32.002  28.390  1.00  0.00    -0.504 OA
ATOM     22  H   UNL     1       1.160  31.101  28.012  1.00  0.00     0.293 HD
ENDBRANCH  16  21
ENDBRANCH   1  11
BRANCH  10  23
ATOM     23  O   UNL     1       2.418  37.607  29.556  1.00  0.00    -0.500 OA
ATOM     24  H   UNL     1       1.661  38.281  29.523  1.00  0.00     0.294 HD
ENDBRANCH  10  23
BRANCH   5  25
ATOM     25  O   UNL     1       7.258  37.355  23.496  1.00  0.00    -0.507 OA
ATOM     26  H   UNL     1       7.028  36.664  22.791  1.00  0.00     0.293 HD
ENDBRANCH   5  25
BRANCH   7  27
ATOM     27  O   UNL     1       4.820  40.642  26.033  1.00  0.00    -0.507 OA
ATOM     28  H   UNL     1       3.880  41.002  26.119  1.00  0.00     0.293 HD
ENDBRANCH   7  27
TORSDOF 7
ENDMDL
MODEL 3
REMARK VINA RESULT:    -6.900      1.352      7.045
REMARK INTER + INTRA:          -8.842
REMARK INTER:                  -9.118
REMARK INTRA:                   0.276
REMARK UNBOUND:                -0.328
REMARK SMILES Oc1cc(O)c2cc(O)c(-c3cc(O)c(O)c(O)c3)[o+]c2c1
REMARK SMILES IDX 10 1 20 2 21 3 22 4 2 5 3 6 4 7 6 8 7 9 8 10 11 11 12 12
REMARK SMILES IDX 13 13 19 14 15 15 17 16 14 17 16 19 18 21 9 23 1 25 5 27
REMARK H PARENT 14 18 16 20 18 22 9 24 1 26 5 28
REMARK Flexibility Score: inf
ROOT
ATOM      1  C   UNL     1       8.090  40.170  22.778  1.00  0.00     0.402 A 
ATOM      2  O   UNL     1       7.798  41.407  22.383  1.00  0.00    -0.202 OA
ATOM      3  C   UNL     1       8.593  42.132  21.604  1.00  0.00     0.368 A 
ATOM      4  C   UNL     1       8.199  43.423  21.244  1.00  0.00     0.162 A 
ATOM      5  C   UNL     1       9.017  44.209  20.430  1.00  0.00     0.128 A 
ATOM      6  C   UNL     1      10.237  43.700  19.971  1.00  0.00     0.093 A 
ATOM      7  C   UNL     1      10.654  42.410  20.316  1.00  0.00     0.136 A 
ATOM      8  C   UNL     1       9.824  41.607  21.142  1.00  0.00     0.125 A 
ATOM      9  C   UNL     1      10.154  40.298  21.530  1.00  0.00     0.078 A 
ATOM     10  C   UNL     1       9.284  39.566  22.342  1.00  0.00     0.223 A 
ENDROOT
BRANCH   1  11
ATOM     11  C   UNL     1       7.126  39.469  23.655  1.00  0.00     0.091 A 
ATOM     12  C   UNL     1       6.276  40.217  24.484  1.00  0.00     0.068 A 
ATOM     13  C   UNL     1       5.369  39.581  25.338  1.00  0.00     0.162 A 
ATOM     14  C   UNL     1       7.079  38.065  23.717  1.00  0.00     0.068 A 
ATOM     15  C   UNL     1       5.311  38.178  25.380  1.00  0.00     0.200 A 
ATOM     16  C   UNL     1       6.173  37.420  24.570  1.00  0.00     0.162 A 
BRANCH  13  17
ATOM     17  O   UNL     1       4.532  40.362  26.135  1.00  0.00    -0.504 OA
ATOM     18  H   UNL     1       3.648  40.723  25.795  1.00  0.00     0.293 HD
ENDBRANCH  13  17
BRANCH  15  19
ATOM     19  O   UNL     1       4.400  37.551  26.232  1.00  0.00    -0.502 OA
ATOM     20  H   UNL     1       3.596  37.043  25.882  1.00  0.00     0.293 HD
ENDBRANCH  15  19
BRANCH  16  21
ATOM     21  O   UNL     1       6.132  36.027  24.619  1.00  0.00    -0.504 OA
ATOM     22  H   UNL     1       5.729  35.535  25.409  1.00  0.00     0.293 HD
ENDBRANCH  16  21
ENDBRANCH   1  11
BRANCH  10  23
ATOM     23  O   UNL     1       9.588  38.249  22.685  1.00  0.00    -0.500 OA
ATOM     24  H   UNL     1       9.306  37.468  22.103  1.00  0.00     0.294 HD
ENDBRANCH  10  23
BRANCH   5  25
ATOM     25  O   UNL     1       8.607  45.494  20.083  1.00  0.00    -0.507 OA
ATOM     26  H   UNL     1       7.696  45.669  19.676  1.00  0.00     0.293 HD
ENDBRANCH   5  25
BRANCH   7  27
ATOM     27  O   UNL     1      11.886  41.977  19.820  1.00  0.00    -0.507 OA
ATOM     28  H   UNL     1      12.015  41.156  19.246  1.00  0.00     0.293 HD
ENDBRANCH   7  27
TORSDOF 7
ENDMDL
MODEL 4
REMARK VINA RESULT:    -6.835      2.083      2.880
REMARK INTER + INTRA:          -8.761
REMARK INTER:                  -8.435
REMARK INTRA:                  -0.327
REMARK UNBOUND:                -0.328
REMARK SMILES Oc1cc(O)c2cc(O)c(-c3cc(O)c(O)c(O)c3)[o+]c2c1
REMARK SMILES IDX 10 1 20 2 21 3 22 4 2 5 3 6 4 7 6 8 7 9 8 10 11 11 12 12
REMARK SMILES IDX 13 13 19 14 15 15 17 16 14 17 16 19 18 21 9 23 1 25 5 27
REMARK H PARENT 14 18 16 20 18 22 9 24 1 26 5 28
REMARK Flexibility Score: inf
ROOT
ATOM      1  C   UNL     1       8.886  41.242  22.750  1.00  0.00     0.402 A 
ATOM      2  O   UNL     1       9.461  40.375  23.580  1.00  0.00    -0.202 OA
ATOM      3  C   UNL     1       8.783  39.451  24.253  1.00  0.00     0.368 A 
ATOM      4  C   UNL     1       9.476  38.585  25.104  1.00  0.00     0.162 A 
ATOM      5  C   UNL     1       8.790  37.608  25.826  1.00  0.00     0.128 A 
ATOM      6  C   UNL     1       7.401  37.493  25.698  1.00  0.00     0.093 A 
ATOM      7  C   UNL     1       6.684  38.348  24.853  1.00  0.00     0.136 A 
ATOM      8  C   UNL     1       7.379  39.342  24.115  1.00  0.00     0.125 A 
ATOM      9  C   UNL     1       6.745  40.234  23.234  1.00  0.00     0.078 A 
ATOM     10  C   UNL     1       7.497  41.184  22.537  1.00  0.00     0.223 A 
ENDROOT
BRANCH   1  11
ATOM     11  C   UNL     1       9.749  42.232  22.065  1.00  0.00     0.091 A 
ATOM     12  C   UNL     1       9.734  43.570  22.488  1.00  0.00     0.068 A 
ATOM     13  C   UNL     1      10.524  44.530  21.847  1.00  0.00     0.162 A 
ATOM     14  C   UNL     1      10.543  41.872  20.963  1.00  0.00     0.068 A 
ATOM     15  C   UNL     1      11.332  44.160  20.758  1.00  0.00     0.200 A 
ATOM     16  C   UNL     1      11.336  42.828  20.314  1.00  0.00     0.162 A 
BRANCH  13  17
ATOM     17  O   UNL     1      10.492  45.846  22.307  1.00  0.00    -0.504 OA
ATOM     18  H   UNL     1       9.904  46.131  23.082  1.00  0.00     0.293 HD
ENDBRANCH  13  17
BRANCH  15  19
ATOM     19  O   UNL     1      12.120  45.124  20.127  1.00  0.00    -0.502 OA
ATOM     20  H   UNL     1      13.085  45.288  20.388  1.00  0.00     0.293 HD
ENDBRANCH  15  19
BRANCH  16  21
ATOM     21  O   UNL     1      12.125  42.458  19.226  1.00  0.00    -0.504 OA
ATOM     22  H   UNL     1      11.834  42.641  18.272  1.00  0.00     0.293 HD
ENDBRANCH  16  21
ENDBRANCH   1  11
BRANCH  10  23
ATOM     23  O   UNL     1       6.875  42.036  21.625  1.00  0.00    -0.500 OA
ATOM     24  H   UNL     1       6.812  43.035  21.787  1.00  0.00     0.294 HD
ENDBRANCH  10  23
BRANCH   5  25
ATOM     25  O   UNL     1       9.498  36.755  26.669  1.00  0.00    -0.507 OA
ATOM     26  H   UNL     1       9.208  36.594  27.627  1.00  0.00     0.293 HD
ENDBRANCH   5  25
BRANCH   7  27
ATOM     27  O   UNL     1       5.300  38.171  24.782  1.00  0.00    -0.507 OA
ATOM     28  H   UNL     1       4.634  38.632  25.386  1.00  0.00     0.293 HD
ENDBRANCH   7  27
TORSDOF 7
ENDMDL
MODEL 5
REMARK VINA RESULT:    -6.746      2.162      7.106
REMARK INTER + INTRA:          -8.652
REMARK INTER:                  -8.359
REMARK INTRA:                  -0.293
REMARK UNBOUND:                -0.328
REMARK SMILES Oc1cc(O)c2cc(O)c(-c3cc(O)c(O)c(O)c3)[o+]c2c1
REMARK SMILES IDX 10 1 20 2 21 3 22 4 2 5 3 6 4 7 6 8 7 9 8 10 11 11 12 12
REMARK SMILES IDX 13 13 19 14 15 15 17 16 14 17 16 19 18 21 9 23 1 25 5 27
REMARK H PARENT 14 18 16 20 18 22 9 24 1 26 5 28
REMARK Flexibility Score: inf
ROOT
ATOM      1  C   UNL     1       9.100  40.199  23.050  1.00  0.00     0.402 A 
ATOM      2  O   UNL     1       8.704  41.447  22.812  1.00  0.00    -0.202 OA
ATOM      3  C   UNL     1       9.241  42.215  21.870  1.00  0.00     0.368 A 
ATOM      4  C   UNL     1       8.758  43.515  21.696  1.00  0.00     0.162 A 
ATOM      5  C   UNL     1       9.306  44.346  20.718  1.00  0.00     0.128 A 
ATOM      6  C   UNL     1      10.344  43.875  19.906  1.00  0.00     0.093 A 
ATOM      7  C   UNL     1      10.845  42.578  20.060  1.00  0.00     0.136 A 
ATOM      8  C   UNL     1      10.289  41.729  21.053  1.00  0.00     0.125 A 
ATOM      9  C   UNL     1      10.719  40.410  21.271  1.00  0.00     0.078 A 
ATOM     10  C   UNL     1      10.120  39.631  22.265  1.00  0.00     0.223 A 
ENDROOT
BRANCH   1  11
ATOM     11  C   UNL     1       8.429  39.448  24.135  1.00  0.00     0.091 A 
ATOM     12  C   UNL     1       7.071  39.119  24.010  1.00  0.00     0.068 A 
ATOM     13  C   UNL     1       6.406  38.427  25.027  1.00  0.00     0.162 A 
ATOM     14  C   UNL     1       9.109  39.103  25.316  1.00  0.00     0.068 A 
ATOM     15  C   UNL     1       7.097  38.065  26.197  1.00  0.00     0.200 A 
ATOM     16  C   UNL     1       8.451  38.410  26.341  1.00  0.00     0.162 A 
BRANCH  13  17
ATOM     17  O   UNL     1       5.059  38.106  24.856  1.00  0.00    -0.504 OA
ATOM     18  H   UNL     1       4.624  38.080  23.942  1.00  0.00     0.293 HD
ENDBRANCH  13  17
BRANCH  15  19
ATOM     19  O   UNL     1       6.426  37.371  27.206  1.00  0.00    -0.502 OA
ATOM     20  H   UNL     1       6.908  36.750  27.844  1.00  0.00     0.293 HD
ENDBRANCH  15  19
BRANCH  16  21
ATOM     21  O   UNL     1       9.137  38.068  27.505  1.00  0.00    -0.504 OA
ATOM     22  H   UNL     1       8.654  37.934  28.387  1.00  0.00     0.293 HD
ENDBRANCH  16  21
ENDBRANCH   1  11
BRANCH  10  23
ATOM     23  O   UNL     1      10.512  38.306  22.448  1.00  0.00    -0.500 OA
ATOM     24  H   UNL     1      10.155  37.559  21.863  1.00  0.00     0.294 HD
ENDBRANCH  10  23
BRANCH   5  25
ATOM     25  O   UNL     1       8.811  45.638  20.560  1.00  0.00    -0.507 OA
ATOM     26  H   UNL     1       8.827  46.309  21.319  1.00  0.00     0.293 HD
ENDBRANCH   5  25
BRANCH   7  27
ATOM     27  O   UNL     1      11.885  42.184  19.213  1.00  0.00    -0.507 OA
ATOM     28  H   UNL     1      12.243  41.242  19.147  1.00  0.00     0.293 HD
ENDBRANCH   7  27
TORSDOF 7
ENDMDL
MODEL 6
REMARK VINA RESULT:    -6.636      2.559      3.034
REMARK INTER + INTRA:          -8.516
REMARK INTER:                  -8.228
REMARK INTRA:                  -0.287
REMARK UNBOUND:                -0.328
REMARK SMILES Oc1cc(O)c2cc(O)c(-c3cc(O)c(O)c(O)c3)[o+]c2c1
REMARK SMILES IDX 10 1 20 2 21 3 22 4 2 5 3 6 4 7 6 8 7 9 8 10 11 11 12 12
REMARK SMILES IDX 13 13 19 14 15 15 17 16 14 17 16 19 18 21 9 23 1 25 5 27
REMARK H PARENT 14 18 16 20 18 22 9 24 1 26 5 28
REMARK Flexibility Score: inf
ROOT
ATOM      1  C   UNL     1       9.062  39.544  23.231  1.00  0.00     0.402 A 
ATOM      2  O   UNL     1       9.480  39.556  24.495  1.00  0.00    -0.202 OA
ATOM      3  C   UNL     1       8.829  38.953  25.484  1.00  0.00     0.368 A 
ATOM      4  C   UNL     1       9.345  39.023  26.780  1.00  0.00     0.162 A 
ATOM      5  C   UNL     1       8.681  38.403  27.839  1.00  0.00     0.128 A 
ATOM      6  C   UNL     1       7.491  37.705  27.601  1.00  0.00     0.093 A 
ATOM      7  C   UNL     1       6.953  37.619  26.312  1.00  0.00     0.136 A 
ATOM      8  C   UNL     1       7.627  38.248  25.232  1.00  0.00     0.125 A 
ATOM      9  C   UNL     1       7.169  38.204  23.906  1.00  0.00     0.078 A 
ATOM     10  C   UNL     1       7.890  38.843  22.893  1.00  0.00     0.223 A 
ENDROOT
BRANCH   1  11
ATOM     11  C   UNL     1       9.871  40.263  22.220  1.00  0.00     0.091 A 
ATOM     12  C   UNL     1       9.840  41.665  22.181  1.00  0.00     0.068 A 
ATOM     13  C   UNL     1      10.579  42.370  21.225  1.00  0.00     0.162 A 
ATOM     14  C   UNL     1      10.629  39.569  21.261  1.00  0.00     0.068 A 
ATOM     15  C   UNL     1      11.352  41.671  20.282  1.00  0.00     0.200 A 
ATOM     16  C   UNL     1      11.371  40.267  20.299  1.00  0.00     0.162 A 
BRANCH  13  17
ATOM     17  O   UNL     1      10.532  43.764  21.230  1.00  0.00    -0.504 OA
ATOM     18  H   UNL     1      11.323  44.330  20.947  1.00  0.00     0.293 HD
ENDBRANCH  13  17
BRANCH  15  19
ATOM     19  O   UNL     1      12.089  42.383  19.333  1.00  0.00    -0.502 OA
ATOM     20  H   UNL     1      12.606  41.921  18.595  1.00  0.00     0.293 HD
ENDBRANCH  15  19
BRANCH  16  21
ATOM     21  O   UNL     1      12.125  39.568  19.356  1.00  0.00    -0.504 OA
ATOM     22  H   UNL     1      12.944  39.033  19.622  1.00  0.00     0.293 HD
ENDBRANCH  16  21
ENDBRANCH   1  11
BRANCH  10  23
ATOM     23  O   UNL     1       7.463  38.758  21.568  1.00  0.00    -0.500 OA
ATOM     24  H   UNL     1       6.584  38.319  21.320  1.00  0.00     0.294 HD
ENDBRANCH  10  23
BRANCH   5  25
ATOM     25  O   UNL     1       9.211  38.485  29.124  1.00  0.00    -0.507 OA
ATOM     26  H   UNL     1       9.766  39.279  29.420  1.00  0.00     0.293 HD
ENDBRANCH   5  25
BRANCH   7  27
ATOM     27  O   UNL     1       5.760  36.908  26.158  1.00  0.00    -0.507 OA
ATOM     28  H   UNL     1       4.839  37.317  26.220  1.00  0.00     0.293 HD
ENDBRANCH   7  27
TORSDOF 7
ENDMDL
MODEL 7
REMARK VINA RESULT:    -6.632      6.652      9.234
REMARK INTER + INTRA:          -8.512
REMARK INTER:                  -8.130
REMARK INTRA:                  -0.382
REMARK UNBOUND:                -0.328
REMARK SMILES Oc1cc(O)c2cc(O)c(-c3cc(O)c(O)c(O)c3)[o+]c2c1
REMARK SMILES IDX 10 1 20 2 21 3 22 4 2 5 3 6 4 7 6 8 7 9 8 10 11 11 12 12
REMARK SMILES IDX 13 13 19 14 15 15 17 16 14 17 16 19 18 21 9 23 1 25 5 27
REMARK H PARENT 14 18 16 20 18 22 9 24 1 26 5 28
REMARK Flexibility Score: inf
ROOT
ATOM      1  C   UNL     1       4.176  35.462  29.188  1.00  0.00     0.402 A 
ATOM      2  O   UNL     1       4.534  34.381  29.878  1.00  0.00    -0.202 OA
ATOM      3  C   UNL     1       3.828  33.256  29.889  1.00  0.00     0.368 A 
ATOM      4  C   UNL     1       4.285  32.175  30.647  1.00  0.00     0.162 A 
ATOM      5  C   UNL     1       3.562  30.982  30.681  1.00  0.00     0.128 A 
ATOM      6  C   UNL     1       2.372  30.867  29.953  1.00  0.00     0.093 A 
ATOM      7  C   UNL     1       1.893  31.936  29.187  1.00  0.00     0.136 A 
ATOM      8  C   UNL     1       2.627  33.150  29.148  1.00  0.00     0.125 A 
ATOM      9  C   UNL     1       2.230  34.269  28.398  1.00  0.00     0.078 A 
ATOM     10  C   UNL     1       3.008  35.430  28.404  1.00  0.00     0.223 A 
ENDROOT
BRANCH   1  11
ATOM     11  C   UNL     1       5.043  36.660  29.264  1.00  0.00     0.091 A 
ATOM     12  C   UNL     1       6.100  36.806  28.353  1.00  0.00     0.068 A 
ATOM     13  C   UNL     1       6.947  37.917  28.413  1.00  0.00     0.162 A 
ATOM     14  C   UNL     1       4.865  37.630  30.265  1.00  0.00     0.068 A 
ATOM     15  C   UNL     1       6.752  38.895  29.403  1.00  0.00     0.200 A 
ATOM     16  C   UNL     1       5.710  38.746  30.334  1.00  0.00     0.162 A 
BRANCH  13  17
ATOM     17  O   UNL     1       7.977  38.031  27.479  1.00  0.00    -0.504 OA
ATOM     18  H   UNL     1       8.164  38.897  26.987  1.00  0.00     0.293 HD
ENDBRANCH  13  17
BRANCH  15  19
ATOM     19  O   UNL     1       7.600  40.003  29.454  1.00  0.00    -0.502 OA
ATOM     20  H   UNL     1       8.553  39.937  29.791  1.00  0.00     0.293 HD
ENDBRANCH  15  19
BRANCH  16  21
ATOM     21  O   UNL     1       5.520  39.705  31.328  1.00  0.00    -0.504 OA
ATOM     22  H   UNL     1       5.790  40.673  31.190  1.00  0.00     0.293 HD
ENDBRANCH  16  21
ENDBRANCH   1  11
BRANCH  10  23
ATOM     23  O   UNL     1       2.641  36.523  27.620  1.00  0.00    -0.500 OA
ATOM     24  H   UNL     1       3.210  36.837  26.842  1.00  0.00     0.294 HD
ENDBRANCH  10  23
BRANCH   5  25
ATOM     25  O   UNL     1       4.034  29.915  31.442  1.00  0.00    -0.507 OA
ATOM     26  H   UNL     1       3.728  28.964  31.270  1.00  0.00     0.293 HD
ENDBRANCH   5  25
BRANCH   7  27
ATOM     27  O   UNL     1       0.696  31.744  28.491  1.00  0.00    -0.507 OA
ATOM     28  H   UNL     1       0.615  31.237  27.621  1.00  0.00     0.293 HD
ENDBRANCH   7  27
TORSDOF 7
ENDMDL
MODEL 8
REMARK VINA RESULT:    -6.523      2.815      5.021
REMARK INTER + INTRA:          -8.377
REMARK INTER:                  -8.008
REMARK INTRA:                  -0.369
REMARK UNBOUND:                -0.328
REMARK SMILES Oc1cc(O)c2cc(O)c(-c3cc(O)c(O)c(O)c3)[o+]c2c1
REMARK SMILES IDX 10 1 20 2 21 3 22 4 2 5 3 6 4 7 6 8 7 9 8 10 11 11 12 12
REMARK SMILES IDX 13 13 19 14 15 15 17 16 14 17 16 19 18 21 9 23 1 25 5 27
REMARK H PARENT 14 18 16 20 18 22 9 24 1 26 5 28
REMARK Flexibility Score: inf
ROOT
ATOM      1  C   UNL     1       5.970  37.885  26.191  1.00  0.00     0.402 A 
ATOM      2  O   UNL     1       6.274  38.338  27.406  1.00  0.00    -0.202 OA
ATOM      3  C   UNL     1       5.621  37.974  28.504  1.00  0.00     0.368 A 
ATOM      4  C   UNL     1       6.014  38.506  29.735  1.00  0.00     0.162 A 
ATOM      5  C   UNL     1       5.344  38.145  30.905  1.00  0.00     0.128 A 
ATOM      6  C   UNL     1       4.273  37.246  30.845  1.00  0.00     0.093 A 
ATOM      7  C   UNL     1       3.860  36.699  29.625  1.00  0.00     0.136 A 
ATOM      8  C   UNL     1       4.541  37.062  28.433  1.00  0.00     0.125 A 
ATOM      9  C   UNL     1       4.205  36.555  27.167  1.00  0.00     0.078 A 
ATOM     10  C   UNL     1       4.926  36.955  26.037  1.00  0.00     0.223 A 
ENDROOT
BRANCH   1  11
ATOM     11  C   UNL     1       6.767  38.373  25.043  1.00  0.00     0.091 A 
ATOM     12  C   UNL     1       7.876  37.632  24.607  1.00  0.00     0.068 A 
ATOM     13  C   UNL     1       8.658  38.079  23.537  1.00  0.00     0.162 A 
ATOM     14  C   UNL     1       6.470  39.594  24.413  1.00  0.00     0.068 A 
ATOM     15  C   UNL     1       8.344  39.290  22.897  1.00  0.00     0.200 A 
ATOM     16  C   UNL     1       7.250  40.050  23.341  1.00  0.00     0.162 A 
BRANCH  13  17
ATOM     17  O   UNL     1       9.743  37.305  23.125  1.00  0.00    -0.504 OA
ATOM     18  H   UNL     1      10.430  37.649  22.465  1.00  0.00     0.293 HD
ENDBRANCH  13  17
BRANCH  15  19
ATOM     19  O   UNL     1       9.129  39.727  21.828  1.00  0.00    -0.502 OA
ATOM     20  H   UNL     1       9.457  40.683  21.755  1.00  0.00     0.293 HD
ENDBRANCH  15  19
BRANCH  16  21
ATOM     21  O   UNL     1       6.943  41.260  22.719  1.00  0.00    -0.504 OA
ATOM     22  H   UNL     1       6.753  41.313  21.724  1.00  0.00     0.293 HD
ENDBRANCH  16  21
ENDBRANCH   1  11
BRANCH  10  23
ATOM     23  O   UNL     1       4.625  36.414  24.788  1.00  0.00    -0.500 OA
ATOM     24  H   UNL     1       4.941  36.850  23.929  1.00  0.00     0.294 HD
ENDBRANCH  10  23
BRANCH   5  25
ATOM     25  O   UNL     1       5.750  38.686  32.123  1.00  0.00    -0.507 OA
ATOM     26  H   UNL     1       5.425  38.308  33.005  1.00  0.00     0.293 HD
ENDBRANCH   5  25
BRANCH   7  27
ATOM     27  O   UNL     1       2.781  35.812  29.648  1.00  0.00    -0.507 OA
ATOM     28  H   UNL     1       2.297  35.479  28.827  1.00  0.00     0.293 HD
ENDBRANCH   7  27
TORSDOF 7
ENDMDL
MODEL 9
REMARK VINA RESULT:    -6.213      5.650     11.117
REMARK INTER + INTRA:          -7.995
REMARK INTER:                  -7.738
REMARK INTRA:                  -0.257
REMARK UNBOUND:                -0.328
REMARK SMILES Oc1cc(O)c2cc(O)c(-c3cc(O)c(O)c(O)c3)[o+]c2c1
REMARK SMILES IDX 10 1 20 2 21 3 22 4 2 5 3 6 4 7 6 8 7 9 8 10 11 11 12 12
REMARK SMILES IDX 13 13 19 14 15 15 17 16 14 17 16 19 18 21 9 23 1 25 5 27
REMARK H PARENT 14 18 16 20 18 22 9 24 1 26 5 28
REMARK Flexibility Score: inf
ROOT
ATOM      1  C   UNL     1       4.048  35.290  29.081  1.00  0.00     0.402 A 
ATOM      2  O   UNL     1       5.166  35.899  29.470  1.00  0.00    -0.202 OA
ATOM      3  C   UNL     1       5.708  36.918  28.812  1.00  0.00     0.368 A 
ATOM      4  C   UNL     1       6.886  37.491  29.299  1.00  0.00     0.162 A 
ATOM      5  C   UNL     1       7.480  38.560  28.627  1.00  0.00     0.128 A 
ATOM      6  C   UNL     1       6.893  39.061  27.459  1.00  0.00     0.093 A 
ATOM      7  C   UNL     1       5.713  38.505  26.951  1.00  0.00     0.136 A 
ATOM      8  C   UNL     1       5.105  37.419  27.634  1.00  0.00     0.125 A 
ATOM      9  C   UNL     1       3.916  36.807  27.206  1.00  0.00     0.078 A 
ATOM     10  C   UNL     1       3.373  35.744  27.933  1.00  0.00     0.223 A 
ENDROOT
BRANCH   1  11
ATOM     11  C   UNL     1       3.549  34.158  29.894  1.00  0.00     0.091 A 
ATOM     12  C   UNL     1       4.249  32.941  29.888  1.00  0.00     0.068 A 
ATOM     13  C   UNL     1       3.790  31.849  30.631  1.00  0.00     0.162 A 
ATOM     14  C   UNL     1       2.356  34.256  30.631  1.00  0.00     0.068 A 
ATOM     15  C   UNL     1       2.608  31.960  31.383  1.00  0.00     0.200 A 
ATOM     16  C   UNL     1       1.888  33.166  31.378  1.00  0.00     0.162 A 
BRANCH  13  17
ATOM     17  O   UNL     1       4.523  30.663  30.610  1.00  0.00    -0.504 OA
ATOM     18  H   UNL     1       4.215  29.831  31.099  1.00  0.00     0.293 HD
ENDBRANCH  13  17
BRANCH  15  19
ATOM     19  O   UNL     1       2.159  30.865  32.125  1.00  0.00    -0.502 OA
ATOM     20  H   UNL     1       2.433  29.915  31.904  1.00  0.00     0.293 HD
ENDBRANCH  15  19
BRANCH  16  21
ATOM     21  O   UNL     1       0.707  33.277  32.110  1.00  0.00    -0.504 OA
ATOM     22  H   UNL     1      -0.003  32.553  32.087  1.00  0.00     0.293 HD
ENDBRANCH  16  21
ENDBRANCH   1  11
BRANCH  10  23
ATOM     23  O   UNL     1       2.166  35.169  27.537  1.00  0.00    -0.500 OA
ATOM     24  H   UNL     1       2.086  34.177  27.344  1.00  0.00     0.294 HD
ENDBRANCH  10  23
BRANCH   5  25
ATOM     25  O   UNL     1       8.654  39.118  29.127  1.00  0.00    -0.507 OA
ATOM     26  H   UNL     1       9.365  38.548  29.570  1.00  0.00     0.293 HD
ENDBRANCH   5  25
BRANCH   7  27
ATOM     27  O   UNL     1       5.192  39.060  25.780  1.00  0.00    -0.507 OA
ATOM     28  H   UNL     1       5.723  39.616  25.125  1.00  0.00     0.293 HD
ENDBRANCH   7  27
TORSDOF 7
ENDMDL
