MODEL 1
REMARK VINA RESULT:    -6.653      0.000      0.000
REMARK INTER + INTRA:         -10.989
REMARK INTER:                  -9.182
REMARK INTRA:                  -1.808
REMARK UNBOUND:                -1.808
REMARK SMILES CC[C@H](CC[C@@H](C)[C@H]1CC[C@H]2[C@@H]3CC=C4C[C@H](O)CC[C@]4(C)[C@H]3CC[C@]12C)C(C)C
REMARK SMILES IDX 5 1 4 2 3 3 2 4 1 5 28 6 29 7 30 8 6 9 7 10 8 11 9 12 26 13
REMARK SMILES IDX 10 14 11 15 25 16 27 17 12 18 24 19 23 20 13 21 21 22 14 23
REMARK SMILES IDX 15 24 20 25 22 26 16 27 19 28 17 29 18 30
REMARK H PARENT 18 31
REMARK Flexibility Score: inf
ROOT
ATOM      1  C   UNL     1      -5.444  -2.739  -3.594  1.00  0.00     0.004 C 
ENDROOT
BRANCH   1   2
ATOM      2  C   UNL     1      -6.071  -3.101  -2.228  1.00  0.00     0.004 C 
BRANCH   2   3
ATOM      3  C   UNL     1      -5.528  -4.444  -1.660  1.00  0.00    -0.009 C 
BRANCH   3   4
ATOM      4  C   UNL     1      -4.918  -5.283  -2.820  1.00  0.00     0.000 C 
ATOM      5  C   UNL     1      -5.015  -6.796  -2.621  1.00  0.00     0.004 C 
ENDBRANCH   3   4
BRANCH   3   6
ATOM      6  C   UNL     1      -4.564  -4.185  -0.445  1.00  0.00    -0.014 C 
ATOM      7  C   UNL     1      -3.087  -4.130  -0.864  1.00  0.00     0.007 C 
ATOM      8  C   UNL     1      -4.935  -2.961   0.407  1.00  0.00     0.007 C 
ENDBRANCH   3   6
ENDBRANCH   2   3
ENDBRANCH   1   2
BRANCH   1   9
ATOM      9  C   UNL     1      -4.492  -1.510  -3.562  1.00  0.00    -0.011 C 
ATOM     10  C   UNL     1      -4.857  -0.591  -2.381  1.00  0.00     0.008 C 
BRANCH   9  11
ATOM     11  C   UNL     1      -2.976  -1.914  -3.563  1.00  0.00    -0.002 C 
ATOM     12  C   UNL     1      -2.673  -3.058  -4.570  1.00  0.00     0.005 C 
ATOM     13  C   UNL     1      -1.920  -0.825  -3.921  1.00  0.00    -0.026 C 
ATOM     14  C   UNL     1      -1.244  -2.843  -5.086  1.00  0.00     0.005 C 
ATOM     15  C   UNL     1      -0.704  -1.719  -4.218  1.00  0.00    -0.001 C 
ATOM     16  C   UNL     1      -1.504   0.112  -2.757  1.00  0.00     0.007 C 
ATOM     17  C   UNL     1      -2.385   0.010  -5.157  1.00  0.00     0.012 C 
ATOM     18  C   UNL     1       0.535  -0.942  -4.713  1.00  0.00     0.000 C 
ATOM     19  C   UNL     1      -0.257   0.950  -3.123  1.00  0.00     0.005 C 
ATOM     20  C   UNL     1       0.949   0.090  -3.622  1.00  0.00     0.003 C 
ATOM     21  C   UNL     1       1.705  -1.906  -4.967  1.00  0.00     0.031 C 
ATOM     22  C   UNL     1       2.200   0.939  -4.073  1.00  0.00    -0.008 C 
ATOM     23  C   UNL     1       3.015  -1.200  -5.163  1.00  0.00    -0.027 C 
ATOM     24  C   UNL     1       3.291   0.022  -4.656  1.00  0.00    -0.065 C 
ATOM     25  C   UNL     1       2.783   1.679  -2.828  1.00  0.00     0.014 C 
ATOM     26  C   UNL     1       1.817   1.982  -5.158  1.00  0.00     0.016 C 
ATOM     27  C   UNL     1       4.693   0.574  -4.827  1.00  0.00     0.063 C 
ATOM     28  C   UNL     1       4.170   2.298  -3.064  1.00  0.00     0.033 C 
ATOM     29  C   UNL     1       5.182   1.251  -3.540  1.00  0.00     0.118 C 
BRANCH  29  30
ATOM     30  O   UNL     1       5.385   0.294  -2.532  1.00  0.00    -0.393 OA
ATOM     31  H   UNL     1       6.272   0.484  -2.128  1.00  0.00     0.210 HD
ENDBRANCH  29  30
ENDBRANCH   9  11
ENDBRANCH   1   9
TORSDOF 7
ENDMDL
MODEL 2
REMARK VINA RESULT:    -6.338      2.483      3.702
REMARK INTER + INTRA:         -10.554
REMARK INTER:                  -8.771
REMARK INTRA:                  -1.782
REMARK UNBOUND:                -1.808
REMARK SMILES CC[C@H](CC[C@@H](C)[C@H]1CC[C@H]2[C@@H]3CC=C4C[C@H](O)CC[C@]4(C)[C@H]3CC[C@]12C)C(C)C
REMARK SMILES IDX 5 1 4 2 3 3 2 4 1 5 28 6 29 7 30 8 6 9 7 10 8 11 9 12 26 13
REMARK SMILES IDX 10 14 11 15 25 16 27 17 12 18 24 19 23 20 13 21 21 22 14 23
REMARK SMILES IDX 15 24 20 25 22 26 16 27 19 28 17 29 18 30
REMARK H PARENT 18 31
REMARK Flexibility Score: inf
ROOT
ATOM      1  C   UNL     1      -3.117  -1.665  -4.846  1.00  0.00     0.004 C 
ENDROOT
BRANCH   1   2
ATOM      2  C   UNL     1      -3.939  -2.561  -3.892  1.00  0.00     0.004 C 
BRANCH   2   3
ATOM      3  C   UNL     1      -3.245  -3.926  -3.610  1.00  0.00    -0.009 C 
BRANCH   3   4
ATOM      4  C   UNL     1      -2.128  -4.162  -4.667  1.00  0.00     0.000 C 
ATOM      5  C   UNL     1      -0.798  -4.637  -4.081  1.00  0.00     0.004 C 
ENDBRANCH   3   4
BRANCH   3   6
ATOM      6  C   UNL     1      -2.774  -4.011  -2.112  1.00  0.00    -0.014 C 
ATOM      7  C   UNL     1      -3.062  -2.722  -1.327  1.00  0.00     0.007 C 
ATOM      8  C   UNL     1      -3.299  -5.240  -1.353  1.00  0.00     0.007 C 
ENDBRANCH   3   6
ENDBRANCH   2   3
ENDBRANCH   1   2
BRANCH   1   9
ATOM      9  C   UNL     1      -2.947  -0.196  -4.364  1.00  0.00    -0.011 C 
ATOM     10  C   UNL     1      -4.177   0.234  -3.543  1.00  0.00     0.008 C 
BRANCH   9  11
ATOM     11  C   UNL     1      -1.599   0.042  -3.600  1.00  0.00    -0.002 C 
ATOM     12  C   UNL     1      -0.511  -0.995  -3.989  1.00  0.00     0.005 C 
ATOM     13  C   UNL     1      -0.877   1.412  -3.781  1.00  0.00    -0.026 C 
ATOM     14  C   UNL     1       0.849  -0.290  -3.885  1.00  0.00     0.005 C 
ATOM     15  C   UNL     1       0.521   1.050  -3.250  1.00  0.00    -0.001 C 
ATOM     16  C   UNL     1      -1.402   2.568  -2.890  1.00  0.00     0.007 C 
ATOM     17  C   UNL     1      -0.871   1.838  -5.284  1.00  0.00     0.012 C 
ATOM     18  C   UNL     1       1.552   2.193  -3.377  1.00  0.00     0.000 C 
ATOM     19  C   UNL     1      -0.447   3.785  -2.921  1.00  0.00     0.005 C 
ATOM     20  C   UNL     1       1.035   3.426  -2.577  1.00  0.00     0.003 C 
ATOM     21  C   UNL     1       2.910   1.753  -2.808  1.00  0.00     0.031 C 
ATOM     22  C   UNL     1       2.032   4.643  -2.683  1.00  0.00    -0.008 C 
ATOM     23  C   UNL     1       3.867   2.896  -2.629  1.00  0.00    -0.027 C 
ATOM     24  C   UNL     1       3.479   4.177  -2.444  1.00  0.00    -0.065 C 
ATOM     25  C   UNL     1       1.659   5.697  -1.593  1.00  0.00     0.014 C 
ATOM     26  C   UNL     1       1.966   5.310  -4.085  1.00  0.00     0.016 C 
ATOM     27  C   UNL     1       4.544   5.219  -2.157  1.00  0.00     0.063 C 
ATOM     28  C   UNL     1       2.725   6.786  -1.389  1.00  0.00     0.033 C 
ATOM     29  C   UNL     1       4.092   6.182  -1.052  1.00  0.00     0.118 C 
BRANCH  29  30
ATOM     30  O   UNL     1       4.024   5.514   0.181  1.00  0.00    -0.393 OA
ATOM     31  H   UNL     1       3.299   4.839   0.104  1.00  0.00     0.210 HD
ENDBRANCH  29  30
ENDBRANCH   9  11
ENDBRANCH   1   9
TORSDOF 7
ENDMDL
MODEL 3
REMARK VINA RESULT:    -6.245      3.131      8.791
REMARK INTER + INTRA:         -10.426
REMARK INTER:                  -8.664
REMARK INTRA:                  -1.762
REMARK UNBOUND:                -1.808
REMARK SMILES CC[C@H](CC[C@@H](C)[C@H]1CC[C@H]2[C@@H]3CC=C4C[C@H](O)CC[C@]4(C)[C@H]3CC[C@]12C)C(C)C
REMARK SMILES IDX 5 1 4 2 3 3 2 4 1 5 28 6 29 7 30 8 6 9 7 10 8 11 9 12 26 13
REMARK SMILES IDX 10 14 11 15 25 16 27 17 12 18 24 19 23 20 13 21 21 22 14 23
REMARK SMILES IDX 15 24 20 25 22 26 16 27 19 28 17 29 18 30
REMARK H PARENT 18 31
REMARK Flexibility Score: inf
ROOT
ATOM      1  C   UNL     1      -0.793  -2.627  -6.436  1.00  0.00     0.004 C 
ENDROOT
BRANCH   1   2
ATOM      2  C   UNL     1       0.701  -2.243  -6.525  1.00  0.00     0.004 C 
BRANCH   2   3
ATOM      3  C   UNL     1       0.919  -0.703  -6.587  1.00  0.00    -0.009 C 
BRANCH   3   4
ATOM      4  C   UNL     1      -0.424  -0.009  -6.953  1.00  0.00     0.000 C 
ATOM      5  C   UNL     1      -0.528   0.431  -8.414  1.00  0.00     0.004 C 
ENDBRANCH   3   4
BRANCH   3   6
ATOM      6  C   UNL     1       1.599  -0.184  -5.267  1.00  0.00    -0.014 C 
ATOM      7  C   UNL     1       0.585   0.082  -4.144  1.00  0.00     0.007 C 
ATOM      8  C   UNL     1       2.753  -1.066  -4.761  1.00  0.00     0.007 C 
ENDBRANCH   3   6
ENDBRANCH   2   3
ENDBRANCH   1   2
BRANCH   1   9
ATOM      9  C   UNL     1      -1.217  -3.253  -5.076  1.00  0.00    -0.011 C 
ATOM     10  C   UNL     1       0.030  -3.572  -4.231  1.00  0.00     0.008 C 
BRANCH   9  11
ATOM     11  C   UNL     1      -2.261  -2.376  -4.301  1.00  0.00    -0.002 C 
ATOM     12  C   UNL     1      -3.226  -1.626  -5.259  1.00  0.00     0.005 C 
ATOM     13  C   UNL     1      -3.222  -3.082  -3.297  1.00  0.00    -0.026 C 
ATOM     14  C   UNL     1      -4.575  -1.496  -4.539  1.00  0.00     0.005 C 
ATOM     15  C   UNL     1      -4.288  -1.986  -3.129  1.00  0.00    -0.001 C 
ATOM     16  C   UNL     1      -2.637  -3.349  -1.886  1.00  0.00     0.007 C 
ATOM     17  C   UNL     1      -3.790  -4.401  -3.913  1.00  0.00     0.012 C 
ATOM     18  C   UNL     1      -5.480  -2.405  -2.242  1.00  0.00     0.000 C 
ATOM     19  C   UNL     1      -3.739  -3.773  -0.887  1.00  0.00     0.005 C 
ATOM     20  C   UNL     1      -4.944  -2.779  -0.827  1.00  0.00     0.003 C 
ATOM     21  C   UNL     1      -6.483  -1.248  -2.113  1.00  0.00     0.031 C 
ATOM     22  C   UNL     1      -6.111  -3.242   0.129  1.00  0.00    -0.008 C 
ATOM     23  C   UNL     1      -7.506  -1.477  -1.039  1.00  0.00    -0.027 C 
ATOM     24  C   UNL     1      -7.300  -2.269   0.037  1.00  0.00    -0.065 C 
ATOM     25  C   UNL     1      -5.585  -3.251   1.599  1.00  0.00     0.014 C 
ATOM     26  C   UNL     1      -6.620  -4.662  -0.243  1.00  0.00     0.016 C 
ATOM     27  C   UNL     1      -8.372  -2.322   1.109  1.00  0.00     0.063 C 
ATOM     28  C   UNL     1      -6.692  -3.391   2.656  1.00  0.00     0.033 C 
ATOM     29  C   UNL     1      -7.752  -2.294   2.512  1.00  0.00     0.118 C 
BRANCH  29  30
ATOM     30  O   UNL     1      -7.173  -1.039   2.765  1.00  0.00    -0.393 OA
ATOM     31  H   UNL     1      -7.852  -0.501   3.251  1.00  0.00     0.210 HD
ENDBRANCH  29  30
ENDBRANCH   9  11
ENDBRANCH   1   9
TORSDOF 7
ENDMDL
MODEL 4
REMARK VINA RESULT:    -6.184      1.253      1.598
REMARK INTER + INTRA:         -10.341
REMARK INTER:                  -8.583
REMARK INTRA:                  -1.758
REMARK UNBOUND:                -1.808
REMARK SMILES CC[C@H](CC[C@@H](C)[C@H]1CC[C@H]2[C@@H]3CC=C4C[C@H](O)CC[C@]4(C)[C@H]3CC[C@]12C)C(C)C
REMARK SMILES IDX 5 1 4 2 3 3 2 4 1 5 28 6 29 7 30 8 6 9 7 10 8 11 9 12 26 13
REMARK SMILES IDX 10 14 11 15 25 16 27 17 12 18 24 19 23 20 13 21 21 22 14 23
REMARK SMILES IDX 15 24 20 25 22 26 16 27 19 28 17 29 18 30
REMARK H PARENT 18 31
REMARK Flexibility Score: inf
ROOT
ATOM      1  C   UNL     1      -5.293  -3.509  -4.114  1.00  0.00     0.004 C 
ENDROOT
BRANCH   1   2
ATOM      2  C   UNL     1      -5.957  -3.748  -2.739  1.00  0.00     0.004 C 
BRANCH   2   3
ATOM      3  C   UNL     1      -5.194  -4.799  -1.883  1.00  0.00    -0.009 C 
BRANCH   3   4
ATOM      4  C   UNL     1      -4.337  -5.699  -2.818  1.00  0.00     0.000 C 
ATOM      5  C   UNL     1      -4.836  -7.140  -2.937  1.00  0.00     0.004 C 
ENDBRANCH   3   4
BRANCH   3   6
ATOM      6  C   UNL     1      -4.400  -4.099  -0.720  1.00  0.00    -0.014 C 
ATOM      7  C   UNL     1      -2.890  -4.029  -0.994  1.00  0.00     0.007 C 
ATOM      8  C   UNL     1      -4.946  -2.718  -0.323  1.00  0.00     0.007 C 
ENDBRANCH   3   6
ENDBRANCH   2   3
ENDBRANCH   1   2
BRANCH   1   9
ATOM      9  C   UNL     1      -4.667  -2.097  -4.292  1.00  0.00    -0.011 C 
ATOM     10  C   UNL     1      -5.533  -1.042  -3.576  1.00  0.00     0.008 C 
BRANCH   9  11
ATOM     11  C   UNL     1      -3.162  -2.038  -3.853  1.00  0.00    -0.002 C 
ATOM     12  C   UNL     1      -2.285  -3.062  -4.622  1.00  0.00     0.005 C 
ATOM     13  C   UNL     1      -2.391  -0.694  -4.028  1.00  0.00    -0.026 C 
ATOM     14  C   UNL     1      -0.885  -2.448  -4.763  1.00  0.00     0.005 C 
ATOM     15  C   UNL     1      -0.943  -1.198  -3.902  1.00  0.00    -0.001 C 
ATOM     16  C   UNL     1      -2.596   0.347  -2.897  1.00  0.00     0.007 C 
ATOM     17  C   UNL     1      -2.702  -0.058  -5.421  1.00  0.00     0.012 C 
ATOM     18  C   UNL     1       0.120  -0.102  -4.129  1.00  0.00     0.000 C 
ATOM     19  C   UNL     1      -1.578   1.506  -3.004  1.00  0.00     0.005 C 
ATOM     20  C   UNL     1      -0.092   1.028  -3.078  1.00  0.00     0.003 C 
ATOM     21  C   UNL     1       1.532  -0.685  -3.967  1.00  0.00     0.031 C 
ATOM     22  C   UNL     1       0.950   2.197  -3.267  1.00  0.00    -0.008 C 
ATOM     23  C   UNL     1       2.596   0.371  -3.881  1.00  0.00    -0.027 C 
ATOM     24  C   UNL     1       2.370   1.630  -3.447  1.00  0.00    -0.065 C 
ATOM     25  C   UNL     1       0.931   3.102  -1.994  1.00  0.00     0.014 C 
ATOM     26  C   UNL     1       0.615   3.061  -4.514  1.00  0.00     0.016 C 
ATOM     27  C   UNL     1       3.554   2.566  -3.297  1.00  0.00     0.063 C 
ATOM     28  C   UNL     1       2.101   4.095  -1.918  1.00  0.00     0.033 C 
ATOM     29  C   UNL     1       3.454   3.382  -2.002  1.00  0.00     0.118 C 
BRANCH  29  30
ATOM     30  O   UNL     1       3.621   2.548  -0.884  1.00  0.00    -0.393 OA
ATOM     31  H   UNL     1       2.737   2.488  -0.435  1.00  0.00     0.210 HD
ENDBRANCH  29  30
ENDBRANCH   9  11
ENDBRANCH   1   9
TORSDOF 7
ENDMDL
MODEL 5
REMARK VINA RESULT:    -6.167      1.558      2.488
REMARK INTER + INTRA:         -10.319
REMARK INTER:                  -8.766
REMARK INTRA:                  -1.552
REMARK UNBOUND:                -1.808
REMARK SMILES CC[C@H](CC[C@@H](C)[C@H]1CC[C@H]2[C@@H]3CC=C4C[C@H](O)CC[C@]4(C)[C@H]3CC[C@]12C)C(C)C
REMARK SMILES IDX 5 1 4 2 3 3 2 4 1 5 28 6 29 7 30 8 6 9 7 10 8 11 9 12 26 13
REMARK SMILES IDX 10 14 11 15 25 16 27 17 12 18 24 19 23 20 13 21 21 22 14 23
REMARK SMILES IDX 15 24 20 25 22 26 16 27 19 28 17 29 18 30
REMARK H PARENT 18 31
REMARK Flexibility Score: inf
ROOT
ATOM      1  C   UNL     1      -3.259  -2.572  -5.097  1.00  0.00     0.004 C 
ENDROOT
BRANCH   1   2
ATOM      2  C   UNL     1      -3.929  -3.185  -3.847  1.00  0.00     0.004 C 
BRANCH   2   3
ATOM      3  C   UNL     1      -3.269  -4.526  -3.413  1.00  0.00    -0.009 C 
BRANCH   3   4
ATOM      4  C   UNL     1      -2.199  -4.935  -4.466  1.00  0.00     0.000 C 
ATOM      5  C   UNL     1      -0.803  -5.168  -3.887  1.00  0.00     0.004 C 
ENDBRANCH   3   4
BRANCH   3   6
ATOM      6  C   UNL     1      -2.747  -4.436  -1.933  1.00  0.00    -0.014 C 
ATOM      7  C   UNL     1      -3.032  -3.072  -1.286  1.00  0.00     0.007 C 
ATOM      8  C   UNL     1      -3.223  -5.580  -1.023  1.00  0.00     0.007 C 
ENDBRANCH   3   6
ENDBRANCH   2   3
ENDBRANCH   1   2
BRANCH   1   9
ATOM      9  C   UNL     1      -2.547  -1.212  -4.846  1.00  0.00    -0.011 C 
ATOM     10  C   UNL     1      -3.255  -0.449  -3.710  1.00  0.00     0.008 C 
BRANCH   9  11
ATOM     11  C   UNL     1      -1.006  -1.368  -4.597  1.00  0.00    -0.002 C 
ATOM     12  C   UNL     1      -0.299  -2.134  -5.748  1.00  0.00     0.005 C 
ATOM     13  C   UNL     1      -0.147  -0.077  -4.438  1.00  0.00    -0.026 C 
ATOM     14  C   UNL     1       1.126  -1.575  -5.860  1.00  0.00     0.005 C 
ATOM     15  C   UNL     1       1.259  -0.663  -4.653  1.00  0.00    -0.001 C 
ATOM     16  C   UNL     1      -0.150   0.558  -3.023  1.00  0.00     0.007 C 
ATOM     17  C   UNL     1      -0.542   0.984  -5.516  1.00  0.00     0.012 C 
ATOM     18  C   UNL     1       2.382   0.397  -4.655  1.00  0.00     0.000 C 
ATOM     19  C   UNL     1       0.946   1.642  -2.887  1.00  0.00     0.005 C 
ATOM     20  C   UNL     1       2.372   1.142  -3.286  1.00  0.00     0.003 C 
ATOM     21  C   UNL     1       3.750  -0.275  -4.856  1.00  0.00     0.031 C 
ATOM     22  C   UNL     1       3.484   2.259  -3.228  1.00  0.00    -0.008 C 
ATOM     23  C   UNL     1       4.901   0.647  -4.576  1.00  0.00    -0.027 C 
ATOM     24  C   UNL     1       4.826   1.711  -3.747  1.00  0.00    -0.065 C 
ATOM     25  C   UNL     1       3.668   2.711  -1.745  1.00  0.00     0.014 C 
ATOM     26  C   UNL     1       3.099   3.489  -4.094  1.00  0.00     0.016 C 
ATOM     27  C   UNL     1       6.094   2.493  -3.459  1.00  0.00     0.063 C 
ATOM     28  C   UNL     1       4.920   3.571  -1.506  1.00  0.00     0.033 C 
ATOM     29  C   UNL     1       6.193   2.858  -1.972  1.00  0.00     0.118 C 
BRANCH  29  30
ATOM     30  O   UNL     1       6.400   1.704  -1.198  1.00  0.00    -0.393 OA
ATOM     31  H   UNL     1       5.907   0.966  -1.643  1.00  0.00     0.210 HD
ENDBRANCH  29  30
ENDBRANCH   9  11
ENDBRANCH   1   9
TORSDOF 7
ENDMDL
MODEL 6
REMARK VINA RESULT:    -6.039      2.809      4.891
REMARK INTER + INTRA:         -10.142
REMARK INTER:                  -8.719
REMARK INTRA:                  -1.423
REMARK UNBOUND:                -1.808
REMARK SMILES CC[C@H](CC[C@@H](C)[C@H]1CC[C@H]2[C@@H]3CC=C4C[C@H](O)CC[C@]4(C)[C@H]3CC[C@]12C)C(C)C
REMARK SMILES IDX 5 1 4 2 3 3 2 4 1 5 28 6 29 7 30 8 6 9 7 10 8 11 9 12 26 13
REMARK SMILES IDX 10 14 11 15 25 16 27 17 12 18 24 19 23 20 13 21 21 22 14 23
REMARK SMILES IDX 15 24 20 25 22 26 16 27 19 28 17 29 18 30
REMARK H PARENT 18 31
REMARK Flexibility Score: inf
ROOT
ATOM      1  C   UNL     1      -7.441  -3.915   0.673  1.00  0.00     0.004 C 
ENDROOT
BRANCH   1   2
ATOM      2  C   UNL     1      -8.786  -3.453   1.279  1.00  0.00     0.004 C 
BRANCH   2   3
ATOM      3  C   UNL     1      -8.932  -3.848   2.777  1.00  0.00    -0.009 C 
BRANCH   3   4
ATOM      4  C   UNL     1      -7.735  -4.753   3.189  1.00  0.00     0.000 C 
ATOM      5  C   UNL     1      -8.125  -6.189   3.545  1.00  0.00     0.004 C 
ENDBRANCH   3   4
BRANCH   3   6
ATOM      6  C   UNL     1      -9.140  -2.572   3.671  1.00  0.00    -0.014 C 
ATOM      7  C   UNL     1      -7.851  -2.131   4.383  1.00  0.00     0.007 C 
ATOM      8  C   UNL     1      -9.791  -1.386   2.940  1.00  0.00     0.007 C 
ENDBRANCH   3   6
ENDBRANCH   2   3
ENDBRANCH   1   2
BRANCH   1   9
ATOM      9  C   UNL     1      -6.604  -2.777   0.022  1.00  0.00    -0.011 C 
ATOM     10  C   UNL     1      -6.630  -1.524   0.918  1.00  0.00     0.008 C 
BRANCH   9  11
ATOM     11  C   UNL     1      -5.146  -3.227  -0.342  1.00  0.00    -0.002 C 
ATOM     12  C   UNL     1      -5.020  -4.769  -0.470  1.00  0.00     0.005 C 
ATOM     13  C   UNL     1      -4.518  -2.699  -1.668  1.00  0.00    -0.026 C 
ATOM     14  C   UNL     1      -3.945  -5.053  -1.529  1.00  0.00     0.005 C 
ATOM     15  C   UNL     1      -3.348  -3.687  -1.822  1.00  0.00    -0.001 C 
ATOM     16  C   UNL     1      -3.892  -1.282  -1.594  1.00  0.00     0.007 C 
ATOM     17  C   UNL     1      -5.550  -2.782  -2.838  1.00  0.00     0.012 C 
ATOM     18  C   UNL     1      -2.545  -3.503  -3.127  1.00  0.00     0.000 C 
ATOM     19  C   UNL     1      -3.045  -0.971  -2.850  1.00  0.00     0.005 C 
ATOM     20  C   UNL     1      -1.964  -2.058  -3.160  1.00  0.00     0.003 C 
ATOM     21  C   UNL     1      -1.389  -4.514  -3.190  1.00  0.00     0.031 C 
ATOM     22  C   UNL     1      -1.148  -1.792  -4.483  1.00  0.00    -0.008 C 
ATOM     23  C   UNL     1      -0.399  -4.205  -4.275  1.00  0.00    -0.027 C 
ATOM     24  C   UNL     1      -0.193  -2.965  -4.771  1.00  0.00    -0.065 C 
ATOM     25  C   UNL     1      -0.302  -0.492  -4.302  1.00  0.00     0.014 C 
ATOM     26  C   UNL     1      -2.089  -1.626  -5.708  1.00  0.00     0.016 C 
ATOM     27  C   UNL     1       0.921  -2.768  -5.783  1.00  0.00     0.063 C 
ATOM     28  C   UNL     1       0.761  -0.283  -5.393  1.00  0.00     0.033 C 
ATOM     29  C   UNL     1       1.707  -1.483  -5.497  1.00  0.00     0.118 C 
BRANCH  29  30
ATOM     30  O   UNL     1       2.439  -1.613  -4.305  1.00  0.00    -0.393 OA
ATOM     31  H   UNL     1       3.293  -1.123  -4.436  1.00  0.00     0.210 HD
ENDBRANCH  29  30
ENDBRANCH   9  11
ENDBRANCH   1   9
TORSDOF 7
ENDMDL
MODEL 7
REMARK VINA RESULT:    -5.989      1.615      2.861
REMARK INTER + INTRA:         -10.073
REMARK INTER:                  -7.957
REMARK INTRA:                  -2.116
REMARK UNBOUND:                -1.808
REMARK SMILES CC[C@H](CC[C@@H](C)[C@H]1CC[C@H]2[C@@H]3CC=C4C[C@H](O)CC[C@]4(C)[C@H]3CC[C@]12C)C(C)C
REMARK SMILES IDX 5 1 4 2 3 3 2 4 1 5 28 6 29 7 30 8 6 9 7 10 8 11 9 12 26 13
REMARK SMILES IDX 10 14 11 15 25 16 27 17 12 18 24 19 23 20 13 21 21 22 14 23
REMARK SMILES IDX 15 24 20 25 22 26 16 27 19 28 17 29 18 30
REMARK H PARENT 18 31
REMARK Flexibility Score: inf
ROOT
ATOM      1  C   UNL     1      -5.830  -3.262  -3.369  1.00  0.00     0.004 C 
ENDROOT
BRANCH   1   2
ATOM      2  C   UNL     1      -6.725  -3.249  -4.629  1.00  0.00     0.004 C 
BRANCH   2   3
ATOM      3  C   UNL     1      -6.205  -2.268  -5.720  1.00  0.00    -0.009 C 
BRANCH   3   4
ATOM      4  C   UNL     1      -5.942  -3.056  -7.035  1.00  0.00     0.000 C 
ATOM      5  C   UNL     1      -4.498  -3.530  -7.207  1.00  0.00     0.004 C 
ENDBRANCH   3   4
BRANCH   3   6
ATOM      6  C   UNL     1      -7.169  -1.034  -5.864  1.00  0.00    -0.014 C 
ATOM      7  C   UNL     1      -8.360  -1.098  -4.896  1.00  0.00     0.007 C 
ATOM      8  C   UNL     1      -6.466   0.331  -5.773  1.00  0.00     0.007 C 
ENDBRANCH   3   6
ENDBRANCH   2   3
ENDBRANCH   1   2
BRANCH   1   9
ATOM      9  C   UNL     1      -4.932  -2.003  -3.203  1.00  0.00    -0.011 C 
ATOM     10  C   UNL     1      -5.357  -1.215  -1.949  1.00  0.00     0.008 C 
BRANCH   9  11
ATOM     11  C   UNL     1      -3.401  -2.341  -3.211  1.00  0.00    -0.002 C 
ATOM     12  C   UNL     1      -3.076  -3.576  -4.094  1.00  0.00     0.005 C 
ATOM     13  C   UNL     1      -2.406  -1.255  -3.724  1.00  0.00    -0.026 C 
ATOM     14  C   UNL     1      -1.674  -3.362  -4.680  1.00  0.00     0.005 C 
ATOM     15  C   UNL     1      -1.160  -2.126  -3.962  1.00  0.00    -0.001 C 
ATOM     16  C   UNL     1      -1.999  -0.177  -2.687  1.00  0.00     0.007 C 
ATOM     17  C   UNL     1      -2.945  -0.586  -5.029  1.00  0.00     0.012 C 
ATOM     18  C   UNL     1       0.028  -1.359  -4.582  1.00  0.00     0.000 C 
ATOM     19  C   UNL     1      -0.802   0.666  -3.186  1.00  0.00     0.005 C 
ATOM     20  C   UNL     1       0.426  -0.194  -3.627  1.00  0.00     0.003 C 
ATOM     21  C   UNL     1       1.232  -2.296  -4.767  1.00  0.00     0.031 C 
ATOM     22  C   UNL     1       1.624   0.650  -4.212  1.00  0.00    -0.008 C 
ATOM     23  C   UNL     1       2.502  -1.562  -5.085  1.00  0.00    -0.027 C 
ATOM     24  C   UNL     1       2.737  -0.280  -4.728  1.00  0.00    -0.065 C 
ATOM     25  C   UNL     1       2.209   1.550  -3.078  1.00  0.00     0.014 C 
ATOM     26  C   UNL     1       1.162   1.548  -5.393  1.00  0.00     0.016 C 
ATOM     27  C   UNL     1       4.108   0.307  -5.007  1.00  0.00     0.063 C 
ATOM     28  C   UNL     1       3.559   2.195  -3.429  1.00  0.00     0.033 C 
ATOM     29  C   UNL     1       4.603   1.144  -3.821  1.00  0.00     0.118 C 
BRANCH  29  30
ATOM     30  O   UNL     1       4.878   0.317  -2.720  1.00  0.00    -0.393 OA
ATOM     31  H   UNL     1       5.011   0.913  -1.936  1.00  0.00     0.210 HD
ENDBRANCH  29  30
ENDBRANCH   9  11
ENDBRANCH   1   9
TORSDOF 7
ENDMDL
MODEL 8
REMARK VINA RESULT:    -5.964      1.996      3.619
REMARK INTER + INTRA:         -10.038
REMARK INTER:                  -8.464
REMARK INTRA:                  -1.574
REMARK UNBOUND:                -1.808
REMARK SMILES CC[C@H](CC[C@@H](C)[C@H]1CC[C@H]2[C@@H]3CC=C4C[C@H](O)CC[C@]4(C)[C@H]3CC[C@]12C)C(C)C
REMARK SMILES IDX 5 1 4 2 3 3 2 4 1 5 28 6 29 7 30 8 6 9 7 10 8 11 9 12 26 13
REMARK SMILES IDX 10 14 11 15 25 16 27 17 12 18 24 19 23 20 13 21 21 22 14 23
REMARK SMILES IDX 15 24 20 25 22 26 16 27 19 28 17 29 18 30
REMARK H PARENT 18 31
REMARK Flexibility Score: inf
ROOT
ATOM      1  C   UNL     1      -6.996  -3.685  -0.824  1.00  0.00     0.004 C 
ENDROOT
BRANCH   1   2
ATOM      2  C   UNL     1      -7.206  -4.023   0.670  1.00  0.00     0.004 C 
BRANCH   2   3
ATOM      3  C   UNL     1      -6.119  -4.991   1.221  1.00  0.00    -0.009 C 
BRANCH   3   4
ATOM      4  C   UNL     1      -5.597  -4.454   2.585  1.00  0.00     0.000 C 
ATOM      5  C   UNL     1      -6.499  -3.405   3.235  1.00  0.00     0.004 C 
ENDBRANCH   3   4
BRANCH   3   6
ATOM      6  C   UNL     1      -6.652  -6.470   1.247  1.00  0.00    -0.014 C 
ATOM      7  C   UNL     1      -8.165  -6.548   1.505  1.00  0.00     0.007 C 
ATOM      8  C   UNL     1      -6.266  -7.304   0.015  1.00  0.00     0.007 C 
ENDBRANCH   3   6
ENDBRANCH   2   3
ENDBRANCH   1   2
BRANCH   1   9
ATOM      9  C   UNL     1      -6.003  -2.517  -1.087  1.00  0.00    -0.011 C 
ATOM     10  C   UNL     1      -6.011  -1.540   0.104  1.00  0.00     0.008 C 
BRANCH   9  11
ATOM     11  C   UNL     1      -4.560  -3.013  -1.449  1.00  0.00    -0.002 C 
ATOM     12  C   UNL     1      -4.556  -4.475  -1.974  1.00  0.00     0.005 C 
ATOM     13  C   UNL     1      -3.760  -2.234  -2.537  1.00  0.00    -0.026 C 
ATOM     14  C   UNL     1      -3.408  -4.592  -2.988  1.00  0.00     0.005 C 
ATOM     15  C   UNL     1      -2.670  -3.270  -2.861  1.00  0.00    -0.001 C 
ATOM     16  C   UNL     1      -3.025  -0.961  -2.042  1.00  0.00     0.007 C 
ATOM     17  C   UNL     1      -4.673  -1.899  -3.760  1.00  0.00     0.012 C 
ATOM     18  C   UNL     1      -1.727  -2.845  -4.008  1.00  0.00     0.000 C 
ATOM     19  C   UNL     1      -2.033  -0.431  -3.104  1.00  0.00     0.005 C 
ATOM     20  C   UNL     1      -1.024  -1.512  -3.611  1.00  0.00     0.003 C 
ATOM     21  C   UNL     1      -0.662  -3.925  -4.252  1.00  0.00     0.031 C 
ATOM     22  C   UNL     1      -0.060  -1.005  -4.752  1.00  0.00    -0.008 C 
ATOM     23  C   UNL     1       0.455  -3.457  -5.139  1.00  0.00    -0.027 C 
ATOM     24  C   UNL     1       0.815  -2.161  -5.270  1.00  0.00    -0.065 C 
ATOM     25  C   UNL     1       0.872   0.104  -4.169  1.00  0.00     0.014 C 
ATOM     26  C   UNL     1      -0.856  -0.427  -5.954  1.00  0.00     0.016 C 
ATOM     27  C   UNL     1       2.037  -1.833  -6.108  1.00  0.00     0.063 C 
ATOM     28  C   UNL     1       2.053   0.470  -5.083  1.00  0.00     0.033 C 
ATOM     29  C   UNL     1       2.898  -0.759  -5.433  1.00  0.00     0.118 C 
BRANCH  29  30
ATOM     30  O   UNL     1       3.494  -1.271  -4.268  1.00  0.00    -0.393 OA
ATOM     31  H   UNL     1       3.162  -0.723  -3.509  1.00  0.00     0.210 HD
ENDBRANCH  29  30
ENDBRANCH   9  11
ENDBRANCH   1   9
TORSDOF 7
ENDMDL
MODEL 9
REMARK VINA RESULT:    -5.941      2.647      5.256
REMARK INTER + INTRA:         -10.006
REMARK INTER:                  -7.755
REMARK INTRA:                  -2.250
REMARK UNBOUND:                -1.808
REMARK SMILES CC[C@H](CC[C@@H](C)[C@H]1CC[C@H]2[C@@H]3CC=C4C[C@H](O)CC[C@]4(C)[C@H]3CC[C@]12C)C(C)C
REMARK SMILES IDX 5 1 4 2 3 3 2 4 1 5 28 6 29 7 30 8 6 9 7 10 8 11 9 12 26 13
REMARK SMILES IDX 10 14 11 15 25 16 27 17 12 18 24 19 23 20 13 21 21 22 14 23
REMARK SMILES IDX 15 24 20 25 22 26 16 27 19 28 17 29 18 30
REMARK H PARENT 18 31
REMARK Flexibility Score: inf
ROOT
ATOM      1  C   UNL     1      -7.757  -4.500   1.733  1.00  0.00     0.004 C 
ENDROOT
BRANCH   1   2
ATOM      2  C   UNL     1      -9.091  -4.954   1.099  1.00  0.00     0.004 C 
BRANCH   2   3
ATOM      3  C   UNL     1      -9.190  -4.586  -0.409  1.00  0.00    -0.009 C 
BRANCH   3   4
ATOM      4  C   UNL     1      -9.369  -5.886  -1.245  1.00  0.00     0.000 C 
ATOM      5  C   UNL     1      -8.228  -6.167  -2.224  1.00  0.00     0.004 C 
ENDBRANCH   3   4
BRANCH   3   6
ATOM      6  C   UNL     1     -10.292  -3.488  -0.643  1.00  0.00    -0.014 C 
ATOM      7  C   UNL     1     -11.011  -3.087   0.654  1.00  0.00     0.007 C 
ATOM      8  C   UNL     1      -9.795  -2.244  -1.397  1.00  0.00     0.007 C 
ENDBRANCH   3   6
ENDBRANCH   2   3
ENDBRANCH   1   2
BRANCH   1   9
ATOM      9  C   UNL     1      -7.027  -3.367   0.957  1.00  0.00    -0.011 C 
ATOM     10  C   UNL     1      -6.999  -2.080   1.804  1.00  0.00     0.008 C 
BRANCH   9  11
ATOM     11  C   UNL     1      -5.602  -3.791   0.458  1.00  0.00    -0.002 C 
ATOM     12  C   UNL     1      -5.505  -5.316   0.182  1.00  0.00     0.005 C 
ATOM     13  C   UNL     1      -5.054  -3.147  -0.852  1.00  0.00    -0.026 C 
ATOM     14  C   UNL     1      -4.504  -5.508  -0.966  1.00  0.00     0.005 C 
ATOM     15  C   UNL     1      -3.910  -4.125  -1.172  1.00  0.00    -0.001 C 
ATOM     16  C   UNL     1      -4.407  -1.748  -0.691  1.00  0.00     0.007 C 
ATOM     17  C   UNL     1      -6.161  -3.115  -1.955  1.00  0.00     0.012 C 
ATOM     18  C   UNL     1      -3.190  -3.828  -2.505  1.00  0.00     0.000 C 
ATOM     19  C   UNL     1      -3.639  -1.329  -1.966  1.00  0.00     0.005 C 
ATOM     20  C   UNL     1      -2.595  -2.389  -2.444  1.00  0.00     0.003 C 
ATOM     21  C   UNL     1      -2.054  -4.836  -2.736  1.00  0.00     0.031 C 
ATOM     22  C   UNL     1      -1.862  -2.008  -3.788  1.00  0.00    -0.008 C 
ATOM     23  C   UNL     1      -1.132  -4.435  -3.851  1.00  0.00    -0.027 C 
ATOM     24  C   UNL     1      -0.943  -3.156  -4.244  1.00  0.00    -0.065 C 
ATOM     25  C   UNL     1      -0.990  -0.736  -3.545  1.00  0.00     0.014 C 
ATOM     26  C   UNL     1      -2.878  -1.724  -4.928  1.00  0.00     0.016 C 
ATOM     27  C   UNL     1       0.105  -2.875  -5.304  1.00  0.00     0.063 C 
ATOM     28  C   UNL     1       0.003  -0.435  -4.679  1.00  0.00     0.033 C 
ATOM     29  C   UNL     1       0.925  -1.627  -4.954  1.00  0.00     0.118 C 
BRANCH  29  30
ATOM     30  O   UNL     1       1.731  -1.871  -3.830  1.00  0.00    -0.393 OA
ATOM     31  H   UNL     1       1.120  -1.973  -3.053  1.00  0.00     0.210 HD
ENDBRANCH  29  30
ENDBRANCH   9  11
ENDBRANCH   1   9
TORSDOF 7
ENDMDL
