MODEL 1
REMARK VINA RESULT:    -4.760      0.000      0.000
REMARK INTER + INTRA:         -14.338
REMARK INTER:                 -10.881
REMARK INTRA:                  -3.457
REMARK UNBOUND:                -3.457
REMARK SMILES CCCCCCCCCCCCCCCCCCCCCCCC(=O)[O-]
REMARK SMILES IDX 13 1 14 2 15 3 16 4 17 5 18 6 19 7 20 8 21 9 22 10 23 11
REMARK SMILES IDX 24 12 25 13 26 14 12 15 11 16 10 17 9 18 8 19 7 20 6 21 5 22
REMARK SMILES IDX 4 23 3 24 2 25 1 26
REMARK H PARENT
REMARK Flexibility Score: inf
ROOT
ATOM      1  C   UNL     1      17.231  18.411  32.343  1.00  0.00     0.000 C 
ENDROOT
BRANCH   1   2
ATOM      2  C   UNL     1      18.230  17.250  32.470  1.00  0.00     0.000 C 
BRANCH   2   3
ATOM      3  C   UNL     1      19.588  17.688  33.048  1.00  0.00     0.000 C 
BRANCH   3   4
ATOM      4  C   UNL     1      19.625  19.198  33.363  1.00  0.00     0.000 C 
BRANCH   4   5
ATOM      5  C   UNL     1      20.447  19.549  34.615  1.00  0.00     0.000 C 
BRANCH   5   6
ATOM      6  C   UNL     1      19.601  20.184  35.730  1.00  0.00     0.000 C 
BRANCH   6   7
ATOM      7  C   UNL     1      18.104  19.833  35.592  1.00  0.00     0.000 C 
BRANCH   7   8
ATOM      8  C   UNL     1      17.597  18.869  36.679  1.00  0.00     0.000 C 
BRANCH   8   9
ATOM      9  C   UNL     1      17.924  17.398  36.373  1.00  0.00     0.000 C 
BRANCH   9  10
ATOM     10  C   UNL     1      16.690  16.613  35.899  1.00  0.00     0.006 C 
BRANCH  10  11
ATOM     11  C   UNL     1      16.478  15.318  36.693  1.00  0.00     0.053 C 
BRANCH  11  12
ATOM     12  C   UNL     1      15.300  15.452  37.607  1.00  0.00     0.041 C 
ATOM     13  O   UNL     1      14.928  14.475  38.309  1.00  0.00    -0.550 OA
ATOM     14  O   UNL     1      14.641  16.671  37.715  1.00  0.00    -0.550 OA
ENDBRANCH  11  12
ENDBRANCH  10  11
ENDBRANCH   9  10
ENDBRANCH   8   9
ENDBRANCH   7   8
ENDBRANCH   6   7
ENDBRANCH   5   6
ENDBRANCH   4   5
ENDBRANCH   3   4
ENDBRANCH   2   3
ENDBRANCH   1   2
BRANCH   1  15
ATOM     15  C   UNL     1      15.768  17.950  32.464  1.00  0.00     0.000 C 
BRANCH  15  16
ATOM     16  C   UNL     1      14.817  18.742  31.547  1.00  0.00     0.000 C 
BRANCH  16  17
ATOM     17  C   UNL     1      13.403  18.140  31.402  1.00  0.00     0.000 C 
BRANCH  17  18
ATOM     18  C   UNL     1      13.357  16.620  31.137  1.00  0.00    -0.000 C 
BRANCH  18  19
ATOM     19  C   UNL     1      12.591  16.202  29.869  1.00  0.00    -0.000 C 
BRANCH  19  20
ATOM     20  C   UNL     1      13.274  15.055  29.111  1.00  0.00    -0.000 C 
BRANCH  20  21
ATOM     21  C   UNL     1      14.415  15.581  28.228  1.00  0.00    -0.000 C 
BRANCH  21  22
ATOM     22  C   UNL     1      14.048  16.904  27.522  1.00  0.00    -0.000 C 
BRANCH  22  23
ATOM     23  C   UNL     1      15.104  18.015  27.694  1.00  0.00    -0.000 C 
BRANCH  23  24
ATOM     24  C   UNL     1      16.408  17.573  28.381  1.00  0.00    -0.000 C 
BRANCH  24  25
ATOM     25  C   UNL     1      17.290  18.759  28.801  1.00  0.00    -0.003 C 
ATOM     26  C   UNL     1      16.932  20.014  28.008  1.00  0.00     0.004 C 
ENDBRANCH  24  25
ENDBRANCH  23  24
ENDBRANCH  22  23
ENDBRANCH  21  22
ENDBRANCH  20  21
ENDBRANCH  19  20
ENDBRANCH  18  19
ENDBRANCH  17  18
ENDBRANCH  16  17
ENDBRANCH  15  16
ENDBRANCH   1  15
TORSDOF 22
ENDMDL
MODEL 2
REMARK VINA RESULT:    -4.752      1.527      2.828
REMARK INTER + INTRA:         -14.320
REMARK INTER:                 -10.000
REMARK INTRA:                  -4.320
REMARK UNBOUND:                -3.457
REMARK SMILES CCCCCCCCCCCCCCCCCCCCCCCC(=O)[O-]
REMARK SMILES IDX 13 1 14 2 15 3 16 4 17 5 18 6 19 7 20 8 21 9 22 10 23 11
REMARK SMILES IDX 24 12 25 13 26 14 12 15 11 16 10 17 9 18 8 19 7 20 6 21 5 22
REMARK SMILES IDX 4 23 3 24 2 25 1 26
REMARK H PARENT
REMARK Flexibility Score: inf
ROOT
ATOM      1  C   UNL     1      18.314  18.785  32.219  1.00  0.00     0.000 C 
ENDROOT
BRANCH   1   2
ATOM      2  C   UNL     1      17.357  18.791  33.421  1.00  0.00     0.000 C 
BRANCH   2   3
ATOM      3  C   UNL     1      17.675  19.905  34.434  1.00  0.00     0.000 C 
BRANCH   3   4
ATOM      4  C   UNL     1      19.159  20.325  34.389  1.00  0.00     0.000 C 
BRANCH   4   5
ATOM      5  C   UNL     1      19.840  20.342  35.768  1.00  0.00     0.000 C 
BRANCH   5   6
ATOM      6  C   UNL     1      20.910  19.249  35.924  1.00  0.00     0.000 C 
BRANCH   6   7
ATOM      7  C   UNL     1      20.309  17.921  36.433  1.00  0.00     0.000 C 
BRANCH   7   8
ATOM      8  C   UNL     1      20.162  16.853  35.334  1.00  0.00     0.000 C 
BRANCH   8   9
ATOM      9  C   UNL     1      19.151  15.754  35.700  1.00  0.00     0.000 C 
BRANCH   9  10
ATOM     10  C   UNL     1      17.757  16.324  36.008  1.00  0.00     0.006 C 
BRANCH  10  11
ATOM     11  C   UNL     1      16.879  15.337  36.788  1.00  0.00     0.053 C 
BRANCH  11  12
ATOM     12  C   UNL     1      15.596  15.989  37.196  1.00  0.00     0.041 C 
ATOM     13  O   UNL     1      14.494  15.520  36.805  1.00  0.00    -0.550 OA
ATOM     14  O   UNL     1      15.614  17.090  38.043  1.00  0.00    -0.550 OA
ENDBRANCH  11  12
ENDBRANCH  10  11
ENDBRANCH   9  10
ENDBRANCH   8   9
ENDBRANCH   7   8
ENDBRANCH   6   7
ENDBRANCH   5   6
ENDBRANCH   4   5
ENDBRANCH   3   4
ENDBRANCH   2   3
ENDBRANCH   1   2
BRANCH   1  15
ATOM     15  C   UNL     1      19.032  17.436  32.041  1.00  0.00     0.000 C 
BRANCH  15  16
ATOM     16  C   UNL     1      18.113  16.342  31.466  1.00  0.00     0.000 C 
BRANCH  16  17
ATOM     17  C   UNL     1      17.877  15.134  32.397  1.00  0.00     0.000 C 
BRANCH  17  18
ATOM     18  C   UNL     1      16.411  14.904  32.821  1.00  0.00    -0.000 C 
BRANCH  18  19
ATOM     19  C   UNL     1      15.477  16.111  32.622  1.00  0.00    -0.000 C 
BRANCH  19  20
ATOM     20  C   UNL     1      14.158  15.736  31.932  1.00  0.00    -0.000 C 
BRANCH  20  21
ATOM     21  C   UNL     1      13.501  16.970  31.293  1.00  0.00    -0.000 C 
BRANCH  21  22
ATOM     22  C   UNL     1      14.480  18.155  31.165  1.00  0.00    -0.000 C 
BRANCH  22  23
ATOM     23  C   UNL     1      14.735  18.598  29.710  1.00  0.00    -0.000 C 
BRANCH  23  24
ATOM     24  C   UNL     1      16.194  18.474  29.237  1.00  0.00    -0.000 C 
BRANCH  24  25
ATOM     25  C   UNL     1      16.373  17.427  28.127  1.00  0.00    -0.003 C 
ATOM     26  C   UNL     1      16.006  16.032  28.628  1.00  0.00     0.004 C 
ENDBRANCH  24  25
ENDBRANCH  23  24
ENDBRANCH  22  23
ENDBRANCH  21  22
ENDBRANCH  20  21
ENDBRANCH  19  20
ENDBRANCH  18  19
ENDBRANCH  17  18
ENDBRANCH  16  17
ENDBRANCH  15  16
ENDBRANCH   1  15
TORSDOF 22
ENDMDL
MODEL 3
REMARK VINA RESULT:    -4.734      1.765      3.353
REMARK INTER + INTRA:         -14.278
REMARK INTER:                  -9.754
REMARK INTRA:                  -4.525
REMARK UNBOUND:                -3.457
REMARK SMILES CCCCCCCCCCCCCCCCCCCCCCCC(=O)[O-]
REMARK SMILES IDX 13 1 14 2 15 3 16 4 17 5 18 6 19 7 20 8 21 9 22 10 23 11
REMARK SMILES IDX 24 12 25 13 26 14 12 15 11 16 10 17 9 18 8 19 7 20 6 21 5 22
REMARK SMILES IDX 4 23 3 24 2 25 1 26
REMARK H PARENT
REMARK Flexibility Score: inf
ROOT
ATOM      1  C   UNL     1      18.300  17.671  32.827  1.00  0.00     0.000 C 
ENDROOT
BRANCH   1   2
ATOM      2  C   UNL     1      18.396  19.204  32.902  1.00  0.00     0.000 C 
BRANCH   2   3
ATOM      3  C   UNL     1      17.767  19.781  34.183  1.00  0.00     0.000 C 
BRANCH   3   4
ATOM      4  C   UNL     1      18.793  19.904  35.330  1.00  0.00     0.000 C 
BRANCH   4   5
ATOM      5  C   UNL     1      20.255  19.912  34.854  1.00  0.00     0.000 C 
BRANCH   5   6
ATOM      6  C   UNL     1      21.119  18.847  35.549  1.00  0.00     0.000 C 
BRANCH   6   7
ATOM      7  C   UNL     1      20.265  17.850  36.361  1.00  0.00     0.000 C 
BRANCH   7   8
ATOM      8  C   UNL     1      20.303  16.415  35.806  1.00  0.00     0.000 C 
BRANCH   8   9
ATOM      9  C   UNL     1      18.978  15.661  36.008  1.00  0.00     0.000 C 
BRANCH   9  10
ATOM     10  C   UNL     1      17.826  16.601  36.398  1.00  0.00     0.006 C 
BRANCH  10  11
ATOM     11  C   UNL     1      16.454  16.045  35.993  1.00  0.00     0.053 C 
BRANCH  11  12
ATOM     12  C   UNL     1      15.653  15.697  37.208  1.00  0.00     0.041 C 
ATOM     13  O   UNL     1      15.510  14.493  37.550  1.00  0.00    -0.550 OA
ATOM     14  O   UNL     1      15.101  16.705  37.989  1.00  0.00    -0.550 OA
ENDBRANCH  11  12
ENDBRANCH  10  11
ENDBRANCH   9  10
ENDBRANCH   8   9
ENDBRANCH   7   8
ENDBRANCH   6   7
ENDBRANCH   5   6
ENDBRANCH   4   5
ENDBRANCH   3   4
ENDBRANCH   2   3
ENDBRANCH   1   2
BRANCH   1  15
ATOM     15  C   UNL     1      19.616  17.017  32.374  1.00  0.00     0.000 C 
BRANCH  15  16
ATOM     16  C   UNL     1      19.505  15.487  32.236  1.00  0.00     0.000 C 
BRANCH  16  17
ATOM     17  C   UNL     1      18.103  14.908  32.521  1.00  0.00     0.000 C 
BRANCH  17  18
ATOM     18  C   UNL     1      17.404  14.251  31.312  1.00  0.00    -0.000 C 
BRANCH  18  19
ATOM     19  C   UNL     1      18.155  14.378  29.974  1.00  0.00    -0.000 C 
BRANCH  19  20
ATOM     20  C   UNL     1      17.439  15.296  28.974  1.00  0.00    -0.000 C 
BRANCH  20  21
ATOM     21  C   UNL     1      18.089  16.687  28.940  1.00  0.00    -0.000 C 
BRANCH  21  22
ATOM     22  C   UNL     1      17.094  17.808  29.310  1.00  0.00    -0.000 C 
BRANCH  22  23
ATOM     23  C   UNL     1      15.671  17.299  29.621  1.00  0.00    -0.000 C 
BRANCH  23  24
ATOM     24  C   UNL     1      14.603  18.398  29.761  1.00  0.00    -0.000 C 
BRANCH  24  25
ATOM     25  C   UNL     1      13.874  18.350  31.112  1.00  0.00    -0.003 C 
ATOM     26  C   UNL     1      14.787  18.820  32.242  1.00  0.00     0.004 C 
ENDBRANCH  24  25
ENDBRANCH  23  24
ENDBRANCH  22  23
ENDBRANCH  21  22
ENDBRANCH  20  21
ENDBRANCH  19  20
ENDBRANCH  18  19
ENDBRANCH  17  18
ENDBRANCH  16  17
ENDBRANCH  15  16
ENDBRANCH   1  15
TORSDOF 22
ENDMDL
MODEL 4
REMARK VINA RESULT:    -4.702      1.731      4.521
REMARK INTER + INTRA:         -14.206
REMARK INTER:                 -10.299
REMARK INTRA:                  -3.907
REMARK UNBOUND:                -3.457
REMARK SMILES CCCCCCCCCCCCCCCCCCCCCCCC(=O)[O-]
REMARK SMILES IDX 13 1 14 2 15 3 16 4 17 5 18 6 19 7 20 8 21 9 22 10 23 11
REMARK SMILES IDX 24 12 25 13 26 14 12 15 11 16 10 17 9 18 8 19 7 20 6 21 5 22
REMARK SMILES IDX 4 23 3 24 2 25 1 26
REMARK H PARENT
REMARK Flexibility Score: inf
ROOT
ATOM      1  C   UNL     1      19.953  18.869  36.169  1.00  0.00     0.000 C 
ENDROOT
BRANCH   1   2
ATOM      2  C   UNL     1      19.486  17.405  36.135  1.00  0.00     0.000 C 
BRANCH   2   3
ATOM      3  C   UNL     1      20.582  16.437  35.656  1.00  0.00     0.000 C 
BRANCH   3   4
ATOM      4  C   UNL     1      20.040  15.009  35.433  1.00  0.00     0.000 C 
BRANCH   4   5
ATOM      5  C   UNL     1      20.088  14.551  33.966  1.00  0.00     0.000 C 
BRANCH   5   6
ATOM      6  C   UNL     1      19.580  15.620  32.985  1.00  0.00     0.000 C 
BRANCH   6   7
ATOM      7  C   UNL     1      18.396  15.109  32.137  1.00  0.00     0.000 C 
BRANCH   7   8
ATOM      8  C   UNL     1      17.284  14.446  32.970  1.00  0.00     0.000 C 
BRANCH   8   9
ATOM      9  C   UNL     1      16.184  15.434  33.393  1.00  0.00     0.000 C 
BRANCH   9  10
ATOM     10  C   UNL     1      16.406  15.982  34.812  1.00  0.00     0.006 C 
BRANCH  10  11
ATOM     11  C   UNL     1      15.781  15.088  35.890  1.00  0.00     0.053 C 
BRANCH  11  12
ATOM     12  C   UNL     1      15.683  15.826  37.188  1.00  0.00     0.041 C 
ATOM     13  O   UNL     1      16.096  17.012  37.275  1.00  0.00    -0.550 OA
ATOM     14  O   UNL     1      15.095  15.218  38.290  1.00  0.00    -0.550 OA
ENDBRANCH  11  12
ENDBRANCH  10  11
ENDBRANCH   9  10
ENDBRANCH   8   9
ENDBRANCH   7   8
ENDBRANCH   6   7
ENDBRANCH   5   6
ENDBRANCH   4   5
ENDBRANCH   3   4
ENDBRANCH   2   3
ENDBRANCH   1   2
BRANCH   1  15
ATOM     15  C   UNL     1      20.797  19.250  34.940  1.00  0.00     0.000 C 
BRANCH  15  16
ATOM     16  C   UNL     1      19.944  19.472  33.677  1.00  0.00     0.000 C 
BRANCH  16  17
ATOM     17  C   UNL     1      18.540  20.057  33.934  1.00  0.00     0.000 C 
BRANCH  17  18
ATOM     18  C   UNL     1      17.363  19.194  33.432  1.00  0.00    -0.000 C 
BRANCH  18  19
ATOM     19  C   UNL     1      17.559  18.570  32.038  1.00  0.00    -0.000 C 
BRANCH  19  20
ATOM     20  C   UNL     1      16.270  18.556  31.205  1.00  0.00    -0.000 C 
BRANCH  20  21
ATOM     21  C   UNL     1      15.038  18.796  32.091  1.00  0.00    -0.000 C 
BRANCH  21  22
ATOM     22  C   UNL     1      13.724  18.395  31.389  1.00  0.00    -0.000 C 
BRANCH  22  23
ATOM     23  C   UNL     1      13.406  16.888  31.477  1.00  0.00    -0.000 C 
BRANCH  23  24
ATOM     24  C   UNL     1      13.132  16.200  30.128  1.00  0.00    -0.000 C 
BRANCH  24  25
ATOM     25  C   UNL     1      14.307  16.328  29.147  1.00  0.00    -0.003 C 
ATOM     26  C   UNL     1      15.149  15.054  29.134  1.00  0.00     0.004 C 
ENDBRANCH  24  25
ENDBRANCH  23  24
ENDBRANCH  22  23
ENDBRANCH  21  22
ENDBRANCH  20  21
ENDBRANCH  19  20
ENDBRANCH  18  19
ENDBRANCH  17  18
ENDBRANCH  16  17
ENDBRANCH  15  16
ENDBRANCH   1  15
TORSDOF 22
ENDMDL
MODEL 5
REMARK VINA RESULT:    -4.698      1.372      2.653
REMARK INTER + INTRA:         -14.197
REMARK INTER:                 -10.516
REMARK INTRA:                  -3.681
REMARK UNBOUND:                -3.457
REMARK SMILES CCCCCCCCCCCCCCCCCCCCCCCC(=O)[O-]
REMARK SMILES IDX 13 1 14 2 15 3 16 4 17 5 18 6 19 7 20 8 21 9 22 10 23 11
REMARK SMILES IDX 24 12 25 13 26 14 12 15 11 16 10 17 9 18 8 19 7 20 6 21 5 22
REMARK SMILES IDX 4 23 3 24 2 25 1 26
REMARK H PARENT
REMARK Flexibility Score: inf
ROOT
ATOM      1  C   UNL     1      18.076  19.600  34.419  1.00  0.00     0.000 C 
ENDROOT
BRANCH   1   2
ATOM      2  C   UNL     1      19.099  20.347  35.290  1.00  0.00     0.000 C 
BRANCH   2   3
ATOM      3  C   UNL     1      20.520  19.769  35.174  1.00  0.00     0.000 C 
BRANCH   3   4
ATOM      4  C   UNL     1      21.023  19.188  36.513  1.00  0.00     0.000 C 
BRANCH   4   5
ATOM      5  C   UNL     1      21.125  17.653  36.522  1.00  0.00     0.000 C 
BRANCH   5   6
ATOM      6  C   UNL     1      20.725  17.016  35.181  1.00  0.00     0.000 C 
BRANCH   6   7
ATOM      7  C   UNL     1      20.228  15.565  35.356  1.00  0.00     0.000 C 
BRANCH   7   8
ATOM      8  C   UNL     1      18.785  15.469  35.881  1.00  0.00     0.000 C 
BRANCH   8   9
ATOM      9  C   UNL     1      17.734  15.596  34.766  1.00  0.00     0.000 C 
BRANCH   9  10
ATOM     10  C   UNL     1      16.566  16.512  35.166  1.00  0.00     0.006 C 
BRANCH  10  11
ATOM     11  C   UNL     1      16.544  16.810  36.671  1.00  0.00     0.053 C 
BRANCH  11  12
ATOM     12  C   UNL     1      15.448  16.042  37.340  1.00  0.00     0.041 C 
ATOM     13  O   UNL     1      15.612  14.827  37.630  1.00  0.00    -0.550 OA
ATOM     14  O   UNL     1      14.262  16.679  37.683  1.00  0.00    -0.550 OA
ENDBRANCH  11  12
ENDBRANCH  10  11
ENDBRANCH   9  10
ENDBRANCH   8   9
ENDBRANCH   7   8
ENDBRANCH   6   7
ENDBRANCH   5   6
ENDBRANCH   4   5
ENDBRANCH   3   4
ENDBRANCH   2   3
ENDBRANCH   1   2
BRANCH   1  15
ATOM     15  C   UNL     1      18.611  19.293  33.009  1.00  0.00     0.000 C 
BRANCH  15  16
ATOM     16  C   UNL     1      17.617  18.482  32.158  1.00  0.00     0.000 C 
BRANCH  16  17
ATOM     17  C   UNL     1      16.129  18.797  32.417  1.00  0.00     0.000 C 
BRANCH  17  18
ATOM     18  C   UNL     1      15.134  17.713  31.949  1.00  0.00    -0.000 C 
BRANCH  18  19
ATOM     19  C   UNL     1      13.756  18.239  31.507  1.00  0.00    -0.000 C 
BRANCH  19  20
ATOM     20  C   UNL     1      12.948  17.202  30.715  1.00  0.00    -0.000 C 
BRANCH  20  21
ATOM     21  C   UNL     1      13.662  15.842  30.701  1.00  0.00    -0.000 C 
BRANCH  21  22
ATOM     22  C   UNL     1      13.896  15.317  29.268  1.00  0.00    -0.000 C 
BRANCH  22  23
ATOM     23  C   UNL     1      14.487  16.369  28.309  1.00  0.00    -0.000 C 
BRANCH  23  24
ATOM     24  C   UNL     1      15.973  16.697  28.538  1.00  0.00    -0.000 C 
BRANCH  24  25
ATOM     25  C   UNL     1      16.244  18.207  28.614  1.00  0.00    -0.003 C 
ATOM     26  C   UNL     1      15.027  19.005  28.150  1.00  0.00     0.004 C 
ENDBRANCH  24  25
ENDBRANCH  23  24
ENDBRANCH  22  23
ENDBRANCH  21  22
ENDBRANCH  20  21
ENDBRANCH  19  20
ENDBRANCH  18  19
ENDBRANCH  17  18
ENDBRANCH  16  17
ENDBRANCH  15  16
ENDBRANCH   1  15
TORSDOF 22
ENDMDL
MODEL 6
REMARK VINA RESULT:    -4.691      1.826      4.190
REMARK INTER + INTRA:         -14.180
REMARK INTER:                 -10.243
REMARK INTRA:                  -3.938
REMARK UNBOUND:                -3.457
REMARK SMILES CCCCCCCCCCCCCCCCCCCCCCCC(=O)[O-]
REMARK SMILES IDX 13 1 14 2 15 3 16 4 17 5 18 6 19 7 20 8 21 9 22 10 23 11
REMARK SMILES IDX 24 12 25 13 26 14 12 15 11 16 10 17 9 18 8 19 7 20 6 21 5 22
REMARK SMILES IDX 4 23 3 24 2 25 1 26
REMARK H PARENT
REMARK Flexibility Score: inf
ROOT
ATOM      1  C   UNL     1      20.155  17.635  36.020  1.00  0.00     0.000 C 
ENDROOT
BRANCH   1   2
ATOM      2  C   UNL     1      20.954  18.930  35.804  1.00  0.00     0.000 C 
BRANCH   2   3
ATOM      3  C   UNL     1      20.090  20.196  35.936  1.00  0.00     0.000 C 
BRANCH   3   4
ATOM      4  C   UNL     1      18.955  20.238  34.891  1.00  0.00     0.000 C 
BRANCH   4   5
ATOM      5  C   UNL     1      19.413  19.880  33.467  1.00  0.00     0.000 C 
BRANCH   5   6
ATOM      6  C   UNL     1      18.408  18.989  32.718  1.00  0.00     0.000 C 
BRANCH   6   7
ATOM      7  C   UNL     1      17.118  18.760  33.535  1.00  0.00     0.000 C 
BRANCH   7   8
ATOM      8  C   UNL     1      16.361  17.479  33.142  1.00  0.00     0.000 C 
BRANCH   8   9
ATOM      9  C   UNL     1      16.316  16.440  34.274  1.00  0.00     0.000 C 
BRANCH   9  10
ATOM     10  C   UNL     1      16.667  17.050  35.640  1.00  0.00     0.006 C 
BRANCH  10  11
ATOM     11  C   UNL     1      16.511  16.045  36.789  1.00  0.00     0.053 C 
BRANCH  11  12
ATOM     12  C   UNL     1      15.063  15.788  37.064  1.00  0.00     0.041 C 
ATOM     13  O   UNL     1      14.413  16.563  37.815  1.00  0.00    -0.550 OA
ATOM     14  O   UNL     1      14.419  14.717  36.457  1.00  0.00    -0.550 OA
ENDBRANCH  11  12
ENDBRANCH  10  11
ENDBRANCH   9  10
ENDBRANCH   8   9
ENDBRANCH   7   8
ENDBRANCH   6   7
ENDBRANCH   5   6
ENDBRANCH   4   5
ENDBRANCH   3   4
ENDBRANCH   2   3
ENDBRANCH   1   2
BRANCH   1  15
ATOM     15  C   UNL     1      20.757  16.435  35.269  1.00  0.00     0.000 C 
BRANCH  15  16
ATOM     16  C   UNL     1      19.687  15.442  34.778  1.00  0.00     0.000 C 
BRANCH  16  17
ATOM     17  C   UNL     1      20.045  14.690  33.479  1.00  0.00     0.000 C 
BRANCH  17  18
ATOM     18  C   UNL     1      19.044  14.867  32.317  1.00  0.00    -0.000 C 
BRANCH  18  19
ATOM     19  C   UNL     1      19.397  15.982  31.316  1.00  0.00    -0.000 C 
BRANCH  19  20
ATOM     20  C   UNL     1      18.397  16.079  30.155  1.00  0.00    -0.000 C 
BRANCH  20  21
ATOM     21  C   UNL     1      17.202  15.139  30.378  1.00  0.00    -0.000 C 
BRANCH  21  22
ATOM     22  C   UNL     1      15.858  15.804  30.014  1.00  0.00    -0.000 C 
BRANCH  22  23
ATOM     23  C   UNL     1      15.985  17.290  29.619  1.00  0.00    -0.000 C 
BRANCH  23  24
ATOM     24  C   UNL     1      14.650  18.037  29.454  1.00  0.00    -0.000 C 
BRANCH  24  25
ATOM     25  C   UNL     1      13.444  17.208  29.921  1.00  0.00    -0.003 C 
ATOM     26  C   UNL     1      13.051  17.574  31.351  1.00  0.00     0.004 C 
ENDBRANCH  24  25
ENDBRANCH  23  24
ENDBRANCH  22  23
ENDBRANCH  21  22
ENDBRANCH  20  21
ENDBRANCH  19  20
ENDBRANCH  18  19
ENDBRANCH  17  18
ENDBRANCH  16  17
ENDBRANCH  15  16
ENDBRANCH   1  15
TORSDOF 22
ENDMDL
MODEL 7
REMARK VINA RESULT:    -4.646      1.055      2.082
REMARK INTER + INTRA:         -14.078
REMARK INTER:                 -10.300
REMARK INTRA:                  -3.778
REMARK UNBOUND:                -3.457
REMARK SMILES CCCCCCCCCCCCCCCCCCCCCCCC(=O)[O-]
REMARK SMILES IDX 13 1 14 2 15 3 16 4 17 5 18 6 19 7 20 8 21 9 22 10 23 11
REMARK SMILES IDX 24 12 25 13 26 14 12 15 11 16 10 17 9 18 8 19 7 20 6 21 5 22
REMARK SMILES IDX 4 23 3 24 2 25 1 26
REMARK H PARENT
REMARK Flexibility Score: inf
ROOT
ATOM      1  C   UNL     1      15.234  18.805  31.839  1.00  0.00     0.000 C 
ENDROOT
BRANCH   1   2
ATOM      2  C   UNL     1      15.644  17.520  32.575  1.00  0.00     0.000 C 
BRANCH   2   3
ATOM      3  C   UNL     1      17.165  17.288  32.575  1.00  0.00     0.000 C 
BRANCH   3   4
ATOM      4  C   UNL     1      17.930  18.450  31.906  1.00  0.00     0.000 C 
BRANCH   4   5
ATOM      5  C   UNL     1      18.877  19.197  32.860  1.00  0.00     0.000 C 
BRANCH   5   6
ATOM      6  C   UNL     1      18.133  20.050  33.901  1.00  0.00     0.000 C 
BRANCH   6   7
ATOM      7  C   UNL     1      18.867  20.075  35.259  1.00  0.00     0.000 C 
BRANCH   7   8
ATOM      8  C   UNL     1      18.074  19.408  36.397  1.00  0.00     0.000 C 
BRANCH   8   9
ATOM      9  C   UNL     1      18.164  17.873  36.369  1.00  0.00     0.000 C 
BRANCH   9  10
ATOM     10  C   UNL     1      16.795  17.213  36.139  1.00  0.00     0.006 C 
BRANCH  10  11
ATOM     11  C   UNL     1      16.687  15.838  36.810  1.00  0.00     0.053 C 
BRANCH  11  12
ATOM     12  C   UNL     1      15.305  15.623  37.341  1.00  0.00     0.041 C 
ATOM     13  O   UNL     1      14.617  16.603  37.734  1.00  0.00    -0.550 OA
ATOM     14  O   UNL     1      14.758  14.346  37.360  1.00  0.00    -0.550 OA
ENDBRANCH  11  12
ENDBRANCH  10  11
ENDBRANCH   9  10
ENDBRANCH   8   9
ENDBRANCH   7   8
ENDBRANCH   6   7
ENDBRANCH   5   6
ENDBRANCH   4   5
ENDBRANCH   3   4
ENDBRANCH   2   3
ENDBRANCH   1   2
BRANCH   1  15
ATOM     15  C   UNL     1      14.000  18.606  30.942  1.00  0.00     0.000 C 
BRANCH  15  16
ATOM     16  C   UNL     1      13.011  17.571  31.510  1.00  0.00     0.000 C 
BRANCH  16  17
ATOM     17  C   UNL     1      12.911  16.257  30.708  1.00  0.00     0.000 C 
BRANCH  17  18
ATOM     18  C   UNL     1      12.806  16.426  29.177  1.00  0.00    -0.000 C 
BRANCH  18  19
ATOM     19  C   UNL     1      13.954  15.792  28.371  1.00  0.00    -0.000 C 
BRANCH  19  20
ATOM     20  C   UNL     1      15.021  15.142  29.263  1.00  0.00    -0.000 C 
BRANCH  20  21
ATOM     21  C   UNL     1      16.335  15.937  29.219  1.00  0.00    -0.000 C 
BRANCH  21  22
ATOM     22  C   UNL     1      16.393  16.907  28.020  1.00  0.00    -0.000 C 
BRANCH  22  23
ATOM     23  C   UNL     1      16.703  18.365  28.413  1.00  0.00    -0.000 C 
BRANCH  23  24
ATOM     24  C   UNL     1      16.163  19.431  27.443  1.00  0.00    -0.000 C 
BRANCH  24  25
ATOM     25  C   UNL     1      14.817  19.037  26.817  1.00  0.00    -0.003 C 
ATOM     26  C   UNL     1      13.897  20.249  26.691  1.00  0.00     0.004 C 
ENDBRANCH  24  25
ENDBRANCH  23  24
ENDBRANCH  22  23
ENDBRANCH  21  22
ENDBRANCH  20  21
ENDBRANCH  19  20
ENDBRANCH  18  19
ENDBRANCH  17  18
ENDBRANCH  16  17
ENDBRANCH  15  16
ENDBRANCH   1  15
TORSDOF 22
ENDMDL
MODEL 8
REMARK VINA RESULT:    -4.593      2.348      6.805
REMARK INTER + INTRA:         -13.956
REMARK INTER:                  -9.682
REMARK INTRA:                  -4.274
REMARK UNBOUND:                -3.457
REMARK SMILES CCCCCCCCCCCCCCCCCCCCCCCC(=O)[O-]
REMARK SMILES IDX 13 1 14 2 15 3 16 4 17 5 18 6 19 7 20 8 21 9 22 10 23 11
REMARK SMILES IDX 24 12 25 13 26 14 12 15 11 16 10 17 9 18 8 19 7 20 6 21 5 22
REMARK SMILES IDX 4 23 3 24 2 25 1 26
REMARK H PARENT
REMARK Flexibility Score: inf
ROOT
ATOM      1  C   UNL     1      18.153  19.891  35.127  1.00  0.00     0.000 C 
ENDROOT
BRANCH   1   2
ATOM      2  C   UNL     1      17.634  19.260  33.825  1.00  0.00     0.000 C 
BRANCH   2   3
ATOM      3  C   UNL     1      18.691  19.239  32.707  1.00  0.00     0.000 C 
BRANCH   3   4
ATOM      4  C   UNL     1      18.075  18.905  31.331  1.00  0.00     0.000 C 
BRANCH   4   5
ATOM      5  C   UNL     1      16.598  18.482  31.401  1.00  0.00     0.000 C 
BRANCH   5   6
ATOM      6  C   UNL     1      15.907  18.487  30.028  1.00  0.00     0.000 C 
BRANCH   6   7
ATOM      7  C   UNL     1      16.422  17.353  29.117  1.00  0.00     0.000 C 
BRANCH   7   8
ATOM      8  C   UNL     1      15.301  16.603  28.376  1.00  0.00     0.000 C 
BRANCH   8   9
ATOM      9  C   UNL     1      13.955  17.346  28.418  1.00  0.00     0.000 C 
BRANCH   9  10
ATOM     10  C   UNL     1      12.887  16.574  29.208  1.00  0.00     0.006 C 
BRANCH  10  11
ATOM     11  C   UNL     1      13.497  15.568  30.192  1.00  0.00     0.053 C 
BRANCH  11  12
ATOM     12  C   UNL     1      13.272  16.014  31.602  1.00  0.00     0.041 C 
ATOM     13  O   UNL     1      13.457  15.215  32.557  1.00  0.00    -0.550 OA
ATOM     14  O   UNL     1      12.900  17.327  31.864  1.00  0.00    -0.550 OA
ENDBRANCH  11  12
ENDBRANCH  10  11
ENDBRANCH   9  10
ENDBRANCH   8   9
ENDBRANCH   7   8
ENDBRANCH   6   7
ENDBRANCH   5   6
ENDBRANCH   4   5
ENDBRANCH   3   4
ENDBRANCH   2   3
ENDBRANCH   1   2
BRANCH   1  15
ATOM     15  C   UNL     1      19.660  19.665  35.335  1.00  0.00     0.000 C 
BRANCH  15  16
ATOM     16  C   UNL     1      19.967  18.768  36.549  1.00  0.00     0.000 C 
BRANCH  16  17
ATOM     17  C   UNL     1      20.685  17.444  36.215  1.00  0.00     0.000 C 
BRANCH  17  18
ATOM     18  C   UNL     1      20.199  16.735  34.933  1.00  0.00    -0.000 C 
BRANCH  18  19
ATOM     19  C   UNL     1      20.314  15.200  34.953  1.00  0.00    -0.000 C 
BRANCH  19  20
ATOM     20  C   UNL     1      19.913  14.555  33.618  1.00  0.00    -0.000 C 
BRANCH  20  21
ATOM     21  C   UNL     1      19.292  15.593  32.670  1.00  0.00    -0.000 C 
BRANCH  21  22
ATOM     22  C   UNL     1      17.955  15.110  32.068  1.00  0.00    -0.000 C 
BRANCH  22  23
ATOM     23  C   UNL     1      16.873  14.804  33.123  1.00  0.00    -0.000 C 
BRANCH  23  24
ATOM     24  C   UNL     1      16.577  15.952  34.105  1.00  0.00    -0.000 C 
BRANCH  24  25
ATOM     25  C   UNL     1      16.639  15.508  35.574  1.00  0.00    -0.003 C 
ATOM     26  C   UNL     1      16.790  16.711  36.502  1.00  0.00     0.004 C 
ENDBRANCH  24  25
ENDBRANCH  23  24
ENDBRANCH  22  23
ENDBRANCH  21  22
ENDBRANCH  20  21
ENDBRANCH  19  20
ENDBRANCH  18  19
ENDBRANCH  17  18
ENDBRANCH  16  17
ENDBRANCH  15  16
ENDBRANCH   1  15
TORSDOF 22
ENDMDL
MODEL 9
REMARK VINA RESULT:    -4.573      3.082      8.440
REMARK INTER + INTRA:         -13.911
REMARK INTER:                  -9.999
REMARK INTRA:                  -3.912
REMARK UNBOUND:                -3.457
REMARK SMILES CCCCCCCCCCCCCCCCCCCCCCCC(=O)[O-]
REMARK SMILES IDX 13 1 14 2 15 3 16 4 17 5 18 6 19 7 20 8 21 9 22 10 23 11
REMARK SMILES IDX 24 12 25 13 26 14 12 15 11 16 10 17 9 18 8 19 7 20 6 21 5 22
REMARK SMILES IDX 4 23 3 24 2 25 1 26
REMARK H PARENT
REMARK Flexibility Score: inf
ROOT
ATOM      1  C   UNL     1      15.572  18.772  32.044  1.00  0.00     0.000 C 
ENDROOT
BRANCH   1   2
ATOM      2  C   UNL     1      14.535  18.393  30.976  1.00  0.00     0.000 C 
BRANCH   2   3
ATOM      3  C   UNL     1      13.170  18.011  31.575  1.00  0.00     0.000 C 
BRANCH   3   4
ATOM      4  C   UNL     1      12.720  16.599  31.145  1.00  0.00     0.000 C 
BRANCH   4   5
ATOM      5  C   UNL     1      13.822  15.785  30.446  1.00  0.00     0.000 C 
BRANCH   5   6
ATOM      6  C   UNL     1      13.403  15.276  29.057  1.00  0.00     0.000 C 
BRANCH   6   7
ATOM      7  C   UNL     1      12.528  16.301  28.305  1.00  0.00     0.000 C 
BRANCH   7   8
ATOM      8  C   UNL     1      13.340  17.391  27.584  1.00  0.00     0.000 C 
BRANCH   8   9
ATOM      9  C   UNL     1      14.632  16.851  26.948  1.00  0.00     0.000 C 
BRANCH   9  10
ATOM     10  C   UNL     1      15.588  17.977  26.523  1.00  0.00     0.006 C 
BRANCH  10  11
ATOM     11  C   UNL     1      15.611  19.137  27.527  1.00  0.00     0.053 C 
BRANCH  11  12
ATOM     12  C   UNL     1      17.020  19.475  27.901  1.00  0.00     0.041 C 
ATOM     13  O   UNL     1      17.498  19.075  28.995  1.00  0.00    -0.550 OA
ATOM     14  O   UNL     1      17.819  20.195  27.021  1.00  0.00    -0.550 OA
ENDBRANCH  11  12
ENDBRANCH  10  11
ENDBRANCH   9  10
ENDBRANCH   8   9
ENDBRANCH   7   8
ENDBRANCH   6   7
ENDBRANCH   5   6
ENDBRANCH   4   5
ENDBRANCH   3   4
ENDBRANCH   2   3
ENDBRANCH   1   2
BRANCH   1  15
ATOM     15  C   UNL     1      15.885  17.612  33.005  1.00  0.00     0.000 C 
BRANCH  15  16
ATOM     16  C   UNL     1      16.874  16.594  32.408  1.00  0.00     0.000 C 
BRANCH  16  17
ATOM     17  C   UNL     1      18.228  17.186  31.961  1.00  0.00     0.000 C 
BRANCH  17  18
ATOM     18  C   UNL     1      19.362  17.099  33.005  1.00  0.00    -0.000 C 
BRANCH  18  19
ATOM     19  C   UNL     1      19.972  18.450  33.419  1.00  0.00    -0.000 C 
BRANCH  19  20
ATOM     20  C   UNL     1      19.081  19.644  33.051  1.00  0.00    -0.000 C 
BRANCH  20  21
ATOM     21  C   UNL     1      18.317  20.161  34.280  1.00  0.00    -0.000 C 
BRANCH  21  22
ATOM     22  C   UNL     1      19.076  19.893  35.597  1.00  0.00    -0.000 C 
BRANCH  22  23
ATOM     23  C   UNL     1      18.167  19.447  36.760  1.00  0.00    -0.000 C 
BRANCH  23  24
ATOM     24  C   UNL     1      17.288  18.218  36.465  1.00  0.00    -0.000 C 
BRANCH  24  25
ATOM     25  C   UNL     1      18.108  16.933  36.275  1.00  0.00    -0.003 C 
ATOM     26  C   UNL     1      17.195  15.733  36.035  1.00  0.00     0.004 C 
ENDBRANCH  24  25
ENDBRANCH  23  24
ENDBRANCH  22  23
ENDBRANCH  21  22
ENDBRANCH  20  21
ENDBRANCH  19  20
ENDBRANCH  18  19
ENDBRANCH  17  18
ENDBRANCH  16  17
ENDBRANCH  15  16
ENDBRANCH   1  15
TORSDOF 22
ENDMDL
