MODEL 1
REMARK VINA RESULT:    -5.816      0.000      0.000
REMARK INTER + INTRA:          -7.190
REMARK INTER:                  -7.007
REMARK INTRA:                  -0.183
REMARK UNBOUND:                -0.183
REMARK SMILES O=c1c(O)c(-c2ccc(O)c(O)c2)oc2cc(O)cc(O)c12
REMARK SMILES IDX 5 1 3 2 2 3 1 4 22 5 20 6 19 7 17 8 16 9 15 10 14 11 6 12
REMARK SMILES IDX 7 13 8 14 9 15 13 16 11 17 10 18 12 20 4 22 21 24 18 26
REMARK H PARENT 10 19 12 21 4 23 21 25 18 27
REMARK Flexibility Score: inf
ROOT
ATOM      1  C   UNL     1      43.780  11.955  23.243  1.00  0.00     0.180 A 
ATOM      2  C   UNL     1      44.714  11.254  22.462  1.00  0.00     0.208 A 
ATOM      3  C   UNL     1      45.234  10.043  22.945  1.00  0.00     0.238 A 
ATOM      4  O   UNL     1      46.125   9.459  22.275  1.00  0.00    -0.285 OA
ATOM      5  C   UNL     1      44.772   9.519  24.178  1.00  0.00     0.111 A 
ATOM      6  C   UNL     1      45.197   8.278  24.743  1.00  0.00     0.134 A 
ATOM      7  C   UNL     1      44.751   7.913  26.020  1.00  0.00     0.093 A 
ATOM      8  C   UNL     1      43.850   8.709  26.723  1.00  0.00     0.123 A 
ATOM      9  C   UNL     1      43.385   9.897  26.157  1.00  0.00     0.094 A 
ATOM     10  C   UNL     1      43.841  10.308  24.902  1.00  0.00     0.146 A 
ATOM     11  O   UNL     1      43.390  11.455  24.410  1.00  0.00    -0.452 OA
ENDROOT
BRANCH   1  12
ATOM     12  C   UNL     1      43.198  13.245  22.808  1.00  0.00     0.025 A 
ATOM     13  C   UNL     1      41.812  13.344  22.608  1.00  0.00     0.016 A 
ATOM     14  C   UNL     1      41.239  14.556  22.217  1.00  0.00     0.051 A 
ATOM     15  C   UNL     1      42.036  15.690  22.036  1.00  0.00     0.157 A 
ATOM     16  C   UNL     1      43.995  14.393  22.646  1.00  0.00     0.062 A 
ATOM     17  C   UNL     1      43.421  15.611  22.256  1.00  0.00     0.158 A 
BRANCH  15  18
ATOM     18  O   UNL     1      41.434  16.886  21.644  1.00  0.00    -0.504 OA
ATOM     19  H   UNL     1      41.975  17.722  21.452  1.00  0.00     0.293 HD
ENDBRANCH  15  18
BRANCH  17  20
ATOM     20  O   UNL     1      44.220  16.742  22.092  1.00  0.00    -0.504 OA
ATOM     21  H   UNL     1      44.768  16.887  21.252  1.00  0.00     0.293 HD
ENDBRANCH  17  20
ENDBRANCH   1  12
BRANCH   2  22
ATOM     22  O   UNL     1      45.100  11.750  21.214  1.00  0.00    -0.502 OA
ATOM     23  H   UNL     1      44.604  11.521  20.361  1.00  0.00     0.293 HD
ENDBRANCH   2  22
BRANCH   6  24
ATOM     24  O   UNL     1      46.027   7.363  24.089  1.00  0.00    -0.507 OA
ATOM     25  H   UNL     1      45.907   7.051  23.139  1.00  0.00     0.293 HD
ENDBRANCH   6  24
BRANCH   8  26
ATOM     26  O   UNL     1      43.415   8.305  27.984  1.00  0.00    -0.508 OA
ATOM     27  H   UNL     1      43.146   7.346  28.169  1.00  0.00     0.293 HD
ENDBRANCH   8  26
TORSDOF 6
ENDMDL
MODEL 2
REMARK VINA RESULT:    -5.689      6.281      8.397
REMARK INTER + INTRA:          -7.036
REMARK INTER:                  -7.137
REMARK INTRA:                   0.101
REMARK UNBOUND:                -0.183
REMARK SMILES O=c1c(O)c(-c2ccc(O)c(O)c2)oc2cc(O)cc(O)c12
REMARK SMILES IDX 5 1 3 2 2 3 1 4 22 5 20 6 19 7 17 8 16 9 15 10 14 11 6 12
REMARK SMILES IDX 7 13 8 14 9 15 13 16 11 17 10 18 12 20 4 22 21 24 18 26
REMARK H PARENT 10 19 12 21 4 23 21 25 18 27
REMARK Flexibility Score: inf
ROOT
ATOM      1  C   UNL     1      38.735  11.529  26.783  1.00  0.00     0.180 A 
ATOM      2  C   UNL     1      38.147  10.298  27.119  1.00  0.00     0.208 A 
ATOM      3  C   UNL     1      36.972  10.291  27.888  1.00  0.00     0.238 A 
ATOM      4  O   UNL     1      36.493   9.184  28.247  1.00  0.00    -0.285 OA
ATOM      5  C   UNL     1      36.369  11.516  28.263  1.00  0.00     0.111 A 
ATOM      6  C   UNL     1      35.152  11.629  29.004  1.00  0.00     0.134 A 
ATOM      7  C   UNL     1      34.707  12.894  29.411  1.00  0.00     0.093 A 
ATOM      8  C   UNL     1      35.395  14.050  29.050  1.00  0.00     0.123 A 
ATOM      9  C   UNL     1      36.554  13.955  28.279  1.00  0.00     0.094 A 
ATOM     10  C   UNL     1      37.046  12.707  27.891  1.00  0.00     0.146 A 
ATOM     11  O   UNL     1      38.164  12.661  27.177  1.00  0.00    -0.452 OA
ENDROOT
BRANCH   1  12
ATOM     12  C   UNL     1      39.981  11.616  25.988  1.00  0.00     0.025 A 
ATOM     13  C   UNL     1      40.114  12.628  25.024  1.00  0.00     0.016 A 
ATOM     14  C   UNL     1      41.289  12.742  24.277  1.00  0.00     0.051 A 
ATOM     15  C   UNL     1      42.353  11.861  24.492  1.00  0.00     0.157 A 
ATOM     16  C   UNL     1      41.060  10.744  26.217  1.00  0.00     0.062 A 
ATOM     17  C   UNL     1      42.241  10.859  25.470  1.00  0.00     0.158 A 
BRANCH  15  18
ATOM     18  O   UNL     1      43.512  11.999  23.729  1.00  0.00    -0.504 OA
ATOM     19  H   UNL     1      43.482  12.131  22.724  1.00  0.00     0.293 HD
ENDBRANCH  15  18
BRANCH  17  20
ATOM     20  O   UNL     1      43.304   9.985  25.700  1.00  0.00    -0.504 OA
ATOM     21  H   UNL     1      43.292   9.033  25.354  1.00  0.00     0.293 HD
ENDBRANCH  17  20
ENDBRANCH   1  12
BRANCH   2  22
ATOM     22  O   UNL     1      38.716   9.102  26.674  1.00  0.00    -0.502 OA
ATOM     23  H   UNL     1      39.082   8.404  27.310  1.00  0.00     0.293 HD
ENDBRANCH   2  22
BRANCH   6  24
ATOM     24  O   UNL     1      34.338  10.545  29.343  1.00  0.00    -0.507 OA
ATOM     25  H   UNL     1      33.890   9.931  28.681  1.00  0.00     0.293 HD
ENDBRANCH   6  24
BRANCH   8  26
ATOM     26  O   UNL     1      34.912  15.292  29.458  1.00  0.00    -0.508 OA
ATOM     27  H   UNL     1      35.390  16.152  29.215  1.00  0.00     0.293 HD
ENDBRANCH   8  26
TORSDOF 6
ENDMDL
MODEL 3
REMARK VINA RESULT:    -5.676      3.887      5.418
REMARK INTER + INTRA:          -7.020
REMARK INTER:                  -6.751
REMARK INTRA:                  -0.269
REMARK UNBOUND:                -0.183
REMARK SMILES O=c1c(O)c(-c2ccc(O)c(O)c2)oc2cc(O)cc(O)c12
REMARK SMILES IDX 5 1 3 2 2 3 1 4 22 5 20 6 19 7 17 8 16 9 15 10 14 11 6 12
REMARK SMILES IDX 7 13 8 14 9 15 13 16 11 17 10 18 12 20 4 22 21 24 18 26
REMARK H PARENT 10 19 12 21 4 23 21 25 18 27
REMARK Flexibility Score: inf
ROOT
ATOM      1  C   UNL     1      41.676  14.548  24.482  1.00  0.00     0.180 A 
ATOM      2  C   UNL     1      41.179  15.421  25.465  1.00  0.00     0.208 A 
ATOM      3  C   UNL     1      40.406  14.898  26.513  1.00  0.00     0.238 A 
ATOM      4  O   UNL     1      39.903  15.695  27.348  1.00  0.00    -0.285 OA
ATOM      5  C   UNL     1      40.185  13.501  26.597  1.00  0.00     0.111 A 
ATOM      6  C   UNL     1      39.453  12.856  27.641  1.00  0.00     0.134 A 
ATOM      7  C   UNL     1      39.208  11.479  27.563  1.00  0.00     0.093 A 
ATOM      8  C   UNL     1      39.720  10.715  26.516  1.00  0.00     0.123 A 
ATOM      9  C   UNL     1      40.483  11.326  25.520  1.00  0.00     0.094 A 
ATOM     10  C   UNL     1      40.712  12.703  25.549  1.00  0.00     0.146 A 
ATOM     11  O   UNL     1      41.424  13.247  24.570  1.00  0.00    -0.452 OA
ENDROOT
BRANCH   1  12
ATOM     12  C   UNL     1      42.487  15.026  23.339  1.00  0.00     0.025 A 
ATOM     13  C   UNL     1      41.854  15.685  22.273  1.00  0.00     0.016 A 
ATOM     14  C   UNL     1      42.603  16.164  21.195  1.00  0.00     0.051 A 
ATOM     15  C   UNL     1      43.991  16.007  21.172  1.00  0.00     0.157 A 
ATOM     16  C   UNL     1      43.886  14.889  23.325  1.00  0.00     0.062 A 
ATOM     17  C   UNL     1      44.638  15.370  22.244  1.00  0.00     0.158 A 
BRANCH  15  18
ATOM     18  O   UNL     1      44.710  16.494  20.080  1.00  0.00    -0.504 OA
ATOM     19  H   UNL     1      44.539  16.169  19.136  1.00  0.00     0.293 HD
ENDBRANCH  15  18
BRANCH  17  20
ATOM     20  O   UNL     1      46.026  15.224  22.235  1.00  0.00    -0.504 OA
ATOM     21  H   UNL     1      46.643  16.023  22.145  1.00  0.00     0.293 HD
ENDBRANCH  17  20
ENDBRANCH   1  12
BRANCH   2  22
ATOM     22  O   UNL     1      41.473  16.786  25.406  1.00  0.00    -0.502 OA
ATOM     23  H   UNL     1      40.759  17.490  25.265  1.00  0.00     0.293 HD
ENDBRANCH   2  22
BRANCH   6  24
ATOM     24  O   UNL     1      38.972  13.509  28.779  1.00  0.00    -0.507 OA
ATOM     25  H   UNL     1      39.026  14.503  28.941  1.00  0.00     0.293 HD
ENDBRANCH   6  24
BRANCH   8  26
ATOM     26  O   UNL     1      39.470   9.344  26.480  1.00  0.00    -0.508 OA
ATOM     27  H   UNL     1      38.597   8.974  26.124  1.00  0.00     0.293 HD
ENDBRANCH   8  26
TORSDOF 6
ENDMDL
MODEL 4
REMARK VINA RESULT:    -5.625      2.973      6.663
REMARK INTER + INTRA:          -6.959
REMARK INTER:                  -7.270
REMARK INTRA:                   0.311
REMARK UNBOUND:                -0.183
REMARK SMILES O=c1c(O)c(-c2ccc(O)c(O)c2)oc2cc(O)cc(O)c12
REMARK SMILES IDX 5 1 3 2 2 3 1 4 22 5 20 6 19 7 17 8 16 9 15 10 14 11 6 12
REMARK SMILES IDX 7 13 8 14 9 15 13 16 11 17 10 18 12 20 4 22 21 24 18 26
REMARK H PARENT 10 19 12 21 4 23 21 25 18 27
REMARK Flexibility Score: inf
ROOT
ATOM      1  C   UNL     1      45.461  13.326  23.182  1.00  0.00     0.180 A 
ATOM      2  C   UNL     1      45.757  14.309  22.223  1.00  0.00     0.208 A 
ATOM      3  C   UNL     1      45.698  15.662  22.594  1.00  0.00     0.238 A 
ATOM      4  O   UNL     1      45.892  16.538  21.712  1.00  0.00    -0.285 OA
ATOM      5  C   UNL     1      45.399  16.013  23.933  1.00  0.00     0.111 A 
ATOM      6  C   UNL     1      45.357  17.351  24.432  1.00  0.00     0.134 A 
ATOM      7  C   UNL     1      44.945  17.584  25.751  1.00  0.00     0.093 A 
ATOM      8  C   UNL     1      44.637  16.527  26.605  1.00  0.00     0.123 A 
ATOM      9  C   UNL     1      44.729  15.213  26.145  1.00  0.00     0.094 A 
ATOM     10  C   UNL     1      45.099  14.950  24.825  1.00  0.00     0.146 A 
ATOM     11  O   UNL     1      45.152  13.687  24.422  1.00  0.00    -0.452 OA
ENDROOT
BRANCH   1  12
ATOM     12  C   UNL     1      45.488  11.880  22.863  1.00  0.00     0.025 A 
ATOM     13  C   UNL     1      45.657  10.948  23.899  1.00  0.00     0.016 A 
ATOM     14  C   UNL     1      45.664   9.579  23.623  1.00  0.00     0.051 A 
ATOM     15  C   UNL     1      45.487   9.119  22.315  1.00  0.00     0.157 A 
ATOM     16  C   UNL     1      45.289  11.415  21.550  1.00  0.00     0.062 A 
ATOM     17  C   UNL     1      45.294  10.041  21.273  1.00  0.00     0.158 A 
BRANCH  15  18
ATOM     18  O   UNL     1      45.501   7.746  22.071  1.00  0.00    -0.504 OA
ATOM     19  H   UNL     1      46.102   7.114  22.589  1.00  0.00     0.293 HD
ENDBRANCH  15  18
BRANCH  17  20
ATOM     20  O   UNL     1      45.102   9.589  19.967  1.00  0.00    -0.504 OA
ATOM     21  H   UNL     1      44.502  10.083  19.318  1.00  0.00     0.293 HD
ENDBRANCH  17  20
ENDBRANCH   1  12
BRANCH   2  22
ATOM     22  O   UNL     1      46.125  13.939  20.927  1.00  0.00    -0.502 OA
ATOM     23  H   UNL     1      45.520  13.393  20.325  1.00  0.00     0.293 HD
ENDBRANCH   2  22
BRANCH   6  24
ATOM     24  O   UNL     1      45.729  18.476  23.690  1.00  0.00    -0.507 OA
ATOM     25  H   UNL     1      45.185  19.320  23.609  1.00  0.00     0.293 HD
ENDBRANCH   6  24
BRANCH   8  26
ATOM     26  O   UNL     1      44.247  16.796  27.916  1.00  0.00    -0.508 OA
ATOM     27  H   UNL     1      44.620  17.587  28.428  1.00  0.00     0.293 HD
ENDBRANCH   8  26
TORSDOF 6
ENDMDL
MODEL 5
REMARK VINA RESULT:    -5.604      2.833      4.151
REMARK INTER + INTRA:          -6.933
REMARK INTER:                  -6.617
REMARK INTRA:                  -0.316
REMARK UNBOUND:                -0.183
REMARK SMILES O=c1c(O)c(-c2ccc(O)c(O)c2)oc2cc(O)cc(O)c12
REMARK SMILES IDX 5 1 3 2 2 3 1 4 22 5 20 6 19 7 17 8 16 9 15 10 14 11 6 12
REMARK SMILES IDX 7 13 8 14 9 15 13 16 11 17 10 18 12 20 4 22 21 24 18 26
REMARK H PARENT 10 19 12 21 4 23 21 25 18 27
REMARK Flexibility Score: inf
ROOT
ATOM      1  C   UNL     1      43.087  11.724  25.171  1.00  0.00     0.180 A 
ATOM      2  C   UNL     1      43.618  10.762  26.047  1.00  0.00     0.208 A 
ATOM      3  C   UNL     1      44.366   9.699  25.517  1.00  0.00     0.238 A 
ATOM      4  O   UNL     1      44.776   8.801  26.299  1.00  0.00    -0.285 OA
ATOM      5  C   UNL     1      44.621   9.640  24.125  1.00  0.00     0.111 A 
ATOM      6  C   UNL     1      45.405   8.632  23.484  1.00  0.00     0.134 A 
ATOM      7  C   UNL     1      45.500   8.616  22.087  1.00  0.00     0.093 A 
ATOM      8  C   UNL     1      44.896   9.605  21.313  1.00  0.00     0.123 A 
ATOM      9  C   UNL     1      44.174  10.627  21.932  1.00  0.00     0.094 A 
ATOM     10  C   UNL     1      44.028  10.648  23.321  1.00  0.00     0.146 A 
ATOM     11  O   UNL     1      43.315  11.625  23.867  1.00  0.00    -0.452 OA
ENDROOT
BRANCH   1  12
ATOM     12  C   UNL     1      42.276  12.866  25.653  1.00  0.00     0.025 A 
ATOM     13  C   UNL     1      40.900  12.692  25.868  1.00  0.00     0.016 A 
ATOM     14  C   UNL     1      40.120  13.749  26.343  1.00  0.00     0.051 A 
ATOM     15  C   UNL     1      40.703  14.988  26.624  1.00  0.00     0.157 A 
ATOM     16  C   UNL     1      42.864  14.106  25.957  1.00  0.00     0.062 A 
ATOM     17  C   UNL     1      42.083  15.168  26.435  1.00  0.00     0.158 A 
BRANCH  15  18
ATOM     18  O   UNL     1      39.897  16.025  27.095  1.00  0.00    -0.504 OA
ATOM     19  H   UNL     1      38.977  16.208  26.710  1.00  0.00     0.293 HD
ENDBRANCH  15  18
BRANCH  17  20
ATOM     20  O   UNL     1      42.674  16.397  26.728  1.00  0.00    -0.504 OA
ATOM     21  H   UNL     1      42.361  17.254  26.287  1.00  0.00     0.293 HD
ENDBRANCH  17  20
ENDBRANCH   1  12
BRANCH   2  22
ATOM     22  O   UNL     1      43.419  10.879  27.425  1.00  0.00    -0.502 OA
ATOM     23  H   UNL     1      43.999  11.470  28.009  1.00  0.00     0.293 HD
ENDBRANCH   2  22
BRANCH   6  24
ATOM     24  O   UNL     1      46.124   7.647  24.167  1.00  0.00    -0.507 OA
ATOM     25  H   UNL     1      46.968   7.211  23.831  1.00  0.00     0.293 HD
ENDBRANCH   6  24
BRANCH   8  26
ATOM     26  O   UNL     1      45.027   9.567  19.926  1.00  0.00    -0.508 OA
ATOM     27  H   UNL     1      44.793  10.367  19.350  1.00  0.00     0.293 HD
ENDBRANCH   8  26
TORSDOF 6
ENDMDL
MODEL 6
REMARK VINA RESULT:    -5.593      7.018      8.788
REMARK INTER + INTRA:          -6.921
REMARK INTER:                  -6.593
REMARK INTRA:                  -0.328
REMARK UNBOUND:                -0.183
REMARK SMILES O=c1c(O)c(-c2ccc(O)c(O)c2)oc2cc(O)cc(O)c12
REMARK SMILES IDX 5 1 3 2 2 3 1 4 22 5 20 6 19 7 17 8 16 9 15 10 14 11 6 12
REMARK SMILES IDX 7 13 8 14 9 15 13 16 11 17 10 18 12 20 4 22 21 24 18 26
REMARK H PARENT 10 19 12 21 4 23 21 25 18 27
REMARK Flexibility Score: inf
ROOT
ATOM      1  C   UNL     1      38.149  12.244  28.259  1.00  0.00     0.180 A 
ATOM      2  C   UNL     1      37.087  12.498  29.142  1.00  0.00     0.208 A 
ATOM      3  C   UNL     1      35.957  11.666  29.106  1.00  0.00     0.238 A 
ATOM      4  O   UNL     1      34.978  11.943  29.847  1.00  0.00    -0.285 OA
ATOM      5  C   UNL     1      35.926  10.556  28.226  1.00  0.00     0.111 A 
ATOM      6  C   UNL     1      34.852   9.620  28.136  1.00  0.00     0.134 A 
ATOM      7  C   UNL     1      34.885   8.622  27.152  1.00  0.00     0.093 A 
ATOM      8  C   UNL     1      35.980   8.488  26.300  1.00  0.00     0.123 A 
ATOM      9  C   UNL     1      37.061   9.363  26.416  1.00  0.00     0.094 A 
ATOM     10  C   UNL     1      37.040  10.392  27.361  1.00  0.00     0.146 A 
ATOM     11  O   UNL     1      38.078  11.216  27.422  1.00  0.00    -0.452 OA
ENDROOT
BRANCH   1  12
ATOM     12  C   UNL     1      39.367  13.086  28.228  1.00  0.00     0.025 A 
ATOM     13  C   UNL     1      40.455  12.754  29.051  1.00  0.00     0.016 A 
ATOM     14  C   UNL     1      41.622  13.522  29.023  1.00  0.00     0.051 A 
ATOM     15  C   UNL     1      41.727  14.619  28.164  1.00  0.00     0.157 A 
ATOM     16  C   UNL     1      39.483  14.177  27.349  1.00  0.00     0.062 A 
ATOM     17  C   UNL     1      40.654  14.947  27.319  1.00  0.00     0.158 A 
BRANCH  15  18
ATOM     18  O   UNL     1      42.904  15.367  28.161  1.00  0.00    -0.504 OA
ATOM     19  H   UNL     1      42.922  16.343  28.436  1.00  0.00     0.293 HD
ENDBRANCH  15  18
BRANCH  17  20
ATOM     20  O   UNL     1      40.757  16.032  26.448  1.00  0.00    -0.504 OA
ATOM     21  H   UNL     1      39.966  16.635  26.256  1.00  0.00     0.293 HD
ENDBRANCH  17  20
ENDBRANCH   1  12
BRANCH   2  22
ATOM     22  O   UNL     1      37.168  13.552  30.056  1.00  0.00    -0.502 OA
ATOM     23  H   UNL     1      37.824  13.553  30.828  1.00  0.00     0.293 HD
ENDBRANCH   2  22
BRANCH   6  24
ATOM     24  O   UNL     1      33.749   9.608  28.995  1.00  0.00    -0.507 OA
ATOM     25  H   UNL     1      33.729  10.021  29.914  1.00  0.00     0.293 HD
ENDBRANCH   6  24
BRANCH   8  26
ATOM     26  O   UNL     1      35.986   7.473  25.345  1.00  0.00    -0.508 OA
ATOM     27  H   UNL     1      36.307   7.639  24.398  1.00  0.00     0.293 HD
ENDBRANCH   8  26
TORSDOF 6
ENDMDL
MODEL 7
REMARK VINA RESULT:    -5.569      2.651      6.158
REMARK INTER + INTRA:          -6.892
REMARK INTER:                  -6.934
REMARK INTRA:                   0.042
REMARK UNBOUND:                -0.183
REMARK SMILES O=c1c(O)c(-c2ccc(O)c(O)c2)oc2cc(O)cc(O)c12
REMARK SMILES IDX 5 1 3 2 2 3 1 4 22 5 20 6 19 7 17 8 16 9 15 10 14 11 6 12
REMARK SMILES IDX 7 13 8 14 9 15 13 16 11 17 10 18 12 20 4 22 21 24 18 26
REMARK H PARENT 10 19 12 21 4 23 21 25 18 27
REMARK Flexibility Score: inf
ROOT
ATOM      1  C   UNL     1      43.474  12.181  23.755  1.00  0.00     0.180 A 
ATOM      2  C   UNL     1      43.677  13.457  23.203  1.00  0.00     0.208 A 
ATOM      3  C   UNL     1      42.966  14.547  23.727  1.00  0.00     0.238 A 
ATOM      4  O   UNL     1      43.097  15.673  23.180  1.00  0.00    -0.285 OA
ATOM      5  C   UNL     1      42.102  14.359  24.834  1.00  0.00     0.111 A 
ATOM      6  C   UNL     1      41.365  15.401  25.476  1.00  0.00     0.134 A 
ATOM      7  C   UNL     1      40.459  15.078  26.495  1.00  0.00     0.093 A 
ATOM      8  C   UNL     1      40.311  13.766  26.938  1.00  0.00     0.123 A 
ATOM      9  C   UNL     1      41.067  12.748  26.356  1.00  0.00     0.094 A 
ATOM     10  C   UNL     1      41.950  13.031  25.311  1.00  0.00     0.146 A 
ATOM     11  O   UNL     1      42.633  12.030  24.771  1.00  0.00    -0.452 OA
ENDROOT
BRANCH   1  12
ATOM     12  C   UNL     1      44.177  10.981  23.246  1.00  0.00     0.025 A 
ATOM     13  C   UNL     1      44.710  10.056  24.157  1.00  0.00     0.016 A 
ATOM     14  C   UNL     1      45.358   8.907  23.700  1.00  0.00     0.051 A 
ATOM     15  C   UNL     1      45.470   8.655  22.329  1.00  0.00     0.157 A 
ATOM     16  C   UNL     1      44.271  10.715  21.868  1.00  0.00     0.062 A 
ATOM     17  C   UNL     1      44.920   9.561  21.407  1.00  0.00     0.158 A 
BRANCH  15  18
ATOM     18  O   UNL     1      46.125   7.499  21.903  1.00  0.00    -0.504 OA
ATOM     19  H   UNL     1      46.153   6.658  22.468  1.00  0.00     0.293 HD
ENDBRANCH  15  18
BRANCH  17  20
ATOM     20  O   UNL     1      45.014   9.308  20.039  1.00  0.00    -0.504 OA
ATOM     21  H   UNL     1      44.206   9.033  19.493  1.00  0.00     0.293 HD
ENDBRANCH  17  20
ENDBRANCH   1  12
BRANCH   2  22
ATOM     22  O   UNL     1      44.591  13.635  22.161  1.00  0.00    -0.502 OA
ATOM     23  H   UNL     1      45.068  14.515  21.999  1.00  0.00     0.293 HD
ENDBRANCH   2  22
BRANCH   6  24
ATOM     24  O   UNL     1      41.501  16.758  25.172  1.00  0.00    -0.507 OA
ATOM     25  H   UNL     1      40.740  17.378  24.942  1.00  0.00     0.293 HD
ENDBRANCH   6  24
BRANCH   8  26
ATOM     26  O   UNL     1      39.413  13.485  27.966  1.00  0.00    -0.508 OA
ATOM     27  H   UNL     1      39.014  14.222  28.537  1.00  0.00     0.293 HD
ENDBRANCH   8  26
TORSDOF 6
ENDMDL
MODEL 8
REMARK VINA RESULT:    -5.568      6.886      8.242
REMARK INTER + INTRA:          -6.890
REMARK INTER:                  -6.584
REMARK INTRA:                  -0.306
REMARK UNBOUND:                -0.183
REMARK SMILES O=c1c(O)c(-c2ccc(O)c(O)c2)oc2cc(O)cc(O)c12
REMARK SMILES IDX 5 1 3 2 2 3 1 4 22 5 20 6 19 7 17 8 16 9 15 10 14 11 6 12
REMARK SMILES IDX 7 13 8 14 9 15 13 16 11 17 10 18 12 20 4 22 21 24 18 26
REMARK H PARENT 10 19 12 21 4 23 21 25 18 27
REMARK Flexibility Score: inf
ROOT
ATOM      1  C   UNL     1      38.461  11.898  27.962  1.00  0.00     0.180 A 
ATOM      2  C   UNL     1      38.791  10.775  27.185  1.00  0.00     0.208 A 
ATOM      3  C   UNL     1      37.856   9.735  27.059  1.00  0.00     0.238 A 
ATOM      4  O   UNL     1      38.186   8.701  26.423  1.00  0.00    -0.285 OA
ATOM      5  C   UNL     1      36.582   9.856  27.665  1.00  0.00     0.111 A 
ATOM      6  C   UNL     1      35.539   8.884  27.566  1.00  0.00     0.134 A 
ATOM      7  C   UNL     1      34.358   9.062  28.297  1.00  0.00     0.093 A 
ATOM      8  C   UNL     1      34.154  10.203  29.070  1.00  0.00     0.123 A 
ATOM      9  C   UNL     1      35.143  11.186  29.130  1.00  0.00     0.094 A 
ATOM     10  C   UNL     1      36.348  11.019  28.444  1.00  0.00     0.146 A 
ATOM     11  O   UNL     1      37.270  11.968  28.546  1.00  0.00    -0.452 OA
ENDROOT
BRANCH   1  12
ATOM     12  C   UNL     1      39.400  13.027  28.153  1.00  0.00     0.025 A 
ATOM     13  C   UNL     1      40.217  13.059  29.294  1.00  0.00     0.016 A 
ATOM     14  C   UNL     1      41.125  14.103  29.484  1.00  0.00     0.051 A 
ATOM     15  C   UNL     1      41.242  15.121  28.534  1.00  0.00     0.157 A 
ATOM     16  C   UNL     1      39.534  14.041  27.188  1.00  0.00     0.062 A 
ATOM     17  C   UNL     1      40.446  15.089  27.376  1.00  0.00     0.158 A 
BRANCH  15  18
ATOM     18  O   UNL     1      42.156  16.152  28.753  1.00  0.00    -0.504 OA
ATOM     19  H   UNL     1      42.456  16.415  29.685  1.00  0.00     0.293 HD
ENDBRANCH  15  18
BRANCH  17  20
ATOM     20  O   UNL     1      40.569  16.093  26.416  1.00  0.00    -0.504 OA
ATOM     21  H   UNL     1      39.998  16.930  26.448  1.00  0.00     0.293 HD
ENDBRANCH  17  20
ENDBRANCH   1  12
BRANCH   2  22
ATOM     22  O   UNL     1      40.025  10.709  26.532  1.00  0.00    -0.502 OA
ATOM     23  H   UNL     1      40.124  10.884  25.539  1.00  0.00     0.293 HD
ENDBRANCH   2  22
BRANCH   6  24
ATOM     24  O   UNL     1      35.602   7.749  26.753  1.00  0.00    -0.507 OA
ATOM     25  H   UNL     1      35.496   7.750  25.750  1.00  0.00     0.293 HD
ENDBRANCH   6  24
BRANCH   8  26
ATOM     26  O   UNL     1      32.958  10.354  29.770  1.00  0.00    -0.508 OA
ATOM     27  H   UNL     1      32.875  11.006  30.541  1.00  0.00     0.293 HD
ENDBRANCH   8  26
TORSDOF 6
ENDMDL
MODEL 9
REMARK VINA RESULT:    -5.503      3.158      7.073
REMARK INTER + INTRA:          -6.812
REMARK INTER:                  -6.512
REMARK INTRA:                  -0.299
REMARK UNBOUND:                -0.183
REMARK SMILES O=c1c(O)c(-c2ccc(O)c(O)c2)oc2cc(O)cc(O)c12
REMARK SMILES IDX 5 1 3 2 2 3 1 4 22 5 20 6 19 7 17 8 16 9 15 10 14 11 6 12
REMARK SMILES IDX 7 13 8 14 9 15 13 16 11 17 10 18 12 20 4 22 21 24 18 26
REMARK H PARENT 10 19 12 21 4 23 21 25 18 27
REMARK Flexibility Score: inf
ROOT
ATOM      1  C   UNL     1      42.911  13.817  24.853  1.00  0.00     0.180 A 
ATOM      2  C   UNL     1      43.168  14.943  25.654  1.00  0.00     0.208 A 
ATOM      3  C   UNL     1      43.994  15.962  25.154  1.00  0.00     0.238 A 
ATOM      4  O   UNL     1      44.278  16.931  25.904  1.00  0.00    -0.285 OA
ATOM      5  C   UNL     1      44.508  15.869  23.837  1.00  0.00     0.111 A 
ATOM      6  C   UNL     1      45.319  16.864  23.210  1.00  0.00     0.134 A 
ATOM      7  C   UNL     1      45.860  16.615  21.942  1.00  0.00     0.093 A 
ATOM      8  C   UNL     1      45.567  15.440  21.253  1.00  0.00     0.123 A 
ATOM      9  C   UNL     1      44.730  14.486  21.832  1.00  0.00     0.094 A 
ATOM     10  C   UNL     1      44.208  14.687  23.112  1.00  0.00     0.146 A 
ATOM     11  O   UNL     1      43.435  13.744  23.635  1.00  0.00    -0.452 OA
ENDROOT
BRANCH   1  12
ATOM     12  C   UNL     1      42.062  12.697  25.317  1.00  0.00     0.025 A 
ATOM     13  C   UNL     1      40.666  12.806  25.226  1.00  0.00     0.016 A 
ATOM     14  C   UNL     1      39.846  11.753  25.638  1.00  0.00     0.051 A 
ATOM     15  C   UNL     1      40.406  10.571  26.131  1.00  0.00     0.157 A 
ATOM     16  C   UNL     1      42.625  11.498  25.792  1.00  0.00     0.062 A 
ATOM     17  C   UNL     1      41.803  10.439  26.204  1.00  0.00     0.158 A 
BRANCH  15  18
ATOM     18  O   UNL     1      39.561   9.537  26.536  1.00  0.00    -0.504 OA
ATOM     19  H   UNL     1      39.828   8.563  26.458  1.00  0.00     0.293 HD
ENDBRANCH  15  18
BRANCH  17  20
ATOM     20  O   UNL     1      42.369   9.257  26.680  1.00  0.00    -0.504 OA
ATOM     21  H   UNL     1      43.373   9.139  26.747  1.00  0.00     0.293 HD
ENDBRANCH  17  20
ENDBRANCH   1  12
BRANCH   2  22
ATOM     22  O   UNL     1      42.588  15.051  26.921  1.00  0.00    -0.502 OA
ATOM     23  H   UNL     1      42.665  15.889  27.485  1.00  0.00     0.293 HD
ENDBRANCH   2  22
BRANCH   6  24
ATOM     24  O   UNL     1      45.603  18.112  23.772  1.00  0.00    -0.507 OA
ATOM     25  H   UNL     1      46.419  18.667  23.566  1.00  0.00     0.293 HD
ENDBRANCH   6  24
BRANCH   8  26
ATOM     26  O   UNL     1      46.109  15.235  19.985  1.00  0.00    -0.508 OA
ATOM     27  H   UNL     1      45.763  15.735  19.174  1.00  0.00     0.293 HD
ENDBRANCH   8  26
TORSDOF 6
ENDMDL
