MODEL 1
REMARK VINA RESULT:    -2.819      0.000      0.000
REMARK INTER + INTRA:          -7.832
REMARK INTER:                  -6.444
REMARK INTRA:                  -1.388
REMARK UNBOUND:                -1.388
REMARK SMILES CCCCCCCCCCCCCCCCCCCCCCCC(=O)[O-]
REMARK SMILES IDX 13 1 14 2 15 3 16 4 17 5 18 6 19 7 20 8 21 9 22 10 23 11
REMARK SMILES IDX 24 12 25 13 26 14 12 15 11 16 10 17 9 18 8 19 7 20 6 21 5 22
REMARK SMILES IDX 4 23 3 24 2 25 1 26
REMARK H PARENT
REMARK Flexibility Score: inf
ROOT
ATOM      1  C   UNL     1      -3.076   6.765  -6.752  1.00  0.00     0.000 C 
ENDROOT
BRANCH   1   2
ATOM      2  C   UNL     1      -3.943   8.001  -7.049  1.00  0.00     0.000 C 
BRANCH   2   3
ATOM      3  C   UNL     1      -3.923   8.438  -8.528  1.00  0.00     0.000 C 
BRANCH   3   4
ATOM      4  C   UNL     1      -4.913   9.579  -8.815  1.00  0.00     0.000 C 
BRANCH   4   5
ATOM      5  C   UNL     1      -6.017   9.125  -9.778  1.00  0.00     0.000 C 
BRANCH   5   6
ATOM      6  C   UNL     1      -7.073   8.281  -9.047  1.00  0.00     0.000 C 
BRANCH   6   7
ATOM      7  C   UNL     1      -7.061   6.801  -9.482  1.00  0.00     0.000 C 
BRANCH   7   8
ATOM      8  C   UNL     1      -6.587   5.828  -8.385  1.00  0.00     0.000 C 
BRANCH   8   9
ATOM      9  C   UNL     1      -7.616   4.763  -7.963  1.00  0.00     0.000 C 
BRANCH   9  10
ATOM     10  C   UNL     1      -8.970   5.318  -7.479  1.00  0.00     0.006 C 
BRANCH  10  11
ATOM     11  C   UNL     1      -9.993   4.217  -7.169  1.00  0.00     0.053 C 
BRANCH  11  12
ATOM     12  C   UNL     1      -9.932   3.825  -5.723  1.00  0.00     0.041 C 
ATOM     13  O   UNL     1     -10.059   4.698  -4.823  1.00  0.00    -0.550 OA
ATOM     14  O   UNL     1      -9.733   2.496  -5.368  1.00  0.00    -0.550 OA
ENDBRANCH  11  12
ENDBRANCH  10  11
ENDBRANCH   9  10
ENDBRANCH   8   9
ENDBRANCH   7   8
ENDBRANCH   6   7
ENDBRANCH   5   6
ENDBRANCH   4   5
ENDBRANCH   3   4
ENDBRANCH   2   3
ENDBRANCH   1   2
BRANCH   1  15
ATOM     15  C   UNL     1      -3.836   5.666  -5.993  1.00  0.00     0.000 C 
BRANCH  15  16
ATOM     16  C   UNL     1      -3.443   5.586  -4.509  1.00  0.00     0.000 C 
BRANCH  16  17
ATOM     17  C   UNL     1      -2.356   4.538  -4.231  1.00  0.00     0.000 C 
BRANCH  17  18
ATOM     18  C   UNL     1      -2.936   3.346  -3.453  1.00  0.00    -0.000 C 
BRANCH  18  19
ATOM     19  C   UNL     1      -2.356   3.218  -2.034  1.00  0.00    -0.000 C 
BRANCH  19  20
ATOM     20  C   UNL     1      -0.996   2.501  -2.015  1.00  0.00    -0.000 C 
BRANCH  20  21
ATOM     21  C   UNL     1      -0.588   1.946  -3.393  1.00  0.00    -0.000 C 
BRANCH  21  22
ATOM     22  C   UNL     1      -0.346   0.426  -3.448  1.00  0.00    -0.000 C 
BRANCH  22  23
ATOM     23  C   UNL     1      -1.589  -0.366  -3.896  1.00  0.00    -0.000 C 
BRANCH  23  24
ATOM     24  C   UNL     1      -1.227  -1.688  -4.593  1.00  0.00    -0.000 C 
BRANCH  24  25
ATOM     25  C   UNL     1      -2.420  -2.650  -4.700  1.00  0.00    -0.003 C 
ATOM     26  C   UNL     1      -2.026  -4.060  -4.266  1.00  0.00     0.004 C 
ENDBRANCH  24  25
ENDBRANCH  23  24
ENDBRANCH  22  23
ENDBRANCH  21  22
ENDBRANCH  20  21
ENDBRANCH  19  20
ENDBRANCH  18  19
ENDBRANCH  17  18
ENDBRANCH  16  17
ENDBRANCH  15  16
ENDBRANCH   1  15
TORSDOF 22
ENDMDL
MODEL 2
REMARK VINA RESULT:    -2.807      1.554      2.166
REMARK INTER + INTRA:          -7.805
REMARK INTER:                  -6.182
REMARK INTRA:                  -1.623
REMARK UNBOUND:                -1.388
REMARK SMILES CCCCCCCCCCCCCCCCCCCCCCCC(=O)[O-]
REMARK SMILES IDX 13 1 14 2 15 3 16 4 17 5 18 6 19 7 20 8 21 9 22 10 23 11
REMARK SMILES IDX 24 12 25 13 26 14 12 15 11 16 10 17 9 18 8 19 7 20 6 21 5 22
REMARK SMILES IDX 4 23 3 24 2 25 1 26
REMARK H PARENT
REMARK Flexibility Score: inf
ROOT
ATOM      1  C   UNL     1      -4.015   5.994  -6.191  1.00  0.00     0.000 C 
ENDROOT
BRANCH   1   2
ATOM      2  C   UNL     1      -4.768   7.311  -6.447  1.00  0.00     0.000 C 
BRANCH   2   3
ATOM      3  C   UNL     1      -4.141   8.183  -7.556  1.00  0.00     0.000 C 
BRANCH   3   4
ATOM      4  C   UNL     1      -4.791   7.940  -8.928  1.00  0.00     0.000 C 
BRANCH   4   5
ATOM      5  C   UNL     1      -5.484   9.207  -9.444  1.00  0.00     0.000 C 
BRANCH   5   6
ATOM      6  C   UNL     1      -6.410   9.804  -8.373  1.00  0.00     0.000 C 
BRANCH   6   7
ATOM      7  C   UNL     1      -7.818   9.174  -8.382  1.00  0.00     0.000 C 
BRANCH   7   8
ATOM      8  C   UNL     1      -8.244   8.609  -9.752  1.00  0.00     0.000 C 
BRANCH   8   9
ATOM      9  C   UNL     1      -9.543   7.782  -9.746  1.00  0.00     0.000 C 
BRANCH   9  10
ATOM     10  C   UNL     1      -9.344   6.255  -9.696  1.00  0.00     0.006 C 
BRANCH  10  11
ATOM     11  C   UNL     1      -7.867   5.844  -9.624  1.00  0.00     0.053 C 
BRANCH  11  12
ATOM     12  C   UNL     1      -7.531   5.297  -8.269  1.00  0.00     0.041 C 
ATOM     13  O   UNL     1      -8.300   5.502  -7.293  1.00  0.00    -0.550 OA
ATOM     14  O   UNL     1      -6.366   4.561  -8.084  1.00  0.00    -0.550 OA
ENDBRANCH  11  12
ENDBRANCH  10  11
ENDBRANCH   9  10
ENDBRANCH   8   9
ENDBRANCH   7   8
ENDBRANCH   6   7
ENDBRANCH   5   6
ENDBRANCH   4   5
ENDBRANCH   3   4
ENDBRANCH   2   3
ENDBRANCH   1   2
BRANCH   1  15
ATOM     15  C   UNL     1      -3.384   5.925  -4.791  1.00  0.00     0.000 C 
BRANCH  15  16
ATOM     16  C   UNL     1      -2.834   4.531  -4.453  1.00  0.00     0.000 C 
BRANCH  16  17
ATOM     17  C   UNL     1      -3.486   3.914  -3.208  1.00  0.00     0.000 C 
BRANCH  17  18
ATOM     18  C   UNL     1      -2.664   2.718  -2.699  1.00  0.00    -0.000 C 
BRANCH  18  19
ATOM     19  C   UNL     1      -1.469   3.139  -1.828  1.00  0.00    -0.000 C 
BRANCH  19  20
ATOM     20  C   UNL     1      -0.121   2.685  -2.415  1.00  0.00    -0.000 C 
BRANCH  20  21
ATOM     21  C   UNL     1      -0.278   1.767  -3.642  1.00  0.00    -0.000 C 
BRANCH  21  22
ATOM     22  C   UNL     1      -0.331   0.258  -3.335  1.00  0.00    -0.000 C 
BRANCH  22  23
ATOM     23  C   UNL     1      -1.660  -0.396  -3.755  1.00  0.00    -0.000 C 
BRANCH  23  24
ATOM     24  C   UNL     1      -1.456  -1.598  -4.691  1.00  0.00    -0.000 C 
BRANCH  24  25
ATOM     25  C   UNL     1      -2.531  -2.681  -4.513  1.00  0.00    -0.003 C 
ATOM     26  C   UNL     1      -1.898  -4.062  -4.359  1.00  0.00     0.004 C 
ENDBRANCH  24  25
ENDBRANCH  23  24
ENDBRANCH  22  23
ENDBRANCH  21  22
ENDBRANCH  20  21
ENDBRANCH  19  20
ENDBRANCH  18  19
ENDBRANCH  17  18
ENDBRANCH  16  17
ENDBRANCH  15  16
ENDBRANCH   1  15
TORSDOF 22
ENDMDL
MODEL 3
REMARK VINA RESULT:    -2.696      2.793      8.961
REMARK INTER + INTRA:          -7.551
REMARK INTER:                  -5.628
REMARK INTRA:                  -1.923
REMARK UNBOUND:                -1.388
REMARK SMILES CCCCCCCCCCCCCCCCCCCCCCCC(=O)[O-]
REMARK SMILES IDX 13 1 14 2 15 3 16 4 17 5 18 6 19 7 20 8 21 9 22 10 23 11
REMARK SMILES IDX 24 12 25 13 26 14 12 15 11 16 10 17 9 18 8 19 7 20 6 21 5 22
REMARK SMILES IDX 4 23 3 24 2 25 1 26
REMARK H PARENT
REMARK Flexibility Score: inf
ROOT
ATOM      1  C   UNL     1      -4.561   7.492  -6.385  1.00  0.00     0.000 C 
ENDROOT
BRANCH   1   2
ATOM      2  C   UNL     1      -4.794   6.027  -6.792  1.00  0.00     0.000 C 
BRANCH   2   3
ATOM      3  C   UNL     1      -3.773   5.040  -6.188  1.00  0.00     0.000 C 
BRANCH   3   4
ATOM      4  C   UNL     1      -3.427   5.378  -4.728  1.00  0.00     0.000 C 
BRANCH   4   5
ATOM      5  C   UNL     1      -2.389   4.399  -4.165  1.00  0.00     0.000 C 
BRANCH   5   6
ATOM      6  C   UNL     1      -3.009   3.500  -3.085  1.00  0.00     0.000 C 
BRANCH   6   7
ATOM      7  C   UNL     1      -1.953   2.678  -2.315  1.00  0.00     0.000 C 
BRANCH   7   8
ATOM      8  C   UNL     1      -0.734   2.269  -3.164  1.00  0.00     0.000 C 
BRANCH   8   9
ATOM      9  C   UNL     1      -0.064   0.944  -2.754  1.00  0.00     0.000 C 
BRANCH   9  10
ATOM     10  C   UNL     1      -0.195  -0.198  -3.780  1.00  0.00     0.006 C 
BRANCH  10  11
ATOM     11  C   UNL     1      -1.650  -0.629  -4.014  1.00  0.00     0.053 C 
BRANCH  11  12
ATOM     12  C   UNL     1      -1.711  -2.024  -4.560  1.00  0.00     0.041 C 
ATOM     13  O   UNL     1      -2.823  -2.590  -4.734  1.00  0.00    -0.550 OA
ATOM     14  O   UNL     1      -0.538  -2.701  -4.876  1.00  0.00    -0.550 OA
ENDBRANCH  11  12
ENDBRANCH  10  11
ENDBRANCH   9  10
ENDBRANCH   8   9
ENDBRANCH   7   8
ENDBRANCH   6   7
ENDBRANCH   5   6
ENDBRANCH   4   5
ENDBRANCH   3   4
ENDBRANCH   2   3
ENDBRANCH   1   2
BRANCH   1  15
ATOM     15  C   UNL     1      -3.574   8.223  -7.309  1.00  0.00     0.000 C 
BRANCH  15  16
ATOM     16  C   UNL     1      -3.984   8.157  -8.789  1.00  0.00     0.000 C 
BRANCH  16  17
ATOM     17  C   UNL     1      -4.467   9.508  -9.338  1.00  0.00     0.000 C 
BRANCH  17  18
ATOM     18  C   UNL     1      -5.927   9.413  -9.811  1.00  0.00    -0.000 C 
BRANCH  18  19
ATOM     19  C   UNL     1      -6.921  10.022  -8.809  1.00  0.00    -0.000 C 
BRANCH  19  20
ATOM     20  C   UNL     1      -7.887   8.976  -8.225  1.00  0.00    -0.000 C 
BRANCH  20  21
ATOM     21  C   UNL     1      -7.546   7.536  -8.655  1.00  0.00    -0.000 C 
BRANCH  21  22
ATOM     22  C   UNL     1      -8.662   6.498  -8.431  1.00  0.00    -0.000 C 
BRANCH  22  23
ATOM     23  C   UNL     1      -8.297   5.439  -7.375  1.00  0.00    -0.000 C 
BRANCH  23  24
ATOM     24  C   UNL     1      -9.460   4.480  -7.075  1.00  0.00    -0.000 C 
BRANCH  24  25
ATOM     25  C   UNL     1      -9.801   4.408  -5.578  1.00  0.00    -0.003 C 
ATOM     26  C   UNL     1      -9.821   2.962  -5.090  1.00  0.00     0.004 C 
ENDBRANCH  24  25
ENDBRANCH  23  24
ENDBRANCH  22  23
ENDBRANCH  21  22
ENDBRANCH  20  21
ENDBRANCH  19  20
ENDBRANCH  18  19
ENDBRANCH  17  18
ENDBRANCH  16  17
ENDBRANCH  15  16
ENDBRANCH   1  15
TORSDOF 22
ENDMDL
MODEL 4
REMARK VINA RESULT:    -2.372      2.847      9.268
REMARK INTER + INTRA:          -6.812
REMARK INTER:                  -5.203
REMARK INTRA:                  -1.609
REMARK UNBOUND:                -1.388
REMARK SMILES CCCCCCCCCCCCCCCCCCCCCCCC(=O)[O-]
REMARK SMILES IDX 13 1 14 2 15 3 16 4 17 5 18 6 19 7 20 8 21 9 22 10 23 11
REMARK SMILES IDX 24 12 25 13 26 14 12 15 11 16 10 17 9 18 8 19 7 20 6 21 5 22
REMARK SMILES IDX 4 23 3 24 2 25 1 26
REMARK H PARENT
REMARK Flexibility Score: inf
ROOT
ATOM      1  C   UNL     1      -5.068   5.732  -7.217  1.00  0.00     0.000 C 
ENDROOT
BRANCH   1   2
ATOM      2  C   UNL     1      -3.790   5.305  -6.474  1.00  0.00     0.000 C 
BRANCH   2   3
ATOM      3  C   UNL     1      -3.511   6.117  -5.193  1.00  0.00     0.000 C 
BRANCH   3   4
ATOM      4  C   UNL     1      -3.535   5.243  -3.928  1.00  0.00     0.000 C 
BRANCH   4   5
ATOM      5  C   UNL     1      -2.661   3.994  -4.101  1.00  0.00     0.000 C 
BRANCH   5   6
ATOM      6  C   UNL     1      -2.954   2.960  -3.003  1.00  0.00     0.000 C 
BRANCH   6   7
ATOM      7  C   UNL     1      -1.908   2.983  -1.868  1.00  0.00     0.000 C 
BRANCH   7   8
ATOM      8  C   UNL     1      -0.508   2.502  -2.296  1.00  0.00     0.000 C 
BRANCH   8   9
ATOM      9  C   UNL     1      -0.454   1.743  -3.635  1.00  0.00     0.000 C 
BRANCH   9  10
ATOM     10  C   UNL     1      -0.365   0.209  -3.512  1.00  0.00     0.006 C 
BRANCH  10  11
ATOM     11  C   UNL     1      -1.727  -0.484  -3.658  1.00  0.00     0.053 C 
BRANCH  11  12
ATOM     12  C   UNL     1      -1.605  -1.729  -4.485  1.00  0.00     0.041 C 
ATOM     13  O   UNL     1      -0.469  -2.201  -4.759  1.00  0.00    -0.550 OA
ATOM     14  O   UNL     1      -2.746  -2.368  -4.956  1.00  0.00    -0.550 OA
ENDBRANCH  11  12
ENDBRANCH  10  11
ENDBRANCH   9  10
ENDBRANCH   8   9
ENDBRANCH   7   8
ENDBRANCH   6   7
ENDBRANCH   5   6
ENDBRANCH   4   5
ENDBRANCH   3   4
ENDBRANCH   2   3
ENDBRANCH   1   2
BRANCH   1  15
ATOM     15  C   UNL     1      -5.274   7.255  -7.229  1.00  0.00     0.000 C 
BRANCH  15  16
ATOM     16  C   UNL     1      -3.967   8.031  -7.452  1.00  0.00     0.000 C 
BRANCH  16  17
ATOM     17  C   UNL     1      -3.620   8.210  -8.937  1.00  0.00     0.000 C 
BRANCH  17  18
ATOM     18  C   UNL     1      -4.898   8.324  -9.784  1.00  0.00    -0.000 C 
BRANCH  18  19
ATOM     19  C   UNL     1      -5.272   9.779 -10.110  1.00  0.00    -0.000 C 
BRANCH  19  20
ATOM     20  C   UNL     1      -6.738  10.103  -9.772  1.00  0.00    -0.000 C 
BRANCH  20  21
ATOM     21  C   UNL     1      -7.695   8.931 -10.064  1.00  0.00    -0.000 C 
BRANCH  21  22
ATOM     22  C   UNL     1      -8.464   8.387  -8.844  1.00  0.00    -0.000 C 
BRANCH  22  23
ATOM     23  C   UNL     1      -9.043   6.979  -9.076  1.00  0.00    -0.000 C 
BRANCH  23  24
ATOM     24  C   UNL     1      -8.012   6.009  -9.674  1.00  0.00    -0.000 C 
BRANCH  24  25
ATOM     25  C   UNL     1      -8.257   4.550  -9.261  1.00  0.00    -0.003 C 
ATOM     26  C   UNL     1      -9.305   4.463  -8.154  1.00  0.00     0.004 C 
ENDBRANCH  24  25
ENDBRANCH  23  24
ENDBRANCH  22  23
ENDBRANCH  21  22
ENDBRANCH  20  21
ENDBRANCH  19  20
ENDBRANCH  18  19
ENDBRANCH  17  18
ENDBRANCH  16  17
ENDBRANCH  15  16
ENDBRANCH   1  15
TORSDOF 22
ENDMDL
MODEL 5
REMARK VINA RESULT:    -2.358      1.427      3.138
REMARK INTER + INTRA:          -6.780
REMARK INTER:                  -5.377
REMARK INTRA:                  -1.403
REMARK UNBOUND:                -1.388
REMARK SMILES CCCCCCCCCCCCCCCCCCCCCCCC(=O)[O-]
REMARK SMILES IDX 13 1 14 2 15 3 16 4 17 5 18 6 19 7 20 8 21 9 22 10 23 11
REMARK SMILES IDX 24 12 25 13 26 14 12 15 11 16 10 17 9 18 8 19 7 20 6 21 5 22
REMARK SMILES IDX 4 23 3 24 2 25 1 26
REMARK H PARENT
REMARK Flexibility Score: inf
ROOT
ATOM      1  C   UNL     1      -5.227   9.257  -7.995  1.00  0.00     0.000 C 
ENDROOT
BRANCH   1   2
ATOM      2  C   UNL     1      -6.093   8.341  -8.878  1.00  0.00     0.000 C 
BRANCH   2   3
ATOM      3  C   UNL     1      -6.715   9.054 -10.096  1.00  0.00     0.000 C 
BRANCH   3   4
ATOM      4  C   UNL     1      -8.206   9.369  -9.891  1.00  0.00     0.000 C 
BRANCH   4   5
ATOM      5  C   UNL     1      -8.901   8.262  -9.090  1.00  0.00     0.000 C 
BRANCH   5   6
ATOM      6  C   UNL     1      -9.337   7.108 -10.007  1.00  0.00     0.000 C 
BRANCH   6   7
ATOM      7  C   UNL     1      -8.406   5.881  -9.906  1.00  0.00     0.000 C 
BRANCH   7   8
ATOM      8  C   UNL     1      -9.150   4.533  -9.849  1.00  0.00     0.000 C 
BRANCH   8   9
ATOM      9  C   UNL     1     -10.072   4.342  -8.631  1.00  0.00     0.000 C 
BRANCH   9  10
ATOM     10  C   UNL     1      -9.346   4.164  -7.283  1.00  0.00     0.006 C 
BRANCH  10  11
ATOM     11  C   UNL     1     -10.118   4.766  -6.102  1.00  0.00     0.053 C 
BRANCH  11  12
ATOM     12  C   UNL     1     -10.002   3.892  -4.889  1.00  0.00     0.041 C 
ATOM     13  O   UNL     1      -9.948   4.404  -3.739  1.00  0.00    -0.550 OA
ATOM     14  O   UNL     1      -9.952   2.509  -5.028  1.00  0.00    -0.550 OA
ENDBRANCH  11  12
ENDBRANCH  10  11
ENDBRANCH   9  10
ENDBRANCH   8   9
ENDBRANCH   7   8
ENDBRANCH   6   7
ENDBRANCH   5   6
ENDBRANCH   4   5
ENDBRANCH   3   4
ENDBRANCH   2   3
ENDBRANCH   1   2
BRANCH   1  15
ATOM     15  C   UNL     1      -3.776   8.768  -7.864  1.00  0.00     0.000 C 
BRANCH  15  16
ATOM     16  C   UNL     1      -3.632   7.258  -8.111  1.00  0.00     0.000 C 
BRANCH  16  17
ATOM     17  C   UNL     1      -4.189   6.406  -6.961  1.00  0.00     0.000 C 
BRANCH  17  18
ATOM     18  C   UNL     1      -3.495   6.760  -5.636  1.00  0.00    -0.000 C 
BRANCH  18  19
ATOM     19  C   UNL     1      -3.750   5.723  -4.530  1.00  0.00    -0.000 C 
BRANCH  19  20
ATOM     20  C   UNL     1      -2.534   4.815  -4.279  1.00  0.00    -0.000 C 
BRANCH  20  21
ATOM     21  C   UNL     1      -2.893   3.526  -3.515  1.00  0.00    -0.000 C 
BRANCH  21  22
ATOM     22  C   UNL     1      -2.311   3.418  -2.092  1.00  0.00    -0.000 C 
BRANCH  22  23
ATOM     23  C   UNL     1      -1.015   2.589  -2.034  1.00  0.00    -0.000 C 
BRANCH  23  24
ATOM     24  C   UNL     1      -0.558   2.108  -3.420  1.00  0.00    -0.000 C 
BRANCH  24  25
ATOM     25  C   UNL     1      -0.368   0.585  -3.489  1.00  0.00    -0.003 C 
ATOM     26  C   UNL     1      -1.710  -0.139  -3.402  1.00  0.00     0.004 C 
ENDBRANCH  24  25
ENDBRANCH  23  24
ENDBRANCH  22  23
ENDBRANCH  21  22
ENDBRANCH  20  21
ENDBRANCH  19  20
ENDBRANCH  18  19
ENDBRANCH  17  18
ENDBRANCH  16  17
ENDBRANCH  15  16
ENDBRANCH   1  15
TORSDOF 22
ENDMDL
MODEL 6
REMARK VINA RESULT:    -2.282      3.232      9.786
REMARK INTER + INTRA:          -6.604
REMARK INTER:                  -4.396
REMARK INTRA:                  -2.209
REMARK UNBOUND:                -1.388
REMARK SMILES CCCCCCCCCCCCCCCCCCCCCCCC(=O)[O-]
REMARK SMILES IDX 13 1 14 2 15 3 16 4 17 5 18 6 19 7 20 8 21 9 22 10 23 11
REMARK SMILES IDX 24 12 25 13 26 14 12 15 11 16 10 17 9 18 8 19 7 20 6 21 5 22
REMARK SMILES IDX 4 23 3 24 2 25 1 26
REMARK H PARENT
REMARK Flexibility Score: inf
ROOT
ATOM      1  C   UNL     1      -4.406   7.075  -6.495  1.00  0.00     0.000 C 
ENDROOT
BRANCH   1   2
ATOM      2  C   UNL     1      -4.074   6.540  -5.090  1.00  0.00     0.000 C 
BRANCH   2   3
ATOM      3  C   UNL     1      -3.369   5.168  -5.094  1.00  0.00     0.000 C 
BRANCH   3   4
ATOM      4  C   UNL     1      -2.748   4.824  -3.731  1.00  0.00     0.000 C 
BRANCH   4   5
ATOM      5  C   UNL     1      -2.954   3.344  -3.385  1.00  0.00     0.000 C 
BRANCH   5   6
ATOM      6  C   UNL     1      -2.274   2.990  -2.053  1.00  0.00     0.000 C 
BRANCH   6   7
ATOM      7  C   UNL     1      -0.804   2.555  -2.231  1.00  0.00     0.000 C 
BRANCH   7   8
ATOM      8  C   UNL     1      -0.503   1.900  -3.593  1.00  0.00     0.000 C 
BRANCH   8   9
ATOM      9  C   UNL     1      -0.518   0.360  -3.598  1.00  0.00     0.000 C 
BRANCH   9  10
ATOM     10  C   UNL     1      -1.815  -0.282  -3.068  1.00  0.00     0.006 C 
BRANCH  10  11
ATOM     11  C   UNL     1      -2.574  -1.075  -4.142  1.00  0.00     0.053 C 
BRANCH  11  12
ATOM     12  C   UNL     1      -1.803  -2.296  -4.546  1.00  0.00     0.041 C 
ATOM     13  O   UNL     1      -0.759  -2.186  -5.244  1.00  0.00    -0.550 OA
ATOM     14  O   UNL     1      -2.237  -3.557  -4.153  1.00  0.00    -0.550 OA
ENDBRANCH  11  12
ENDBRANCH  10  11
ENDBRANCH   9  10
ENDBRANCH   8   9
ENDBRANCH   7   8
ENDBRANCH   6   7
ENDBRANCH   5   6
ENDBRANCH   4   5
ENDBRANCH   3   4
ENDBRANCH   2   3
ENDBRANCH   1   2
BRANCH   1  15
ATOM     15  C   UNL     1      -5.872   6.846  -6.894  1.00  0.00     0.000 C 
BRANCH  15  16
ATOM     16  C   UNL     1      -6.085   5.520  -7.642  1.00  0.00     0.000 C 
BRANCH  16  17
ATOM     17  C   UNL     1      -6.643   5.714  -9.059  1.00  0.00     0.000 C 
BRANCH  17  18
ATOM     18  C   UNL     1      -8.110   5.260  -9.134  1.00  0.00    -0.000 C 
BRANCH  18  19
ATOM     19  C   UNL     1      -9.101   6.371  -8.749  1.00  0.00    -0.000 C 
BRANCH  19  20
ATOM     20  C   UNL     1      -9.527   7.227  -9.954  1.00  0.00    -0.000 C 
BRANCH  20  21
ATOM     21  C   UNL     1      -8.837   8.605  -9.987  1.00  0.00    -0.000 C 
BRANCH  21  22
ATOM     22  C   UNL     1      -8.278   9.096  -8.639  1.00  0.00    -0.000 C 
BRANCH  22  23
ATOM     23  C   UNL     1      -6.874   9.717  -8.759  1.00  0.00    -0.000 C 
BRANCH  23  24
ATOM     24  C   UNL     1      -6.166   9.326 -10.066  1.00  0.00    -0.000 C 
BRANCH  24  25
ATOM     25  C   UNL     1      -4.718   8.861  -9.843  1.00  0.00    -0.003 C 
ATOM     26  C   UNL     1      -3.957   9.845  -8.958  1.00  0.00     0.004 C 
ENDBRANCH  24  25
ENDBRANCH  23  24
ENDBRANCH  22  23
ENDBRANCH  21  22
ENDBRANCH  20  21
ENDBRANCH  19  20
ENDBRANCH  18  19
ENDBRANCH  17  18
ENDBRANCH  16  17
ENDBRANCH  15  16
ENDBRANCH   1  15
TORSDOF 22
ENDMDL
MODEL 7
REMARK VINA RESULT:    -2.235      1.148      2.080
REMARK INTER + INTRA:          -6.497
REMARK INTER:                  -5.223
REMARK INTRA:                  -1.274
REMARK UNBOUND:                -1.388
REMARK SMILES CCCCCCCCCCCCCCCCCCCCCCCC(=O)[O-]
REMARK SMILES IDX 13 1 14 2 15 3 16 4 17 5 18 6 19 7 20 8 21 9 22 10 23 11
REMARK SMILES IDX 24 12 25 13 26 14 12 15 11 16 10 17 9 18 8 19 7 20 6 21 5 22
REMARK SMILES IDX 4 23 3 24 2 25 1 26
REMARK H PARENT
REMARK Flexibility Score: inf
ROOT
ATOM      1  C   UNL     1      -4.028   6.427  -5.170  1.00  0.00     0.000 C 
ENDROOT
BRANCH   1   2
ATOM      2  C   UNL     1      -4.454   6.924  -6.562  1.00  0.00     0.000 C 
BRANCH   2   3
ATOM      3  C   UNL     1      -3.525   8.006  -7.151  1.00  0.00     0.000 C 
BRANCH   3   4
ATOM      4  C   UNL     1      -3.337   7.854  -8.669  1.00  0.00     0.000 C 
BRANCH   4   5
ATOM      5  C   UNL     1      -4.674   7.986  -9.409  1.00  0.00     0.000 C 
BRANCH   5   6
ATOM      6  C   UNL     1      -5.482   9.180  -8.877  1.00  0.00     0.000 C 
BRANCH   6   7
ATOM      7  C   UNL     1      -6.431   9.778  -9.937  1.00  0.00     0.000 C 
BRANCH   7   8
ATOM      8  C   UNL     1      -7.786   9.051 -10.048  1.00  0.00     0.000 C 
BRANCH   8   9
ATOM      9  C   UNL     1      -8.306   8.429  -8.739  1.00  0.00     0.000 C 
BRANCH   9  10
ATOM     10  C   UNL     1      -8.763   6.962  -8.850  1.00  0.00     0.006 C 
BRANCH  10  11
ATOM     11  C   UNL     1      -8.138   6.056  -7.780  1.00  0.00     0.053 C 
BRANCH  11  12
ATOM     12  C   UNL     1      -8.999   4.854  -7.530  1.00  0.00     0.041 C 
ATOM     13  O   UNL     1      -9.425   4.166  -8.495  1.00  0.00    -0.550 OA
ATOM     14  O   UNL     1      -9.334   4.494  -6.229  1.00  0.00    -0.550 OA
ENDBRANCH  11  12
ENDBRANCH  10  11
ENDBRANCH   9  10
ENDBRANCH   8   9
ENDBRANCH   7   8
ENDBRANCH   6   7
ENDBRANCH   5   6
ENDBRANCH   4   5
ENDBRANCH   3   4
ENDBRANCH   2   3
ENDBRANCH   1   2
BRANCH   1  15
ATOM     15  C   UNL     1      -3.412   5.019  -5.197  1.00  0.00     0.000 C 
BRANCH  15  16
ATOM     16  C   UNL     1      -2.665   4.672  -3.901  1.00  0.00     0.000 C 
BRANCH  16  17
ATOM     17  C   UNL     1      -3.017   3.278  -3.360  1.00  0.00     0.000 C 
BRANCH  17  18
ATOM     18  C   UNL     1      -2.354   3.041  -1.993  1.00  0.00    -0.000 C 
BRANCH  18  19
ATOM     19  C   UNL     1      -0.848   2.748  -2.101  1.00  0.00    -0.000 C 
BRANCH  19  20
ATOM     20  C   UNL     1      -0.442   2.248  -3.498  1.00  0.00    -0.000 C 
BRANCH  20  21
ATOM     21  C   UNL     1      -0.313   0.714  -3.573  1.00  0.00    -0.000 C 
BRANCH  21  22
ATOM     22  C   UNL     1      -1.436  -0.079  -2.878  1.00  0.00    -0.000 C 
BRANCH  22  23
ATOM     23  C   UNL     1      -2.343  -0.833  -3.868  1.00  0.00    -0.000 C 
BRANCH  23  24
ATOM     24  C   UNL     1      -1.557  -1.794  -4.774  1.00  0.00    -0.000 C 
BRANCH  24  25
ATOM     25  C   UNL     1      -2.277  -3.134  -4.988  1.00  0.00    -0.003 C 
ATOM     26  C   UNL     1      -1.934  -4.123  -3.876  1.00  0.00     0.004 C 
ENDBRANCH  24  25
ENDBRANCH  23  24
ENDBRANCH  22  23
ENDBRANCH  21  22
ENDBRANCH  20  21
ENDBRANCH  19  20
ENDBRANCH  18  19
ENDBRANCH  17  18
ENDBRANCH  16  17
ENDBRANCH  15  16
ENDBRANCH   1  15
TORSDOF 22
ENDMDL
MODEL 8
REMARK VINA RESULT:    -2.171      3.025      8.588
REMARK INTER + INTRA:          -6.351
REMARK INTER:                  -5.638
REMARK INTRA:                  -0.713
REMARK UNBOUND:                -1.388
REMARK SMILES CCCCCCCCCCCCCCCCCCCCCCCC(=O)[O-]
REMARK SMILES IDX 13 1 14 2 15 3 16 4 17 5 18 6 19 7 20 8 21 9 22 10 23 11
REMARK SMILES IDX 24 12 25 13 26 14 12 15 11 16 10 17 9 18 8 19 7 20 6 21 5 22
REMARK SMILES IDX 4 23 3 24 2 25 1 26
REMARK H PARENT
REMARK Flexibility Score: inf
ROOT
ATOM      1  C   UNL     1      -4.734   9.585 -10.075  1.00  0.00     0.000 C 
ENDROOT
BRANCH   1   2
ATOM      2  C   UNL     1      -3.647   8.972  -9.174  1.00  0.00     0.000 C 
BRANCH   2   3
ATOM      3  C   UNL     1      -4.177   7.899  -8.199  1.00  0.00     0.000 C 
BRANCH   3   4
ATOM      4  C   UNL     1      -3.182   7.597  -7.066  1.00  0.00     0.000 C 
BRANCH   4   5
ATOM      5  C   UNL     1      -3.849   6.791  -5.944  1.00  0.00     0.000 C 
BRANCH   5   6
ATOM      6  C   UNL     1      -3.371   5.330  -5.956  1.00  0.00     0.000 C 
BRANCH   6   7
ATOM      7  C   UNL     1      -3.723   4.577  -4.656  1.00  0.00     0.000 C 
BRANCH   7   8
ATOM      8  C   UNL     1      -2.528   4.372  -3.706  1.00  0.00     0.000 C 
BRANCH   8   9
ATOM      9  C   UNL     1      -2.674   3.207  -2.709  1.00  0.00     0.000 C 
BRANCH   9  10
ATOM     10  C   UNL     1      -1.367   2.774  -2.016  1.00  0.00     0.006 C 
BRANCH  10  11
ATOM     11  C   UNL     1      -0.329   2.207  -2.994  1.00  0.00     0.053 C 
BRANCH  11  12
ATOM     12  C   UNL     1      -0.601   0.761  -3.281  1.00  0.00     0.041 C 
ATOM     13  O   UNL     1       0.351  -0.062  -3.353  1.00  0.00    -0.550 OA
ATOM     14  O   UNL     1      -1.906   0.321  -3.472  1.00  0.00    -0.550 OA
ENDBRANCH  11  12
ENDBRANCH  10  11
ENDBRANCH   9  10
ENDBRANCH   8   9
ENDBRANCH   7   8
ENDBRANCH   6   7
ENDBRANCH   5   6
ENDBRANCH   4   5
ENDBRANCH   3   4
ENDBRANCH   2   3
ENDBRANCH   1   2
BRANCH   1  15
ATOM     15  C   UNL     1      -6.060   8.810 -10.029  1.00  0.00     0.000 C 
BRANCH  15  16
ATOM     16  C   UNL     1      -7.217   9.641  -9.453  1.00  0.00     0.000 C 
BRANCH  16  17
ATOM     17  C   UNL     1      -7.880   8.984  -8.235  1.00  0.00     0.000 C 
BRANCH  17  18
ATOM     18  C   UNL     1      -8.096   7.481  -8.477  1.00  0.00    -0.000 C 
BRANCH  18  19
ATOM     19  C   UNL     1      -8.488   7.159  -9.929  1.00  0.00    -0.000 C 
BRANCH  19  20
ATOM     20  C   UNL     1      -9.685   6.197 -10.018  1.00  0.00    -0.000 C 
BRANCH  20  21
ATOM     21  C   UNL     1      -9.842   5.314  -8.764  1.00  0.00    -0.000 C 
BRANCH  21  22
ATOM     22  C   UNL     1      -9.873   3.796  -9.025  1.00  0.00    -0.000 C 
BRANCH  22  23
ATOM     23  C   UNL     1     -10.125   2.971  -7.750  1.00  0.00    -0.000 C 
BRANCH  23  24
ATOM     24  C   UNL     1      -9.445   3.576  -6.511  1.00  0.00    -0.000 C 
BRANCH  24  25
ATOM     25  C   UNL     1     -10.100   3.130  -5.194  1.00  0.00    -0.003 C 
ATOM     26  C   UNL     1     -10.108   4.266  -4.174  1.00  0.00     0.004 C 
ENDBRANCH  24  25
ENDBRANCH  23  24
ENDBRANCH  22  23
ENDBRANCH  21  22
ENDBRANCH  20  21
ENDBRANCH  19  20
ENDBRANCH  18  19
ENDBRANCH  17  18
ENDBRANCH  16  17
ENDBRANCH  15  16
ENDBRANCH   1  15
TORSDOF 22
ENDMDL
MODEL 9
REMARK VINA RESULT:    -2.096      2.677      4.131
REMARK INTER + INTRA:          -6.179
REMARK INTER:                  -4.608
REMARK INTRA:                  -1.572
REMARK UNBOUND:                -1.388
REMARK SMILES CCCCCCCCCCCCCCCCCCCCCCCC(=O)[O-]
REMARK SMILES IDX 13 1 14 2 15 3 16 4 17 5 18 6 19 7 20 8 21 9 22 10 23 11
REMARK SMILES IDX 24 12 25 13 26 14 12 15 11 16 10 17 9 18 8 19 7 20 6 21 5 22
REMARK SMILES IDX 4 23 3 24 2 25 1 26
REMARK H PARENT
REMARK Flexibility Score: inf
ROOT
ATOM      1  C   UNL     1      -4.239   6.718  -6.368  1.00  0.00     0.000 C 
ENDROOT
BRANCH   1   2
ATOM      2  C   UNL     1      -3.274   7.743  -6.991  1.00  0.00     0.000 C 
BRANCH   2   3
ATOM      3  C   UNL     1      -3.723   8.263  -8.373  1.00  0.00     0.000 C 
BRANCH   3   4
ATOM      4  C   UNL     1      -5.118   7.752  -8.766  1.00  0.00     0.000 C 
BRANCH   4   5
ATOM      5  C   UNL     1      -5.981   8.883  -9.340  1.00  0.00     0.000 C 
BRANCH   5   6
ATOM      6  C   UNL     1      -6.975   9.405  -8.291  1.00  0.00     0.000 C 
BRANCH   6   7
ATOM      7  C   UNL     1      -8.446   9.206  -8.712  1.00  0.00     0.000 C 
BRANCH   7   8
ATOM      8  C   UNL     1      -8.640   8.191  -9.856  1.00  0.00     0.000 C 
BRANCH   8   9
ATOM      9  C   UNL     1      -9.841   7.242  -9.695  1.00  0.00     0.000 C 
BRANCH   9  10
ATOM     10  C   UNL     1      -9.478   5.775  -9.392  1.00  0.00     0.006 C 
BRANCH  10  11
ATOM     11  C   UNL     1      -7.964   5.525  -9.367  1.00  0.00     0.053 C 
BRANCH  11  12
ATOM     12  C   UNL     1      -7.532   5.008  -8.027  1.00  0.00     0.041 C 
ATOM     13  O   UNL     1      -6.353   4.597  -7.855  1.00  0.00    -0.550 OA
ATOM     14  O   UNL     1      -8.432   4.977  -6.968  1.00  0.00    -0.550 OA
ENDBRANCH  11  12
ENDBRANCH  10  11
ENDBRANCH   9  10
ENDBRANCH   8   9
ENDBRANCH   7   8
ENDBRANCH   6   7
ENDBRANCH   5   6
ENDBRANCH   4   5
ENDBRANCH   3   4
ENDBRANCH   2   3
ENDBRANCH   1   2
BRANCH   1  15
ATOM     15  C   UNL     1      -3.802   6.256  -4.969  1.00  0.00     0.000 C 
BRANCH  15  16
ATOM     16  C   UNL     1      -3.313   4.799  -4.949  1.00  0.00     0.000 C 
BRANCH  16  17
ATOM     17  C   UNL     1      -2.510   4.452  -3.687  1.00  0.00     0.000 C 
BRANCH  17  18
ATOM     18  C   UNL     1      -2.934   3.083  -3.132  1.00  0.00    -0.000 C 
BRANCH  18  19
ATOM     19  C   UNL     1      -1.794   2.353  -2.402  1.00  0.00    -0.000 C 
BRANCH  19  20
ATOM     20  C   UNL     1      -0.577   3.260  -2.151  1.00  0.00    -0.000 C 
BRANCH  20  21
ATOM     21  C   UNL     1      -0.382   3.607  -0.663  1.00  0.00    -0.000 C 
BRANCH  21  22
ATOM     22  C   UNL     1       0.432   2.584   0.153  1.00  0.00    -0.000 C 
BRANCH  22  23
ATOM     23  C   UNL     1       1.184   3.219   1.337  1.00  0.00    -0.000 C 
BRANCH  23  24
ATOM     24  C   UNL     1       1.547   2.194   2.424  1.00  0.00    -0.000 C 
BRANCH  24  25
ATOM     25  C   UNL     1       0.345   1.799   3.295  1.00  0.00    -0.003 C 
ATOM     26  C   UNL     1       0.613   0.493   4.039  1.00  0.00     0.004 C 
ENDBRANCH  24  25
ENDBRANCH  23  24
ENDBRANCH  22  23
ENDBRANCH  21  22
ENDBRANCH  20  21
ENDBRANCH  19  20
ENDBRANCH  18  19
ENDBRANCH  17  18
ENDBRANCH  16  17
ENDBRANCH  15  16
ENDBRANCH   1  15
TORSDOF 22
ENDMDL
