MODEL 1
REMARK VINA RESULT:    11.267      0.000      0.000
REMARK INTER + INTRA:          20.558
REMARK INTER:                  18.513
REMARK INTRA:                   2.045
REMARK UNBOUND:                 2.045
REMARK SMILES C[C@@H]1O[C@@H](OC[C@@H]2O[C@H](Oc3c(-c4ccc(O)c(O)c4)oc4cc(O)cc(O)c4c3=O)[C@H](O)[C@@H](O)[C@H]2O)[C@@H](O)[C@@H](O)[C@@H]1O
REMARK SMILES IDX 7 1 36 2 34 3 32 4 9 5 8 6 6 7 5 8 4 9 1 10 2 11 42 12 3 13
REMARK SMILES IDX 40 14 38 15 43 16 41 18 39 20 37 22 35 24 10 26 11 27 12 28
REMARK SMILES IDX 30 29 21 30 29 31 31 32 22 33 27 34 23 35 26 36 24 37 13 38
REMARK SMILES IDX 20 39 14 40 18 41 15 42 16 43 19 44 17 46 28 48 25 50 33 52
REMARK H PARENT 43 17 41 19 39 21 37 23 35 25 19 45 17 47 28 49 25 51 33 53
REMARK Flexibility Score: inf
ROOT
ATOM      1  C   UNL     1      43.218  19.511   6.413  1.00  0.00     0.180 C 
ATOM      2  C   UNL     1      41.900  20.263   6.748  1.00  0.00     0.177 C 
ATOM      3  C   UNL     1      40.737  19.264   7.008  1.00  0.00     0.180 C 
ATOM      4  C   UNL     1      41.275  17.942   7.609  1.00  0.00     0.214 C 
ATOM      5  C   UNL     1      42.388  17.335   6.698  1.00  0.00     0.339 C 
ATOM      6  O   UNL     1      42.928  18.280   5.778  1.00  0.00    -0.332 OA
ENDROOT
BRANCH   1   7
ATOM      7  C   UNL     1      44.102  20.350   5.480  1.00  0.00     0.198 C 
BRANCH   7   8
ATOM      8  O   UNL     1      45.466  20.080   5.738  1.00  0.00    -0.347 OA
BRANCH   8   9
ATOM      9  C   UNL     1      46.220  21.272   5.879  1.00  0.00     0.281 C 
ATOM     10  C   UNL     1      49.501  19.980   4.798  1.00  0.00     0.041 C 
ATOM     11  C   UNL     1      48.256  20.117   5.678  1.00  0.00     0.150 C 
ATOM     12  C   UNL     1      48.646  20.353   7.155  1.00  0.00     0.174 C 
ATOM     13  O   UNL     1      47.453  21.177   5.176  1.00  0.00    -0.344 OA
ATOM     14  C   UNL     1      47.379  20.524   8.011  1.00  0.00     0.179 C 
ATOM     15  C   UNL     1      46.455  21.577   7.372  1.00  0.00     0.202 C 
BRANCH  12  16
ATOM     16  O   UNL     1      49.430  21.519   7.260  1.00  0.00    -0.388 OA
ATOM     17  H   UNL     1      48.872  22.280   6.947  1.00  0.00     0.211 HD
ENDBRANCH  12  16
BRANCH  14  18
ATOM     18  O   UNL     1      46.697  19.300   8.119  1.00  0.00    -0.387 OA
ATOM     19  H   UNL     1      47.369  18.582   7.973  1.00  0.00     0.211 HD
ENDBRANCH  14  18
BRANCH  15  20
ATOM     20  O   UNL     1      45.219  21.630   8.040  1.00  0.00    -0.385 OA
ATOM     21  H   UNL     1      45.367  21.261   8.947  1.00  0.00     0.211 HD
ENDBRANCH  15  20
ENDBRANCH   8   9
ENDBRANCH   7   8
ENDBRANCH   1   7
BRANCH   2  22
ATOM     22  O   UNL     1      42.101  21.137   7.831  1.00  0.00    -0.387 OA
ATOM     23  H   UNL     1      42.209  20.587   8.646  1.00  0.00     0.211 HD
ENDBRANCH   2  22
BRANCH   3  24
ATOM     24  O   UNL     1      39.714  19.828   7.798  1.00  0.00    -0.387 OA
ATOM     25  H   UNL     1      38.927  19.996   7.213  1.00  0.00     0.211 HD
ENDBRANCH   3  24
BRANCH   5  26
ATOM     26  O   UNL     1      41.853  16.240   5.953  1.00  0.00    -0.454 OA
BRANCH  26  27
ATOM     27  C   UNL     1      41.689  16.166   4.556  1.00  0.00     0.214 A 
ATOM     28  C   UNL     1      40.381  16.196   4.031  1.00  0.00     0.180 A 
ATOM     29  C   UNL     1      42.770  16.067   3.652  1.00  0.00     0.239 A 
ATOM     30  O   UNL     1      40.189  16.156   2.716  1.00  0.00    -0.452 OA
ATOM     31  C   UNL     1      42.522  16.023   2.264  1.00  0.00     0.111 A 
ATOM     32  O   UNL     1      43.950  16.005   4.083  1.00  0.00    -0.285 OA
ATOM     33  C   UNL     1      41.177  16.072   1.833  1.00  0.00     0.146 A 
ATOM     34  C   UNL     1      43.552  15.930   1.292  1.00  0.00     0.134 A 
ATOM     35  C   UNL     1      40.871  16.031   0.469  1.00  0.00     0.094 A 
ATOM     36  C   UNL     1      43.223  15.891  -0.072  1.00  0.00     0.093 A 
ATOM     37  C   UNL     1      41.890  15.935  -0.484  1.00  0.00     0.123 A 
BRANCH  28  38
ATOM     38  C   UNL     1      39.195  16.334   4.907  1.00  0.00     0.025 A 
ATOM     39  C   UNL     1      38.024  16.923   4.399  1.00  0.00     0.062 A 
ATOM     40  C   UNL     1      39.208  15.876   6.240  1.00  0.00     0.016 A 
ATOM     41  C   UNL     1      36.906  17.110   5.225  1.00  0.00     0.158 A 
ATOM     42  C   UNL     1      38.100  16.080   7.071  1.00  0.00     0.051 A 
ATOM     43  C   UNL     1      36.953  16.708   6.567  1.00  0.00     0.157 A 
BRANCH  41  44
ATOM     44  O   UNL     1      35.757  17.714   4.728  1.00  0.00    -0.504 OA
ATOM     45  H   UNL     1      35.624  18.717   4.764  1.00  0.00     0.293 HD
ENDBRANCH  41  44
BRANCH  43  46
ATOM     46  O   UNL     1      35.858  16.944   7.394  1.00  0.00    -0.504 OA
ATOM     47  H   UNL     1      35.795  16.532   8.320  1.00  0.00     0.293 HD
ENDBRANCH  43  46
ENDBRANCH  28  38
BRANCH  34  48
ATOM     48  O   UNL     1      44.894  15.880   1.666  1.00  0.00    -0.507 OA
ATOM     49  H   UNL     1      45.383  14.999   1.777  1.00  0.00     0.293 HD
ENDBRANCH  34  48
BRANCH  37  50
ATOM     50  O   UNL     1      41.592  15.876  -1.843  1.00  0.00    -0.508 OA
ATOM     51  H   UNL     1      40.639  15.899  -2.180  1.00  0.00     0.293 HD
ENDBRANCH  37  50
ENDBRANCH  26  27
ENDBRANCH   5  26
BRANCH   4  52
ATOM     52  O   UNL     1      40.248  17.012   7.852  1.00  0.00    -0.384 OA
ATOM     53  H   UNL     1      39.372  17.481   7.750  1.00  0.00     0.211 HD
ENDBRANCH   4  52
TORSDOF 16
ENDMDL
