MODEL 1
REMARK VINA RESULT:    -4.653      0.000      0.000
REMARK INTER + INTRA:          -7.920
REMARK INTER:                  -7.374
REMARK INTRA:                  -0.546
REMARK UNBOUND:                -0.546
REMARK SMILES CCCCCCCCCCCC(=O)[O-]
REMARK SMILES IDX 7 1 8 2 9 3 10 4 11 5 12 6 13 7 14 8 6 9 5 10 4 11 3 12 2 13
REMARK SMILES IDX 1 14
REMARK H PARENT
REMARK Flexibility Score: inf
ROOT
ATOM      1  C   UNL     1       5.968   1.898   0.485  1.00  0.00     0.000 C 
ENDROOT
BRANCH   1   2
ATOM      2  C   UNL     1       5.949   0.676  -0.449  1.00  0.00     0.000 C 
BRANCH   2   3
ATOM      3  C   UNL     1       6.597   0.957  -1.817  1.00  0.00     0.000 C 
BRANCH   3   4
ATOM      4  C   UNL     1       7.968   0.288  -2.044  1.00  0.00     0.006 C 
BRANCH   4   5
ATOM      5  C   UNL     1       8.770   0.855  -3.226  1.00  0.00     0.053 C 
BRANCH   5   6
ATOM      6  C   UNL     1       8.445   0.155  -4.511  1.00  0.00     0.041 C 
ATOM      7  O   UNL     1       8.843   0.628  -5.607  1.00  0.00    -0.550 OA
ATOM      8  O   UNL     1       7.676  -1.002  -4.498  1.00  0.00    -0.550 OA
ENDBRANCH   5   6
ENDBRANCH   4   5
ENDBRANCH   3   4
ENDBRANCH   2   3
ENDBRANCH   1   2
BRANCH   1   9
ATOM      9  C   UNL     1       6.529   3.155  -0.200  1.00  0.00     0.000 C 
BRANCH   9  10
ATOM     10  C   UNL     1       7.841   3.644   0.439  1.00  0.00    -0.000 C 
BRANCH  10  11
ATOM     11  C   UNL     1       7.648   4.915   1.281  1.00  0.00    -0.000 C 
BRANCH  11  12
ATOM     12  C   UNL     1       7.239   6.129   0.435  1.00  0.00    -0.000 C 
BRANCH  12  13
ATOM     13  C   UNL     1       8.150   7.328   0.719  1.00  0.00    -0.003 C 
ATOM     14  C   UNL     1       8.239   8.252  -0.492  1.00  0.00     0.004 C 
ENDBRANCH  12  13
ENDBRANCH  11  12
ENDBRANCH  10  11
ENDBRANCH   9  10
ENDBRANCH   1   9
TORSDOF 10
ENDMDL
MODEL 2
REMARK VINA RESULT:    -4.562      1.735      2.681
REMARK INTER + INTRA:          -7.775
REMARK INTER:                  -7.216
REMARK INTRA:                  -0.559
REMARK UNBOUND:                -0.546
REMARK SMILES CCCCCCCCCCCC(=O)[O-]
REMARK SMILES IDX 7 1 8 2 9 3 10 4 11 5 12 6 13 7 14 8 6 9 5 10 4 11 3 12 2 13
REMARK SMILES IDX 1 14
REMARK H PARENT
REMARK Flexibility Score: inf
ROOT
ATOM      1  C   UNL     1       7.646   4.105   0.790  1.00  0.00     0.000 C 
ENDROOT
BRANCH   1   2
ATOM      2  C   UNL     1       7.449   2.986  -0.248  1.00  0.00     0.000 C 
BRANCH   2   3
ATOM      3  C   UNL     1       6.206   2.121   0.033  1.00  0.00     0.000 C 
BRANCH   3   4
ATOM      4  C   UNL     1       6.146   0.788  -0.740  1.00  0.00     0.006 C 
BRANCH   4   5
ATOM      5  C   UNL     1       7.323   0.551  -1.700  1.00  0.00     0.053 C 
BRANCH   5   6
ATOM      6  C   UNL     1       6.889   0.575  -3.134  1.00  0.00     0.041 C 
ATOM      7  O   UNL     1       6.155   1.506  -3.558  1.00  0.00    -0.550 OA
ATOM      8  O   UNL     1       7.268  -0.448  -3.994  1.00  0.00    -0.550 OA
ENDBRANCH   5   6
ENDBRANCH   4   5
ENDBRANCH   3   4
ENDBRANCH   2   3
ENDBRANCH   1   2
BRANCH   1   9
ATOM      9  C   UNL     1       6.900   5.396   0.413  1.00  0.00     0.000 C 
BRANCH   9  10
ATOM     10  C   UNL     1       7.686   6.666   0.787  1.00  0.00    -0.000 C 
BRANCH  10  11
ATOM     11  C   UNL     1       8.748   6.405   1.867  1.00  0.00    -0.000 C 
BRANCH  11  12
ATOM     12  C   UNL     1       8.665   7.403   3.031  1.00  0.00    -0.000 C 
BRANCH  12  13
ATOM     13  C   UNL     1       8.070   8.737   2.568  1.00  0.00    -0.003 C 
ATOM     14  C   UNL     1       6.991   9.224   3.531  1.00  0.00     0.004 C 
ENDBRANCH  12  13
ENDBRANCH  11  12
ENDBRANCH  10  11
ENDBRANCH   9  10
ENDBRANCH   1   9
TORSDOF 10
ENDMDL
MODEL 3
REMARK VINA RESULT:    -4.511      5.644      8.738
REMARK INTER + INTRA:          -7.694
REMARK INTER:                  -7.215
REMARK INTRA:                  -0.478
REMARK UNBOUND:                -0.546
REMARK SMILES CCCCCCCCCCCC(=O)[O-]
REMARK SMILES IDX 7 1 8 2 9 3 10 4 11 5 12 6 13 7 14 8 6 9 5 10 4 11 3 12 2 13
REMARK SMILES IDX 1 14
REMARK H PARENT
REMARK Flexibility Score: inf
ROOT
ATOM      1  C   UNL     1       7.285   6.230   0.382  1.00  0.00     0.000 C 
ENDROOT
BRANCH   1   2
ATOM      2  C   UNL     1       7.981   7.577   0.646  1.00  0.00     0.000 C 
BRANCH   2   3
ATOM      3  C   UNL     1       8.268   7.821   2.140  1.00  0.00     0.000 C 
BRANCH   3   4
ATOM      4  C   UNL     1       7.655   9.110   2.724  1.00  0.00     0.006 C 
BRANCH   4   5
ATOM      5  C   UNL     1       7.479   9.101   4.251  1.00  0.00     0.053 C 
BRANCH   5   6
ATOM      6  C   UNL     1       6.051   9.308   4.651  1.00  0.00     0.041 C 
ATOM      7  O   UNL     1       5.737   9.362   5.869  1.00  0.00    -0.550 OA
ATOM      8  O   UNL     1       5.063   9.410   3.680  1.00  0.00    -0.550 OA
ENDBRANCH   5   6
ENDBRANCH   4   5
ENDBRANCH   3   4
ENDBRANCH   2   3
ENDBRANCH   1   2
BRANCH   1   9
ATOM      9  C   UNL     1       7.686   5.150   1.401  1.00  0.00     0.000 C 
BRANCH   9  10
ATOM     10  C   UNL     1       8.134   3.839   0.729  1.00  0.00    -0.000 C 
BRANCH  10  11
ATOM     11  C   UNL     1       7.084   3.289  -0.249  1.00  0.00    -0.000 C 
BRANCH  11  12
ATOM     12  C   UNL     1       6.141   2.270   0.407  1.00  0.00    -0.000 C 
BRANCH  12  13
ATOM     13  C   UNL     1       6.119   0.957  -0.382  1.00  0.00    -0.003 C 
ATOM     14  C   UNL     1       6.426   1.194  -1.858  1.00  0.00     0.004 C 
ENDBRANCH  12  13
ENDBRANCH  11  12
ENDBRANCH  10  11
ENDBRANCH   9  10
ENDBRANCH   1   9
TORSDOF 10
ENDMDL
MODEL 4
REMARK VINA RESULT:    -4.104     12.449     14.310
REMARK INTER + INTRA:          -7.050
REMARK INTER:                  -6.451
REMARK INTRA:                  -0.599
REMARK UNBOUND:                -0.546
REMARK SMILES CCCCCCCCCCCC(=O)[O-]
REMARK SMILES IDX 7 1 8 2 9 3 10 4 11 5 12 6 13 7 14 8 6 9 5 10 4 11 3 12 2 13
REMARK SMILES IDX 1 14
REMARK H PARENT
REMARK Flexibility Score: inf
ROOT
ATOM      1  C   UNL     1       1.665   6.026  11.263  1.00  0.00     0.000 C 
ENDROOT
BRANCH   1   2
ATOM      2  C   UNL     1       1.220   7.313  10.546  1.00  0.00     0.000 C 
BRANCH   2   3
ATOM      3  C   UNL     1       1.337   7.217   9.014  1.00  0.00     0.000 C 
BRANCH   3   4
ATOM      4  C   UNL     1       1.340   8.568   8.270  1.00  0.00     0.006 C 
BRANCH   4   5
ATOM      5  C   UNL     1       2.458   9.532   8.698  1.00  0.00     0.053 C 
BRANCH   5   6
ATOM      6  C   UNL     1       3.813   9.031   8.301  1.00  0.00     0.041 C 
ATOM      7  O   UNL     1       4.276   9.295   7.161  1.00  0.00    -0.550 OA
ATOM      8  O   UNL     1       4.549   8.245   9.178  1.00  0.00    -0.550 OA
ENDBRANCH   5   6
ENDBRANCH   4   5
ENDBRANCH   3   4
ENDBRANCH   2   3
ENDBRANCH   1   2
BRANCH   1   9
ATOM      9  C   UNL     1       1.444   4.769  10.406  1.00  0.00     0.000 C 
BRANCH   9  10
ATOM     10  C   UNL     1       2.710   3.901  10.289  1.00  0.00    -0.000 C 
BRANCH  10  11
ATOM     11  C   UNL     1       2.415   2.403  10.465  1.00  0.00    -0.000 C 
BRANCH  11  12
ATOM     12  C   UNL     1       0.948   2.127  10.822  1.00  0.00    -0.000 C 
BRANCH  12  13
ATOM     13  C   UNL     1       0.805   1.744  12.300  1.00  0.00    -0.003 C 
ATOM     14  C   UNL     1      -0.660   1.715  12.723  1.00  0.00     0.004 C 
ENDBRANCH  12  13
ENDBRANCH  11  12
ENDBRANCH  10  11
ENDBRANCH   9  10
ENDBRANCH   1   9
TORSDOF 10
ENDMDL
MODEL 5
REMARK VINA RESULT:    -4.057     12.954     14.727
REMARK INTER + INTRA:          -6.974
REMARK INTER:                  -6.357
REMARK INTRA:                  -0.618
REMARK UNBOUND:                -0.546
REMARK SMILES CCCCCCCCCCCC(=O)[O-]
REMARK SMILES IDX 7 1 8 2 9 3 10 4 11 5 12 6 13 7 14 8 6 9 5 10 4 11 3 12 2 13
REMARK SMILES IDX 1 14
REMARK H PARENT
REMARK Flexibility Score: inf
ROOT
ATOM      1  C   UNL     1       1.248   6.202   9.796  1.00  0.00     0.000 C 
ENDROOT
BRANCH   1   2
ATOM      2  C   UNL     1       1.140   7.096  11.044  1.00  0.00     0.000 C 
BRANCH   2   3
ATOM      3  C   UNL     1       0.323   8.377  10.794  1.00  0.00     0.000 C 
BRANCH   3   4
ATOM      4  C   UNL     1       0.618   9.094   9.462  1.00  0.00     0.006 C 
BRANCH   4   5
ATOM      5  C   UNL     1       1.886   9.962   9.468  1.00  0.00     0.053 C 
BRANCH   5   6
ATOM      6  C   UNL     1       2.723   9.741   8.246  1.00  0.00     0.041 C 
ATOM      7  O   UNL     1       3.085  10.718   7.541  1.00  0.00    -0.550 OA
ATOM      8  O   UNL     1       3.075   8.451   7.867  1.00  0.00    -0.550 OA
ENDBRANCH   5   6
ENDBRANCH   4   5
ENDBRANCH   3   4
ENDBRANCH   2   3
ENDBRANCH   1   2
BRANCH   1   9
ATOM      9  C   UNL     1       1.589   4.743  10.144  1.00  0.00     0.000 C 
BRANCH   9  10
ATOM     10  C   UNL     1       1.823   4.532  11.651  1.00  0.00    -0.000 C 
BRANCH  10  11
ATOM     11  C   UNL     1       1.159   3.249  12.177  1.00  0.00    -0.000 C 
BRANCH  11  12
ATOM     12  C   UNL     1       1.058   2.155  11.105  1.00  0.00    -0.000 C 
BRANCH  12  13
ATOM     13  C   UNL     1       2.391   1.414  10.950  1.00  0.00    -0.003 C 
ATOM     14  C   UNL     1       2.963   1.017  12.308  1.00  0.00     0.004 C 
ENDBRANCH  12  13
ENDBRANCH  11  12
ENDBRANCH  10  11
ENDBRANCH   9  10
ENDBRANCH   1   9
TORSDOF 10
ENDMDL
MODEL 6
REMARK VINA RESULT:    -4.001     12.729     14.206
REMARK INTER + INTRA:          -6.887
REMARK INTER:                  -5.963
REMARK INTRA:                  -0.923
REMARK UNBOUND:                -0.546
REMARK SMILES CCCCCCCCCCCC(=O)[O-]
REMARK SMILES IDX 7 1 8 2 9 3 10 4 11 5 12 6 13 7 14 8 6 9 5 10 4 11 3 12 2 13
REMARK SMILES IDX 1 14
REMARK H PARENT
REMARK Flexibility Score: inf
ROOT
ATOM      1  C   UNL     1       2.201   7.045   8.966  1.00  0.00     0.000 C 
ENDROOT
BRANCH   1   2
ATOM      2  C   UNL     1       1.251   6.162   9.795  1.00  0.00     0.000 C 
BRANCH   2   3
ATOM      3  C   UNL     1       1.616   6.129  11.290  1.00  0.00     0.000 C 
BRANCH   3   4
ATOM      4  C   UNL     1       2.216   4.800  11.791  1.00  0.00     0.006 C 
BRANCH   4   5
ATOM      5  C   UNL     1       1.447   3.544  11.350  1.00  0.00     0.053 C 
BRANCH   5   6
ATOM      6  C   UNL     1       2.280   2.653  10.481  1.00  0.00     0.041 C 
ATOM      7  O   UNL     1       2.289   1.409  10.674  1.00  0.00    -0.550 OA
ATOM      8  O   UNL     1       3.072   3.200   9.480  1.00  0.00    -0.550 OA
ENDBRANCH   5   6
ENDBRANCH   4   5
ENDBRANCH   3   4
ENDBRANCH   2   3
ENDBRANCH   1   2
BRANCH   1   9
ATOM      9  C   UNL     1       1.471   8.211   8.279  1.00  0.00     0.000 C 
BRANCH   9  10
ATOM     10  C   UNL     1       2.085   9.580   8.621  1.00  0.00    -0.000 C 
BRANCH  10  11
ATOM     11  C   UNL     1       1.490  10.190   9.900  1.00  0.00    -0.000 C 
BRANCH  11  12
ATOM     12  C   UNL     1       0.013   9.820  10.099  1.00  0.00    -0.000 C 
BRANCH  12  13
ATOM     13  C   UNL     1      -0.214   9.196  11.481  1.00  0.00    -0.003 C 
ATOM     14  C   UNL     1      -1.574   9.593  12.048  1.00  0.00     0.004 C 
ENDBRANCH  12  13
ENDBRANCH  11  12
ENDBRANCH  10  11
ENDBRANCH   9  10
ENDBRANCH   1   9
TORSDOF 10
ENDMDL
MODEL 7
REMARK VINA RESULT:    -3.977      4.389      7.300
REMARK INTER + INTRA:          -6.848
REMARK INTER:                  -6.206
REMARK INTRA:                  -0.642
REMARK UNBOUND:                -0.546
REMARK SMILES CCCCCCCCCCCC(=O)[O-]
REMARK SMILES IDX 7 1 8 2 9 3 10 4 11 5 12 6 13 7 14 8 6 9 5 10 4 11 3 12 2 13
REMARK SMILES IDX 1 14
REMARK H PARENT
REMARK Flexibility Score: inf
ROOT
ATOM      1  C   UNL     1       6.579   3.365   0.131  1.00  0.00     0.000 C 
ENDROOT
BRANCH   1   2
ATOM      2  C   UNL     1       8.074   3.446   0.485  1.00  0.00     0.000 C 
BRANCH   2   3
ATOM      3  C   UNL     1       8.579   4.894   0.626  1.00  0.00     0.000 C 
BRANCH   3   4
ATOM      4  C   UNL     1       7.476   5.971   0.687  1.00  0.00     0.006 C 
BRANCH   4   5
ATOM      5  C   UNL     1       7.971   7.408   0.461  1.00  0.00     0.053 C 
BRANCH   5   6
ATOM      6  C   UNL     1       8.015   8.192   1.737  1.00  0.00     0.041 C 
ATOM      7  O   UNL     1       7.042   8.160   2.533  1.00  0.00    -0.550 OA
ATOM      8  O   UNL     1       9.118   8.984   2.029  1.00  0.00    -0.550 OA
ENDBRANCH   5   6
ENDBRANCH   4   5
ENDBRANCH   3   4
ENDBRANCH   2   3
ENDBRANCH   1   2
BRANCH   1   9
ATOM      9  C   UNL     1       6.000   1.956   0.341  1.00  0.00     0.000 C 
BRANCH   9  10
ATOM     10  C   UNL     1       6.621   0.912  -0.605  1.00  0.00    -0.000 C 
BRANCH  10  11
ATOM     11  C   UNL     1       6.442   1.279  -2.087  1.00  0.00    -0.000 C 
BRANCH  11  12
ATOM     12  C   UNL     1       7.704   1.010  -2.919  1.00  0.00    -0.000 C 
BRANCH  12  13
ATOM     13  C   UNL     1       8.613  -0.009  -2.223  1.00  0.00    -0.003 C 
ATOM     14  C   UNL     1       9.121  -1.058  -3.208  1.00  0.00     0.004 C 
ENDBRANCH  12  13
ENDBRANCH  11  12
ENDBRANCH  10  11
ENDBRANCH   9  10
ENDBRANCH   1   9
TORSDOF 10
ENDMDL
MODEL 8
REMARK VINA RESULT:    -3.947     20.824     22.642
REMARK INTER + INTRA:          -6.800
REMARK INTER:                  -5.998
REMARK INTRA:                  -0.802
REMARK UNBOUND:                -0.546
REMARK SMILES CCCCCCCCCCCC(=O)[O-]
REMARK SMILES IDX 7 1 8 2 9 3 10 4 11 5 12 6 13 7 14 8 6 9 5 10 4 11 3 12 2 13
REMARK SMILES IDX 1 14
REMARK H PARENT
REMARK Flexibility Score: inf
ROOT
ATOM      1  C   UNL     1      -9.431  -6.476   7.651  1.00  0.00     0.000 C 
ENDROOT
BRANCH   1   2
ATOM      2  C   UNL     1     -10.439  -5.366   7.309  1.00  0.00     0.000 C 
BRANCH   2   3
ATOM      3  C   UNL     1     -11.125  -4.774   8.554  1.00  0.00     0.000 C 
BRANCH   3   4
ATOM      4  C   UNL     1     -10.671  -5.373   9.900  1.00  0.00     0.006 C 
BRANCH   4   5
ATOM      5  C   UNL     1     -10.980  -4.500  11.127  1.00  0.00     0.053 C 
BRANCH   5   6
ATOM      6  C   UNL     1      -9.791  -4.359  12.028  1.00  0.00     0.041 C 
ATOM      7  O   UNL     1      -9.480  -5.291  12.814  1.00  0.00    -0.550 OA
ATOM      8  O   UNL     1      -9.048  -3.185  12.023  1.00  0.00    -0.550 OA
ENDBRANCH   5   6
ENDBRANCH   4   5
ENDBRANCH   3   4
ENDBRANCH   2   3
ENDBRANCH   1   2
BRANCH   1   9
ATOM      9  C   UNL     1     -10.007  -7.884   7.428  1.00  0.00     0.000 C 
BRANCH   9  10
ATOM     10  C   UNL     1     -10.048  -8.279   5.941  1.00  0.00    -0.000 C 
BRANCH  10  11
ATOM     11  C   UNL     1      -8.755  -7.911   5.197  1.00  0.00    -0.000 C 
BRANCH  11  12
ATOM     12  C   UNL     1      -8.979  -6.846   4.113  1.00  0.00    -0.000 C 
BRANCH  12  13
ATOM     13  C   UNL     1     -10.471  -6.695   3.793  1.00  0.00    -0.003 C 
ATOM     14  C   UNL     1     -10.886  -5.227   3.776  1.00  0.00     0.004 C 
ENDBRANCH  12  13
ENDBRANCH  11  12
ENDBRANCH  10  11
ENDBRANCH   9  10
ENDBRANCH   1   9
TORSDOF 10
ENDMDL
MODEL 9
REMARK VINA RESULT:    -3.917     13.989     16.620
REMARK INTER + INTRA:          -6.754
REMARK INTER:                  -6.338
REMARK INTRA:                  -0.416
REMARK UNBOUND:                -0.546
REMARK SMILES CCCCCCCCCCCC(=O)[O-]
REMARK SMILES IDX 7 1 8 2 9 3 10 4 11 5 12 6 13 7 14 8 6 9 5 10 4 11 3 12 2 13
REMARK SMILES IDX 1 14
REMARK H PARENT
REMARK Flexibility Score: inf
ROOT
ATOM      1  C   UNL     1      -3.455  -6.992  -5.348  1.00  0.00     0.000 C 
ENDROOT
BRANCH   1   2
ATOM      2  C   UNL     1      -3.930  -6.029  -6.449  1.00  0.00     0.000 C 
BRANCH   2   3
ATOM      3  C   UNL     1      -5.304  -6.412  -7.029  1.00  0.00     0.000 C 
BRANCH   3   4
ATOM      4  C   UNL     1      -6.499  -5.618  -6.465  1.00  0.00     0.006 C 
BRANCH   4   5
ATOM      5  C   UNL     1      -7.853  -6.338  -6.569  1.00  0.00     0.053 C 
BRANCH   5   6
ATOM      6  C   UNL     1      -8.676  -6.167  -5.329  1.00  0.00     0.041 C 
ATOM      7  O   UNL     1      -9.883  -5.821  -5.413  1.00  0.00    -0.550 OA
ATOM      8  O   UNL     1      -8.100  -6.358  -4.079  1.00  0.00    -0.550 OA
ENDBRANCH   5   6
ENDBRANCH   4   5
ENDBRANCH   3   4
ENDBRANCH   2   3
ENDBRANCH   1   2
BRANCH   1   9
ATOM      9  C   UNL     1      -2.057  -7.566  -5.629  1.00  0.00     0.000 C 
BRANCH   9  10
ATOM     10  C   UNL     1      -1.021  -6.473  -5.953  1.00  0.00    -0.000 C 
BRANCH  10  11
ATOM     11  C   UNL     1       0.142  -6.998  -6.809  1.00  0.00    -0.000 C 
BRANCH  11  12
ATOM     12  C   UNL     1       0.621  -8.387  -6.365  1.00  0.00    -0.000 C 
BRANCH  12  13
ATOM     13  C   UNL     1       2.110  -8.579  -6.677  1.00  0.00    -0.003 C 
ATOM     14  C   UNL     1       2.833  -7.239  -6.761  1.00  0.00     0.004 C 
ENDBRANCH  12  13
ENDBRANCH  11  12
ENDBRANCH  10  11
ENDBRANCH   9  10
ENDBRANCH   1   9
TORSDOF 10
ENDMDL
