MODEL 1
REMARK VINA RESULT:    -4.502      0.000      0.000
REMARK INTER + INTRA:          -8.112
REMARK INTER:                  -7.134
REMARK INTRA:                  -0.978
REMARK UNBOUND:                -0.978
REMARK SMILES CCCCCCCCCCCC(=O)[O-]
REMARK SMILES IDX 7 1 8 2 9 3 10 4 11 5 12 6 13 7 14 8 6 9 5 10 4 11 3 12 2 13
REMARK SMILES IDX 1 14
REMARK H PARENT
REMARK Flexibility Score: inf
ROOT
ATOM      1  C   UNL     1       1.198 -22.158  -7.646  1.00  0.00     0.000 C 
ENDROOT
BRANCH   1   2
ATOM      2  C   UNL     1       1.570 -20.870  -8.392  1.00  0.00     0.000 C 
BRANCH   2   3
ATOM      3  C   UNL     1       2.893 -20.294  -7.873  1.00  0.00     0.000 C 
BRANCH   3   4
ATOM      4  C   UNL     1       3.700 -21.363  -7.121  1.00  0.00     0.006 C 
BRANCH   4   5
ATOM      5  C   UNL     1       3.985 -20.958  -5.668  1.00  0.00     0.053 C 
BRANCH   5   6
ATOM      6  C   UNL     1       5.361 -21.360  -5.237  1.00  0.00     0.041 C 
ATOM      7  O   UNL     1       5.669 -21.358  -4.016  1.00  0.00    -0.550 OA
ATOM      8  O   UNL     1       6.315 -21.706  -6.186  1.00  0.00    -0.550 OA
ENDBRANCH   5   6
ENDBRANCH   4   5
ENDBRANCH   3   4
ENDBRANCH   2   3
ENDBRANCH   1   2
BRANCH   1   9
ATOM      9  C   UNL     1      -0.024 -21.937  -6.742  1.00  0.00     0.000 C 
BRANCH   9  10
ATOM     10  C   UNL     1       0.363 -21.740  -5.268  1.00  0.00    -0.000 C 
BRANCH  10  11
ATOM     11  C   UNL     1       0.641 -20.267  -4.921  1.00  0.00    -0.000 C 
BRANCH  11  12
ATOM     12  C   UNL     1       0.149 -19.900  -3.506  1.00  0.00    -0.000 C 
BRANCH  12  13
ATOM     13  C   UNL     1       0.863 -20.675  -2.385  1.00  0.00    -0.003 C 
ATOM     14  C   UNL     1       2.344 -20.322  -2.263  1.00  0.00     0.004 C 
ENDBRANCH  12  13
ENDBRANCH  11  12
ENDBRANCH  10  11
ENDBRANCH   9  10
ENDBRANCH   1   9
TORSDOF 10
ENDMDL
MODEL 2
REMARK VINA RESULT:    -4.428      1.955      4.197
REMARK INTER + INTRA:          -7.995
REMARK INTER:                  -6.682
REMARK INTRA:                  -1.313
REMARK UNBOUND:                -0.978
REMARK SMILES CCCCCCCCCCCC(=O)[O-]
REMARK SMILES IDX 7 1 8 2 9 3 10 4 11 5 12 6 13 7 14 8 6 9 5 10 4 11 3 12 2 13
REMARK SMILES IDX 1 14
REMARK H PARENT
REMARK Flexibility Score: inf
ROOT
ATOM      1  C   UNL     1       0.056 -21.922  -6.724  1.00  0.00     0.000 C 
ENDROOT
BRANCH   1   2
ATOM      2  C   UNL     1       0.619 -21.772  -5.305  1.00  0.00     0.000 C 
BRANCH   2   3
ATOM      3  C   UNL     1       0.610 -20.305  -4.860  1.00  0.00     0.000 C 
BRANCH   3   4
ATOM      4  C   UNL     1       0.382 -20.191  -3.345  1.00  0.00     0.006 C 
BRANCH   4   5
ATOM      5  C   UNL     1       1.699 -20.196  -2.558  1.00  0.00     0.053 C 
BRANCH   5   6
ATOM      6  C   UNL     1       2.330 -18.838  -2.519  1.00  0.00     0.041 C 
ATOM      7  O   UNL     1       3.530 -18.707  -2.158  1.00  0.00    -0.550 OA
ATOM      8  O   UNL     1       1.583 -17.713  -2.848  1.00  0.00    -0.550 OA
ENDBRANCH   5   6
ENDBRANCH   4   5
ENDBRANCH   3   4
ENDBRANCH   2   3
ENDBRANCH   1   2
BRANCH   1   9
ATOM      9  C   UNL     1       1.187 -22.090  -7.749  1.00  0.00     0.000 C 
BRANCH   9  10
ATOM     10  C   UNL     1       1.746 -20.743  -8.234  1.00  0.00    -0.000 C 
BRANCH  10  11
ATOM     11  C   UNL     1       3.230 -20.555  -7.871  1.00  0.00    -0.000 C 
BRANCH  11  12
ATOM     12  C   UNL     1       3.445 -19.378  -6.896  1.00  0.00    -0.000 C 
BRANCH  12  13
ATOM     13  C   UNL     1       4.201 -19.771  -5.615  1.00  0.00    -0.003 C 
ATOM     14  C   UNL     1       4.280 -21.282  -5.407  1.00  0.00     0.004 C 
ENDBRANCH  12  13
ENDBRANCH  11  12
ENDBRANCH  10  11
ENDBRANCH   9  10
ENDBRANCH   1   9
TORSDOF 10
ENDMDL
MODEL 3
REMARK VINA RESULT:    -4.424      2.181      4.294
REMARK INTER + INTRA:          -7.989
REMARK INTER:                  -6.826
REMARK INTRA:                  -1.163
REMARK UNBOUND:                -0.978
REMARK SMILES CCCCCCCCCCCC(=O)[O-]
REMARK SMILES IDX 7 1 8 2 9 3 10 4 11 5 12 6 13 7 14 8 6 9 5 10 4 11 3 12 2 13
REMARK SMILES IDX 1 14
REMARK H PARENT
REMARK Flexibility Score: inf
ROOT
ATOM      1  C   UNL     1       0.905 -22.424  -7.700  1.00  0.00     0.000 C 
ENDROOT
BRANCH   1   2
ATOM      2  C   UNL     1       0.444 -22.621  -6.251  1.00  0.00     0.000 C 
BRANCH   2   3
ATOM      3  C   UNL     1      -0.018 -21.295  -5.635  1.00  0.00     0.000 C 
BRANCH   3   4
ATOM      4  C   UNL     1       0.474 -21.160  -4.186  1.00  0.00     0.006 C 
BRANCH   4   5
ATOM      5  C   UNL     1       1.047 -19.766  -3.895  1.00  0.00     0.053 C 
BRANCH   5   6
ATOM      6  C   UNL     1       1.824 -19.740  -2.616  1.00  0.00     0.041 C 
ATOM      7  O   UNL     1       1.732 -20.694  -1.799  1.00  0.00    -0.550 OA
ATOM      8  O   UNL     1       2.624 -18.646  -2.308  1.00  0.00    -0.550 OA
ENDBRANCH   5   6
ENDBRANCH   4   5
ENDBRANCH   3   4
ENDBRANCH   2   3
ENDBRANCH   1   2
BRANCH   1   9
ATOM      9  C   UNL     1       1.238 -20.950  -7.977  1.00  0.00     0.000 C 
BRANCH   9  10
ATOM     10  C   UNL     1       2.745 -20.709  -8.149  1.00  0.00    -0.000 C 
BRANCH  10  11
ATOM     11  C   UNL     1       3.397 -20.115  -6.887  1.00  0.00    -0.000 C 
BRANCH  11  12
ATOM     12  C   UNL     1       3.830 -21.208  -5.887  1.00  0.00    -0.000 C 
BRANCH  12  13
ATOM     13  C   UNL     1       5.356 -21.329  -5.731  1.00  0.00    -0.003 C 
ATOM     14  C   UNL     1       6.024 -22.027  -6.914  1.00  0.00     0.004 C 
ENDBRANCH  12  13
ENDBRANCH  11  12
ENDBRANCH  10  11
ENDBRANCH   9  10
ENDBRANCH   1   9
TORSDOF 10
ENDMDL
MODEL 4
REMARK VINA RESULT:    -4.356      2.306      4.488
REMARK INTER + INTRA:          -7.881
REMARK INTER:                  -6.816
REMARK INTRA:                  -1.065
REMARK UNBOUND:                -0.978
REMARK SMILES CCCCCCCCCCCC(=O)[O-]
REMARK SMILES IDX 7 1 8 2 9 3 10 4 11 5 12 6 13 7 14 8 6 9 5 10 4 11 3 12 2 13
REMARK SMILES IDX 1 14
REMARK H PARENT
REMARK Flexibility Score: inf
ROOT
ATOM      1  C   UNL     1       2.043 -20.724  -8.252  1.00  0.00     0.000 C 
ENDROOT
BRANCH   1   2
ATOM      2  C   UNL     1       0.990 -21.615  -7.581  1.00  0.00     0.000 C 
BRANCH   2   3
ATOM      3  C   UNL     1       1.352 -21.892  -6.118  1.00  0.00     0.000 C 
BRANCH   3   4
ATOM      4  C   UNL     1       0.312 -21.280  -5.168  1.00  0.00     0.006 C 
BRANCH   4   5
ATOM      5  C   UNL     1       0.810 -19.979  -4.523  1.00  0.00     0.053 C 
BRANCH   5   6
ATOM      6  C   UNL     1       0.968 -20.117  -3.040  1.00  0.00     0.041 C 
ATOM      7  O   UNL     1       1.745 -19.351  -2.412  1.00  0.00    -0.550 OA
ATOM      8  O   UNL     1       0.282 -21.114  -2.357  1.00  0.00    -0.550 OA
ENDBRANCH   5   6
ENDBRANCH   4   5
ENDBRANCH   3   4
ENDBRANCH   2   3
ENDBRANCH   1   2
BRANCH   1   9
ATOM      9  C   UNL     1       3.050 -20.192  -7.221  1.00  0.00     0.000 C 
BRANCH   9  10
ATOM     10  C   UNL     1       4.397 -19.814  -7.855  1.00  0.00    -0.000 C 
BRANCH  10  11
ATOM     11  C   UNL     1       5.567 -20.647  -7.300  1.00  0.00    -0.000 C 
BRANCH  11  12
ATOM     12  C   UNL     1       5.102 -21.668  -6.240  1.00  0.00    -0.000 C 
BRANCH  12  13
ATOM     13  C   UNL     1       5.682 -21.407  -4.839  1.00  0.00    -0.003 C 
ATOM     14  C   UNL     1       4.656 -20.830  -3.866  1.00  0.00     0.004 C 
ENDBRANCH  12  13
ENDBRANCH  11  12
ENDBRANCH  10  11
ENDBRANCH   9  10
ENDBRANCH   1   9
TORSDOF 10
ENDMDL
MODEL 5
REMARK VINA RESULT:    -4.339      2.510      5.208
REMARK INTER + INTRA:          -7.853
REMARK INTER:                  -6.679
REMARK INTRA:                  -1.174
REMARK UNBOUND:                -0.978
REMARK SMILES CCCCCCCCCCCC(=O)[O-]
REMARK SMILES IDX 7 1 8 2 9 3 10 4 11 5 12 6 13 7 14 8 6 9 5 10 4 11 3 12 2 13
REMARK SMILES IDX 1 14
REMARK H PARENT
REMARK Flexibility Score: inf
ROOT
ATOM      1  C   UNL     1       5.117 -20.940  -4.364  1.00  0.00     0.000 C 
ENDROOT
BRANCH   1   2
ATOM      2  C   UNL     1       4.197 -20.399  -3.262  1.00  0.00     0.000 C 
BRANCH   2   3
ATOM      3  C   UNL     1       3.650 -19.015  -3.630  1.00  0.00     0.000 C 
BRANCH   3   4
ATOM      4  C   UNL     1       2.263 -18.789  -3.009  1.00  0.00     0.006 C 
BRANCH   4   5
ATOM      5  C   UNL     1       1.128 -19.111  -3.990  1.00  0.00     0.053 C 
BRANCH   5   6
ATOM      6  C   UNL     1       0.531 -20.459  -3.728  1.00  0.00     0.041 C 
ATOM      7  O   UNL     1       0.147 -21.179  -4.688  1.00  0.00    -0.550 OA
ATOM      8  O   UNL     1       0.366 -20.906  -2.423  1.00  0.00    -0.550 OA
ENDBRANCH   5   6
ENDBRANCH   4   5
ENDBRANCH   3   4
ENDBRANCH   2   3
ENDBRANCH   1   2
BRANCH   1   9
ATOM      9  C   UNL     1       4.303 -21.611  -5.480  1.00  0.00     0.000 C 
BRANCH   9  10
ATOM     10  C   UNL     1       4.750 -21.170  -6.882  1.00  0.00    -0.000 C 
BRANCH  10  11
ATOM     11  C   UNL     1       4.026 -19.899  -7.361  1.00  0.00    -0.000 C 
BRANCH  11  12
ATOM     12  C   UNL     1       2.493 -20.020  -7.234  1.00  0.00    -0.000 C 
BRANCH  12  13
ATOM     13  C   UNL     1       1.851 -20.888  -8.330  1.00  0.00    -0.003 C 
ATOM     14  C   UNL     1       1.088 -22.088  -7.772  1.00  0.00     0.004 C 
ENDBRANCH  12  13
ENDBRANCH  11  12
ENDBRANCH  10  11
ENDBRANCH   9  10
ENDBRANCH   1   9
TORSDOF 10
ENDMDL
MODEL 6
REMARK VINA RESULT:    -4.318      1.299      1.991
REMARK INTER + INTRA:          -7.821
REMARK INTER:                  -6.669
REMARK INTRA:                  -1.152
REMARK UNBOUND:                -0.978
REMARK SMILES CCCCCCCCCCCC(=O)[O-]
REMARK SMILES IDX 7 1 8 2 9 3 10 4 11 5 12 6 13 7 14 8 6 9 5 10 4 11 3 12 2 13
REMARK SMILES IDX 1 14
REMARK H PARENT
REMARK Flexibility Score: inf
ROOT
ATOM      1  C   UNL     1       1.046 -22.142  -6.303  1.00  0.00     0.000 C 
ENDROOT
BRANCH   1   2
ATOM      2  C   UNL     1       0.835 -21.580  -7.715  1.00  0.00     0.000 C 
BRANCH   2   3
ATOM      3  C   UNL     1       2.047 -20.759  -8.168  1.00  0.00     0.000 C 
BRANCH   3   4
ATOM      4  C   UNL     1       3.288 -21.099  -7.329  1.00  0.00     0.006 C 
BRANCH   4   5
ATOM      5  C   UNL     1       4.381 -20.029  -7.449  1.00  0.00     0.053 C 
BRANCH   5   6
ATOM      6  C   UNL     1       5.719 -20.550  -7.022  1.00  0.00     0.041 C 
ATOM      7  O   UNL     1       6.618 -19.753  -6.645  1.00  0.00    -0.550 OA
ATOM      8  O   UNL     1       5.985 -21.913  -7.074  1.00  0.00    -0.550 OA
ENDBRANCH   5   6
ENDBRANCH   4   5
ENDBRANCH   3   4
ENDBRANCH   2   3
ENDBRANCH   1   2
BRANCH   1   9
ATOM      9  C   UNL     1       0.144 -21.426  -5.286  1.00  0.00     0.000 C 
BRANCH   9  10
ATOM     10  C   UNL     1       0.837 -20.223  -4.629  1.00  0.00    -0.000 C 
BRANCH  10  11
ATOM     11  C   UNL     1       1.005 -20.393  -3.109  1.00  0.00    -0.000 C 
BRANCH  11  12
ATOM     12  C   UNL     1       2.438 -20.064  -2.642  1.00  0.00    -0.000 C 
BRANCH  12  13
ATOM     13  C   UNL     1       3.467 -20.034  -3.785  1.00  0.00    -0.003 C 
ATOM     14  C   UNL     1       4.786 -20.713  -3.421  1.00  0.00     0.004 C 
ENDBRANCH  12  13
ENDBRANCH  11  12
ENDBRANCH  10  11
ENDBRANCH   9  10
ENDBRANCH   1   9
TORSDOF 10
ENDMDL
MODEL 7
REMARK VINA RESULT:    -4.263     11.192     12.926
REMARK INTER + INTRA:          -7.734
REMARK INTER:                  -6.416
REMARK INTRA:                  -1.318
REMARK UNBOUND:                -0.978
REMARK SMILES CCCCCCCCCCCC(=O)[O-]
REMARK SMILES IDX 7 1 8 2 9 3 10 4 11 5 12 6 13 7 14 8 6 9 5 10 4 11 3 12 2 13
REMARK SMILES IDX 1 14
REMARK H PARENT
REMARK Flexibility Score: inf
ROOT
ATOM      1  C   UNL     1      -5.199 -28.304  -3.649  1.00  0.00     0.000 C 
ENDROOT
BRANCH   1   2
ATOM      2  C   UNL     1      -5.437 -26.932  -3.005  1.00  0.00     0.000 C 
BRANCH   2   3
ATOM      3  C   UNL     1      -5.936 -27.079  -1.563  1.00  0.00     0.000 C 
BRANCH   3   4
ATOM      4  C   UNL     1      -7.279 -26.360  -1.370  1.00  0.00     0.006 C 
BRANCH   4   5
ATOM      5  C   UNL     1      -7.524 -25.289  -2.442  1.00  0.00     0.053 C 
BRANCH   5   6
ATOM      6  C   UNL     1      -8.017 -24.007  -1.846  1.00  0.00     0.041 C 
ATOM      7  O   UNL     1      -9.191 -23.928  -1.396  1.00  0.00    -0.550 OA
ATOM      8  O   UNL     1      -7.193 -22.889  -1.818  1.00  0.00    -0.550 OA
ENDBRANCH   5   6
ENDBRANCH   4   5
ENDBRANCH   3   4
ENDBRANCH   2   3
ENDBRANCH   1   2
BRANCH   1   9
ATOM      9  C   UNL     1      -6.523 -28.930  -4.113  1.00  0.00     0.000 C 
BRANCH   9  10
ATOM     10  C   UNL     1      -6.709 -30.365  -3.595  1.00  0.00    -0.000 C 
BRANCH  10  11
ATOM     11  C   UNL     1      -7.328 -30.410  -2.187  1.00  0.00    -0.000 C 
BRANCH  11  12
ATOM     12  C   UNL     1      -8.870 -30.457  -2.231  1.00  0.00    -0.000 C 
BRANCH  12  13
ATOM     13  C   UNL     1      -9.539 -29.154  -1.761  1.00  0.00    -0.003 C 
ATOM     14  C   UNL     1     -10.032 -28.285  -2.916  1.00  0.00     0.004 C 
ENDBRANCH  12  13
ENDBRANCH  11  12
ENDBRANCH  10  11
ENDBRANCH   9  10
ENDBRANCH   1   9
TORSDOF 10
ENDMDL
MODEL 8
REMARK VINA RESULT:    -4.258      1.512      3.862
REMARK INTER + INTRA:          -7.726
REMARK INTER:                  -6.323
REMARK INTRA:                  -1.402
REMARK UNBOUND:                -0.978
REMARK SMILES CCCCCCCCCCCC(=O)[O-]
REMARK SMILES IDX 7 1 8 2 9 3 10 4 11 5 12 6 13 7 14 8 6 9 5 10 4 11 3 12 2 13
REMARK SMILES IDX 1 14
REMARK H PARENT
REMARK Flexibility Score: inf
ROOT
ATOM      1  C   UNL     1       0.114 -21.392  -5.298  1.00  0.00     0.000 C 
ENDROOT
BRANCH   1   2
ATOM      2  C   UNL     1       0.576 -20.658  -4.032  1.00  0.00     0.000 C 
BRANCH   2   3
ATOM      3  C   UNL     1       0.983 -19.214  -4.350  1.00  0.00     0.000 C 
BRANCH   3   4
ATOM      4  C   UNL     1       2.380 -18.901  -3.794  1.00  0.00     0.006 C 
BRANCH   4   5
ATOM      5  C   UNL     1       3.080 -20.152  -3.246  1.00  0.00     0.053 C 
BRANCH   5   6
ATOM      6  C   UNL     1       4.570 -20.048  -3.354  1.00  0.00     0.041 C 
ATOM      7  O   UNL     1       5.093 -19.107  -4.008  1.00  0.00    -0.550 OA
ATOM      8  O   UNL     1       5.380 -21.009  -2.762  1.00  0.00    -0.550 OA
ENDBRANCH   5   6
ENDBRANCH   4   5
ENDBRANCH   3   4
ENDBRANCH   2   3
ENDBRANCH   1   2
BRANCH   1   9
ATOM      9  C   UNL     1       1.314 -21.791  -6.171  1.00  0.00     0.000 C 
BRANCH   9  10
ATOM     10  C   UNL     1       1.079 -21.499  -7.661  1.00  0.00    -0.000 C 
BRANCH  10  11
ATOM     11  C   UNL     1       2.249 -20.735  -8.305  1.00  0.00    -0.000 C 
BRANCH  11  12
ATOM     12  C   UNL     1       3.066 -19.938  -7.266  1.00  0.00    -0.000 C 
BRANCH  12  13
ATOM     13  C   UNL     1       4.586 -20.133  -7.398  1.00  0.00    -0.003 C 
ATOM     14  C   UNL     1       5.077 -21.440  -6.780  1.00  0.00     0.004 C 
ENDBRANCH  12  13
ENDBRANCH  11  12
ENDBRANCH  10  11
ENDBRANCH   9  10
ENDBRANCH   1   9
TORSDOF 10
ENDMDL
MODEL 9
REMARK VINA RESULT:    -4.154      2.727      4.101
REMARK INTER + INTRA:          -7.561
REMARK INTER:                  -6.232
REMARK INTRA:                  -1.329
REMARK UNBOUND:                -0.978
REMARK SMILES CCCCCCCCCCCC(=O)[O-]
REMARK SMILES IDX 7 1 8 2 9 3 10 4 11 5 12 6 13 7 14 8 6 9 5 10 4 11 3 12 2 13
REMARK SMILES IDX 1 14
REMARK H PARENT
REMARK Flexibility Score: inf
ROOT
ATOM      1  C   UNL     1       5.037 -20.717  -6.527  1.00  0.00     0.000 C 
ENDROOT
BRANCH   1   2
ATOM      2  C   UNL     1       4.014 -19.807  -7.220  1.00  0.00     0.000 C 
BRANCH   2   3
ATOM      3  C   UNL     1       3.056 -20.622  -8.097  1.00  0.00     0.000 C 
BRANCH   3   4
ATOM      4  C   UNL     1       1.637 -20.621  -7.510  1.00  0.00     0.006 C 
BRANCH   4   5
ATOM      5  C   UNL     1       0.902 -21.943  -7.766  1.00  0.00     0.053 C 
BRANCH   5   6
ATOM      6  C   UNL     1       0.365 -22.537  -6.500  1.00  0.00     0.041 C 
ATOM      7  O   UNL     1       0.137 -21.802  -5.503  1.00  0.00    -0.550 OA
ATOM      8  O   UNL     1       0.149 -23.906  -6.409  1.00  0.00    -0.550 OA
ENDBRANCH   5   6
ENDBRANCH   4   5
ENDBRANCH   3   4
ENDBRANCH   2   3
ENDBRANCH   1   2
BRANCH   1   9
ATOM      9  C   UNL     1       4.429 -21.382  -5.284  1.00  0.00     0.000 C 
BRANCH   9  10
ATOM     10  C   UNL     1       5.024 -20.839  -3.975  1.00  0.00    -0.000 C 
BRANCH  10  11
ATOM     11  C   UNL     1       4.041 -19.936  -3.209  1.00  0.00    -0.000 C 
BRANCH  11  12
ATOM     12  C   UNL     1       2.573 -20.216  -3.594  1.00  0.00    -0.000 C 
BRANCH  12  13
ATOM     13  C   UNL     1       1.835 -18.982  -4.142  1.00  0.00    -0.003 C 
ATOM     14  C   UNL     1       2.763 -17.797  -4.402  1.00  0.00     0.004 C 
ENDBRANCH  12  13
ENDBRANCH  11  12
ENDBRANCH  10  11
ENDBRANCH   9  10
ENDBRANCH   1   9
TORSDOF 10
ENDMDL
