MODEL 1
REMARK VINA RESULT:    -7.517      0.000      0.000
REMARK INTER + INTRA:          -9.132
REMARK INTER:                  -8.835
REMARK INTRA:                  -0.297
REMARK UNBOUND:                -0.297
REMARK SMILES O=c1cc(-c2ccc(O)c(O)c2)oc2cc(O)cc(O)c12
REMARK SMILES IDX 4 1 3 2 2 3 1 4 21 5 19 6 18 7 16 8 15 9 14 10 13 11 5 12
REMARK SMILES IDX 6 13 7 14 8 15 12 16 10 17 9 18 11 20 20 22 17 24
REMARK H PARENT 9 19 11 21 20 23 17 25
REMARK Flexibility Score: inf
ROOT
ATOM      1  C   UNL     1     -11.725 -42.336 -10.121  1.00  0.00     0.138 A 
ATOM      2  C   UNL     1     -10.666 -41.515  -9.708  1.00  0.00     0.100 A 
ATOM      3  C   UNL     1      -9.355 -41.855 -10.047  1.00  0.00     0.197 A 
ATOM      4  O   UNL     1      -8.425 -41.128  -9.613  1.00  0.00    -0.289 OA
ATOM      5  C   UNL     1      -9.108 -43.005 -10.834  1.00  0.00     0.107 A 
ATOM      6  C   UNL     1      -7.816 -43.430 -11.269  1.00  0.00     0.134 A 
ATOM      7  C   UNL     1      -7.686 -44.641 -11.963  1.00  0.00     0.093 A 
ATOM      8  C   UNL     1      -8.806 -45.411 -12.287  1.00  0.00     0.123 A 
ATOM      9  C   UNL     1     -10.075 -44.978 -11.910  1.00  0.00     0.094 A 
ATOM     10  C   UNL     1     -10.236 -43.793 -11.188  1.00  0.00     0.146 A 
ATOM     11  O   UNL     1     -11.462 -43.428 -10.833  1.00  0.00    -0.456 OA
ENDROOT
BRANCH   1  12
ATOM     12  C   UNL     1     -13.137 -42.021  -9.792  1.00  0.00     0.021 A 
ATOM     13  C   UNL     1     -14.151 -42.921 -10.165  1.00  0.00     0.016 A 
ATOM     14  C   UNL     1     -15.487 -42.652  -9.861  1.00  0.00     0.051 A 
ATOM     15  C   UNL     1     -15.835 -41.486  -9.172  1.00  0.00     0.157 A 
ATOM     16  C   UNL     1     -13.491 -40.854  -9.085  1.00  0.00     0.062 A 
ATOM     17  C   UNL     1     -14.834 -40.584  -8.779  1.00  0.00     0.158 A 
BRANCH  15  18
ATOM     18  O   UNL     1     -17.178 -41.245  -8.885  1.00  0.00    -0.504 OA
ATOM     19  H   UNL     1     -17.919 -41.836  -9.240  1.00  0.00     0.293 HD
ENDBRANCH  15  18
BRANCH  17  20
ATOM     20  O   UNL     1     -15.174 -39.426  -8.082  1.00  0.00    -0.504 OA
ATOM     21  H   UNL     1     -16.127 -39.084  -8.053  1.00  0.00     0.293 HD
ENDBRANCH  17  20
ENDBRANCH   1  12
BRANCH   6  22
ATOM     22  O   UNL     1      -6.641 -42.700 -11.069  1.00  0.00    -0.507 OA
ATOM     23  H   UNL     1      -5.708 -43.082 -11.099  1.00  0.00     0.293 HD
ENDBRANCH   6  22
BRANCH   8  24
ATOM     24  O   UNL     1      -8.668 -46.606 -12.990  1.00  0.00    -0.508 OA
ATOM     25  H   UNL     1      -7.918 -46.744 -13.656  1.00  0.00     0.293 HD
ENDBRANCH   8  24
TORSDOF 5
ENDMDL
MODEL 2
REMARK VINA RESULT:    -7.430      4.361      7.063
REMARK INTER + INTRA:          -9.030
REMARK INTER:                  -8.736
REMARK INTRA:                  -0.294
REMARK UNBOUND:                -0.297
REMARK SMILES O=c1cc(-c2ccc(O)c(O)c2)oc2cc(O)cc(O)c12
REMARK SMILES IDX 4 1 3 2 2 3 1 4 21 5 19 6 18 7 16 8 15 9 14 10 13 11 5 12
REMARK SMILES IDX 6 13 7 14 8 15 12 16 10 17 9 18 11 20 20 22 17 24
REMARK H PARENT 9 19 11 21 20 23 17 25
REMARK Flexibility Score: inf
ROOT
ATOM      1  C   UNL     1     -12.764 -42.878  -6.476  1.00  0.00     0.138 A 
ATOM      2  C   UNL     1     -14.119 -43.233  -6.520  1.00  0.00     0.100 A 
ATOM      3  C   UNL     1     -14.932 -42.733  -7.539  1.00  0.00     0.197 A 
ATOM      4  O   UNL     1     -16.156 -43.026  -7.518  1.00  0.00    -0.289 OA
ATOM      5  C   UNL     1     -14.375 -41.902  -8.540  1.00  0.00     0.107 A 
ATOM      6  C   UNL     1     -15.099 -41.363  -9.645  1.00  0.00     0.134 A 
ATOM      7  C   UNL     1     -14.461 -40.471 -10.519  1.00  0.00     0.093 A 
ATOM      8  C   UNL     1     -13.112 -40.146 -10.359  1.00  0.00     0.123 A 
ATOM      9  C   UNL     1     -12.384 -40.707  -9.313  1.00  0.00     0.094 A 
ATOM     10  C   UNL     1     -12.999 -41.572  -8.404  1.00  0.00     0.146 A 
ATOM     11  O   UNL     1     -12.273 -42.070  -7.411  1.00  0.00    -0.456 OA
ENDROOT
BRANCH   1  12
ATOM     12  C   UNL     1     -11.854 -43.382  -5.418  1.00  0.00     0.021 A 
ATOM     13  C   UNL     1     -11.905 -44.738  -5.051  1.00  0.00     0.016 A 
ATOM     14  C   UNL     1     -11.055 -45.240  -4.063  1.00  0.00     0.051 A 
ATOM     15  C   UNL     1     -10.132 -44.401  -3.431  1.00  0.00     0.157 A 
ATOM     16  C   UNL     1     -10.913 -42.543  -4.788  1.00  0.00     0.062 A 
ATOM     17  C   UNL     1     -10.058 -43.047  -3.796  1.00  0.00     0.158 A 
BRANCH  15  18
ATOM     18  O   UNL     1      -9.298 -44.930  -2.447  1.00  0.00    -0.504 OA
ATOM     19  H   UNL     1      -9.663 -45.335  -1.594  1.00  0.00     0.293 HD
ENDBRANCH  15  18
BRANCH  17  20
ATOM     20  O   UNL     1      -9.132 -42.208  -3.178  1.00  0.00    -0.504 OA
ATOM     21  H   UNL     1      -8.894 -42.310  -2.198  1.00  0.00     0.293 HD
ENDBRANCH  17  20
ENDBRANCH   1  12
BRANCH   6  22
ATOM     22  O   UNL     1     -16.427 -41.681  -9.944  1.00  0.00    -0.507 OA
ATOM     23  H   UNL     1     -16.730 -42.518 -10.419  1.00  0.00     0.293 HD
ENDBRANCH   6  22
BRANCH   8  24
ATOM     24  O   UNL     1     -12.483 -39.270 -11.242  1.00  0.00    -0.508 OA
ATOM     25  H   UNL     1     -11.514 -39.002 -11.122  1.00  0.00     0.293 HD
ENDBRANCH   8  24
TORSDOF 5
ENDMDL
MODEL 3
REMARK VINA RESULT:    -7.341      4.232      6.862
REMARK INTER + INTRA:          -8.925
REMARK INTER:                  -8.662
REMARK INTRA:                  -0.263
REMARK UNBOUND:                -0.297
REMARK SMILES O=c1cc(-c2ccc(O)c(O)c2)oc2cc(O)cc(O)c12
REMARK SMILES IDX 4 1 3 2 2 3 1 4 21 5 19 6 18 7 16 8 15 9 14 10 13 11 5 12
REMARK SMILES IDX 6 13 7 14 8 15 12 16 10 17 9 18 11 20 20 22 17 24
REMARK H PARENT 9 19 11 21 20 23 17 25
REMARK Flexibility Score: inf
ROOT
ATOM      1  C   UNL     1     -11.862 -43.253  -6.983  1.00  0.00     0.138 A 
ATOM      2  C   UNL     1     -11.204 -43.248  -8.220  1.00  0.00     0.100 A 
ATOM      3  C   UNL     1     -11.893 -42.851  -9.368  1.00  0.00     0.197 A 
ATOM      4  O   UNL     1     -11.290 -42.911 -10.471  1.00  0.00    -0.289 OA
ATOM      5  C   UNL     1     -13.238 -42.423  -9.268  1.00  0.00     0.107 A 
ATOM      6  C   UNL     1     -14.029 -41.963 -10.365  1.00  0.00     0.134 A 
ATOM      7  C   UNL     1     -15.381 -41.658 -10.159  1.00  0.00     0.093 A 
ATOM      8  C   UNL     1     -15.954 -41.741  -8.888  1.00  0.00     0.123 A 
ATOM      9  C   UNL     1     -15.177 -42.139  -7.803  1.00  0.00     0.094 A 
ATOM     10  C   UNL     1     -13.835 -42.484  -7.980  1.00  0.00     0.146 A 
ATOM     11  O   UNL     1     -13.136 -42.877  -6.922  1.00  0.00    -0.456 OA
ENDROOT
BRANCH   1  12
ATOM     12  C   UNL     1     -11.178 -43.663  -5.732  1.00  0.00     0.021 A 
ATOM     13  C   UNL     1     -11.245 -45.003  -5.315  1.00  0.00     0.016 A 
ATOM     14  C   UNL     1     -10.604 -45.417  -4.144  1.00  0.00     0.051 A 
ATOM     15  C   UNL     1      -9.877 -44.503  -3.375  1.00  0.00     0.157 A 
ATOM     16  C   UNL     1     -10.432 -42.748  -4.961  1.00  0.00     0.062 A 
ATOM     17  C   UNL     1      -9.787 -43.164  -3.785  1.00  0.00     0.158 A 
BRANCH  15  18
ATOM     18  O   UNL     1      -9.250 -44.945  -2.211  1.00  0.00    -0.504 OA
ATOM     19  H   UNL     1      -9.702 -44.898  -1.306  1.00  0.00     0.293 HD
ENDBRANCH  15  18
BRANCH  17  20
ATOM     20  O   UNL     1      -9.055 -42.251  -3.029  1.00  0.00    -0.504 OA
ATOM     21  H   UNL     1      -8.268 -42.541  -2.461  1.00  0.00     0.293 HD
ENDBRANCH  17  20
ENDBRANCH   1  12
BRANCH   6  22
ATOM     22  O   UNL     1     -13.538 -41.769 -11.659  1.00  0.00    -0.507 OA
ATOM     23  H   UNL     1     -14.068 -41.899 -12.506  1.00  0.00     0.293 HD
ENDBRANCH   6  22
BRANCH   8  24
ATOM     24  O   UNL     1     -17.296 -41.421  -8.691  1.00  0.00    -0.508 OA
ATOM     25  H   UNL     1     -17.635 -41.082  -7.799  1.00  0.00     0.293 HD
ENDBRANCH   8  24
TORSDOF 5
ENDMDL
MODEL 4
REMARK VINA RESULT:    -7.326      9.821     12.872
REMARK INTER + INTRA:          -8.908
REMARK INTER:                  -8.627
REMARK INTRA:                  -0.281
REMARK UNBOUND:                -0.297
REMARK SMILES O=c1cc(-c2ccc(O)c(O)c2)oc2cc(O)cc(O)c12
REMARK SMILES IDX 4 1 3 2 2 3 1 4 21 5 19 6 18 7 16 8 15 9 14 10 13 11 5 12
REMARK SMILES IDX 6 13 7 14 8 15 12 16 10 17 9 18 11 20 20 22 17 24
REMARK H PARENT 9 19 11 21 20 23 17 25
REMARK Flexibility Score: inf
ROOT
ATOM      1  C   UNL     1     -16.185 -46.357  -1.708  1.00  0.00     0.138 A 
ATOM      2  C   UNL     1     -17.243 -45.497  -2.034  1.00  0.00     0.100 A 
ATOM      3  C   UNL     1     -17.988 -44.901  -1.015  1.00  0.00     0.197 A 
ATOM      4  O   UNL     1     -18.965 -44.179  -1.342  1.00  0.00    -0.289 OA
ATOM      5  C   UNL     1     -17.649 -45.141   0.338  1.00  0.00     0.107 A 
ATOM      6  C   UNL     1     -18.316 -44.561   1.459  1.00  0.00     0.134 A 
ATOM      7  C   UNL     1     -17.952 -44.951   2.755  1.00  0.00     0.093 A 
ATOM      8  C   UNL     1     -16.908 -45.855   2.970  1.00  0.00     0.123 A 
ATOM      9  C   UNL     1     -16.219 -46.387   1.884  1.00  0.00     0.094 A 
ATOM     10  C   UNL     1     -16.579 -46.045   0.578  1.00  0.00     0.146 A 
ATOM     11  O   UNL     1     -15.907 -46.591  -0.429  1.00  0.00    -0.456 OA
ENDROOT
BRANCH   1  12
ATOM     12  C   UNL     1     -15.358 -47.015  -2.750  1.00  0.00     0.021 A 
ATOM     13  C   UNL     1     -14.981 -48.359  -2.586  1.00  0.00     0.016 A 
ATOM     14  C   UNL     1     -14.209 -49.004  -3.555  1.00  0.00     0.051 A 
ATOM     15  C   UNL     1     -13.808 -48.324  -4.708  1.00  0.00     0.157 A 
ATOM     16  C   UNL     1     -14.964 -46.337  -3.921  1.00  0.00     0.062 A 
ATOM     17  C   UNL     1     -14.189 -46.985  -4.895  1.00  0.00     0.158 A 
BRANCH  15  18
ATOM     18  O   UNL     1     -13.036 -48.994  -5.657  1.00  0.00    -0.504 OA
ATOM     19  H   UNL     1     -13.260 -48.973  -6.644  1.00  0.00     0.293 HD
ENDBRANCH  15  18
BRANCH  17  20
ATOM     20  O   UNL     1     -13.802 -46.305  -6.048  1.00  0.00    -0.504 OA
ATOM     21  H   UNL     1     -12.839 -46.032  -6.206  1.00  0.00     0.293 HD
ENDBRANCH  17  20
ENDBRANCH   1  12
BRANCH   6  22
ATOM     22  O   UNL     1     -19.317 -43.591   1.360  1.00  0.00    -0.507 OA
ATOM     23  H   UNL     1     -20.308 -43.776   1.374  1.00  0.00     0.293 HD
ENDBRANCH   6  22
BRANCH   8  24
ATOM     24  O   UNL     1     -16.544 -46.224   4.263  1.00  0.00    -0.508 OA
ATOM     25  H   UNL     1     -17.026 -46.965   4.758  1.00  0.00     0.293 HD
ENDBRANCH   8  24
TORSDOF 5
ENDMDL
MODEL 5
REMARK VINA RESULT:    -7.211     10.455     12.639
REMARK INTER + INTRA:          -8.773
REMARK INTER:                  -8.491
REMARK INTRA:                  -0.282
REMARK UNBOUND:                -0.297
REMARK SMILES O=c1cc(-c2ccc(O)c(O)c2)oc2cc(O)cc(O)c12
REMARK SMILES IDX 4 1 3 2 2 3 1 4 21 5 19 6 18 7 16 8 15 9 14 10 13 11 5 12
REMARK SMILES IDX 6 13 7 14 8 15 12 16 10 17 9 18 11 20 20 22 17 24
REMARK H PARENT 9 19 11 21 20 23 17 25
REMARK Flexibility Score: inf
ROOT
ATOM      1  C   UNL     1     -17.478 -44.684   0.350  1.00  0.00     0.138 A 
ATOM      2  C   UNL     1     -18.060 -43.683  -0.439  1.00  0.00     0.100 A 
ATOM      3  C   UNL     1     -17.842 -43.676  -1.818  1.00  0.00     0.197 A 
ATOM      4  O   UNL     1     -18.333 -42.733  -2.491  1.00  0.00    -0.289 OA
ATOM      5  C   UNL     1     -17.065 -44.699  -2.413  1.00  0.00     0.107 A 
ATOM      6  C   UNL     1     -16.805 -44.814  -3.812  1.00  0.00     0.134 A 
ATOM      7  C   UNL     1     -15.939 -45.815  -4.272  1.00  0.00     0.093 A 
ATOM      8  C   UNL     1     -15.371 -46.739  -3.391  1.00  0.00     0.123 A 
ATOM      9  C   UNL     1     -15.660 -46.666  -2.031  1.00  0.00     0.094 A 
ATOM     10  C   UNL     1     -16.492 -45.659  -1.536  1.00  0.00     0.146 A 
ATOM     11  O   UNL     1     -16.725 -45.615  -0.229  1.00  0.00    -0.456 OA
ENDROOT
BRANCH   1  12
ATOM     12  C   UNL     1     -17.678 -44.741   1.820  1.00  0.00     0.021 A 
ATOM     13  C   UNL     1     -16.600 -45.092   2.651  1.00  0.00     0.016 A 
ATOM     14  C   UNL     1     -16.760 -45.146   4.038  1.00  0.00     0.051 A 
ATOM     15  C   UNL     1     -17.994 -44.842   4.620  1.00  0.00     0.157 A 
ATOM     16  C   UNL     1     -18.917 -44.421   2.412  1.00  0.00     0.062 A 
ATOM     17  C   UNL     1     -19.077 -44.475   3.805  1.00  0.00     0.158 A 
BRANCH  15  18
ATOM     18  O   UNL     1     -18.123 -44.907   6.007  1.00  0.00    -0.504 OA
ATOM     19  H   UNL     1     -18.469 -44.127   6.551  1.00  0.00     0.293 HD
ENDBRANCH  15  18
BRANCH  17  20
ATOM     20  O   UNL     1     -20.306 -44.159   4.380  1.00  0.00    -0.504 OA
ATOM     21  H   UNL     1     -21.135 -44.011   3.816  1.00  0.00     0.293 HD
ENDBRANCH  17  20
ENDBRANCH   1  12
BRANCH   6  22
ATOM     22  O   UNL     1     -17.380 -43.994  -4.786  1.00  0.00    -0.507 OA
ATOM     23  H   UNL     1     -18.245 -44.186  -5.269  1.00  0.00     0.293 HD
ENDBRANCH   6  22
BRANCH   8  24
ATOM     24  O   UNL     1     -14.523 -47.740  -3.861  1.00  0.00    -0.508 OA
ATOM     25  H   UNL     1     -14.108 -47.693  -4.784  1.00  0.00     0.293 HD
ENDBRANCH   8  24
TORSDOF 5
ENDMDL
MODEL 6
REMARK VINA RESULT:    -7.073      9.630     11.978
REMARK INTER + INTRA:          -8.610
REMARK INTER:                  -8.292
REMARK INTRA:                  -0.318
REMARK UNBOUND:                -0.297
REMARK SMILES O=c1cc(-c2ccc(O)c(O)c2)oc2cc(O)cc(O)c12
REMARK SMILES IDX 4 1 3 2 2 3 1 4 21 5 19 6 18 7 16 8 15 9 14 10 13 11 5 12
REMARK SMILES IDX 6 13 7 14 8 15 12 16 10 17 9 18 11 20 20 22 17 24
REMARK H PARENT 9 19 11 21 20 23 17 25
REMARK Flexibility Score: inf
ROOT
ATOM      1  C   UNL     1     -15.606 -43.856  -0.608  1.00  0.00     0.138 A 
ATOM      2  C   UNL     1     -16.486 -44.393   0.342  1.00  0.00     0.100 A 
ATOM      3  C   UNL     1     -16.086 -44.491   1.676  1.00  0.00     0.197 A 
ATOM      4  O   UNL     1     -16.878 -45.029   2.493  1.00  0.00    -0.289 OA
ATOM      5  C   UNL     1     -14.812 -44.014   2.066  1.00  0.00     0.107 A 
ATOM      6  C   UNL     1     -14.312 -44.031   3.403  1.00  0.00     0.134 A 
ATOM      7  C   UNL     1     -12.995 -43.621   3.651  1.00  0.00     0.093 A 
ATOM      8  C   UNL     1     -12.181 -43.143   2.621  1.00  0.00     0.123 A 
ATOM      9  C   UNL     1     -12.678 -43.076   1.322  1.00  0.00     0.094 A 
ATOM     10  C   UNL     1     -13.975 -43.509   1.035  1.00  0.00     0.146 A 
ATOM     11  O   UNL     1     -14.402 -43.445  -0.221  1.00  0.00    -0.456 OA
ENDROOT
BRANCH   1  12
ATOM     12  C   UNL     1     -15.979 -43.726  -2.038  1.00  0.00     0.021 A 
ATOM     13  C   UNL     1     -17.244 -44.166  -2.465  1.00  0.00     0.016 A 
ATOM     14  C   UNL     1     -17.623 -44.048  -3.805  1.00  0.00     0.051 A 
ATOM     15  C   UNL     1     -16.751 -43.482  -4.739  1.00  0.00     0.157 A 
ATOM     16  C   UNL     1     -15.109 -43.143  -2.981  1.00  0.00     0.062 A 
ATOM     17  C   UNL     1     -15.490 -43.023  -4.327  1.00  0.00     0.158 A 
BRANCH  15  18
ATOM     18  O   UNL     1     -17.157 -43.380  -6.070  1.00  0.00    -0.504 OA
ATOM     19  H   UNL     1     -16.871 -44.051  -6.771  1.00  0.00     0.293 HD
ENDBRANCH  15  18
BRANCH  17  20
ATOM     20  O   UNL     1     -14.621 -42.447  -5.251  1.00  0.00    -0.504 OA
ATOM     21  H   UNL     1     -14.426 -41.453  -5.250  1.00  0.00     0.293 HD
ENDBRANCH  17  20
ENDBRANCH   1  12
BRANCH   6  22
ATOM     22  O   UNL     1     -15.064 -44.414   4.517  1.00  0.00    -0.507 OA
ATOM     23  H   UNL     1     -14.729 -44.421   5.469  1.00  0.00     0.293 HD
ENDBRANCH   6  22
BRANCH   8  24
ATOM     24  O   UNL     1     -10.878 -42.724   2.881  1.00  0.00    -0.508 OA
ATOM     25  H   UNL     1     -10.166 -42.730   2.161  1.00  0.00     0.293 HD
ENDBRANCH   8  24
TORSDOF 5
ENDMDL
MODEL 7
REMARK VINA RESULT:    -7.028      5.256      7.222
REMARK INTER + INTRA:          -8.557
REMARK INTER:                  -8.255
REMARK INTRA:                  -0.302
REMARK UNBOUND:                -0.297
REMARK SMILES O=c1cc(-c2ccc(O)c(O)c2)oc2cc(O)cc(O)c12
REMARK SMILES IDX 4 1 3 2 2 3 1 4 21 5 19 6 18 7 16 8 15 9 14 10 13 11 5 12
REMARK SMILES IDX 6 13 7 14 8 15 12 16 10 17 9 18 11 20 20 22 17 24
REMARK H PARENT 9 19 11 21 20 23 17 25
REMARK Flexibility Score: inf
ROOT
ATOM      1  C   UNL     1     -11.424 -42.539  -5.388  1.00  0.00     0.138 A 
ATOM      2  C   UNL     1     -10.572 -42.954  -6.421  1.00  0.00     0.100 A 
ATOM      3  C   UNL     1     -10.878 -42.625  -7.743  1.00  0.00     0.197 A 
ATOM      4  O   UNL     1     -10.123 -43.060  -8.651  1.00  0.00    -0.289 OA
ATOM      5  C   UNL     1     -12.024 -41.844  -8.027  1.00  0.00     0.107 A 
ATOM      6  C   UNL     1     -12.415 -41.419  -9.332  1.00  0.00     0.134 A 
ATOM      7  C   UNL     1     -13.625 -40.732  -9.500  1.00  0.00     0.093 A 
ATOM      8  C   UNL     1     -14.427 -40.405  -8.404  1.00  0.00     0.123 A 
ATOM      9  C   UNL     1     -14.028 -40.772  -7.121  1.00  0.00     0.094 A 
ATOM     10  C   UNL     1     -12.845 -41.488  -6.923  1.00  0.00     0.146 A 
ATOM     11  O   UNL     1     -12.512 -41.834  -5.685  1.00  0.00    -0.456 OA
ENDROOT
BRANCH   1  12
ATOM     12  C   UNL     1     -11.147 -42.858  -3.966  1.00  0.00     0.021 A 
ATOM     13  C   UNL     1      -9.817 -42.894  -3.512  1.00  0.00     0.016 A 
ATOM     14  C   UNL     1      -9.529 -43.185  -2.176  1.00  0.00     0.051 A 
ATOM     15  C   UNL     1     -10.562 -43.436  -1.269  1.00  0.00     0.157 A 
ATOM     16  C   UNL     1     -12.186 -43.098  -3.044  1.00  0.00     0.062 A 
ATOM     17  C   UNL     1     -11.897 -43.389  -1.702  1.00  0.00     0.158 A 
BRANCH  15  18
ATOM     18  O   UNL     1     -10.243 -43.725   0.058  1.00  0.00    -0.504 OA
ATOM     19  H   UNL     1     -10.547 -44.579   0.510  1.00  0.00     0.293 HD
ENDBRANCH  15  18
BRANCH  17  20
ATOM     20  O   UNL     1     -12.931 -43.627  -0.799  1.00  0.00    -0.504 OA
ATOM     21  H   UNL     1     -13.435 -42.868  -0.355  1.00  0.00     0.293 HD
ENDBRANCH  17  20
ENDBRANCH   1  12
BRANCH   6  22
ATOM     22  O   UNL     1     -11.651 -41.622 -10.485  1.00  0.00    -0.507 OA
ATOM     23  H   UNL     1     -10.649 -41.727 -10.506  1.00  0.00     0.293 HD
ENDBRANCH   6  22
BRANCH   8  24
ATOM     24  O   UNL     1     -15.621 -39.708  -8.579  1.00  0.00    -0.508 OA
ATOM     25  H   UNL     1     -16.051 -39.616  -9.491  1.00  0.00     0.293 HD
ENDBRANCH   8  24
TORSDOF 5
ENDMDL
MODEL 8
REMARK VINA RESULT:    -7.020      9.814     11.852
REMARK INTER + INTRA:          -8.548
REMARK INTER:                  -8.267
REMARK INTRA:                  -0.281
REMARK UNBOUND:                -0.297
REMARK SMILES O=c1cc(-c2ccc(O)c(O)c2)oc2cc(O)cc(O)c12
REMARK SMILES IDX 4 1 3 2 2 3 1 4 21 5 19 6 18 7 16 8 15 9 14 10 13 11 5 12
REMARK SMILES IDX 6 13 7 14 8 15 12 16 10 17 9 18 11 20 20 22 17 24
REMARK H PARENT 9 19 11 21 20 23 17 25
REMARK Flexibility Score: inf
ROOT
ATOM      1  C   UNL     1     -16.467 -45.192  -0.360  1.00  0.00     0.138 A 
ATOM      2  C   UNL     1     -17.256 -44.084  -0.696  1.00  0.00     0.100 A 
ATOM      3  C   UNL     1     -17.350 -43.682  -2.030  1.00  0.00     0.197 A 
ATOM      4  O   UNL     1     -18.022 -42.651  -2.291  1.00  0.00    -0.289 OA
ATOM      5  C   UNL     1     -16.678 -44.417  -3.035  1.00  0.00     0.107 A 
ATOM      6  C   UNL     1     -16.731 -44.122  -4.431  1.00  0.00     0.134 A 
ATOM      7  C   UNL     1     -15.943 -44.863  -5.323  1.00  0.00     0.093 A 
ATOM      8  C   UNL     1     -15.152 -45.924  -4.876  1.00  0.00     0.123 A 
ATOM      9  C   UNL     1     -15.135 -46.252  -3.523  1.00  0.00     0.094 A 
ATOM     10  C   UNL     1     -15.881 -45.511  -2.603  1.00  0.00     0.146 A 
ATOM     11  O   UNL     1     -15.820 -45.846  -1.320  1.00  0.00    -0.456 OA
ENDROOT
BRANCH   1  12
ATOM     12  C   UNL     1     -16.333 -45.665   1.041  1.00  0.00     0.021 A 
ATOM     13  C   UNL     1     -16.326 -47.045   1.306  1.00  0.00     0.016 A 
ATOM     14  C   UNL     1     -16.194 -47.517   2.615  1.00  0.00     0.051 A 
ATOM     15  C   UNL     1     -16.057 -46.621   3.679  1.00  0.00     0.157 A 
ATOM     16  C   UNL     1     -16.181 -44.765   2.115  1.00  0.00     0.062 A 
ATOM     17  C   UNL     1     -16.047 -45.239   3.430  1.00  0.00     0.158 A 
BRANCH  15  18
ATOM     18  O   UNL     1     -15.930 -47.121   4.974  1.00  0.00    -0.504 OA
ATOM     19  H   UNL     1     -15.338 -47.915   5.188  1.00  0.00     0.293 HD
ENDBRANCH  15  18
BRANCH  17  20
ATOM     20  O   UNL     1     -15.900 -44.341   4.485  1.00  0.00    -0.504 OA
ATOM     21  H   UNL     1     -16.408 -43.465   4.513  1.00  0.00     0.293 HD
ENDBRANCH  17  20
ENDBRANCH   1  12
BRANCH   6  22
ATOM     22  O   UNL     1     -17.546 -43.136  -4.994  1.00  0.00    -0.507 OA
ATOM     23  H   UNL     1     -17.592 -42.176  -4.688  1.00  0.00     0.293 HD
ENDBRANCH   6  22
BRANCH   8  24
ATOM     24  O   UNL     1     -14.385 -46.665  -5.773  1.00  0.00    -0.508 OA
ATOM     25  H   UNL     1     -14.581 -46.662  -6.766  1.00  0.00     0.293 HD
ENDBRANCH   8  24
TORSDOF 5
ENDMDL
MODEL 9
REMARK VINA RESULT:    -6.896     10.481     11.961
REMARK INTER + INTRA:          -8.403
REMARK INTER:                  -8.106
REMARK INTRA:                  -0.297
REMARK UNBOUND:                -0.297
REMARK SMILES O=c1cc(-c2ccc(O)c(O)c2)oc2cc(O)cc(O)c12
REMARK SMILES IDX 4 1 3 2 2 3 1 4 21 5 19 6 18 7 16 8 15 9 14 10 13 11 5 12
REMARK SMILES IDX 6 13 7 14 8 15 12 16 10 17 9 18 11 20 20 22 17 24
REMARK H PARENT 9 19 11 21 20 23 17 25
REMARK Flexibility Score: inf
ROOT
ATOM      1  C   UNL     1     -15.708 -46.791  -0.249  1.00  0.00     0.138 A 
ATOM      2  C   UNL     1     -15.047 -48.017  -0.399  1.00  0.00     0.100 A 
ATOM      3  C   UNL     1     -14.662 -48.443  -1.671  1.00  0.00     0.197 A 
ATOM      4  O   UNL     1     -14.120 -49.574  -1.778  1.00  0.00    -0.289 OA
ATOM      5  C   UNL     1     -14.908 -47.618  -2.795  1.00  0.00     0.107 A 
ATOM      6  C   UNL     1     -14.528 -47.933  -4.134  1.00  0.00     0.134 A 
ATOM      7  C   UNL     1     -14.914 -47.082  -5.178  1.00  0.00     0.093 A 
ATOM      8  C   UNL     1     -15.615 -45.900  -4.925  1.00  0.00     0.123 A 
ATOM      9  C   UNL     1     -15.945 -45.559  -3.615  1.00  0.00     0.094 A 
ATOM     10  C   UNL     1     -15.606 -46.403  -2.555  1.00  0.00     0.146 A 
ATOM     11  O   UNL     1     -15.956 -46.049  -1.324  1.00  0.00    -0.456 OA
ENDROOT
BRANCH   1  12
ATOM     12  C   UNL     1     -16.138 -46.288   1.079  1.00  0.00     0.021 A 
ATOM     13  C   UNL     1     -16.905 -45.112   1.158  1.00  0.00     0.016 A 
ATOM     14  C   UNL     1     -17.329 -44.621   2.395  1.00  0.00     0.051 A 
ATOM     15  C   UNL     1     -17.004 -45.299   3.574  1.00  0.00     0.157 A 
ATOM     16  C   UNL     1     -15.825 -46.975   2.269  1.00  0.00     0.062 A 
ATOM     17  C   UNL     1     -16.252 -46.483   3.512  1.00  0.00     0.158 A 
BRANCH  15  18
ATOM     18  O   UNL     1     -17.440 -44.783   4.794  1.00  0.00    -0.504 OA
ATOM     19  H   UNL     1     -16.796 -44.408   5.479  1.00  0.00     0.293 HD
ENDBRANCH  15  18
BRANCH  17  20
ATOM     20  O   UNL     1     -15.935 -47.169   4.683  1.00  0.00    -0.504 OA
ATOM     21  H   UNL     1     -16.069 -48.170   4.766  1.00  0.00     0.293 HD
ENDBRANCH  17  20
ENDBRANCH   1  12
BRANCH   6  22
ATOM     22  O   UNL     1     -13.761 -49.045  -4.491  1.00  0.00    -0.507 OA
ATOM     23  H   UNL     1     -12.793 -49.016  -4.773  1.00  0.00     0.293 HD
ENDBRANCH   6  22
BRANCH   8  24
ATOM     24  O   UNL     1     -15.981 -45.053  -5.968  1.00  0.00    -0.508 OA
ATOM     25  H   UNL     1     -16.493 -44.195  -5.800  1.00  0.00     0.293 HD
ENDBRANCH   8  24
TORSDOF 5
ENDMDL
