MODEL 1
REMARK VINA RESULT:    -1.648      0.000      0.000
REMARK INTER + INTRA:          -3.731
REMARK INTER:                  -2.804
REMARK INTRA:                  -0.927
REMARK UNBOUND:                -0.927
REMARK SMILES CCCCCCCCCCCCCC(=O)[O-]
REMARK SMILES IDX 8 1 9 2 10 3 11 4 12 5 13 6 14 7 15 8 16 9 7 10 6 11 5 12
REMARK SMILES IDX 4 13 3 14 2 15 1 16
REMARK H PARENT
REMARK Flexibility Score: inf
ROOT
ATOM      1  C   UNL     1      27.624  21.869  13.980  1.00  0.00     0.000 C 
ENDROOT
BRANCH   1   2
ATOM      2  C   UNL     1      27.761  21.797  15.510  1.00  0.00     0.000 C 
BRANCH   2   3
ATOM      3  C   UNL     1      27.595  20.370  16.054  1.00  0.00     0.000 C 
BRANCH   3   4
ATOM      4  C   UNL     1      26.463  20.265  17.093  1.00  0.00     0.000 C 
BRANCH   4   5
ATOM      5  C   UNL     1      25.100  20.718  16.535  1.00  0.00     0.006 C 
BRANCH   5   6
ATOM      6  C   UNL     1      24.585  19.875  15.357  1.00  0.00     0.053 C 
BRANCH   6   7
ATOM      7  C   UNL     1      23.253  20.349  14.865  1.00  0.00     0.041 C 
ATOM      8  O   UNL     1      23.021  20.413  13.629  1.00  0.00    -0.550 OA
ATOM      9  O   UNL     1      22.255  20.687  15.771  1.00  0.00    -0.550 OA
ENDBRANCH   6   7
ENDBRANCH   5   6
ENDBRANCH   4   5
ENDBRANCH   3   4
ENDBRANCH   2   3
ENDBRANCH   1   2
BRANCH   1  10
ATOM     10  C   UNL     1      28.886  22.422  13.295  1.00  0.00     0.000 C 
BRANCH  10  11
ATOM     11  C   UNL     1      30.125  21.505  13.370  1.00  0.00    -0.000 C 
BRANCH  11  12
ATOM     12  C   UNL     1      29.959  20.121  12.715  1.00  0.00    -0.000 C 
BRANCH  12  13
ATOM     13  C   UNL     1      29.854  20.195  11.183  1.00  0.00    -0.000 C 
BRANCH  13  14
ATOM     14  C   UNL     1      28.407  20.042  10.684  1.00  0.00    -0.000 C 
BRANCH  14  15
ATOM     15  C   UNL     1      28.264  20.329   9.183  1.00  0.00    -0.003 C 
ATOM     16  C   UNL     1      29.624  20.603   8.545  1.00  0.00     0.004 C 
ENDBRANCH  14  15
ENDBRANCH  13  14
ENDBRANCH  12  13
ENDBRANCH  11  12
ENDBRANCH  10  11
ENDBRANCH   1  10
TORSDOF 12
ENDMDL
MODEL 2
REMARK VINA RESULT:    -1.482     14.481     16.782
REMARK INTER + INTRA:          -3.449
REMARK INTER:                  -2.597
REMARK INTRA:                  -0.852
REMARK UNBOUND:                -0.927
REMARK SMILES CCCCCCCCCCCCCC(=O)[O-]
REMARK SMILES IDX 8 1 9 2 10 3 11 4 12 5 13 6 14 7 15 8 16 9 7 10 6 11 5 12
REMARK SMILES IDX 4 13 3 14 2 15 1 16
REMARK H PARENT
REMARK Flexibility Score: inf
ROOT
ATOM      1  C   UNL     1      13.930  21.005  17.646  1.00  0.00     0.000 C 
ENDROOT
BRANCH   1   2
ATOM      2  C   UNL     1      13.520  20.079  18.804  1.00  0.00     0.000 C 
BRANCH   2   3
ATOM      3  C   UNL     1      11.998  20.011  18.999  1.00  0.00     0.000 C 
BRANCH   3   4
ATOM      4  C   UNL     1      11.601  19.899  20.482  1.00  0.00     0.000 C 
BRANCH   4   5
ATOM      5  C   UNL     1      10.713  21.069  20.950  1.00  0.00     0.006 C 
BRANCH   5   6
ATOM      6  C   UNL     1      11.104  21.655  22.316  1.00  0.00     0.053 C 
BRANCH   6   7
ATOM      7  C   UNL     1      11.243  20.596  23.366  1.00  0.00     0.041 C 
ATOM      8  O   UNL     1      10.227  20.179  23.981  1.00  0.00    -0.550 OA
ATOM      9  O   UNL     1      12.488  20.045  23.639  1.00  0.00    -0.550 OA
ENDBRANCH   6   7
ENDBRANCH   5   6
ENDBRANCH   4   5
ENDBRANCH   3   4
ENDBRANCH   2   3
ENDBRANCH   1   2
BRANCH   1  10
ATOM     10  C   UNL     1      13.729  20.356  16.265  1.00  0.00     0.000 C 
BRANCH  10  11
ATOM     11  C   UNL     1      12.411  20.726  15.554  1.00  0.00    -0.000 C 
BRANCH  11  12
ATOM     12  C   UNL     1      12.392  22.115  14.886  1.00  0.00    -0.000 C 
BRANCH  12  13
ATOM     13  C   UNL     1      11.008  22.491  14.331  1.00  0.00    -0.000 C 
BRANCH  13  14
ATOM     14  C   UNL     1       9.886  22.293  15.364  1.00  0.00    -0.000 C 
BRANCH  14  15
ATOM     15  C   UNL     1       9.961  23.299  16.521  1.00  0.00    -0.003 C 
ATOM     16  C   UNL     1       9.875  22.590  17.870  1.00  0.00     0.004 C 
ENDBRANCH  14  15
ENDBRANCH  13  14
ENDBRANCH  12  13
ENDBRANCH  11  12
ENDBRANCH  10  11
ENDBRANCH   1  10
TORSDOF 12
ENDMDL
MODEL 3
REMARK VINA RESULT:    -0.418      2.189      4.511
REMARK INTER + INTRA:          -1.639
REMARK INTER:                  -1.606
REMARK INTRA:                  -0.033
REMARK UNBOUND:                -0.927
REMARK SMILES CCCCCCCCCCCCCC(=O)[O-]
REMARK SMILES IDX 8 1 9 2 10 3 11 4 12 5 13 6 14 7 15 8 16 9 7 10 6 11 5 12
REMARK SMILES IDX 4 13 3 14 2 15 1 16
REMARK H PARENT
REMARK Flexibility Score: inf
ROOT
ATOM      1  C   UNL     1      28.628  22.687  11.665  1.00  0.00     0.000 C 
ENDROOT
BRANCH   1   2
ATOM      2  C   UNL     1      29.086  22.865  13.123  1.00  0.00     0.000 C 
BRANCH   2   3
ATOM      3  C   UNL     1      28.660  21.697  14.026  1.00  0.00     0.000 C 
BRANCH   3   4
ATOM      4  C   UNL     1      29.731  21.343  15.073  1.00  0.00     0.000 C 
BRANCH   4   5
ATOM      5  C   UNL     1      29.295  20.198  16.007  1.00  0.00     0.006 C 
BRANCH   5   6
ATOM      6  C   UNL     1      27.792  19.877  15.958  1.00  0.00     0.053 C 
BRANCH   6   7
ATOM      7  C   UNL     1      27.002  20.731  16.901  1.00  0.00     0.041 C 
ATOM      8  O   UNL     1      26.605  21.870  16.542  1.00  0.00    -0.550 OA
ATOM      9  O   UNL     1      26.674  20.254  18.164  1.00  0.00    -0.550 OA
ENDBRANCH   6   7
ENDBRANCH   5   6
ENDBRANCH   4   5
ENDBRANCH   3   4
ENDBRANCH   2   3
ENDBRANCH   1   2
BRANCH   1  10
ATOM     10  C   UNL     1      29.074  21.344  11.062  1.00  0.00     0.000 C 
BRANCH  10  11
ATOM     11  C   UNL     1      27.979  20.259  10.998  1.00  0.00    -0.000 C 
BRANCH  11  12
ATOM     12  C   UNL     1      27.354  19.877  12.354  1.00  0.00    -0.000 C 
BRANCH  12  13
ATOM     13  C   UNL     1      25.835  20.113  12.398  1.00  0.00    -0.000 C 
BRANCH  13  14
ATOM     14  C   UNL     1      25.244  19.875  13.797  1.00  0.00    -0.000 C 
BRANCH  14  15
ATOM     15  C   UNL     1      23.786  20.344  13.912  1.00  0.00    -0.003 C 
ATOM     16  C   UNL     1      23.320  20.336  15.365  1.00  0.00     0.004 C 
ENDBRANCH  14  15
ENDBRANCH  13  14
ENDBRANCH  12  13
ENDBRANCH  11  12
ENDBRANCH  10  11
ENDBRANCH   1  10
TORSDOF 12
ENDMDL
MODEL 4
REMARK VINA RESULT:    -0.278     14.905     17.936
REMARK INTER + INTRA:          -1.401
REMARK INTER:                  -1.559
REMARK INTRA:                   0.158
REMARK UNBOUND:                -0.927
REMARK SMILES CCCCCCCCCCCCCC(=O)[O-]
REMARK SMILES IDX 8 1 9 2 10 3 11 4 12 5 13 6 14 7 15 8 16 9 7 10 6 11 5 12
REMARK SMILES IDX 4 13 3 14 2 15 1 16
REMARK H PARENT
REMARK Flexibility Score: inf
ROOT
ATOM      1  C   UNL     1      10.226  24.051  19.962  1.00  0.00     0.000 C 
ENDROOT
BRANCH   1   2
ATOM      2  C   UNL     1      10.232  23.502  18.525  1.00  0.00     0.000 C 
BRANCH   2   3
ATOM      3  C   UNL     1       9.940  21.995  18.464  1.00  0.00     0.000 C 
BRANCH   3   4
ATOM      4  C   UNL     1      10.198  21.402  17.068  1.00  0.00     0.000 C 
BRANCH   4   5
ATOM      5  C   UNL     1      10.384  22.485  15.987  1.00  0.00     0.006 C 
BRANCH   5   6
ATOM      6  C   UNL     1      11.199  22.029  14.766  1.00  0.00     0.053 C 
BRANCH   6   7
ATOM      7  C   UNL     1      12.669  21.996  15.048  1.00  0.00     0.041 C 
ATOM      8  O   UNL     1      13.466  22.658  14.332  1.00  0.00    -0.550 OA
ATOM      9  O   UNL     1      13.156  21.265  16.124  1.00  0.00    -0.550 OA
ENDBRANCH   6   7
ENDBRANCH   5   6
ENDBRANCH   4   5
ENDBRANCH   3   4
ENDBRANCH   2   3
ENDBRANCH   1   2
BRANCH   1  10
ATOM     10  C   UNL     1      10.861  23.079  20.973  1.00  0.00     0.000 C 
BRANCH  10  11
ATOM     11  C   UNL     1       9.876  22.438  21.971  1.00  0.00    -0.000 C 
BRANCH  11  12
ATOM     12  C   UNL     1       9.935  20.901  22.058  1.00  0.00    -0.000 C 
BRANCH  12  13
ATOM     13  C   UNL     1      10.326  20.398  23.458  1.00  0.00    -0.000 C 
BRANCH  13  14
ATOM     14  C   UNL     1      11.834  20.126  23.586  1.00  0.00    -0.000 C 
BRANCH  14  15
ATOM     15  C   UNL     1      12.651  20.773  22.459  1.00  0.00    -0.003 C 
ATOM     16  C   UNL     1      12.691  19.875  21.225  1.00  0.00     0.004 C 
ENDBRANCH  14  15
ENDBRANCH  13  14
ENDBRANCH  12  13
ENDBRANCH  11  12
ENDBRANCH  10  11
ENDBRANCH   1  10
TORSDOF 12
ENDMDL
