MODEL 1
REMARK VINA RESULT:    -4.239      0.000      0.000
REMARK INTER + INTRA:          -7.560
REMARK INTER:                  -6.717
REMARK INTRA:                  -0.842
REMARK UNBOUND:                -0.842
REMARK SMILES CCCCCCCCCCCC(=O)[O-]
REMARK SMILES IDX 7 1 8 2 9 3 10 4 11 5 12 6 13 7 14 8 6 9 5 10 4 11 3 12 2 13
REMARK SMILES IDX 1 14
REMARK H PARENT
REMARK Flexibility Score: inf
ROOT
ATOM      1  C   UNL     1       3.215  -6.394  -7.492  1.00  0.00     0.000 C 
ENDROOT
BRANCH   1   2
ATOM      2  C   UNL     1       3.720  -7.345  -6.386  1.00  0.00     0.000 C 
BRANCH   2   3
ATOM      3  C   UNL     1       3.687  -6.693  -4.993  1.00  0.00     0.000 C 
BRANCH   3   4
ATOM      4  C   UNL     1       4.892  -7.087  -4.126  1.00  0.00     0.006 C 
BRANCH   4   5
ATOM      5  C   UNL     1       6.210  -6.484  -4.632  1.00  0.00     0.053 C 
BRANCH   5   6
ATOM      6  C   UNL     1       7.236  -7.556  -4.820  1.00  0.00     0.041 C 
ATOM      7  O   UNL     1       6.879  -8.750  -5.006  1.00  0.00    -0.550 OA
ATOM      8  O   UNL     1       8.587  -7.231  -4.843  1.00  0.00    -0.550 OA
ENDBRANCH   5   6
ENDBRANCH   4   5
ENDBRANCH   3   4
ENDBRANCH   2   3
ENDBRANCH   1   2
BRANCH   1   9
ATOM      9  C   UNL     1       4.031  -5.093  -7.609  1.00  0.00     0.000 C 
BRANCH   9  10
ATOM     10  C   UNL     1       3.275  -3.813  -7.204  1.00  0.00    -0.000 C 
BRANCH  10  11
ATOM     11  C   UNL     1       1.760  -3.841  -7.484  1.00  0.00    -0.000 C 
BRANCH  11  12
ATOM     12  C   UNL     1       1.285  -2.640  -8.319  1.00  0.00    -0.000 C 
BRANCH  12  13
ATOM     13  C   UNL     1       0.190  -3.022  -9.328  1.00  0.00    -0.003 C 
ATOM     14  C   UNL     1       0.413  -4.401  -9.948  1.00  0.00     0.004 C 
ENDBRANCH  12  13
ENDBRANCH  11  12
ENDBRANCH  10  11
ENDBRANCH   9  10
ENDBRANCH   1   9
TORSDOF 10
ENDMDL
MODEL 2
REMARK VINA RESULT:    -4.194      1.567      2.771
REMARK INTER + INTRA:          -7.489
REMARK INTER:                  -6.179
REMARK INTRA:                  -1.309
REMARK UNBOUND:                -0.842
REMARK SMILES CCCCCCCCCCCC(=O)[O-]
REMARK SMILES IDX 7 1 8 2 9 3 10 4 11 5 12 6 13 7 14 8 6 9 5 10 4 11 3 12 2 13
REMARK SMILES IDX 1 14
REMARK H PARENT
REMARK Flexibility Score: inf
ROOT
ATOM      1  C   UNL     1       2.394  -7.246  -9.215  1.00  0.00     0.000 C 
ENDROOT
BRANCH   1   2
ATOM      2  C   UNL     1       3.039  -7.360  -7.817  1.00  0.00     0.000 C 
BRANCH   2   3
ATOM      3  C   UNL     1       4.234  -6.406  -7.645  1.00  0.00     0.000 C 
BRANCH   3   4
ATOM      4  C   UNL     1       4.181  -5.623  -6.324  1.00  0.00     0.006 C 
BRANCH   4   5
ATOM      5  C   UNL     1       3.770  -6.499  -5.132  1.00  0.00     0.053 C 
BRANCH   5   6
ATOM      6  C   UNL     1       4.980  -7.050  -4.448  1.00  0.00     0.041 C 
ATOM      7  O   UNL     1       6.046  -6.381  -4.408  1.00  0.00    -0.550 OA
ATOM      8  O   UNL     1       4.917  -8.281  -3.807  1.00  0.00    -0.550 OA
ENDBRANCH   5   6
ENDBRANCH   4   5
ENDBRANCH   3   4
ENDBRANCH   2   3
ENDBRANCH   1   2
BRANCH   1   9
ATOM      9  C   UNL     1       2.444  -5.824  -9.805  1.00  0.00     0.000 C 
BRANCH   9  10
ATOM     10  C   UNL     1       1.073  -5.144  -9.981  1.00  0.00    -0.000 C 
BRANCH  10  11
ATOM     11  C   UNL     1       0.930  -3.784  -9.272  1.00  0.00    -0.000 C 
BRANCH  11  12
ATOM     12  C   UNL     1       1.477  -3.798  -7.835  1.00  0.00    -0.000 C 
BRANCH  12  13
ATOM     13  C   UNL     1       2.433  -2.627  -7.558  1.00  0.00    -0.003 C 
ATOM     14  C   UNL     1       3.645  -2.621  -8.490  1.00  0.00     0.004 C 
ENDBRANCH  12  13
ENDBRANCH  11  12
ENDBRANCH  10  11
ENDBRANCH   9  10
ENDBRANCH   1   9
TORSDOF 10
ENDMDL
MODEL 3
REMARK VINA RESULT:    -4.176      1.654      2.328
REMARK INTER + INTRA:          -7.459
REMARK INTER:                  -6.012
REMARK INTRA:                  -1.447
REMARK UNBOUND:                -0.842
REMARK SMILES CCCCCCCCCCCC(=O)[O-]
REMARK SMILES IDX 7 1 8 2 9 3 10 4 11 5 12 6 13 7 14 8 6 9 5 10 4 11 3 12 2 13
REMARK SMILES IDX 1 14
REMARK H PARENT
REMARK Flexibility Score: inf
ROOT
ATOM      1  C   UNL     1       4.471  -5.021  -9.274  1.00  0.00     0.000 C 
ENDROOT
BRANCH   1   2
ATOM      2  C   UNL     1       4.698  -6.027  -8.125  1.00  0.00     0.000 C 
BRANCH   2   3
ATOM      3  C   UNL     1       3.384  -6.650  -7.624  1.00  0.00     0.000 C 
BRANCH   3   4
ATOM      4  C   UNL     1       3.131  -6.381  -6.132  1.00  0.00     0.006 C 
BRANCH   4   5
ATOM      5  C   UNL     1       4.430  -6.284  -5.320  1.00  0.00     0.053 C 
BRANCH   5   6
ATOM      6  C   UNL     1       4.704  -7.576  -4.617  1.00  0.00     0.041 C 
ATOM      7  O   UNL     1       5.084  -7.576  -3.416  1.00  0.00    -0.550 OA
ATOM      8  O   UNL     1       4.488  -8.783  -5.270  1.00  0.00    -0.550 OA
ENDBRANCH   5   6
ENDBRANCH   4   5
ENDBRANCH   3   4
ENDBRANCH   2   3
ENDBRANCH   1   2
BRANCH   1   9
ATOM      9  C   UNL     1       4.798  -3.564  -8.895  1.00  0.00     0.000 C 
BRANCH   9  10
ATOM     10  C   UNL     1       3.572  -2.655  -8.689  1.00  0.00    -0.000 C 
BRANCH  10  11
ATOM     11  C   UNL     1       2.726  -2.982  -7.443  1.00  0.00    -0.000 C 
BRANCH  11  12
ATOM     12  C   UNL     1       1.331  -3.524  -7.794  1.00  0.00    -0.000 C 
BRANCH  12  13
ATOM     13  C   UNL     1       1.042  -3.474  -9.302  1.00  0.00    -0.003 C 
ATOM     14  C   UNL     1       0.833  -4.861  -9.909  1.00  0.00     0.004 C 
ENDBRANCH  12  13
ENDBRANCH  11  12
ENDBRANCH  10  11
ENDBRANCH   9  10
ENDBRANCH   1   9
TORSDOF 10
ENDMDL
MODEL 4
REMARK VINA RESULT:    -4.072      3.749      6.654
REMARK INTER + INTRA:          -7.295
REMARK INTER:                  -6.285
REMARK INTRA:                  -1.011
REMARK UNBOUND:                -0.842
REMARK SMILES CCCCCCCCCCCC(=O)[O-]
REMARK SMILES IDX 7 1 8 2 9 3 10 4 11 5 12 6 13 7 14 8 6 9 5 10 4 11 3 12 2 13
REMARK SMILES IDX 1 14
REMARK H PARENT
REMARK Flexibility Score: inf
ROOT
ATOM      1  C   UNL     1       4.886  -4.744  -8.519  1.00  0.00     0.000 C 
ENDROOT
BRANCH   1   2
ATOM      2  C   UNL     1       4.154  -3.520  -9.111  1.00  0.00     0.000 C 
BRANCH   2   3
ATOM      3  C   UNL     1       3.571  -2.604  -8.021  1.00  0.00     0.000 C 
BRANCH   3   4
ATOM      4  C   UNL     1       2.147  -3.007  -7.607  1.00  0.00     0.006 C 
BRANCH   4   5
ATOM      5  C   UNL     1       1.071  -2.398  -8.518  1.00  0.00     0.053 C 
BRANCH   5   6
ATOM      6  C   UNL     1       0.322  -3.477  -9.234  1.00  0.00     0.041 C 
ATOM      7  O   UNL     1      -0.852  -3.272  -9.640  1.00  0.00    -0.550 OA
ATOM      8  O   UNL     1       0.939  -4.693  -9.500  1.00  0.00    -0.550 OA
ENDBRANCH   5   6
ENDBRANCH   4   5
ENDBRANCH   3   4
ENDBRANCH   2   3
ENDBRANCH   1   2
BRANCH   1   9
ATOM      9  C   UNL     1       4.070  -6.049  -8.595  1.00  0.00     0.000 C 
BRANCH   9  10
ATOM     10  C   UNL     1       3.363  -6.450  -7.287  1.00  0.00    -0.000 C 
BRANCH  10  11
ATOM     11  C   UNL     1       3.971  -5.840  -6.010  1.00  0.00    -0.000 C 
BRANCH  11  12
ATOM     12  C   UNL     1       3.739  -6.710  -4.763  1.00  0.00    -0.000 C 
BRANCH  12  13
ATOM     13  C   UNL     1       5.053  -7.195  -4.131  1.00  0.00    -0.003 C 
ATOM     14  C   UNL     1       6.288  -6.644  -4.843  1.00  0.00     0.004 C 
ENDBRANCH  12  13
ENDBRANCH  11  12
ENDBRANCH  10  11
ENDBRANCH   9  10
ENDBRANCH   1   9
TORSDOF 10
ENDMDL
MODEL 5
REMARK VINA RESULT:    -4.063      3.380      4.677
REMARK INTER + INTRA:          -7.281
REMARK INTER:                  -6.813
REMARK INTRA:                  -0.468
REMARK UNBOUND:                -0.842
REMARK SMILES CCCCCCCCCCCC(=O)[O-]
REMARK SMILES IDX 7 1 8 2 9 3 10 4 11 5 12 6 13 7 14 8 6 9 5 10 4 11 3 12 2 13
REMARK SMILES IDX 1 14
REMARK H PARENT
REMARK Flexibility Score: inf
ROOT
ATOM      1  C   UNL     1       4.128  -3.667  -8.201  1.00  0.00     0.000 C 
ENDROOT
BRANCH   1   2
ATOM      2  C   UNL     1       2.739  -3.829  -7.547  1.00  0.00     0.000 C 
BRANCH   2   3
ATOM      3  C   UNL     1       2.648  -5.091  -6.672  1.00  0.00     0.000 C 
BRANCH   3   4
ATOM      4  C   UNL     1       4.023  -5.578  -6.188  1.00  0.00     0.006 C 
BRANCH   4   5
ATOM      5  C   UNL     1       3.958  -6.951  -5.505  1.00  0.00     0.053 C 
BRANCH   5   6
ATOM      6  C   UNL     1       5.031  -7.069  -4.469  1.00  0.00     0.041 C 
ATOM      7  O   UNL     1       4.920  -7.907  -3.535  1.00  0.00    -0.550 OA
ATOM      8  O   UNL     1       6.176  -6.289  -4.562  1.00  0.00    -0.550 OA
ENDBRANCH   5   6
ENDBRANCH   4   5
ENDBRANCH   3   4
ENDBRANCH   2   3
ENDBRANCH   1   2
BRANCH   1   9
ATOM      9  C   UNL     1       4.374  -2.266  -8.793  1.00  0.00     0.000 C 
BRANCH   9  10
ATOM     10  C   UNL     1       5.777  -2.050  -9.390  1.00  0.00    -0.000 C 
BRANCH  10  11
ATOM     11  C   UNL     1       6.465  -0.739  -8.966  1.00  0.00    -0.000 C 
BRANCH  11  12
ATOM     12  C   UNL     1       5.924  -0.183  -7.638  1.00  0.00    -0.000 C 
BRANCH  12  13
ATOM     13  C   UNL     1       6.856   0.870  -7.018  1.00  0.00    -0.003 C 
ATOM     14  C   UNL     1       8.158   0.269  -6.491  1.00  0.00     0.004 C 
ENDBRANCH  12  13
ENDBRANCH  11  12
ENDBRANCH  10  11
ENDBRANCH   9  10
ENDBRANCH   1   9
TORSDOF 10
ENDMDL
MODEL 6
REMARK VINA RESULT:    -4.024      1.605      2.485
REMARK INTER + INTRA:          -7.219
REMARK INTER:                  -6.550
REMARK INTRA:                  -0.670
REMARK UNBOUND:                -0.842
REMARK SMILES CCCCCCCCCCCC(=O)[O-]
REMARK SMILES IDX 7 1 8 2 9 3 10 4 11 5 12 6 13 7 14 8 6 9 5 10 4 11 3 12 2 13
REMARK SMILES IDX 1 14
REMARK H PARENT
REMARK Flexibility Score: inf
ROOT
ATOM      1  C   UNL     1       3.931  -5.942  -5.646  1.00  0.00     0.000 C 
ENDROOT
BRANCH   1   2
ATOM      2  C   UNL     1       3.843  -6.929  -4.462  1.00  0.00     0.000 C 
BRANCH   2   3
ATOM      3  C   UNL     1       5.214  -7.517  -4.087  1.00  0.00     0.000 C 
BRANCH   3   4
ATOM      4  C   UNL     1       6.384  -6.634  -4.548  1.00  0.00     0.006 C 
BRANCH   4   5
ATOM      5  C   UNL     1       7.307  -7.346  -5.546  1.00  0.00     0.053 C 
BRANCH   5   6
ATOM      6  C   UNL     1       8.532  -7.854  -4.854  1.00  0.00     0.041 C 
ATOM      7  O   UNL     1       9.663  -7.380  -5.139  1.00  0.00    -0.550 OA
ATOM      8  O   UNL     1       8.420  -8.814  -3.856  1.00  0.00    -0.550 OA
ENDBRANCH   5   6
ENDBRANCH   4   5
ENDBRANCH   3   4
ENDBRANCH   2   3
ENDBRANCH   1   2
BRANCH   1   9
ATOM      9  C   UNL     1       3.359  -6.503  -6.962  1.00  0.00     0.000 C 
BRANCH   9  10
ATOM     10  C   UNL     1       2.798  -5.444  -7.931  1.00  0.00    -0.000 C 
BRANCH  10  11
ATOM     11  C   UNL     1       2.356  -4.128  -7.263  1.00  0.00    -0.000 C 
BRANCH  11  12
ATOM     12  C   UNL     1       3.198  -2.921  -7.707  1.00  0.00    -0.000 C 
BRANCH  12  13
ATOM     13  C   UNL     1       4.054  -3.224  -8.946  1.00  0.00    -0.003 C 
ATOM     14  C   UNL     1       5.194  -2.223  -9.136  1.00  0.00     0.004 C 
ENDBRANCH  12  13
ENDBRANCH  11  12
ENDBRANCH  10  11
ENDBRANCH   9  10
ENDBRANCH   1   9
TORSDOF 10
ENDMDL
MODEL 7
REMARK VINA RESULT:    -4.019      3.315      5.968
REMARK INTER + INTRA:          -7.211
REMARK INTER:                  -5.705
REMARK INTRA:                  -1.506
REMARK UNBOUND:                -0.842
REMARK SMILES CCCCCCCCCCCC(=O)[O-]
REMARK SMILES IDX 7 1 8 2 9 3 10 4 11 5 12 6 13 7 14 8 6 9 5 10 4 11 3 12 2 13
REMARK SMILES IDX 1 14
REMARK H PARENT
REMARK Flexibility Score: inf
ROOT
ATOM      1  C   UNL     1       5.876  -6.386  -4.632  1.00  0.00     0.000 C 
ENDROOT
BRANCH   1   2
ATOM      2  C   UNL     1       4.527  -7.102  -4.405  1.00  0.00     0.000 C 
BRANCH   2   3
ATOM      3  C   UNL     1       3.376  -6.441  -5.184  1.00  0.00     0.000 C 
BRANCH   3   4
ATOM      4  C   UNL     1       3.873  -5.525  -6.313  1.00  0.00     0.006 C 
BRANCH   4   5
ATOM      5  C   UNL     1       2.852  -5.377  -7.449  1.00  0.00     0.053 C 
BRANCH   5   6
ATOM      6  C   UNL     1       2.276  -3.996  -7.456  1.00  0.00     0.041 C 
ATOM      7  O   UNL     1       2.934  -3.033  -6.979  1.00  0.00    -0.550 OA
ATOM      8  O   UNL     1       1.036  -3.762  -8.036  1.00  0.00    -0.550 OA
ENDBRANCH   5   6
ENDBRANCH   4   5
ENDBRANCH   3   4
ENDBRANCH   2   3
ENDBRANCH   1   2
BRANCH   1   9
ATOM      9  C   UNL     1       6.954  -7.286  -5.265  1.00  0.00     0.000 C 
BRANCH   9  10
ATOM     10  C   UNL     1       6.720  -8.799  -5.096  1.00  0.00    -0.000 C 
BRANCH  10  11
ATOM     11  C   UNL     1       6.404  -9.554  -6.401  1.00  0.00    -0.000 C 
BRANCH  11  12
ATOM     12  C   UNL     1       6.182  -8.613  -7.597  1.00  0.00    -0.000 C 
BRANCH  12  13
ATOM     13  C   UNL     1       4.726  -8.618  -8.087  1.00  0.00    -0.003 C 
ATOM     14  C   UNL     1       3.827  -9.535  -7.257  1.00  0.00     0.004 C 
ENDBRANCH  12  13
ENDBRANCH  11  12
ENDBRANCH  10  11
ENDBRANCH   9  10
ENDBRANCH   1   9
TORSDOF 10
ENDMDL
MODEL 8
REMARK VINA RESULT:    -4.019      1.783      2.985
REMARK INTER + INTRA:          -7.211
REMARK INTER:                  -6.017
REMARK INTRA:                  -1.193
REMARK UNBOUND:                -0.842
REMARK SMILES CCCCCCCCCCCC(=O)[O-]
REMARK SMILES IDX 7 1 8 2 9 3 10 4 11 5 12 6 13 7 14 8 6 9 5 10 4 11 3 12 2 13
REMARK SMILES IDX 1 14
REMARK H PARENT
REMARK Flexibility Score: inf
ROOT
ATOM      1  C   UNL     1       2.631  -4.775  -6.808  1.00  0.00     0.000 C 
ENDROOT
BRANCH   1   2
ATOM      2  C   UNL     1       3.203  -6.017  -7.524  1.00  0.00     0.000 C 
BRANCH   2   3
ATOM      3  C   UNL     1       4.506  -6.518  -6.876  1.00  0.00     0.000 C 
BRANCH   3   4
ATOM      4  C   UNL     1       4.748  -5.910  -5.486  1.00  0.00     0.006 C 
BRANCH   4   5
ATOM      5  C   UNL     1       5.877  -6.614  -4.720  1.00  0.00     0.053 C 
BRANCH   5   6
ATOM      6  C   UNL     1       5.540  -8.056  -4.505  1.00  0.00     0.041 C 
ATOM      7  O   UNL     1       4.540  -8.377  -3.809  1.00  0.00    -0.550 OA
ATOM      8  O   UNL     1       6.300  -9.046  -5.115  1.00  0.00    -0.550 OA
ENDBRANCH   5   6
ENDBRANCH   4   5
ENDBRANCH   3   4
ENDBRANCH   2   3
ENDBRANCH   1   2
BRANCH   1   9
ATOM      9  C   UNL     1       1.746  -3.894  -7.710  1.00  0.00     0.000 C 
BRANCH   9  10
ATOM     10  C   UNL     1       2.515  -2.975  -8.678  1.00  0.00    -0.000 C 
BRANCH  10  11
ATOM     11  C   UNL     1       3.862  -2.454  -8.142  1.00  0.00    -0.000 C 
BRANCH  11  12
ATOM     12  C   UNL     1       4.978  -2.488  -9.199  1.00  0.00    -0.000 C 
BRANCH  12  13
ATOM     13  C   UNL     1       5.087  -3.853  -9.897  1.00  0.00    -0.003 C 
ATOM     14  C   UNL     1       6.315  -4.647  -9.453  1.00  0.00     0.004 C 
ENDBRANCH  12  13
ENDBRANCH  11  12
ENDBRANCH  10  11
ENDBRANCH   9  10
ENDBRANCH   1   9
TORSDOF 10
ENDMDL
MODEL 9
REMARK VINA RESULT:    -3.982      2.605      3.875
REMARK INTER + INTRA:          -7.152
REMARK INTER:                  -6.570
REMARK INTRA:                  -0.583
REMARK UNBOUND:                -0.842
REMARK SMILES CCCCCCCCCCCC(=O)[O-]
REMARK SMILES IDX 7 1 8 2 9 3 10 4 11 5 12 6 13 7 14 8 6 9 5 10 4 11 3 12 2 13
REMARK SMILES IDX 1 14
REMARK H PARENT
REMARK Flexibility Score: inf
ROOT
ATOM      1  C   UNL     1       2.888  -3.382  -7.150  1.00  0.00     0.000 C 
ENDROOT
BRANCH   1   2
ATOM      2  C   UNL     1       2.755  -4.919  -7.204  1.00  0.00     0.000 C 
BRANCH   2   3
ATOM      3  C   UNL     1       4.063  -5.633  -6.819  1.00  0.00     0.000 C 
BRANCH   3   4
ATOM      4  C   UNL     1       4.093  -6.058  -5.343  1.00  0.00     0.006 C 
BRANCH   4   5
ATOM      5  C   UNL     1       5.507  -6.398  -4.854  1.00  0.00     0.053 C 
BRANCH   5   6
ATOM      6  C   UNL     1       5.579  -7.828  -4.417  1.00  0.00     0.041 C 
ATOM      7  O   UNL     1       6.680  -8.439  -4.426  1.00  0.00    -0.550 OA
ATOM      8  O   UNL     1       4.439  -8.470  -3.951  1.00  0.00    -0.550 OA
ENDBRANCH   5   6
ENDBRANCH   4   5
ENDBRANCH   3   4
ENDBRANCH   2   3
ENDBRANCH   1   2
BRANCH   1   9
ATOM      9  C   UNL     1       2.562  -2.685  -8.485  1.00  0.00     0.000 C 
BRANCH   9  10
ATOM     10  C   UNL     1       3.639  -2.833  -9.576  1.00  0.00    -0.000 C 
BRANCH  10  11
ATOM     11  C   UNL     1       5.087  -2.646  -9.085  1.00  0.00    -0.000 C 
BRANCH  11  12
ATOM     12  C   UNL     1       5.727  -1.344  -9.594  1.00  0.00    -0.000 C 
BRANCH  12  13
ATOM     13  C   UNL     1       6.779  -0.787  -8.622  1.00  0.00    -0.003 C 
ATOM     14  C   UNL     1       6.180   0.171  -7.592  1.00  0.00     0.004 C 
ENDBRANCH  12  13
ENDBRANCH  11  12
ENDBRANCH  10  11
ENDBRANCH   9  10
ENDBRANCH   1   9
TORSDOF 10
ENDMDL
