MODEL 1
REMARK VINA RESULT:    -1.622      0.000      0.000
REMARK INTER + INTRA:          -5.363
REMARK INTER:                  -3.708
REMARK INTRA:                  -1.654
REMARK UNBOUND:                -1.654
REMARK SMILES CCCCCCCCCCCCCCCCCCCCCCCC(=O)[O-]
REMARK SMILES IDX 13 1 14 2 15 3 16 4 17 5 18 6 19 7 20 8 21 9 22 10 23 11
REMARK SMILES IDX 24 12 25 13 26 14 12 15 11 16 10 17 9 18 8 19 7 20 6 21 5 22
REMARK SMILES IDX 4 23 3 24 2 25 1 26
REMARK H PARENT
REMARK Flexibility Score: inf
ROOT
ATOM      1  C   UNL     1      25.014  19.191  57.224  1.00  0.00     0.000 C 
ENDROOT
BRANCH   1   2
ATOM      2  C   UNL     1      24.821  20.212  58.360  1.00  0.00     0.000 C 
BRANCH   2   3
ATOM      3  C   UNL     1      23.794  21.305  58.015  1.00  0.00     0.000 C 
BRANCH   3   4
ATOM      4  C   UNL     1      22.876  21.639  59.208  1.00  0.00     0.000 C 
BRANCH   4   5
ATOM      5  C   UNL     1      23.359  21.057  60.550  1.00  0.00     0.000 C 
BRANCH   5   6
ATOM      6  C   UNL     1      23.182  22.042  61.719  1.00  0.00     0.000 C 
BRANCH   6   7
ATOM      7  C   UNL     1      23.309  21.362  63.095  1.00  0.00     0.000 C 
BRANCH   7   8
ATOM      8  C   UNL     1      24.717  21.412  63.726  1.00  0.00     0.000 C 
BRANCH   8   9
ATOM      9  C   UNL     1      25.788  22.122  62.876  1.00  0.00     0.000 C 
BRANCH   9  10
ATOM     10  C   UNL     1      26.995  21.219  62.578  1.00  0.00     0.006 C 
BRANCH  10  11
ATOM     11  C   UNL     1      26.887  20.602  61.180  1.00  0.00     0.053 C 
BRANCH  11  12
ATOM     12  C   UNL     1      27.514  21.502  60.161  1.00  0.00     0.041 C 
ATOM     13  O   UNL     1      26.805  22.042  59.269  1.00  0.00    -0.550 OA
ATOM     14  O   UNL     1      28.888  21.698  60.159  1.00  0.00    -0.550 OA
ENDBRANCH  11  12
ENDBRANCH  10  11
ENDBRANCH   9  10
ENDBRANCH   8   9
ENDBRANCH   7   8
ENDBRANCH   6   7
ENDBRANCH   5   6
ENDBRANCH   4   5
ENDBRANCH   3   4
ENDBRANCH   2   3
ENDBRANCH   1   2
BRANCH   1  15
ATOM     15  C   UNL     1      23.726  18.786  56.484  1.00  0.00     0.000 C 
BRANCH  15  16
ATOM     16  C   UNL     1      23.994  18.197  55.088  1.00  0.00     0.000 C 
BRANCH  16  17
ATOM     17  C   UNL     1      24.049  19.276  53.995  1.00  0.00     0.000 C 
BRANCH  17  18
ATOM     18  C   UNL     1      22.965  20.350  54.184  1.00  0.00    -0.000 C 
BRANCH  18  19
ATOM     19  C   UNL     1      23.555  21.760  54.033  1.00  0.00    -0.000 C 
BRANCH  19  20
ATOM     20  C   UNL     1      24.739  22.007  54.982  1.00  0.00    -0.000 C 
BRANCH  20  21
ATOM     21  C   UNL     1      26.098  21.815  54.288  1.00  0.00    -0.000 C 
BRANCH  21  22
ATOM     22  C   UNL     1      27.291  22.124  55.214  1.00  0.00    -0.000 C 
BRANCH  22  23
ATOM     23  C   UNL     1      28.680  21.896  54.585  1.00  0.00    -0.000 C 
BRANCH  23  24
ATOM     24  C   UNL     1      29.869  22.066  55.552  1.00  0.00    -0.000 C 
BRANCH  24  25
ATOM     25  C   UNL     1      31.246  21.919  54.871  1.00  0.00    -0.003 C 
ATOM     26  C   UNL     1      31.558  20.472  54.489  1.00  0.00     0.004 C 
ENDBRANCH  24  25
ENDBRANCH  23  24
ENDBRANCH  22  23
ENDBRANCH  21  22
ENDBRANCH  20  21
ENDBRANCH  19  20
ENDBRANCH  18  19
ENDBRANCH  17  18
ENDBRANCH  16  17
ENDBRANCH  15  16
ENDBRANCH   1  15
TORSDOF 22
ENDMDL
MODEL 2
REMARK VINA RESULT:    -1.418      1.975      7.420
REMARK INTER + INTRA:          -4.895
REMARK INTER:                  -3.417
REMARK INTRA:                  -1.478
REMARK UNBOUND:                -1.654
REMARK SMILES CCCCCCCCCCCCCCCCCCCCCCCC(=O)[O-]
REMARK SMILES IDX 13 1 14 2 15 3 16 4 17 5 18 6 19 7 20 8 21 9 22 10 23 11
REMARK SMILES IDX 24 12 25 13 26 14 12 15 11 16 10 17 9 18 8 19 7 20 6 21 5 22
REMARK SMILES IDX 4 23 3 24 2 25 1 26
REMARK H PARENT
REMARK Flexibility Score: inf
ROOT
ATOM      1  C   UNL     1      26.963  19.593  58.201  1.00  0.00     0.000 C 
ENDROOT
BRANCH   1   2
ATOM      2  C   UNL     1      26.016  19.115  57.086  1.00  0.00     0.000 C 
BRANCH   2   3
ATOM      3  C   UNL     1      24.572  19.615  57.271  1.00  0.00     0.000 C 
BRANCH   3   4
ATOM      4  C   UNL     1      23.583  18.901  56.330  1.00  0.00     0.000 C 
BRANCH   4   5
ATOM      5  C   UNL     1      24.181  18.531  54.959  1.00  0.00     0.000 C 
BRANCH   5   6
ATOM      6  C   UNL     1      23.265  18.929  53.789  1.00  0.00     0.000 C 
BRANCH   6   7
ATOM      7  C   UNL     1      23.426  20.406  53.383  1.00  0.00     0.000 C 
BRANCH   7   8
ATOM      8  C   UNL     1      24.019  21.327  54.470  1.00  0.00     0.000 C 
BRANCH   8   9
ATOM      9  C   UNL     1      25.387  21.947  54.124  1.00  0.00     0.000 C 
BRANCH   9  10
ATOM     10  C   UNL     1      26.554  21.209  54.797  1.00  0.00     0.006 C 
BRANCH  10  11
ATOM     11  C   UNL     1      27.777  22.123  54.931  1.00  0.00     0.053 C 
BRANCH  11  12
ATOM     12  C   UNL     1      29.034  21.311  54.982  1.00  0.00     0.041 C 
ATOM     13  O   UNL     1      30.153  21.880  55.095  1.00  0.00    -0.550 OA
ATOM     14  O   UNL     1      28.975  19.932  54.845  1.00  0.00    -0.550 OA
ENDBRANCH  11  12
ENDBRANCH  10  11
ENDBRANCH   9  10
ENDBRANCH   8   9
ENDBRANCH   7   8
ENDBRANCH   6   7
ENDBRANCH   5   6
ENDBRANCH   4   5
ENDBRANCH   3   4
ENDBRANCH   2   3
ENDBRANCH   1   2
BRANCH   1  15
ATOM     15  C   UNL     1      27.167  21.117  58.277  1.00  0.00     0.000 C 
BRANCH  15  16
ATOM     16  C   UNL     1      27.576  21.600  59.680  1.00  0.00     0.000 C 
BRANCH  16  17
ATOM     17  C   UNL     1      26.376  21.732  60.630  1.00  0.00     0.000 C 
BRANCH  17  18
ATOM     18  C   UNL     1      25.085  22.111  59.887  1.00  0.00    -0.000 C 
BRANCH  18  19
ATOM     19  C   UNL     1      23.903  21.254  60.366  1.00  0.00    -0.000 C 
BRANCH  19  20
ATOM     20  C   UNL     1      22.889  22.060  61.195  1.00  0.00    -0.000 C 
BRANCH  20  21
ATOM     21  C   UNL     1      22.988  21.757  62.700  1.00  0.00    -0.000 C 
BRANCH  21  22
ATOM     22  C   UNL     1      24.394  22.018  63.271  1.00  0.00    -0.000 C 
BRANCH  22  23
ATOM     23  C   UNL     1      25.011  20.837  64.049  1.00  0.00    -0.000 C 
BRANCH  23  24
ATOM     24  C   UNL     1      26.301  20.255  63.435  1.00  0.00    -0.000 C 
BRANCH  24  25
ATOM     25  C   UNL     1      26.700  18.884  64.021  1.00  0.00    -0.003 C 
ATOM     26  C   UNL     1      25.551  18.213  64.773  1.00  0.00     0.004 C 
ENDBRANCH  24  25
ENDBRANCH  23  24
ENDBRANCH  22  23
ENDBRANCH  21  22
ENDBRANCH  20  21
ENDBRANCH  19  20
ENDBRANCH  18  19
ENDBRANCH  17  18
ENDBRANCH  16  17
ENDBRANCH  15  16
ENDBRANCH   1  15
TORSDOF 22
ENDMDL
MODEL 3
REMARK VINA RESULT:    -0.418      2.023      7.071
REMARK INTER + INTRA:          -2.609
REMARK INTER:                  -0.550
REMARK INTRA:                  -2.058
REMARK UNBOUND:                -1.654
REMARK SMILES CCCCCCCCCCCCCCCCCCCCCCCC(=O)[O-]
REMARK SMILES IDX 13 1 14 2 15 3 16 4 17 5 18 6 19 7 20 8 21 9 22 10 23 11
REMARK SMILES IDX 24 12 25 13 26 14 12 15 11 16 10 17 9 18 8 19 7 20 6 21 5 22
REMARK SMILES IDX 4 23 3 24 2 25 1 26
REMARK H PARENT
REMARK Flexibility Score: inf
ROOT
ATOM      1  C   UNL     1      23.851  21.292  59.635  1.00  0.00     0.000 C 
ENDROOT
BRANCH   1   2
ATOM      2  C   UNL     1      22.891  20.998  58.467  1.00  0.00     0.000 C 
BRANCH   2   3
ATOM      3  C   UNL     1      23.038  19.568  57.917  1.00  0.00     0.000 C 
BRANCH   3   4
ATOM      4  C   UNL     1      24.426  19.325  57.292  1.00  0.00     0.000 C 
BRANCH   4   5
ATOM      5  C   UNL     1      24.388  18.516  55.982  1.00  0.00     0.000 C 
BRANCH   5   6
ATOM      6  C   UNL     1      22.994  18.512  55.330  1.00  0.00     0.000 C 
BRANCH   6   7
ATOM      7  C   UNL     1      23.056  18.488  53.792  1.00  0.00     0.000 C 
BRANCH   7   8
ATOM      8  C   UNL     1      23.326  19.853  53.123  1.00  0.00     0.000 C 
BRANCH   8   9
ATOM      9  C   UNL     1      23.381  21.052  54.088  1.00  0.00     0.000 C 
BRANCH   9  10
ATOM     10  C   UNL     1      24.779  21.687  54.159  1.00  0.00     0.006 C 
BRANCH  10  11
ATOM     11  C   UNL     1      25.217  21.890  55.613  1.00  0.00     0.053 C 
BRANCH  11  12
ATOM     12  C   UNL     1      26.674  21.579  55.768  1.00  0.00     0.041 C 
ATOM     13  O   UNL     1      27.344  22.124  56.686  1.00  0.00    -0.550 OA
ATOM     14  O   UNL     1      27.303  20.736  54.864  1.00  0.00    -0.550 OA
ENDBRANCH  11  12
ENDBRANCH  10  11
ENDBRANCH   9  10
ENDBRANCH   8   9
ENDBRANCH   7   8
ENDBRANCH   6   7
ENDBRANCH   5   6
ENDBRANCH   4   5
ENDBRANCH   3   4
ENDBRANCH   2   3
ENDBRANCH   1   2
BRANCH   1  15
ATOM     15  C   UNL     1      23.173  21.753  60.938  1.00  0.00     0.000 C 
BRANCH  15  16
ATOM     16  C   UNL     1      23.243  20.701  62.058  1.00  0.00     0.000 C 
BRANCH  16  17
ATOM     17  C   UNL     1      22.875  21.281  63.433  1.00  0.00     0.000 C 
BRANCH  17  18
ATOM     18  C   UNL     1      24.114  21.728  64.226  1.00  0.00    -0.000 C 
BRANCH  18  19
ATOM     19  C   UNL     1      25.376  21.009  63.727  1.00  0.00    -0.000 C 
BRANCH  19  20
ATOM     20  C   UNL     1      26.638  21.878  63.854  1.00  0.00    -0.000 C 
BRANCH  20  21
ATOM     21  C   UNL     1      27.436  21.953  62.541  1.00  0.00    -0.000 C 
BRANCH  21  22
ATOM     22  C   UNL     1      26.534  22.125  61.304  1.00  0.00    -0.000 C 
BRANCH  22  23
ATOM     23  C   UNL     1      27.273  22.099  59.950  1.00  0.00    -0.000 C 
BRANCH  23  24
ATOM     24  C   UNL     1      28.071  20.811  59.667  1.00  0.00    -0.000 C 
BRANCH  24  25
ATOM     25  C   UNL     1      27.323  19.520  60.063  1.00  0.00    -0.003 C 
ATOM     26  C   UNL     1      28.275  18.373  60.401  1.00  0.00     0.004 C 
ENDBRANCH  24  25
ENDBRANCH  23  24
ENDBRANCH  22  23
ENDBRANCH  21  22
ENDBRANCH  20  21
ENDBRANCH  19  20
ENDBRANCH  18  19
ENDBRANCH  17  18
ENDBRANCH  16  17
ENDBRANCH  15  16
ENDBRANCH   1  15
TORSDOF 22
ENDMDL
MODEL 4
REMARK VINA RESULT:    -0.135      1.751      3.204
REMARK INTER + INTRA:          -1.962
REMARK INTER:                  -2.861
REMARK INTRA:                   0.899
REMARK UNBOUND:                -1.654
REMARK SMILES CCCCCCCCCCCCCCCCCCCCCCCC(=O)[O-]
REMARK SMILES IDX 13 1 14 2 15 3 16 4 17 5 18 6 19 7 20 8 21 9 22 10 23 11
REMARK SMILES IDX 24 12 25 13 26 14 12 15 11 16 10 17 9 18 8 19 7 20 6 21 5 22
REMARK SMILES IDX 4 23 3 24 2 25 1 26
REMARK H PARENT
REMARK Flexibility Score: inf
ROOT
ATOM      1  C   UNL     1      23.882  20.982  60.263  1.00  0.00     0.000 C 
ENDROOT
BRANCH   1   2
ATOM      2  C   UNL     1      23.190  20.928  61.637  1.00  0.00     0.000 C 
BRANCH   2   3
ATOM      3  C   UNL     1      23.814  21.894  62.660  1.00  0.00     0.000 C 
BRANCH   3   4
ATOM      4  C   UNL     1      24.029  21.228  64.033  1.00  0.00     0.000 C 
BRANCH   4   5
ATOM      5  C   UNL     1      25.070  20.093  64.021  1.00  0.00     0.000 C 
BRANCH   5   6
ATOM      6  C   UNL     1      26.510  20.614  63.871  1.00  0.00     0.000 C 
BRANCH   6   7
ATOM      7  C   UNL     1      26.573  22.020  63.246  1.00  0.00     0.000 C 
BRANCH   7   8
ATOM      8  C   UNL     1      27.377  22.121  61.932  1.00  0.00     0.000 C 
BRANCH   8   9
ATOM      9  C   UNL     1      26.641  21.614  60.677  1.00  0.00     0.000 C 
BRANCH   9  10
ATOM     10  C   UNL     1      27.467  20.588  59.885  1.00  0.00     0.006 C 
BRANCH  10  11
ATOM     11  C   UNL     1      27.024  20.542  58.419  1.00  0.00     0.053 C 
BRANCH  11  12
ATOM     12  C   UNL     1      26.445  19.200  58.090  1.00  0.00     0.041 C 
ATOM     13  O   UNL     1      27.162  18.166  58.161  1.00  0.00    -0.550 OA
ATOM     14  O   UNL     1      25.134  19.100  57.649  1.00  0.00    -0.550 OA
ENDBRANCH  11  12
ENDBRANCH  10  11
ENDBRANCH   9  10
ENDBRANCH   8   9
ENDBRANCH   7   8
ENDBRANCH   6   7
ENDBRANCH   5   6
ENDBRANCH   4   5
ENDBRANCH   3   4
ENDBRANCH   2   3
ENDBRANCH   1   2
BRANCH   1  15
ATOM     15  C   UNL     1      22.931  21.000  59.052  1.00  0.00     0.000 C 
BRANCH  15  16
ATOM     16  C   UNL     1      23.256  22.120  58.048  1.00  0.00     0.000 C 
BRANCH  16  17
ATOM     17  C   UNL     1      23.807  21.578  56.720  1.00  0.00     0.000 C 
BRANCH  17  18
ATOM     18  C   UNL     1      22.875  21.883  55.536  1.00  0.00    -0.000 C 
BRANCH  18  19
ATOM     19  C   UNL     1      23.653  21.890  54.212  1.00  0.00    -0.000 C 
BRANCH  19  20
ATOM     20  C   UNL     1      24.877  20.959  54.243  1.00  0.00    -0.000 C 
BRANCH  20  21
ATOM     21  C   UNL     1      25.885  21.349  55.337  1.00  0.00    -0.000 C 
BRANCH  21  22
ATOM     22  C   UNL     1      27.237  21.815  54.765  1.00  0.00    -0.000 C 
BRANCH  22  23
ATOM     23  C   UNL     1      28.329  22.093  55.818  1.00  0.00    -0.000 C 
BRANCH  23  24
ATOM     24  C   UNL     1      29.771  22.117  55.272  1.00  0.00    -0.000 C 
BRANCH  24  25
ATOM     25  C   UNL     1      30.159  20.843  54.493  1.00  0.00    -0.003 C 
ATOM     26  C   UNL     1      31.609  20.425  54.740  1.00  0.00     0.004 C 
ENDBRANCH  24  25
ENDBRANCH  23  24
ENDBRANCH  22  23
ENDBRANCH  21  22
ENDBRANCH  20  21
ENDBRANCH  19  20
ENDBRANCH  18  19
ENDBRANCH  17  18
ENDBRANCH  16  17
ENDBRANCH  15  16
ENDBRANCH   1  15
TORSDOF 22
ENDMDL
MODEL 5
REMARK VINA RESULT:     0.088      2.027      6.904
REMARK INTER + INTRA:          -1.454
REMARK INTER:                  -1.743
REMARK INTRA:                   0.288
REMARK UNBOUND:                -1.654
REMARK SMILES CCCCCCCCCCCCCCCCCCCCCCCC(=O)[O-]
REMARK SMILES IDX 13 1 14 2 15 3 16 4 17 5 18 6 19 7 20 8 21 9 22 10 23 11
REMARK SMILES IDX 24 12 25 13 26 14 12 15 11 16 10 17 9 18 8 19 7 20 6 21 5 22
REMARK SMILES IDX 4 23 3 24 2 25 1 26
REMARK H PARENT
REMARK Flexibility Score: inf
ROOT
ATOM      1  C   UNL     1      25.403  17.747  56.086  1.00  0.00     0.000 C 
ENDROOT
BRANCH   1   2
ATOM      2  C   UNL     1      23.924  17.575  55.695  1.00  0.00     0.000 C 
BRANCH   2   3
ATOM      3  C   UNL     1      23.282  18.879  55.190  1.00  0.00     0.000 C 
BRANCH   3   4
ATOM      4  C   UNL     1      22.924  18.810  53.693  1.00  0.00     0.000 C 
BRANCH   4   5
ATOM      5  C   UNL     1      23.391  20.033  52.881  1.00  0.00     0.000 C 
BRANCH   5   6
ATOM      6  C   UNL     1      23.460  21.314  53.731  1.00  0.00     0.000 C 
BRANCH   6   7
ATOM      7  C   UNL     1      24.755  22.114  53.499  1.00  0.00     0.000 C 
BRANCH   7   8
ATOM      8  C   UNL     1      25.810  21.997  54.620  1.00  0.00     0.000 C 
BRANCH   8   9
ATOM      9  C   UNL     1      27.275  22.035  54.143  1.00  0.00     0.000 C 
BRANCH   9  10
ATOM     10  C   UNL     1      28.274  21.844  55.294  1.00  0.00     0.006 C 
BRANCH  10  11
ATOM     11  C   UNL     1      29.143  20.603  55.067  1.00  0.00     0.053 C 
BRANCH  11  12
ATOM     12  C   UNL     1      30.563  21.000  54.803  1.00  0.00     0.041 C 
ATOM     13  O   UNL     1      30.988  22.125  55.182  1.00  0.00    -0.550 OA
ATOM     14  O   UNL     1      31.398  20.156  54.085  1.00  0.00    -0.550 OA
ENDBRANCH  11  12
ENDBRANCH  10  11
ENDBRANCH   9  10
ENDBRANCH   8   9
ENDBRANCH   7   8
ENDBRANCH   6   7
ENDBRANCH   5   6
ENDBRANCH   4   5
ENDBRANCH   3   4
ENDBRANCH   2   3
ENDBRANCH   1   2
BRANCH   1  15
ATOM     15  C   UNL     1      25.724  19.026  56.880  1.00  0.00     0.000 C 
BRANCH  15  16
ATOM     16  C   UNL     1      24.752  20.181  56.582  1.00  0.00     0.000 C 
BRANCH  16  17
ATOM     17  C   UNL     1      25.200  21.506  57.219  1.00  0.00     0.000 C 
BRANCH  17  18
ATOM     18  C   UNL     1      24.106  22.124  58.105  1.00  0.00    -0.000 C 
BRANCH  18  19
ATOM     19  C   UNL     1      22.899  21.183  58.226  1.00  0.00    -0.000 C 
BRANCH  19  20
ATOM     20  C   UNL     1      22.875  20.424  59.563  1.00  0.00    -0.000 C 
BRANCH  20  21
ATOM     21  C   UNL     1      23.959  20.917  60.538  1.00  0.00    -0.000 C 
BRANCH  21  22
ATOM     22  C   UNL     1      23.372  21.584  61.796  1.00  0.00    -0.000 C 
BRANCH  22  23
ATOM     23  C   UNL     1      24.304  21.591  63.025  1.00  0.00    -0.000 C 
BRANCH  23  24
ATOM     24  C   UNL     1      25.811  21.652  62.700  1.00  0.00    -0.000 C 
BRANCH  24  25
ATOM     25  C   UNL     1      26.572  20.356  63.051  1.00  0.00    -0.003 C 
ATOM     26  C   UNL     1      25.800  19.470  64.028  1.00  0.00     0.004 C 
ENDBRANCH  24  25
ENDBRANCH  23  24
ENDBRANCH  22  23
ENDBRANCH  21  22
ENDBRANCH  20  21
ENDBRANCH  19  20
ENDBRANCH  18  19
ENDBRANCH  17  18
ENDBRANCH  16  17
ENDBRANCH  15  16
ENDBRANCH   1  15
TORSDOF 22
ENDMDL
MODEL 6
REMARK VINA RESULT:     0.230      2.524      4.467
REMARK INTER + INTRA:          -1.129
REMARK INTER:                  -0.902
REMARK INTRA:                  -0.227
REMARK UNBOUND:                -1.654
REMARK SMILES CCCCCCCCCCCCCCCCCCCCCCCC(=O)[O-]
REMARK SMILES IDX 13 1 14 2 15 3 16 4 17 5 18 6 19 7 20 8 21 9 22 10 23 11
REMARK SMILES IDX 24 12 25 13 26 14 12 15 11 16 10 17 9 18 8 19 7 20 6 21 5 22
REMARK SMILES IDX 4 23 3 24 2 25 1 26
REMARK H PARENT
REMARK Flexibility Score: inf
ROOT
ATOM      1  C   UNL     1      27.351  19.695  58.711  1.00  0.00     0.000 C 
ENDROOT
BRANCH   1   2
ATOM      2  C   UNL     1      27.830  21.040  59.286  1.00  0.00     0.000 C 
BRANCH   2   3
ATOM      3  C   UNL     1      26.693  22.065  59.440  1.00  0.00     0.000 C 
BRANCH   3   4
ATOM      4  C   UNL     1      25.973  21.937  60.796  1.00  0.00     0.000 C 
BRANCH   4   5
ATOM      5  C   UNL     1      25.066  20.697  60.907  1.00  0.00     0.000 C 
BRANCH   5   6
ATOM      6  C   UNL     1      23.699  21.020  61.538  1.00  0.00     0.000 C 
BRANCH   6   7
ATOM      7  C   UNL     1      23.784  22.122  62.611  1.00  0.00     0.000 C 
BRANCH   7   8
ATOM      8  C   UNL     1      24.249  21.649  64.005  1.00  0.00     0.000 C 
BRANCH   8   9
ATOM      9  C   UNL     1      25.655  22.124  64.419  1.00  0.00     0.000 C 
BRANCH   9  10
ATOM     10  C   UNL     1      26.753  21.125  64.022  1.00  0.00     0.006 C 
BRANCH  10  11
ATOM     11  C   UNL     1      26.150  19.872  63.379  1.00  0.00     0.053 C 
BRANCH  11  12
ATOM     12  C   UNL     1      26.063  18.761  64.379  1.00  0.00     0.041 C 
ATOM     13  O   UNL     1      24.984  18.127  64.531  1.00  0.00    -0.550 OA
ATOM     14  O   UNL     1      27.153  18.465  65.184  1.00  0.00    -0.550 OA
ENDBRANCH  11  12
ENDBRANCH  10  11
ENDBRANCH   9  10
ENDBRANCH   8   9
ENDBRANCH   7   8
ENDBRANCH   6   7
ENDBRANCH   5   6
ENDBRANCH   4   5
ENDBRANCH   3   4
ENDBRANCH   2   3
ENDBRANCH   1   2
BRANCH   1  15
ATOM     15  C   UNL     1      27.001  19.712  57.212  1.00  0.00     0.000 C 
BRANCH  15  16
ATOM     16  C   UNL     1      26.912  21.135  56.631  1.00  0.00     0.000 C 
BRANCH  16  17
ATOM     17  C   UNL     1      26.979  21.147  55.095  1.00  0.00     0.000 C 
BRANCH  17  18
ATOM     18  C   UNL     1      25.889  22.035  54.473  1.00  0.00    -0.000 C 
BRANCH  18  19
ATOM     19  C   UNL     1      24.880  21.191  53.679  1.00  0.00    -0.000 C 
BRANCH  19  20
ATOM     20  C   UNL     1      23.643  20.815  54.512  1.00  0.00    -0.000 C 
BRANCH  20  21
ATOM     21  C   UNL     1      23.223  19.349  54.310  1.00  0.00    -0.000 C 
BRANCH  21  22
ATOM     22  C   UNL     1      24.164  18.354  55.015  1.00  0.00    -0.000 C 
BRANCH  22  23
ATOM     23  C   UNL     1      24.010  18.286  56.548  1.00  0.00    -0.000 C 
BRANCH  23  24
ATOM     24  C   UNL     1      22.882  19.162  57.130  1.00  0.00    -0.000 C 
BRANCH  24  25
ATOM     25  C   UNL     1      23.393  20.352  57.968  1.00  0.00    -0.003 C 
ATOM     26  C   UNL     1      23.345  21.673  57.199  1.00  0.00     0.004 C 
ENDBRANCH  24  25
ENDBRANCH  23  24
ENDBRANCH  22  23
ENDBRANCH  21  22
ENDBRANCH  20  21
ENDBRANCH  19  20
ENDBRANCH  18  19
ENDBRANCH  17  18
ENDBRANCH  16  17
ENDBRANCH  15  16
ENDBRANCH   1  15
TORSDOF 22
ENDMDL
MODEL 7
REMARK VINA RESULT:     0.254      2.011      4.843
REMARK INTER + INTRA:          -1.075
REMARK INTER:                  -1.134
REMARK INTRA:                   0.059
REMARK UNBOUND:                -1.654
REMARK SMILES CCCCCCCCCCCCCCCCCCCCCCCC(=O)[O-]
REMARK SMILES IDX 13 1 14 2 15 3 16 4 17 5 18 6 19 7 20 8 21 9 22 10 23 11
REMARK SMILES IDX 24 12 25 13 26 14 12 15 11 16 10 17 9 18 8 19 7 20 6 21 5 22
REMARK SMILES IDX 4 23 3 24 2 25 1 26
REMARK H PARENT
REMARK Flexibility Score: inf
ROOT
ATOM      1  C   UNL     1      26.285  18.967  56.235  1.00  0.00     0.000 C 
ENDROOT
BRANCH   1   2
ATOM      2  C   UNL     1      26.552  20.023  55.147  1.00  0.00     0.000 C 
BRANCH   2   3
ATOM      3  C   UNL     1      27.919  20.712  55.304  1.00  0.00     0.000 C 
BRANCH   3   4
ATOM      4  C   UNL     1      27.794  22.120  55.918  1.00  0.00     0.000 C 
BRANCH   4   5
ATOM      5  C   UNL     1      27.382  22.120  57.402  1.00  0.00     0.000 C 
BRANCH   5   6
ATOM      6  C   UNL     1      28.585  21.968  58.349  1.00  0.00     0.000 C 
BRANCH   6   7
ATOM      7  C   UNL     1      28.165  21.700  59.807  1.00  0.00     0.000 C 
BRANCH   7   8
ATOM      8  C   UNL     1      26.653  21.487  60.028  1.00  0.00     0.000 C 
BRANCH   8   9
ATOM      9  C   UNL     1      26.151  21.802  61.450  1.00  0.00     0.000 C 
BRANCH   9  10
ATOM     10  C   UNL     1      24.690  21.379  61.666  1.00  0.00     0.006 C 
BRANCH  10  11
ATOM     11  C   UNL     1      24.369  21.254  63.159  1.00  0.00     0.053 C 
BRANCH  11  12
ATOM     12  C   UNL     1      25.356  20.351  63.832  1.00  0.00     0.041 C 
ATOM     13  O   UNL     1      24.954  19.372  64.518  1.00  0.00    -0.550 OA
ATOM     14  O   UNL     1      26.713  20.624  63.752  1.00  0.00    -0.550 OA
ENDBRANCH  11  12
ENDBRANCH  10  11
ENDBRANCH   9  10
ENDBRANCH   8   9
ENDBRANCH   7   8
ENDBRANCH   6   7
ENDBRANCH   5   6
ENDBRANCH   4   5
ENDBRANCH   3   4
ENDBRANCH   2   3
ENDBRANCH   1   2
BRANCH   1  15
ATOM     15  C   UNL     1      25.459  19.461  57.437  1.00  0.00     0.000 C 
BRANCH  15  16
ATOM     16  C   UNL     1      23.955  19.167  57.295  1.00  0.00     0.000 C 
BRANCH  16  17
ATOM     17  C   UNL     1      23.681  17.796  56.659  1.00  0.00     0.000 C 
BRANCH  17  18
ATOM     18  C   UNL     1      23.002  17.917  55.284  1.00  0.00    -0.000 C 
BRANCH  18  19
ATOM     19  C   UNL     1      24.000  17.635  54.152  1.00  0.00    -0.000 C 
BRANCH  19  20
ATOM     20  C   UNL     1      24.248  18.866  53.264  1.00  0.00    -0.000 C 
BRANCH  20  21
ATOM     21  C   UNL     1      22.983  19.723  53.081  1.00  0.00    -0.000 C 
BRANCH  21  22
ATOM     22  C   UNL     1      23.297  21.219  52.892  1.00  0.00    -0.000 C 
BRANCH  22  23
ATOM     23  C   UNL     1      22.889  22.125  54.071  1.00  0.00    -0.000 C 
BRANCH  23  24
ATOM     24  C   UNL     1      23.741  21.960  55.346  1.00  0.00    -0.000 C 
BRANCH  24  25
ATOM     25  C   UNL     1      22.951  21.405  56.550  1.00  0.00    -0.003 C 
ATOM     26  C   UNL     1      23.384  22.034  57.874  1.00  0.00     0.004 C 
ENDBRANCH  24  25
ENDBRANCH  23  24
ENDBRANCH  22  23
ENDBRANCH  21  22
ENDBRANCH  20  21
ENDBRANCH  19  20
ENDBRANCH  18  19
ENDBRANCH  17  18
ENDBRANCH  16  17
ENDBRANCH  15  16
ENDBRANCH   1  15
TORSDOF 22
ENDMDL
