MODEL 1
REMARK VINA RESULT:    -5.439      0.000      0.000
REMARK INTER + INTRA:          -6.176
REMARK INTER:                  -5.916
REMARK INTRA:                  -0.260
REMARK UNBOUND:                -0.260
REMARK SMILES C[C@@H]1[C@H](C)CC[C@]2(C(=O)[O-])CC[C@@]3(C)C(=CC[C@H]4[C@]5(C)CC[C@H](O)C(C)(C)[C@@H]5CC[C@]43C)[C@H]12
REMARK SMILES IDX 7 1 6 2 11 3 33 4 5 5 12 6 15 7 2 8 3 9 13 10 16 11 1 12
REMARK SMILES IDX 4 13 14 14 31 15 17 16 18 17 30 18 32 19 19 20 29 21 28 22
REMARK SMILES IDX 21 23 20 24 25 25 22 26 23 27 26 28 27 29 8 30 9 31 10 32
REMARK SMILES IDX 24 33
REMARK H PARENT 24 34
REMARK Flexibility Score: inf
ROOT
ATOM      1  C   UNL     1      46.699  13.141  -4.979  1.00  0.00     0.017 C 
ATOM      2  C   UNL     1      48.127  12.903  -5.564  1.00  0.00     0.014 C 
ATOM      3  C   UNL     1      45.802  13.666  -6.121  1.00  0.00     0.014 C 
ATOM      4  C   UNL     1      46.697  14.206  -3.813  1.00  0.00     0.030 C 
ATOM      5  C   UNL     1      49.209  12.966  -4.490  1.00  0.00     0.004 C 
ATOM      6  C   UNL     1      44.335  13.796  -5.712  1.00  0.00     0.013 C 
ATOM      7  C   UNL     1      45.351  14.955  -3.635  1.00  0.00    -0.063 C 
ATOM      8  C   UNL     1      47.943  15.166  -3.875  1.00  0.00    -0.003 C 
ATOM      9  C   UNL     1      49.280  14.350  -3.800  1.00  0.00    -0.011 C 
ATOM     10  C   UNL     1      44.051  14.534  -4.342  1.00  0.00    -0.006 C 
ATOM     11  C   UNL     1      45.253  15.817  -2.608  1.00  0.00    -0.027 C 
ATOM     12  C   UNL     1      47.882  16.194  -5.028  1.00  0.00     0.008 C 
ATOM     13  C   UNL     1      50.515  15.142  -4.259  1.00  0.00     0.008 C 
ATOM     14  C   UNL     1      43.391  13.492  -3.382  1.00  0.00     0.017 C 
ATOM     15  C   UNL     1      43.057  15.789  -4.551  1.00  0.00    -0.020 C 
ATOM     16  C   UNL     1      44.105  16.747  -2.376  1.00  0.00     0.032 C 
ATOM     17  C   UNL     1      42.774  16.529  -3.179  1.00  0.00     0.006 C 
ATOM     18  C   UNL     1      43.705  16.847  -5.490  1.00  0.00     0.008 C 
ATOM     19  C   UNL     1      41.724  15.238  -5.176  1.00  0.00     0.012 C 
ATOM     20  C   UNL     1      41.942  17.911  -3.252  1.00  0.00    -0.025 C 
ATOM     21  C   UNL     1      42.887  18.135  -5.654  1.00  0.00     0.005 C 
ATOM     22  C   UNL     1      42.571  18.891  -4.327  1.00  0.00     0.003 C 
ATOM     23  C   UNL     1      40.432  17.684  -3.590  1.00  0.00     0.010 C 
ATOM     24  C   UNL     1      41.979  18.526  -1.807  1.00  0.00     0.012 C 
ATOM     25  C   UNL     1      41.724  20.222  -4.594  1.00  0.00    -0.006 C 
ATOM     26  C   UNL     1      39.612  18.978  -3.752  1.00  0.00     0.033 C 
ATOM     27  C   UNL     1      40.205  19.914  -4.821  1.00  0.00     0.120 C 
ATOM     28  C   UNL     1      41.880  21.231  -3.417  1.00  0.00     0.014 C 
ATOM     29  C   UNL     1      42.263  20.990  -5.839  1.00  0.00     0.014 C 
ENDROOT
BRANCH   1  30
ATOM     30  C   UNL     1      46.204  11.777  -4.494  1.00  0.00     0.048 C 
ATOM     31  O   UNL     1      45.905  10.876  -5.324  1.00  0.00    -0.550 OA
ATOM     32  O   UNL     1      46.199  11.456  -3.141  1.00  0.00    -0.550 OA
ENDBRANCH   1  30
BRANCH  27  33
ATOM     33  O   UNL     1      39.991  19.353  -6.094  1.00  0.00    -0.393 OA
ATOM     34  H   UNL     1      40.883  19.219  -6.509  1.00  0.00     0.210 HD
ENDBRANCH  27  33
TORSDOF 2
ENDMDL
MODEL 2
REMARK VINA RESULT:    -5.378      1.907      2.974
REMARK INTER + INTRA:          -6.111
REMARK INTER:                  -5.845
REMARK INTRA:                  -0.265
REMARK UNBOUND:                -0.260
REMARK SMILES C[C@@H]1[C@H](C)CC[C@]2(C(=O)[O-])CC[C@@]3(C)C(=CC[C@H]4[C@]5(C)CC[C@H](O)C(C)(C)[C@@H]5CC[C@]43C)[C@H]12
REMARK SMILES IDX 7 1 6 2 11 3 33 4 5 5 12 6 15 7 2 8 3 9 13 10 16 11 1 12
REMARK SMILES IDX 4 13 14 14 31 15 17 16 18 17 30 18 32 19 19 20 29 21 28 22
REMARK SMILES IDX 21 23 20 24 25 25 22 26 23 27 26 28 27 29 8 30 9 31 10 32
REMARK SMILES IDX 24 33
REMARK H PARENT 24 34
REMARK Flexibility Score: inf
ROOT
ATOM      1  C   UNL     1      47.632  12.848  -3.982  1.00  0.00     0.017 C 
ATOM      2  C   UNL     1      48.798  12.262  -3.124  1.00  0.00     0.014 C 
ATOM      3  C   UNL     1      47.897  14.357  -4.171  1.00  0.00     0.014 C 
ATOM      4  C   UNL     1      46.226  12.671  -3.286  1.00  0.00     0.030 C 
ATOM      5  C   UNL     1      48.388  10.993  -2.382  1.00  0.00     0.004 C 
ATOM      6  C   UNL     1      46.903  15.020  -5.123  1.00  0.00     0.013 C 
ATOM      7  C   UNL     1      45.171  13.730  -3.699  1.00  0.00    -0.063 C 
ATOM      8  C   UNL     1      46.347  12.485  -1.727  1.00  0.00    -0.003 C 
ATOM      9  C   UNL     1      47.232  11.238  -1.382  1.00  0.00    -0.011 C 
ATOM     10  C   UNL     1      45.373  14.710  -4.868  1.00  0.00    -0.006 C 
ATOM     11  C   UNL     1      43.928  13.592  -3.207  1.00  0.00    -0.027 C 
ATOM     12  C   UNL     1      46.735  13.777  -0.973  1.00  0.00     0.008 C 
ATOM     13  C   UNL     1      47.735  11.220   0.071  1.00  0.00     0.008 C 
ATOM     14  C   UNL     1      44.838  13.950  -6.125  1.00  0.00     0.017 C 
ATOM     15  C   UNL     1      44.530  16.070  -4.654  1.00  0.00    -0.020 C 
ATOM     16  C   UNL     1      42.830  14.596  -3.357  1.00  0.00     0.032 C 
ATOM     17  C   UNL     1      42.998  15.759  -4.397  1.00  0.00     0.006 C 
ATOM     18  C   UNL     1      45.035  16.832  -3.395  1.00  0.00     0.008 C 
ATOM     19  C   UNL     1      44.714  16.950  -5.944  1.00  0.00     0.012 C 
ATOM     20  C   UNL     1      42.057  17.006  -3.986  1.00  0.00    -0.025 C 
ATOM     21  C   UNL     1      44.216  18.079  -3.036  1.00  0.00     0.005 C 
ATOM     22  C   UNL     1      42.698  17.823  -2.789  1.00  0.00     0.003 C 
ATOM     23  C   UNL     1      41.793  17.977  -5.183  1.00  0.00     0.010 C 
ATOM     24  C   UNL     1      40.662  16.398  -3.599  1.00  0.00     0.012 C 
ATOM     25  C   UNL     1      41.926  19.174  -2.414  1.00  0.00    -0.006 C 
ATOM     26  C   UNL     1      40.969  19.226  -4.822  1.00  0.00     0.033 C 
ATOM     27  C   UNL     1      41.609  20.038  -3.682  1.00  0.00     0.120 C 
ATOM     28  C   UNL     1      40.604  18.870  -1.649  1.00  0.00     0.014 C 
ATOM     29  C   UNL     1      42.760  20.041  -1.422  1.00  0.00     0.014 C 
ENDROOT
BRANCH   1  30
ATOM     30  C   UNL     1      47.687  12.123  -5.328  1.00  0.00     0.048 C 
ATOM     31  O   UNL     1      48.661  12.302  -6.109  1.00  0.00    -0.550 OA
ATOM     32  O   UNL     1      46.742  11.158  -5.661  1.00  0.00    -0.550 OA
ENDBRANCH   1  30
BRANCH  27  33
ATOM     33  O   UNL     1      42.772  20.669  -4.162  1.00  0.00    -0.393 OA
ATOM     34  H   UNL     1      42.488  21.316  -4.860  1.00  0.00     0.210 HD
ENDBRANCH  27  33
TORSDOF 2
ENDMDL
MODEL 3
REMARK VINA RESULT:    -4.559      1.401      7.875
REMARK INTER + INTRA:          -5.219
REMARK INTER:                  -4.954
REMARK INTRA:                  -0.265
REMARK UNBOUND:                -0.260
REMARK SMILES C[C@@H]1[C@H](C)CC[C@]2(C(=O)[O-])CC[C@@]3(C)C(=CC[C@H]4[C@]5(C)CC[C@H](O)C(C)(C)[C@@H]5CC[C@]43C)[C@H]12
REMARK SMILES IDX 7 1 6 2 11 3 33 4 5 5 12 6 15 7 2 8 3 9 13 10 16 11 1 12
REMARK SMILES IDX 4 13 14 14 31 15 17 16 18 17 30 18 32 19 19 20 29 21 28 22
REMARK SMILES IDX 21 23 20 24 25 25 22 26 23 27 26 28 27 29 8 30 9 31 10 32
REMARK SMILES IDX 24 33
REMARK H PARENT 24 34
REMARK Flexibility Score: inf
ROOT
ATOM      1  C   UNL     1      40.345  18.288  -3.836  1.00  0.00     0.017 C 
ATOM      2  C   UNL     1      39.183  18.782  -2.917  1.00  0.00     0.014 C 
ATOM      3  C   UNL     1      40.191  16.763  -4.015  1.00  0.00     0.014 C 
ATOM      4  C   UNL     1      41.767  18.577  -3.214  1.00  0.00     0.030 C 
ATOM      5  C   UNL     1      39.529  20.081  -2.194  1.00  0.00     0.004 C 
ATOM      6  C   UNL     1      41.183  16.179  -5.019  1.00  0.00     0.013 C 
ATOM      7  C   UNL     1      42.879  17.604  -3.684  1.00  0.00    -0.063 C 
ATOM      8  C   UNL     1      41.713  18.755  -1.651  1.00  0.00    -0.003 C 
ATOM      9  C   UNL     1      40.752  19.929  -1.256  1.00  0.00    -0.011 C 
ATOM     10  C   UNL     1      42.695  16.610  -4.843  1.00  0.00    -0.006 C 
ATOM     11  C   UNL     1      44.132  17.841  -3.257  1.00  0.00    -0.027 C 
ATOM     12  C   UNL     1      41.468  17.438  -0.880  1.00  0.00     0.008 C 
ATOM     13  C   UNL     1      40.325  19.909   0.221  1.00  0.00     0.008 C 
ATOM     14  C   UNL     1      43.102  17.408  -6.125  1.00  0.00     0.017 C 
ATOM     15  C   UNL     1      43.653  15.321  -4.677  1.00  0.00    -0.020 C 
ATOM     16  C   UNL     1      45.296  16.927  -3.467  1.00  0.00     0.032 C 
ATOM     17  C   UNL     1      45.167  15.752  -4.500  1.00  0.00     0.006 C 
ATOM     18  C   UNL     1      43.276  14.523  -3.396  1.00  0.00     0.008 C 
ATOM     19  C   UNL     1      43.471  14.427  -5.958  1.00  0.00     0.012 C 
ATOM     20  C   UNL     1      46.223  14.585  -4.142  1.00  0.00    -0.025 C 
ATOM     21  C   UNL     1      44.209  13.346  -3.083  1.00  0.00     0.005 C 
ATOM     22  C   UNL     1      45.713  13.721  -2.915  1.00  0.00     0.003 C 
ATOM     23  C   UNL     1      46.500  13.636  -5.354  1.00  0.00     0.010 C 
ATOM     24  C   UNL     1      47.585  15.301  -3.827  1.00  0.00     0.012 C 
ATOM     25  C   UNL     1      46.608  12.436  -2.585  1.00  0.00    -0.006 C 
ATOM     26  C   UNL     1      47.439  12.456  -5.040  1.00  0.00     0.033 C 
ATOM     27  C   UNL     1      46.925  11.598  -3.870  1.00  0.00     0.120 C 
ATOM     28  C   UNL     1      47.940  12.845  -1.889  1.00  0.00     0.014 C 
ATOM     29  C   UNL     1      45.898  11.508  -1.553  1.00  0.00     0.014 C 
ENDROOT
BRANCH   1  30
ATOM     30  C   UNL     1      40.163  19.005  -5.176  1.00  0.00     0.048 C 
ATOM     31  O   UNL     1      39.169  18.744  -5.908  1.00  0.00    -0.550 OA
ATOM     32  O   UNL     1      41.005  20.046  -5.552  1.00  0.00    -0.550 OA
ENDBRANCH   1  30
BRANCH  27  33
ATOM     33  O   UNL     1      45.793  10.876  -4.291  1.00  0.00    -0.393 OA
ATOM     34  H   UNL     1      45.479  10.342  -3.514  1.00  0.00     0.210 HD
ENDBRANCH  27  33
TORSDOF 2
ENDMDL
MODEL 4
REMARK VINA RESULT:    -3.915      1.552      7.773
REMARK INTER + INTRA:          -4.519
REMARK INTER:                  -5.194
REMARK INTRA:                   0.675
REMARK UNBOUND:                -0.260
REMARK SMILES C[C@@H]1[C@H](C)CC[C@]2(C(=O)[O-])CC[C@@]3(C)C(=CC[C@H]4[C@]5(C)CC[C@H](O)C(C)(C)[C@@H]5CC[C@]43C)[C@H]12
REMARK SMILES IDX 7 1 6 2 11 3 33 4 5 5 12 6 15 7 2 8 3 9 13 10 16 11 1 12
REMARK SMILES IDX 4 13 14 14 31 15 17 16 18 17 30 18 32 19 19 20 29 21 28 22
REMARK SMILES IDX 21 23 20 24 25 25 22 26 23 27 26 28 27 29 8 30 9 31 10 32
REMARK SMILES IDX 24 33
REMARK H PARENT 24 34
REMARK Flexibility Score: inf
ROOT
ATOM      1  C   UNL     1      40.002  17.706  -3.263  1.00  0.00     0.017 C 
ATOM      2  C   UNL     1      39.129  18.333  -2.130  1.00  0.00     0.014 C 
ATOM      3  C   UNL     1      40.182  16.206  -2.946  1.00  0.00     0.014 C 
ATOM      4  C   UNL     1      41.430  18.371  -3.359  1.00  0.00     0.030 C 
ATOM      5  C   UNL     1      39.362  19.834  -1.985  1.00  0.00     0.004 C 
ATOM      6  C   UNL     1      40.894  15.444  -4.062  1.00  0.00     0.013 C 
ATOM      7  C   UNL     1      42.527  17.447  -3.949  1.00  0.00    -0.063 C 
ATOM      8  C   UNL     1      41.859  19.069  -2.015  1.00  0.00    -0.003 C 
ATOM      9  C   UNL     1      40.824  20.173  -1.606  1.00  0.00    -0.011 C 
ATOM     10  C   UNL     1      42.220  16.098  -4.623  1.00  0.00    -0.006 C 
ATOM     11  C   UNL     1      43.749  17.974  -4.135  1.00  0.00    -0.027 C 
ATOM     12  C   UNL     1      42.221  18.079  -0.885  1.00  0.00     0.008 C 
ATOM     13  C   UNL     1      40.934  20.610  -0.135  1.00  0.00     0.008 C 
ATOM     14  C   UNL     1      41.963  16.450  -6.125  1.00  0.00     0.017 C 
ATOM     15  C   UNL     1      43.467  15.080  -4.508  1.00  0.00    -0.020 C 
ATOM     16  C   UNL     1      44.965  17.202  -4.533  1.00  0.00     0.032 C 
ATOM     17  C   UNL     1      44.796  15.736  -5.070  1.00  0.00     0.006 C 
ATOM     18  C   UNL     1      43.751  14.732  -3.019  1.00  0.00     0.008 C 
ATOM     19  C   UNL     1      43.097  13.784  -5.318  1.00  0.00     0.012 C 
ATOM     20  C   UNL     1      46.166  14.910  -4.858  1.00  0.00    -0.025 C 
ATOM     21  C   UNL     1      44.997  13.865  -2.795  1.00  0.00     0.005 C 
ATOM     22  C   UNL     1      46.327  14.464  -3.345  1.00  0.00     0.003 C 
ATOM     23  C   UNL     1      46.250  13.645  -5.774  1.00  0.00     0.010 C 
ATOM     24  C   UNL     1      47.331  15.859  -5.315  1.00  0.00     0.012 C 
ATOM     25  C   UNL     1      47.571  13.498  -3.062  1.00  0.00    -0.006 C 
ATOM     26  C   UNL     1      47.502  12.776  -5.550  1.00  0.00     0.033 C 
ATOM     27  C   UNL     1      47.639  12.316  -4.088  1.00  0.00     0.120 C 
ATOM     28  C   UNL     1      48.912  14.289  -3.090  1.00  0.00     0.014 C 
ATOM     29  C   UNL     1      47.501  12.900  -1.624  1.00  0.00     0.014 C 
ENDROOT
BRANCH   1  30
ATOM     30  C   UNL     1      39.210  17.887  -4.561  1.00  0.00     0.048 C 
ATOM     31  O   UNL     1      38.954  19.044  -4.993  1.00  0.00    -0.550 OA
ATOM     32  O   UNL     1      38.875  16.795  -5.354  1.00  0.00    -0.550 OA
ENDBRANCH   1  30
BRANCH  27  33
ATOM     33  O   UNL     1      46.649  11.355  -3.813  1.00  0.00    -0.393 OA
ATOM     34  H   UNL     1      46.485  10.853  -4.654  1.00  0.00     0.210 HD
ENDBRANCH  27  33
TORSDOF 2
ENDMDL
MODEL 5
REMARK VINA RESULT:    -3.847      1.880      7.762
REMARK INTER + INTRA:          -4.445
REMARK INTER:                  -4.210
REMARK INTRA:                  -0.235
REMARK UNBOUND:                -0.260
REMARK SMILES C[C@@H]1[C@H](C)CC[C@]2(C(=O)[O-])CC[C@@]3(C)C(=CC[C@H]4[C@]5(C)CC[C@H](O)C(C)(C)[C@@H]5CC[C@]43C)[C@H]12
REMARK SMILES IDX 7 1 6 2 11 3 33 4 5 5 12 6 15 7 2 8 3 9 13 10 16 11 1 12
REMARK SMILES IDX 4 13 14 14 31 15 17 16 18 17 30 18 32 19 19 20 29 21 28 22
REMARK SMILES IDX 21 23 20 24 25 25 22 26 23 27 26 28 27 29 8 30 9 31 10 32
REMARK SMILES IDX 24 33
REMARK H PARENT 24 34
REMARK Flexibility Score: inf
ROOT
ATOM      1  C   UNL     1      42.042  19.797  -4.104  1.00  0.00     0.017 C 
ATOM      2  C   UNL     1      40.810  20.624  -3.618  1.00  0.00     0.014 C 
ATOM      3  C   UNL     1      41.513  18.596  -4.917  1.00  0.00     0.014 C 
ATOM      4  C   UNL     1      42.907  19.245  -2.903  1.00  0.00     0.030 C 
ATOM      5  C   UNL     1      41.121  21.443  -2.368  1.00  0.00     0.004 C 
ATOM      6  C   UNL     1      42.629  17.788  -5.578  1.00  0.00     0.013 C 
ATOM      7  C   UNL     1      43.701  17.953  -3.229  1.00  0.00    -0.063 C 
ATOM      8  C   UNL     1      42.085  19.152  -1.564  1.00  0.00    -0.003 C 
ATOM      9  C   UNL     1      41.515  20.556  -1.162  1.00  0.00    -0.011 C 
ATOM     10  C   UNL     1      43.851  17.392  -4.654  1.00  0.00    -0.006 C 
ATOM     11  C   UNL     1      44.521  17.474  -2.279  1.00  0.00    -0.027 C 
ATOM     12  C   UNL     1      41.045  18.009  -1.548  1.00  0.00     0.008 C 
ATOM     13  C   UNL     1      40.385  20.490  -0.121  1.00  0.00     0.008 C 
ATOM     14  C   UNL     1      45.119  18.101  -5.232  1.00  0.00     0.017 C 
ATOM     15  C   UNL     1      44.078  15.795  -4.641  1.00  0.00    -0.020 C 
ATOM     16  C   UNL     1      45.235  16.162  -2.345  1.00  0.00     0.032 C 
ATOM     17  C   UNL     1      45.301  15.398  -3.714  1.00  0.00     0.006 C 
ATOM     18  C   UNL     1      42.834  15.072  -4.050  1.00  0.00     0.008 C 
ATOM     19  C   UNL     1      44.330  15.340  -6.125  1.00  0.00     0.012 C 
ATOM     20  C   UNL     1      45.542  13.822  -3.456  1.00  0.00    -0.025 C 
ATOM     21  C   UNL     1      43.000  13.555  -3.883  1.00  0.00     0.005 C 
ATOM     22  C   UNL     1      44.201  13.117  -2.990  1.00  0.00     0.003 C 
ATOM     23  C   UNL     1      46.094  13.085  -4.720  1.00  0.00     0.010 C 
ATOM     24  C   UNL     1      46.666  13.720  -2.364  1.00  0.00     0.012 C 
ATOM     25  C   UNL     1      44.293  11.524  -2.866  1.00  0.00    -0.006 C 
ATOM     26  C   UNL     1      46.263  11.564  -4.549  1.00  0.00     0.033 C 
ATOM     27  C   UNL     1      44.952  10.875  -4.130  1.00  0.00     0.120 C 
ATOM     28  C   UNL     1      45.088  11.107  -1.593  1.00  0.00     0.014 C 
ATOM     29  C   UNL     1      42.881  10.894  -2.666  1.00  0.00     0.014 C 
ENDROOT
BRANCH   1  30
ATOM     30  C   UNL     1      42.857  20.732  -4.999  1.00  0.00     0.048 C 
ATOM     31  O   UNL     1      42.346  21.219  -6.044  1.00  0.00    -0.550 OA
ATOM     32  O   UNL     1      44.121  21.169  -4.617  1.00  0.00    -0.550 OA
ENDBRANCH   1  30
BRANCH  27  33
ATOM     33  O   UNL     1      44.060  10.880  -5.219  1.00  0.00    -0.393 OA
ATOM     34  H   UNL     1      43.442  10.113  -5.096  1.00  0.00     0.210 HD
ENDBRANCH  27  33
TORSDOF 2
ENDMDL
MODEL 6
REMARK VINA RESULT:    -3.609      1.710      7.666
REMARK INTER + INTRA:          -4.186
REMARK INTER:                  -3.937
REMARK INTRA:                  -0.249
REMARK UNBOUND:                -0.260
REMARK SMILES C[C@@H]1[C@H](C)CC[C@]2(C(=O)[O-])CC[C@@]3(C)C(=CC[C@H]4[C@]5(C)CC[C@H](O)C(C)(C)[C@@H]5CC[C@]43C)[C@H]12
REMARK SMILES IDX 7 1 6 2 11 3 33 4 5 5 12 6 15 7 2 8 3 9 13 10 16 11 1 12
REMARK SMILES IDX 4 13 14 14 31 15 17 16 18 17 30 18 32 19 19 20 29 21 28 22
REMARK SMILES IDX 21 23 20 24 25 25 22 26 23 27 26 28 27 29 8 30 9 31 10 32
REMARK SMILES IDX 24 33
REMARK H PARENT 24 34
REMARK Flexibility Score: inf
ROOT
ATOM      1  C   UNL     1      41.236  19.480  -4.081  1.00  0.00     0.017 C 
ATOM      2  C   UNL     1      41.499  21.014  -3.946  1.00  0.00     0.014 C 
ATOM      3  C   UNL     1      41.697  18.805  -2.771  1.00  0.00     0.014 C 
ATOM      4  C   UNL     1      42.035  18.838  -5.282  1.00  0.00     0.030 C 
ATOM      5  C   UNL     1      41.657  21.695  -5.302  1.00  0.00     0.004 C 
ATOM      6  C   UNL     1      41.353  17.317  -2.718  1.00  0.00     0.013 C 
ATOM      7  C   UNL     1      42.351  17.330  -5.104  1.00  0.00    -0.063 C 
ATOM      8  C   UNL     1      43.289  19.694  -5.696  1.00  0.00    -0.003 C 
ATOM      9  C   UNL     1      42.862  21.146  -6.104  1.00  0.00    -0.011 C 
ATOM     10  C   UNL     1      41.731  16.463  -3.995  1.00  0.00    -0.006 C 
ATOM     11  C   UNL     1      42.957  16.699  -6.125  1.00  0.00    -0.027 C 
ATOM     12  C   UNL     1      44.452  19.629  -4.680  1.00  0.00     0.008 C 
ATOM     13  C   UNL     1      44.026  22.151  -6.124  1.00  0.00     0.008 C 
ATOM     14  C   UNL     1      40.395  15.926  -4.605  1.00  0.00     0.017 C 
ATOM     15  C   UNL     1      42.688  15.224  -3.606  1.00  0.00    -0.020 C 
ATOM     16  C   UNL     1      43.487  15.302  -6.075  1.00  0.00     0.032 C 
ATOM     17  C   UNL     1      43.068  14.369  -4.884  1.00  0.00     0.006 C 
ATOM     18  C   UNL     1      44.032  15.738  -3.013  1.00  0.00     0.008 C 
ATOM     19  C   UNL     1      41.921  14.344  -2.552  1.00  0.00     0.012 C 
ATOM     20  C   UNL     1      44.165  13.202  -4.686  1.00  0.00    -0.025 C 
ATOM     21  C   UNL     1      45.061  14.638  -2.724  1.00  0.00     0.005 C 
ATOM     22  C   UNL     1      45.454  13.761  -3.951  1.00  0.00     0.003 C 
ATOM     23  C   UNL     1      43.606  11.985  -3.879  1.00  0.00     0.010 C 
ATOM     24  C   UNL     1      44.499  12.659  -6.121  1.00  0.00     0.012 C 
ATOM     25  C   UNL     1      46.535  12.647  -3.559  1.00  0.00    -0.006 C 
ATOM     26  C   UNL     1      44.639  10.880  -3.591  1.00  0.00     0.033 C 
ATOM     27  C   UNL     1      45.876  11.417  -2.848  1.00  0.00     0.120 C 
ATOM     28  C   UNL     1      47.320  12.162  -4.814  1.00  0.00     0.014 C 
ATOM     29  C   UNL     1      47.629  13.234  -2.617  1.00  0.00     0.014 C 
ENDROOT
BRANCH   1  30
ATOM     30  C   UNL     1      39.725  19.321  -4.263  1.00  0.00     0.048 C 
ATOM     31  O   UNL     1      38.945  19.499  -3.289  1.00  0.00    -0.550 OA
ATOM     32  O   UNL     1      39.173  19.110  -5.522  1.00  0.00    -0.550 OA
ENDBRANCH   1  30
BRANCH  27  33
ATOM     33  O   UNL     1      45.515  11.736  -1.526  1.00  0.00    -0.393 OA
ATOM     34  H   UNL     1      44.780  12.401  -1.574  1.00  0.00     0.210 HD
ENDBRANCH  27  33
TORSDOF 2
ENDMDL
MODEL 7
REMARK VINA RESULT:    -2.689      3.154      5.041
REMARK INTER + INTRA:          -3.185
REMARK INTER:                  -3.348
REMARK INTRA:                   0.163
REMARK UNBOUND:                -0.260
REMARK SMILES C[C@@H]1[C@H](C)CC[C@]2(C(=O)[O-])CC[C@@]3(C)C(=CC[C@H]4[C@]5(C)CC[C@H](O)C(C)(C)[C@@H]5CC[C@]43C)[C@H]12
REMARK SMILES IDX 7 1 6 2 11 3 33 4 5 5 12 6 15 7 2 8 3 9 13 10 16 11 1 12
REMARK SMILES IDX 4 13 14 14 31 15 17 16 18 17 30 18 32 19 19 20 29 21 28 22
REMARK SMILES IDX 21 23 20 24 25 25 22 26 23 27 26 28 27 29 8 30 9 31 10 32
REMARK SMILES IDX 24 33
REMARK H PARENT 24 34
REMARK Flexibility Score: inf
ROOT
ATOM      1  C   UNL     1      48.577  14.508  -4.079  1.00  0.00     0.017 C 
ATOM      2  C   UNL     1      49.874  13.648  -3.942  1.00  0.00     0.014 C 
ATOM      3  C   UNL     1      47.772  14.361  -2.770  1.00  0.00     0.014 C 
ATOM      4  C   UNL     1      47.668  14.035  -5.281  1.00  0.00     0.030 C 
ATOM      5  C   UNL     1      50.435  13.228  -5.298  1.00  0.00     0.004 C 
ATOM      6  C   UNL     1      46.550  15.275  -2.719  1.00  0.00     0.013 C 
ATOM      7  C   UNL     1      46.161  14.354  -5.104  1.00  0.00    -0.063 C 
ATOM      8  C   UNL     1      47.946  12.541  -5.692  1.00  0.00    -0.003 C 
ATOM      9  C   UNL     1      49.447  12.345  -6.100  1.00  0.00    -0.011 C 
ATOM     10  C   UNL     1      45.617  15.273  -3.996  1.00  0.00    -0.006 C 
ATOM     11  C   UNL     1      45.340  14.053  -6.125  1.00  0.00    -0.027 C 
ATOM     12  C   UNL     1      47.416  11.504  -4.676  1.00  0.00     0.008 C 
ATOM     13  C   UNL     1      49.896  10.875  -6.117  1.00  0.00     0.008 C 
ATOM     14  C   UNL     1      45.665  16.711  -4.608  1.00  0.00     0.017 C 
ATOM     15  C   UNL     1      44.097  14.897  -3.608  1.00  0.00    -0.020 C 
ATOM     16  C   UNL     1      43.847  14.133  -6.077  1.00  0.00     0.032 C 
ATOM     17  C   UNL     1      43.162  14.894  -4.887  1.00  0.00     0.006 C 
ATOM     18  C   UNL     1      44.024  13.461  -3.014  1.00  0.00     0.008 C 
ATOM     19  C   UNL     1      43.601  15.956  -2.556  1.00  0.00     0.012 C 
ATOM     20  C   UNL     1      41.651  14.361  -4.689  1.00  0.00    -0.025 C 
ATOM     21  C   UNL     1      42.602  12.963  -2.725  1.00  0.00     0.005 C 
ATOM     22  C   UNL     1      41.642  12.957  -3.953  1.00  0.00     0.003 C 
ATOM     23  C   UNL     1      40.763  15.365  -3.884  1.00  0.00     0.010 C 
ATOM     24  C   UNL     1      41.021  14.273  -6.125  1.00  0.00     0.012 C 
ATOM     25  C   UNL     1      40.187  12.418  -3.561  1.00  0.00    -0.006 C 
ATOM     26  C   UNL     1      39.335  14.865  -3.596  1.00  0.00     0.033 C 
ATOM     27  C   UNL     1      39.326  13.518  -2.852  1.00  0.00     0.120 C 
ATOM     28  C   UNL     1      39.427  11.893  -4.816  1.00  0.00     0.014 C 
ATOM     29  C   UNL     1      40.281  11.181  -2.618  1.00  0.00     0.014 C 
ENDROOT
BRANCH   1  30
ATOM     30  C   UNL     1      49.041  15.954  -4.263  1.00  0.00     0.048 C 
ATOM     31  O   UNL     1      50.012  16.401  -3.593  1.00  0.00    -0.550 OA
ATOM     32  O   UNL     1      48.497  16.761  -5.256  1.00  0.00    -0.550 OA
ENDBRANCH   1  30
BRANCH  27  33
ATOM     33  O   UNL     1      39.763  13.721  -1.530  1.00  0.00    -0.393 OA
ATOM     34  H   UNL     1      39.610  12.872  -1.037  1.00  0.00     0.210 HD
ENDBRANCH  27  33
TORSDOF 2
ENDMDL
