MODEL 1
REMARK VINA RESULT:    -5.462      0.000      0.000
REMARK INTER + INTRA:          -6.669
REMARK INTER:                  -6.579
REMARK INTRA:                  -0.090
REMARK UNBOUND:                -0.090
REMARK SMILES O=c1c(O)c(-c2ccc(O)c(O)c2)oc2cc(O)cc(O)c12
REMARK SMILES IDX 5 1 3 2 2 3 1 4 22 5 20 6 19 7 17 8 16 9 15 10 14 11 6 12
REMARK SMILES IDX 7 13 8 14 9 15 13 16 11 17 10 18 12 20 4 22 21 24 18 26
REMARK H PARENT 10 19 12 21 4 23 21 25 18 27
REMARK Flexibility Score: inf
ROOT
ATOM      1  C   UNL     1      46.254  16.060  -3.859  1.00  0.00     0.180 A 
ATOM      2  C   UNL     1      46.011  14.717  -3.512  1.00  0.00     0.208 A 
ATOM      3  C   UNL     1      47.082  13.810  -3.521  1.00  0.00     0.238 A 
ATOM      4  O   UNL     1      46.877  12.607  -3.202  1.00  0.00    -0.285 OA
ATOM      5  C   UNL     1      48.367  14.253  -3.894  1.00  0.00     0.111 A 
ATOM      6  C   UNL     1      49.498  13.401  -3.934  1.00  0.00     0.134 A 
ATOM      7  C   UNL     1      50.743  13.916  -4.325  1.00  0.00     0.093 A 
ATOM      8  C   UNL     1      50.877  15.263  -4.678  1.00  0.00     0.123 A 
ATOM      9  C   UNL     1      49.766  16.106  -4.641  1.00  0.00     0.094 A 
ATOM     10  C   UNL     1      48.517  15.613  -4.252  1.00  0.00     0.146 A 
ATOM     11  O   UNL     1      47.477  16.439  -4.221  1.00  0.00    -0.452 OA
ENDROOT
BRANCH   1  12
ATOM     12  C   UNL     1      45.181  17.080  -3.854  1.00  0.00     0.025 A 
ATOM     13  C   UNL     1      44.970  17.865  -4.999  1.00  0.00     0.016 A 
ATOM     14  C   UNL     1      43.977  18.848  -5.010  1.00  0.00     0.051 A 
ATOM     15  C   UNL     1      43.192  19.073  -3.876  1.00  0.00     0.157 A 
ATOM     16  C   UNL     1      44.404  17.322  -2.707  1.00  0.00     0.062 A 
ATOM     17  C   UNL     1      43.408  18.310  -2.716  1.00  0.00     0.158 A 
BRANCH  15  18
ATOM     18  O   UNL     1      42.206  20.059  -3.918  1.00  0.00    -0.504 OA
ATOM     19  H   UNL     1      42.336  20.928  -4.420  1.00  0.00     0.293 HD
ENDBRANCH  15  18
BRANCH  17  20
ATOM     20  O   UNL     1      42.638  18.538  -1.576  1.00  0.00    -0.504 OA
ATOM     21  H   UNL     1      42.728  19.390  -1.036  1.00  0.00     0.293 HD
ENDBRANCH  17  20
ENDBRANCH   1  12
BRANCH   2  22
ATOM     22  O   UNL     1      44.718  14.293  -3.194  1.00  0.00    -0.502 OA
ATOM     23  H   UNL     1      44.007  14.142  -3.899  1.00  0.00     0.293 HD
ENDBRANCH   2  22
BRANCH   6  24
ATOM     24  O   UNL     1      49.394  12.053  -3.588  1.00  0.00    -0.507 OA
ATOM     25  H   UNL     1      49.372  11.752  -2.620  1.00  0.00     0.293 HD
ENDBRANCH   6  24
BRANCH   8  26
ATOM     26  O   UNL     1      52.114  15.775  -5.068  1.00  0.00    -0.508 OA
ATOM     27  H   UNL     1      52.522  16.581  -4.610  1.00  0.00     0.293 HD
ENDBRANCH   8  26
TORSDOF 6
ENDMDL
MODEL 2
REMARK VINA RESULT:    -5.368      1.684      3.053
REMARK INTER + INTRA:          -6.556
REMARK INTER:                  -6.813
REMARK INTRA:                   0.257
REMARK UNBOUND:                -0.090
REMARK SMILES O=c1c(O)c(-c2ccc(O)c(O)c2)oc2cc(O)cc(O)c12
REMARK SMILES IDX 5 1 3 2 2 3 1 4 22 5 20 6 19 7 17 8 16 9 15 10 14 11 6 12
REMARK SMILES IDX 7 13 8 14 9 15 13 16 11 17 10 18 12 20 4 22 21 24 18 26
REMARK H PARENT 10 19 12 21 4 23 21 25 18 27
REMARK Flexibility Score: inf
ROOT
ATOM      1  C   UNL     1      45.397  16.436  -3.489  1.00  0.00     0.180 A 
ATOM      2  C   UNL     1      46.006  17.017  -4.618  1.00  0.00     0.208 A 
ATOM      3  C   UNL     1      47.197  16.458  -5.108  1.00  0.00     0.238 A 
ATOM      4  O   UNL     1      47.746  16.964  -6.125  1.00  0.00    -0.285 OA
ATOM      5  C   UNL     1      47.768  15.348  -4.453  1.00  0.00     0.111 A 
ATOM      6  C   UNL     1      48.968  14.730  -4.880  1.00  0.00     0.134 A 
ATOM      7  C   UNL     1      49.477  13.633  -4.169  1.00  0.00     0.093 A 
ATOM      8  C   UNL     1      48.810  13.145  -3.039  1.00  0.00     0.123 A 
ATOM      9  C   UNL     1      47.627  13.752  -2.614  1.00  0.00     0.094 A 
ATOM     10  C   UNL     1      47.102  14.844  -3.311  1.00  0.00     0.146 A 
ATOM     11  O   UNL     1      45.972  15.399  -2.887  1.00  0.00    -0.452 OA
ENDROOT
BRANCH   1  12
ATOM     12  C   UNL     1      44.130  16.955  -2.925  1.00  0.00     0.025 A 
ATOM     13  C   UNL     1      43.884  18.337  -2.940  1.00  0.00     0.016 A 
ATOM     14  C   UNL     1      42.705  18.852  -2.393  1.00  0.00     0.051 A 
ATOM     15  C   UNL     1      41.764  17.999  -1.812  1.00  0.00     0.157 A 
ATOM     16  C   UNL     1      43.191  16.100  -2.319  1.00  0.00     0.062 A 
ATOM     17  C   UNL     1      42.008  16.615  -1.769  1.00  0.00     0.158 A 
BRANCH  15  18
ATOM     18  O   UNL     1      40.595  18.541  -1.277  1.00  0.00    -0.504 OA
ATOM     19  H   UNL     1      39.745  17.998  -1.181  1.00  0.00     0.293 HD
ENDBRANCH  15  18
BRANCH  17  20
ATOM     20  O   UNL     1      41.081  15.759  -1.178  1.00  0.00    -0.504 OA
ATOM     21  H   UNL     1      41.360  14.882  -0.757  1.00  0.00     0.293 HD
ENDBRANCH  17  20
ENDBRANCH   1  12
BRANCH   2  22
ATOM     22  O   UNL     1      45.446  18.147  -5.219  1.00  0.00    -0.502 OA
ATOM     23  H   UNL     1      45.953  18.712  -5.890  1.00  0.00     0.293 HD
ENDBRANCH   2  22
BRANCH   6  24
ATOM     24  O   UNL     1      49.655  15.195  -6.002  1.00  0.00    -0.507 OA
ATOM     25  H   UNL     1      50.349  15.930  -5.934  1.00  0.00     0.293 HD
ENDBRANCH   6  24
BRANCH   8  26
ATOM     26  O   UNL     1      49.316  12.056  -2.331  1.00  0.00    -0.508 OA
ATOM     27  H   UNL     1      48.748  11.549  -1.662  1.00  0.00     0.293 HD
ENDBRANCH   8  26
TORSDOF 6
ENDMDL
MODEL 3
REMARK VINA RESULT:    -5.342      1.787      3.147
REMARK INTER + INTRA:          -6.524
REMARK INTER:                  -6.210
REMARK INTRA:                  -0.314
REMARK UNBOUND:                -0.090
REMARK SMILES O=c1c(O)c(-c2ccc(O)c(O)c2)oc2cc(O)cc(O)c12
REMARK SMILES IDX 5 1 3 2 2 3 1 4 22 5 20 6 19 7 17 8 16 9 15 10 14 11 6 12
REMARK SMILES IDX 7 13 8 14 9 15 13 16 11 17 10 18 12 20 4 22 21 24 18 26
REMARK H PARENT 10 19 12 21 4 23 21 25 18 27
REMARK Flexibility Score: inf
ROOT
ATOM      1  C   UNL     1      45.292  15.965  -3.543  1.00  0.00     0.180 A 
ATOM      2  C   UNL     1      45.962  16.875  -4.384  1.00  0.00     0.208 A 
ATOM      3  C   UNL     1      47.283  16.596  -4.768  1.00  0.00     0.238 A 
ATOM      4  O   UNL     1      47.889  17.398  -5.530  1.00  0.00    -0.285 OA
ATOM      5  C   UNL     1      47.917  15.430  -4.291  1.00  0.00     0.111 A 
ATOM      6  C   UNL     1      49.247  15.080  -4.627  1.00  0.00     0.134 A 
ATOM      7  C   UNL     1      49.810  13.907  -4.102  1.00  0.00     0.093 A 
ATOM      8  C   UNL     1      49.070  13.080  -3.250  1.00  0.00     0.123 A 
ATOM      9  C   UNL     1      47.759  13.422  -2.916  1.00  0.00     0.094 A 
ATOM     10  C   UNL     1      47.178  14.586  -3.429  1.00  0.00     0.146 A 
ATOM     11  O   UNL     1      45.927  14.884  -3.099  1.00  0.00    -0.452 OA
ENDROOT
BRANCH   1  12
ATOM     12  C   UNL     1      43.892  16.179  -3.110  1.00  0.00     0.025 A 
ATOM     13  C   UNL     1      42.847  15.603  -3.849  1.00  0.00     0.016 A 
ATOM     14  C   UNL     1      41.517  15.810  -3.472  1.00  0.00     0.051 A 
ATOM     15  C   UNL     1      41.211  16.604  -2.364  1.00  0.00     0.157 A 
ATOM     16  C   UNL     1      43.582  16.996  -2.008  1.00  0.00     0.062 A 
ATOM     17  C   UNL     1      42.248  17.205  -1.629  1.00  0.00     0.158 A 
BRANCH  15  18
ATOM     18  O   UNL     1      39.875  16.790  -2.009  1.00  0.00    -0.504 OA
ATOM     19  H   UNL     1      39.437  17.703  -2.023  1.00  0.00     0.293 HD
ENDBRANCH  15  18
BRANCH  17  20
ATOM     20  O   UNL     1      41.950  18.011  -0.531  1.00  0.00    -0.504 OA
ATOM     21  H   UNL     1      42.679  18.441   0.025  1.00  0.00     0.293 HD
ENDBRANCH  17  20
ENDBRANCH   1  12
BRANCH   2  22
ATOM     22  O   UNL     1      45.328  18.047  -4.804  1.00  0.00    -0.502 OA
ATOM     23  H   UNL     1      44.322  18.161  -4.774  1.00  0.00     0.293 HD
ENDBRANCH   2  22
BRANCH   6  24
ATOM     24  O   UNL     1      50.010  15.885  -5.474  1.00  0.00    -0.507 OA
ATOM     25  H   UNL     1      51.012  15.978  -5.359  1.00  0.00     0.293 HD
ENDBRANCH   6  24
BRANCH   8  26
ATOM     26  O   UNL     1      49.630  11.915  -2.728  1.00  0.00    -0.508 OA
ATOM     27  H   UNL     1      50.349  11.404  -3.226  1.00  0.00     0.293 HD
ENDBRANCH   8  26
TORSDOF 6
ENDMDL
MODEL 4
REMARK VINA RESULT:    -5.305      1.538      7.174
REMARK INTER + INTRA:          -6.481
REMARK INTER:                  -6.908
REMARK INTRA:                   0.427
REMARK UNBOUND:                -0.090
REMARK SMILES O=c1c(O)c(-c2ccc(O)c(O)c2)oc2cc(O)cc(O)c12
REMARK SMILES IDX 5 1 3 2 2 3 1 4 22 5 20 6 19 7 17 8 16 9 15 10 14 11 6 12
REMARK SMILES IDX 7 13 8 14 9 15 13 16 11 17 10 18 12 20 4 22 21 24 18 26
REMARK H PARENT 10 19 12 21 4 23 21 25 18 27
REMARK Flexibility Score: inf
ROOT
ATOM      1  C   UNL     1      46.420  16.529  -4.191  1.00  0.00     0.180 A 
ATOM      2  C   UNL     1      46.081  17.542  -5.109  1.00  0.00     0.208 A 
ATOM      3  C   UNL     1      44.815  18.142  -5.020  1.00  0.00     0.238 A 
ATOM      4  O   UNL     1      44.504  19.057  -5.830  1.00  0.00    -0.285 OA
ATOM      5  C   UNL     1      43.906  17.707  -4.034  1.00  0.00     0.111 A 
ATOM      6  C   UNL     1      42.609  18.256  -3.880  1.00  0.00     0.134 A 
ATOM      7  C   UNL     1      41.760  17.762  -2.880  1.00  0.00     0.093 A 
ATOM      8  C   UNL     1      42.180  16.731  -2.032  1.00  0.00     0.123 A 
ATOM      9  C   UNL     1      43.457  16.187  -2.180  1.00  0.00     0.094 A 
ATOM     10  C   UNL     1      44.320  16.666  -3.169  1.00  0.00     0.146 A 
ATOM     11  O   UNL     1      45.532  16.134  -3.285  1.00  0.00    -0.452 OA
ENDROOT
BRANCH   1  12
ATOM     12  C   UNL     1      47.742  15.863  -4.209  1.00  0.00     0.025 A 
ATOM     13  C   UNL     1      48.821  16.487  -4.856  1.00  0.00     0.016 A 
ATOM     14  C   UNL     1      50.072  15.866  -4.904  1.00  0.00     0.051 A 
ATOM     15  C   UNL     1      50.262  14.611  -4.322  1.00  0.00     0.157 A 
ATOM     16  C   UNL     1      47.930  14.589  -3.642  1.00  0.00     0.062 A 
ATOM     17  C   UNL     1      49.185  13.965  -3.691  1.00  0.00     0.158 A 
BRANCH  15  18
ATOM     18  O   UNL     1      51.523  14.018  -4.383  1.00  0.00    -0.504 OA
ATOM     19  H   UNL     1      52.351  14.475  -4.022  1.00  0.00     0.293 HD
ENDBRANCH  15  18
BRANCH  17  20
ATOM     20  O   UNL     1      49.363  12.705  -3.120  1.00  0.00    -0.504 OA
ATOM     21  H   UNL     1      49.943  12.571  -2.302  1.00  0.00     0.293 HD
ENDBRANCH  17  20
ENDBRANCH   1  12
BRANCH   2  22
ATOM     22  O   UNL     1      46.982  17.921  -6.108  1.00  0.00    -0.502 OA
ATOM     23  H   UNL     1      47.739  18.571  -5.938  1.00  0.00     0.293 HD
ENDBRANCH   2  22
BRANCH   6  24
ATOM     24  O   UNL     1      42.162  19.284  -4.711  1.00  0.00    -0.507 OA
ATOM     25  H   UNL     1      42.728  19.634  -5.475  1.00  0.00     0.293 HD
ENDBRANCH   6  24
BRANCH   8  26
ATOM     26  O   UNL     1      41.336  16.240  -1.038  1.00  0.00    -0.508 OA
ATOM     27  H   UNL     1      41.350  16.616  -0.097  1.00  0.00     0.293 HD
ENDBRANCH   8  26
TORSDOF 6
ENDMDL
MODEL 5
REMARK VINA RESULT:    -5.014      1.553      6.452
REMARK INTER + INTRA:          -6.129
REMARK INTER:                  -6.157
REMARK INTRA:                   0.027
REMARK UNBOUND:                -0.090
REMARK SMILES O=c1c(O)c(-c2ccc(O)c(O)c2)oc2cc(O)cc(O)c12
REMARK SMILES IDX 5 1 3 2 2 3 1 4 22 5 20 6 19 7 17 8 16 9 15 10 14 11 6 12
REMARK SMILES IDX 7 13 8 14 9 15 13 16 11 17 10 18 12 20 4 22 21 24 18 26
REMARK H PARENT 10 19 12 21 4 23 21 25 18 27
REMARK Flexibility Score: inf
ROOT
ATOM      1  C   UNL     1      46.605  15.854  -4.146  1.00  0.00     0.180 A 
ATOM      2  C   UNL     1      46.046  14.561  -4.151  1.00  0.00     0.208 A 
ATOM      3  C   UNL     1      44.725  14.392  -3.704  1.00  0.00     0.238 A 
ATOM      4  O   UNL     1      44.211  13.240  -3.714  1.00  0.00    -0.285 OA
ATOM      5  C   UNL     1      43.997  15.508  -3.243  1.00  0.00     0.111 A 
ATOM      6  C   UNL     1      42.664  15.421  -2.772  1.00  0.00     0.134 A 
ATOM      7  C   UNL     1      42.011  16.577  -2.321  1.00  0.00     0.093 A 
ATOM      8  C   UNL     1      42.663  17.815  -2.330  1.00  0.00     0.123 A 
ATOM      9  C   UNL     1      43.976  17.905  -2.794  1.00  0.00     0.094 A 
ATOM     10  C   UNL     1      44.646  16.765  -3.250  1.00  0.00     0.146 A 
ATOM     11  O   UNL     1      45.893  16.880  -3.690  1.00  0.00    -0.452 OA
ENDROOT
BRANCH   1  12
ATOM     12  C   UNL     1      47.983  16.116  -4.620  1.00  0.00     0.025 A 
ATOM     13  C   UNL     1      48.205  17.121  -5.574  1.00  0.00     0.016 A 
ATOM     14  C   UNL     1      49.494  17.371  -6.052  1.00  0.00     0.051 A 
ATOM     15  C   UNL     1      50.576  16.613  -5.596  1.00  0.00     0.157 A 
ATOM     16  C   UNL     1      49.070  15.340  -4.179  1.00  0.00     0.062 A 
ATOM     17  C   UNL     1      50.365  15.588  -4.658  1.00  0.00     0.158 A 
BRANCH  15  18
ATOM     18  O   UNL     1      51.852  16.888  -6.089  1.00  0.00    -0.504 OA
ATOM     19  H   UNL     1      52.664  16.932  -5.485  1.00  0.00     0.293 HD
ENDBRANCH  15  18
BRANCH  17  20
ATOM     20  O   UNL     1      51.437  14.819  -4.210  1.00  0.00    -0.504 OA
ATOM     21  H   UNL     1      52.111  15.183  -3.548  1.00  0.00     0.293 HD
ENDBRANCH  17  20
ENDBRANCH   1  12
BRANCH   2  22
ATOM     22  O   UNL     1      46.805  13.464  -4.567  1.00  0.00    -0.502 OA
ATOM     23  H   UNL     1      46.389  12.567  -4.784  1.00  0.00     0.293 HD
ENDBRANCH   2  22
BRANCH   6  24
ATOM     24  O   UNL     1      41.989  14.200  -2.750  1.00  0.00    -0.507 OA
ATOM     25  H   UNL     1      42.432  13.353  -2.414  1.00  0.00     0.293 HD
ENDBRANCH   6  24
BRANCH   8  26
ATOM     26  O   UNL     1      42.013  18.963  -1.881  1.00  0.00    -0.508 OA
ATOM     27  H   UNL     1      42.194  19.871  -2.295  1.00  0.00     0.293 HD
ENDBRANCH   8  26
TORSDOF 6
ENDMDL
MODEL 6
REMARK VINA RESULT:    -4.979      2.748      7.675
REMARK INTER + INTRA:          -6.087
REMARK INTER:                  -5.811
REMARK INTRA:                  -0.276
REMARK UNBOUND:                -0.090
REMARK SMILES O=c1c(O)c(-c2ccc(O)c(O)c2)oc2cc(O)cc(O)c12
REMARK SMILES IDX 5 1 3 2 2 3 1 4 22 5 20 6 19 7 17 8 16 9 15 10 14 11 6 12
REMARK SMILES IDX 7 13 8 14 9 15 13 16 11 17 10 18 12 20 4 22 21 24 18 26
REMARK H PARENT 10 19 12 21 4 23 21 25 18 27
REMARK Flexibility Score: inf
ROOT
ATOM      1  C   UNL     1      44.086  16.447  -3.091  1.00  0.00     0.180 A 
ATOM      2  C   UNL     1      44.385  17.314  -4.160  1.00  0.00     0.208 A 
ATOM      3  C   UNL     1      43.833  18.604  -4.161  1.00  0.00     0.238 A 
ATOM      4  O   UNL     1      44.102  19.393  -5.108  1.00  0.00    -0.285 OA
ATOM      5  C   UNL     1      42.979  18.998  -3.110  1.00  0.00     0.111 A 
ATOM      6  C   UNL     1      42.378  20.279  -3.040  1.00  0.00     0.134 A 
ATOM      7  C   UNL     1      41.533  20.591  -1.965  1.00  0.00     0.093 A 
ATOM      8  C   UNL     1      41.276  19.649  -0.963  1.00  0.00     0.123 A 
ATOM      9  C   UNL     1      41.866  18.386  -1.029  1.00  0.00     0.094 A 
ATOM     10  C   UNL     1      42.713  18.055  -2.090  1.00  0.00     0.146 A 
ATOM     11  O   UNL     1      43.265  16.847  -2.125  1.00  0.00    -0.452 OA
ENDROOT
BRANCH   1  12
ATOM     12  C   UNL     1      44.646  15.078  -3.009  1.00  0.00     0.025 A 
ATOM     13  C   UNL     1      43.804  13.976  -3.224  1.00  0.00     0.016 A 
ATOM     14  C   UNL     1      44.306  12.674  -3.130  1.00  0.00     0.051 A 
ATOM     15  C   UNL     1      45.647  12.455  -2.806  1.00  0.00     0.157 A 
ATOM     16  C   UNL     1      45.990  14.855  -2.662  1.00  0.00     0.062 A 
ATOM     17  C   UNL     1      46.495  13.550  -2.566  1.00  0.00     0.158 A 
BRANCH  15  18
ATOM     18  O   UNL     1      46.120  11.145  -2.723  1.00  0.00    -0.504 OA
ATOM     19  H   UNL     1      46.638  10.711  -3.477  1.00  0.00     0.293 HD
ENDBRANCH  15  18
BRANCH  17  20
ATOM     20  O   UNL     1      47.831  13.338  -2.228  1.00  0.00    -0.504 OA
ATOM     21  H   UNL     1      48.125  13.235  -1.265  1.00  0.00     0.293 HD
ENDBRANCH  17  20
ENDBRANCH   1  12
BRANCH   2  22
ATOM     22  O   UNL     1      45.194  16.882  -5.214  1.00  0.00    -0.502 OA
ATOM     23  H   UNL     1      46.125  16.511  -5.067  1.00  0.00     0.293 HD
ENDBRANCH   2  22
BRANCH   6  24
ATOM     24  O   UNL     1      42.615  21.238  -4.025  1.00  0.00    -0.507 OA
ATOM     25  H   UNL     1      43.341  21.117  -4.722  1.00  0.00     0.293 HD
ENDBRANCH   6  24
BRANCH   8  26
ATOM     26  O   UNL     1      40.435  19.959   0.104  1.00  0.00    -0.508 OA
ATOM     27  H   UNL     1      40.660  20.700   0.758  1.00  0.00     0.293 HD
ENDBRANCH   8  26
TORSDOF 6
ENDMDL
MODEL 7
REMARK VINA RESULT:    -4.955      1.988      7.092
REMARK INTER + INTRA:          -6.059
REMARK INTER:                  -5.976
REMARK INTRA:                  -0.083
REMARK UNBOUND:                -0.090
REMARK SMILES O=c1c(O)c(-c2ccc(O)c(O)c2)oc2cc(O)cc(O)c12
REMARK SMILES IDX 5 1 3 2 2 3 1 4 22 5 20 6 19 7 17 8 16 9 15 10 14 11 6 12
REMARK SMILES IDX 7 13 8 14 9 15 13 16 11 17 10 18 12 20 4 22 21 24 18 26
REMARK H PARENT 10 19 12 21 4 23 21 25 18 27
REMARK Flexibility Score: inf
ROOT
ATOM      1  C   UNL     1      44.741  15.750  -2.932  1.00  0.00     0.180 A 
ATOM      2  C   UNL     1      43.548  15.003  -2.868  1.00  0.00     0.208 A 
ATOM      3  C   UNL     1      42.325  15.686  -2.782  1.00  0.00     0.238 A 
ATOM      4  O   UNL     1      41.250  15.027  -2.736  1.00  0.00    -0.285 OA
ATOM      5  C   UNL     1      42.315  17.095  -2.739  1.00  0.00     0.111 A 
ATOM      6  C   UNL     1      41.125  17.857  -2.647  1.00  0.00     0.134 A 
ATOM      7  C   UNL     1      41.199  19.257  -2.599  1.00  0.00     0.093 A 
ATOM      8  C   UNL     1      42.437  19.907  -2.640  1.00  0.00     0.123 A 
ATOM      9  C   UNL     1      43.612  19.159  -2.731  1.00  0.00     0.094 A 
ATOM     10  C   UNL     1      43.560  17.763  -2.782  1.00  0.00     0.146 A 
ATOM     11  O   UNL     1      44.694  17.077  -2.872  1.00  0.00    -0.452 OA
ENDROOT
BRANCH   1  12
ATOM     12  C   UNL     1      46.068  15.103  -3.043  1.00  0.00     0.025 A 
ATOM     13  C   UNL     1      46.877  15.377  -4.158  1.00  0.00     0.016 A 
ATOM     14  C   UNL     1      48.124  14.761  -4.295  1.00  0.00     0.051 A 
ATOM     15  C   UNL     1      48.575  13.854  -3.332  1.00  0.00     0.157 A 
ATOM     16  C   UNL     1      46.514  14.173  -2.087  1.00  0.00     0.062 A 
ATOM     17  C   UNL     1      47.765  13.553  -2.224  1.00  0.00     0.158 A 
BRANCH  15  18
ATOM     18  O   UNL     1      49.825  13.258  -3.494  1.00  0.00    -0.504 OA
ATOM     19  H   UNL     1      50.609  13.479  -2.893  1.00  0.00     0.293 HD
ENDBRANCH  15  18
BRANCH  17  20
ATOM     20  O   UNL     1      48.202  12.639  -1.267  1.00  0.00    -0.504 OA
ATOM     21  H   UNL     1      49.177  12.377  -1.189  1.00  0.00     0.293 HD
ENDBRANCH  17  20
ENDBRANCH   1  12
BRANCH   2  22
ATOM     22  O   UNL     1      43.589  13.606  -2.864  1.00  0.00    -0.502 OA
ATOM     23  H   UNL     1      44.458  13.089  -2.813  1.00  0.00     0.293 HD
ENDBRANCH   2  22
BRANCH   6  24
ATOM     24  O   UNL     1      39.876  17.237  -2.603  1.00  0.00    -0.507 OA
ATOM     25  H   UNL     1      39.779  16.250  -2.394  1.00  0.00     0.293 HD
ENDBRANCH   6  24
BRANCH   8  26
ATOM     26  O   UNL     1      42.511  21.298  -2.592  1.00  0.00    -0.508 OA
ATOM     27  H   UNL     1      42.184  21.819  -1.787  1.00  0.00     0.293 HD
ENDBRANCH   8  26
TORSDOF 6
ENDMDL
MODEL 8
REMARK VINA RESULT:    -4.828      1.597      7.299
REMARK INTER + INTRA:          -5.906
REMARK INTER:                  -6.232
REMARK INTRA:                   0.326
REMARK UNBOUND:                -0.090
REMARK SMILES O=c1c(O)c(-c2ccc(O)c(O)c2)oc2cc(O)cc(O)c12
REMARK SMILES IDX 5 1 3 2 2 3 1 4 22 5 20 6 19 7 17 8 16 9 15 10 14 11 6 12
REMARK SMILES IDX 7 13 8 14 9 15 13 16 11 17 10 18 12 20 4 22 21 24 18 26
REMARK H PARENT 10 19 12 21 4 23 21 25 18 27
REMARK Flexibility Score: inf
ROOT
ATOM      1  C   UNL     1      46.075  15.670  -3.592  1.00  0.00     0.180 A 
ATOM      2  C   UNL     1      46.304  16.572  -4.650  1.00  0.00     0.208 A 
ATOM      3  C   UNL     1      45.397  17.624  -4.851  1.00  0.00     0.238 A 
ATOM      4  O   UNL     1      45.598  18.444  -5.788  1.00  0.00    -0.285 OA
ATOM      5  C   UNL     1      44.272  17.745  -4.010  1.00  0.00     0.111 A 
ATOM      6  C   UNL     1      43.309  18.775  -4.149  1.00  0.00     0.134 A 
ATOM      7  C   UNL     1      42.211  18.821  -3.277  1.00  0.00     0.093 A 
ATOM      8  C   UNL     1      42.058  17.860  -2.272  1.00  0.00     0.123 A 
ATOM      9  C   UNL     1      43.005  16.844  -2.131  1.00  0.00     0.094 A 
ATOM     10  C   UNL     1      44.107  16.781  -2.988  1.00  0.00     0.146 A 
ATOM     11  O   UNL     1      44.995  15.806  -2.829  1.00  0.00    -0.452 OA
ENDROOT
BRANCH   1  12
ATOM     12  C   UNL     1      46.996  14.547  -3.304  1.00  0.00     0.025 A 
ATOM     13  C   UNL     1      46.535  13.451  -2.557  1.00  0.00     0.016 A 
ATOM     14  C   UNL     1      47.393  12.390  -2.255  1.00  0.00     0.051 A 
ATOM     15  C   UNL     1      48.723  12.413  -2.680  1.00  0.00     0.157 A 
ATOM     16  C   UNL     1      48.342  14.578  -3.713  1.00  0.00     0.062 A 
ATOM     17  C   UNL     1      49.204  13.514  -3.409  1.00  0.00     0.158 A 
BRANCH  15  18
ATOM     18  O   UNL     1      49.555  11.338  -2.366  1.00  0.00    -0.504 OA
ATOM     19  H   UNL     1      50.369  11.443  -1.773  1.00  0.00     0.293 HD
ENDBRANCH  15  18
BRANCH  17  20
ATOM     20  O   UNL     1      50.534  13.550  -3.825  1.00  0.00    -0.504 OA
ATOM     21  H   UNL     1      50.791  13.417  -4.795  1.00  0.00     0.293 HD
ENDBRANCH  17  20
ENDBRANCH   1  12
BRANCH   2  22
ATOM     22  O   UNL     1      47.400  16.400  -5.499  1.00  0.00    -0.502 OA
ATOM     23  H   UNL     1      48.314  16.128  -5.158  1.00  0.00     0.293 HD
ENDBRANCH   2  22
BRANCH   6  24
ATOM     24  O   UNL     1      43.435  19.746  -5.143  1.00  0.00    -0.507 OA
ATOM     25  H   UNL     1      44.340  20.108  -5.421  1.00  0.00     0.293 HD
ENDBRANCH   6  24
BRANCH   8  26
ATOM     26  O   UNL     1      40.967  17.906  -1.406  1.00  0.00    -0.508 OA
ATOM     27  H   UNL     1      41.068  17.722  -0.415  1.00  0.00     0.293 HD
ENDBRANCH   8  26
TORSDOF 6
ENDMDL
