MODEL 1
REMARK VINA RESULT:    -6.303      0.000      0.000
REMARK INTER + INTRA:         -10.885
REMARK INTER:                  -9.250
REMARK INTRA:                  -1.634
REMARK UNBOUND:                -1.634
REMARK SMILES O=c1c(O[C@@H]2O[C@@H](CO)[C@H](O)[C@@H](O)[C@@H]2O)c(-c2ccc(O)c(O)c2)oc2cc(O)cc(O)c12
REMARK SMILES IDX 4 1 3 2 16 3 25 4 2 5 26 6 1 7 33 8 27 9 31 10 28 11 30 12
REMARK SMILES IDX 17 13 18 14 19 15 20 16 24 17 22 18 21 19 23 21 32 23 29 25
REMARK SMILES IDX 5 27 14 28 6 29 12 30 7 31 10 32 15 33 13 35 8 37 9 38 11 40
REMARK H PARENT 21 20 23 22 32 24 29 26 15 34 13 36 9 39 11 41
REMARK Flexibility Score: inf
ROOT
ATOM      1  O   UNL     1      -9.005  33.858   6.872  1.00  0.00    -0.454 OA
ENDROOT
BRANCH   1   2
ATOM      2  C   UNL     1      -9.772  34.949   7.325  1.00  0.00     0.214 A 
ATOM      3  C   UNL     1     -10.732  34.719   8.334  1.00  0.00     0.180 A 
ATOM      4  O   UNL     1     -11.408  35.736   8.857  1.00  0.00    -0.452 OA
ATOM      5  C   UNL     1      -9.599  36.276   6.860  1.00  0.00     0.239 A 
ATOM      6  C   UNL     1     -11.273  36.993   8.458  1.00  0.00     0.146 A 
ATOM      7  O   UNL     1      -8.707  36.525   6.008  1.00  0.00    -0.285 OA
ATOM      8  C   UNL     1     -10.397  37.319   7.390  1.00  0.00     0.111 A 
ATOM      9  C   UNL     1     -12.014  37.985   9.109  1.00  0.00     0.094 A 
ATOM     10  C   UNL     1     -10.333  38.681   6.965  1.00  0.00     0.134 A 
ATOM     11  C   UNL     1     -11.895  39.318   8.726  1.00  0.00     0.123 A 
ATOM     12  C   UNL     1     -11.052  39.660   7.662  1.00  0.00     0.093 A 
BRANCH   3  13
ATOM     13  C   UNL     1     -11.013  33.363   8.866  1.00  0.00     0.025 A 
ATOM     14  C   UNL     1     -10.853  33.110  10.237  1.00  0.00     0.016 A 
ATOM     15  C   UNL     1     -11.140  31.844  10.764  1.00  0.00     0.051 A 
ATOM     16  C   UNL     1     -11.601  30.820   9.921  1.00  0.00     0.157 A 
ATOM     17  C   UNL     1     -11.487  32.338   8.034  1.00  0.00     0.062 A 
ATOM     18  C   UNL     1     -11.773  31.067   8.556  1.00  0.00     0.158 A 
BRANCH  16  19
ATOM     19  O   UNL     1     -11.876  29.552  10.438  1.00  0.00    -0.504 OA
ATOM     20  H   UNL     1     -11.293  28.753  10.206  1.00  0.00     0.293 HD
ENDBRANCH  16  19
BRANCH  18  21
ATOM     21  O   UNL     1     -12.216  30.048   7.715  1.00  0.00    -0.504 OA
ATOM     22  H   UNL     1     -11.821  29.114   7.762  1.00  0.00     0.293 HD
ENDBRANCH  18  21
ENDBRANCH   3  13
BRANCH  10  23
ATOM     23  O   UNL     1      -9.609  39.118   5.850  1.00  0.00    -0.507 OA
ATOM     24  H   UNL     1      -9.067  39.970   5.808  1.00  0.00     0.293 HD
ENDBRANCH  10  23
BRANCH  11  25
ATOM     25  O   UNL     1     -12.639  40.295   9.383  1.00  0.00    -0.508 OA
ATOM     26  H   UNL     1     -12.936  41.133   8.902  1.00  0.00     0.293 HD
ENDBRANCH  11  25
ENDBRANCH   1   2
BRANCH   1  27
ATOM     27  C   UNL     1      -8.649  33.540   5.518  1.00  0.00     0.339 C 
ATOM     28  C   UNL     1      -7.119  33.505   5.351  1.00  0.00     0.214 C 
ATOM     29  O   UNL     1      -9.226  32.313   5.097  1.00  0.00    -0.332 OA
ATOM     30  C   UNL     1      -6.532  32.340   6.156  1.00  0.00     0.180 C 
ATOM     31  C   UNL     1      -8.783  31.223   5.892  1.00  0.00     0.179 C 
ATOM     32  C   UNL     1      -7.248  31.035   5.772  1.00  0.00     0.177 C 
BRANCH  28  33
ATOM     33  O   UNL     1      -6.557  34.716   5.787  1.00  0.00    -0.384 OA
ATOM     34  H   UNL     1      -6.503  35.318   4.997  1.00  0.00     0.211 HD
ENDBRANCH  28  33
BRANCH  30  35
ATOM     35  O   UNL     1      -5.156  32.234   5.885  1.00  0.00    -0.387 OA
ATOM     36  H   UNL     1      -5.013  31.331   5.497  1.00  0.00     0.211 HD
ENDBRANCH  30  35
BRANCH  31  37
ATOM     37  C   UNL     1      -9.540  29.964   5.429  1.00  0.00     0.191 C 
BRANCH  37  38
ATOM     38  O   UNL     1      -9.688  29.051   6.479  1.00  0.00    -0.394 OA
ATOM     39  H   UNL     1     -10.477  28.485   6.258  1.00  0.00     0.210 HD
ENDBRANCH  37  38
ENDBRANCH  31  37
BRANCH  32  40
ATOM     40  O   UNL     1      -6.826  30.008   6.630  1.00  0.00    -0.387 OA
ATOM     41  H   UNL     1      -6.169  29.458   6.122  1.00  0.00     0.211 HD
ENDBRANCH  32  40
ENDBRANCH   1  27
TORSDOF 12
ENDMDL
MODEL 2
REMARK VINA RESULT:    -6.022      1.085      1.332
REMARK INTER + INTRA:         -10.473
REMARK INTER:                  -8.963
REMARK INTRA:                  -1.510
REMARK UNBOUND:                -1.634
REMARK SMILES O=c1c(O[C@@H]2O[C@@H](CO)[C@H](O)[C@@H](O)[C@@H]2O)c(-c2ccc(O)c(O)c2)oc2cc(O)cc(O)c12
REMARK SMILES IDX 4 1 3 2 16 3 25 4 2 5 26 6 1 7 33 8 27 9 31 10 28 11 30 12
REMARK SMILES IDX 17 13 18 14 19 15 20 16 24 17 22 18 21 19 23 21 32 23 29 25
REMARK SMILES IDX 5 27 14 28 6 29 12 30 7 31 10 32 15 33 13 35 8 37 9 38 11 40
REMARK H PARENT 21 20 23 22 32 24 29 26 15 34 13 36 9 39 11 41
REMARK Flexibility Score: inf
ROOT
ATOM      1  O   UNL     1      -8.711  32.775   6.700  1.00  0.00    -0.454 OA
ENDROOT
BRANCH   1   2
ATOM      2  C   UNL     1      -9.294  34.028   6.970  1.00  0.00     0.214 A 
ATOM      3  C   UNL     1     -10.318  34.095   7.941  1.00  0.00     0.180 A 
ATOM      4  O   UNL     1     -10.826  35.269   8.295  1.00  0.00    -0.452 OA
ATOM      5  C   UNL     1      -8.876  35.236   6.359  1.00  0.00     0.239 A 
ATOM      6  C   UNL     1     -10.460  36.423   7.755  1.00  0.00     0.146 A 
ATOM      7  O   UNL     1      -7.922  35.220   5.539  1.00  0.00    -0.285 OA
ATOM      8  C   UNL     1      -9.500  36.458   6.710  1.00  0.00     0.111 A 
ATOM      9  C   UNL     1     -11.043  37.601   8.236  1.00  0.00     0.094 A 
ATOM     10  C   UNL     1      -9.184  37.723   6.128  1.00  0.00     0.134 A 
ATOM     11  C   UNL     1     -10.679  38.835   7.702  1.00  0.00     0.123 A 
ATOM     12  C   UNL     1      -9.749  38.890   6.657  1.00  0.00     0.093 A 
BRANCH   3  13
ATOM     13  C   UNL     1     -10.849  32.886   8.614  1.00  0.00     0.025 A 
ATOM     14  C   UNL     1     -10.833  32.809  10.015  1.00  0.00     0.016 A 
ATOM     15  C   UNL     1     -11.356  31.689  10.672  1.00  0.00     0.051 A 
ATOM     16  C   UNL     1     -11.913  30.634   9.930  1.00  0.00     0.157 A 
ATOM     17  C   UNL     1     -11.421  31.834   7.882  1.00  0.00     0.062 A 
ATOM     18  C   UNL     1     -11.943  30.707   8.535  1.00  0.00     0.158 A 
BRANCH  16  19
ATOM     19  O   UNL     1     -12.423  29.508  10.578  1.00  0.00    -0.504 OA
ATOM     20  H   UNL     1     -13.308  29.095  10.296  1.00  0.00     0.293 HD
ENDBRANCH  16  19
BRANCH  18  21
ATOM     21  O   UNL     1     -12.481  29.656   7.794  1.00  0.00    -0.504 OA
ATOM     22  H   UNL     1     -13.057  29.827   6.975  1.00  0.00     0.293 HD
ENDBRANCH  18  21
ENDBRANCH   3  13
BRANCH  10  23
ATOM     23  O   UNL     1      -8.353  37.885   5.014  1.00  0.00    -0.507 OA
ATOM     24  H   UNL     1      -7.979  38.767   4.693  1.00  0.00     0.293 HD
ENDBRANCH  10  23
BRANCH  11  25
ATOM     25  O   UNL     1     -11.266  39.999   8.190  1.00  0.00    -0.508 OA
ATOM     26  H   UNL     1     -11.974  39.962   8.912  1.00  0.00     0.293 HD
ENDBRANCH  11  25
ENDBRANCH   1   2
BRANCH   1  27
ATOM     27  C   UNL     1      -8.225  32.290   5.439  1.00  0.00     0.339 C 
ATOM     28  C   UNL     1      -6.757  31.841   5.558  1.00  0.00     0.214 C 
ATOM     29  O   UNL     1      -9.030  31.234   4.936  1.00  0.00    -0.332 OA
ATOM     30  C   UNL     1      -6.657  30.616   6.474  1.00  0.00     0.180 C 
ATOM     31  C   UNL     1      -9.045  30.118   5.813  1.00  0.00     0.179 C 
ATOM     32  C   UNL     1      -7.622  29.525   5.981  1.00  0.00     0.177 C 
BRANCH  28  33
ATOM     33  O   UNL     1      -5.972  32.886   6.074  1.00  0.00    -0.384 OA
ATOM     34  H   UNL     1      -5.542  32.550   6.906  1.00  0.00     0.211 HD
ENDBRANCH  28  33
BRANCH  30  35
ATOM     35  O   UNL     1      -5.336  30.134   6.462  1.00  0.00    -0.387 OA
ATOM     36  H   UNL     1      -5.354  29.274   5.964  1.00  0.00     0.211 HD
ENDBRANCH  30  35
BRANCH  31  37
ATOM     37  C   UNL     1     -10.022  29.077   5.236  1.00  0.00     0.191 C 
BRANCH  37  38
ATOM     38  O   UNL     1     -10.499  28.225   6.238  1.00  0.00    -0.394 OA
ATOM     39  H   UNL     1     -10.597  27.324   5.826  1.00  0.00     0.210 HD
ENDBRANCH  37  38
ENDBRANCH  31  37
BRANCH  32  40
ATOM     40  O   UNL     1      -7.651  28.479   6.917  1.00  0.00    -0.387 OA
ATOM     41  H   UNL     1      -7.964  28.868   7.778  1.00  0.00     0.211 HD
ENDBRANCH  32  40
ENDBRANCH   1  27
TORSDOF 12
ENDMDL
MODEL 3
REMARK VINA RESULT:    -5.871      2.007      8.006
REMARK INTER + INTRA:         -10.251
REMARK INTER:                  -8.448
REMARK INTRA:                  -1.803
REMARK UNBOUND:                -1.634
REMARK SMILES O=c1c(O[C@@H]2O[C@@H](CO)[C@H](O)[C@@H](O)[C@@H]2O)c(-c2ccc(O)c(O)c2)oc2cc(O)cc(O)c12
REMARK SMILES IDX 4 1 3 2 16 3 25 4 2 5 26 6 1 7 33 8 27 9 31 10 28 11 30 12
REMARK SMILES IDX 17 13 18 14 19 15 20 16 24 17 22 18 21 19 23 21 32 23 29 25
REMARK SMILES IDX 5 27 14 28 6 29 12 30 7 31 10 32 15 33 13 35 8 37 9 38 11 40
REMARK H PARENT 21 20 23 22 32 24 29 26 15 34 13 36 9 39 11 41
REMARK Flexibility Score: inf
ROOT
ATOM      1  O   UNL     1     -10.865  33.694   8.032  1.00  0.00    -0.454 OA
ENDROOT
BRANCH   1   2
ATOM      2  C   UNL     1     -10.023  32.908   7.221  1.00  0.00     0.214 A 
ATOM      3  C   UNL     1      -9.244  33.557   6.238  1.00  0.00     0.180 A 
ATOM      4  O   UNL     1      -8.367  32.868   5.518  1.00  0.00    -0.452 OA
ATOM      5  C   UNL     1      -9.874  31.507   7.370  1.00  0.00     0.239 A 
ATOM      6  C   UNL     1      -8.190  31.558   5.629  1.00  0.00     0.146 A 
ATOM      7  O   UNL     1     -10.504  30.908   8.279  1.00  0.00    -0.285 OA
ATOM      8  C   UNL     1      -8.984  30.798   6.526  1.00  0.00     0.111 A 
ATOM      9  C   UNL     1      -7.210  30.947   4.840  1.00  0.00     0.094 A 
ATOM     10  C   UNL     1      -8.789  29.384   6.565  1.00  0.00     0.134 A 
ATOM     11  C   UNL     1      -6.987  29.575   4.932  1.00  0.00     0.123 A 
ATOM     12  C   UNL     1      -7.772  28.803   5.797  1.00  0.00     0.093 A 
BRANCH   3  13
ATOM     13  C   UNL     1      -9.349  35.014   5.981  1.00  0.00     0.025 A 
ATOM     14  C   UNL     1     -10.465  35.518   5.296  1.00  0.00     0.016 A 
ATOM     15  C   UNL     1     -10.598  36.893   5.068  1.00  0.00     0.051 A 
ATOM     16  C   UNL     1      -9.615  37.781   5.535  1.00  0.00     0.157 A 
ATOM     17  C   UNL     1      -8.380  35.911   6.456  1.00  0.00     0.062 A 
ATOM     18  C   UNL     1      -8.506  37.289   6.227  1.00  0.00     0.158 A 
BRANCH  16  19
ATOM     19  O   UNL     1      -9.735  39.152   5.298  1.00  0.00    -0.504 OA
ATOM     20  H   UNL     1     -10.627  39.627   5.402  1.00  0.00     0.293 HD
ENDBRANCH  16  19
BRANCH  18  21
ATOM     21  O   UNL     1      -7.521  38.167   6.679  1.00  0.00    -0.504 OA
ATOM     22  H   UNL     1      -6.535  37.974   6.533  1.00  0.00     0.293 HD
ENDBRANCH  18  21
ENDBRANCH   3  13
BRANCH  10  23
ATOM     23  O   UNL     1      -9.585  28.505   7.308  1.00  0.00    -0.507 OA
ATOM     24  H   UNL     1      -9.329  27.559   7.554  1.00  0.00     0.293 HD
ENDBRANCH  10  23
BRANCH  11  25
ATOM     25  O   UNL     1      -6.008  28.980   4.142  1.00  0.00    -0.508 OA
ATOM     26  H   UNL     1      -5.286  29.535   3.702  1.00  0.00     0.293 HD
ENDBRANCH  11  25
ENDBRANCH   1   2
BRANCH   1  27
ATOM     27  C   UNL     1     -12.300  33.736   8.021  1.00  0.00     0.339 C 
ATOM     28  C   UNL     1     -12.866  33.364   9.404  1.00  0.00     0.214 C 
ATOM     29  O   UNL     1     -12.785  35.005   7.607  1.00  0.00    -0.332 OA
ATOM     30  C   UNL     1     -12.486  34.437  10.430  1.00  0.00     0.180 C 
ATOM     31  C   UNL     1     -12.362  36.041   8.482  1.00  0.00     0.179 C 
ATOM     32  C   UNL     1     -12.915  35.820   9.913  1.00  0.00     0.177 C 
BRANCH  28  33
ATOM     33  O   UNL     1     -12.366  32.116   9.811  1.00  0.00    -0.384 OA
ATOM     34  H   UNL     1     -11.403  32.240  10.028  1.00  0.00     0.211 HD
ENDBRANCH  28  33
BRANCH  30  35
ATOM     35  O   UNL     1     -13.124  34.157  11.652  1.00  0.00    -0.387 OA
ATOM     36  H   UNL     1     -12.492  34.429  12.369  1.00  0.00     0.211 HD
ENDBRANCH  30  35
BRANCH  31  37
ATOM     37  C   UNL     1     -12.846  37.380   7.895  1.00  0.00     0.191 C 
BRANCH  37  38
ATOM     38  O   UNL     1     -11.994  38.427   8.262  1.00  0.00    -0.394 OA
ATOM     39  H   UNL     1     -12.515  39.022   8.868  1.00  0.00     0.210 HD
ENDBRANCH  37  38
ENDBRANCH  31  37
BRANCH  32  40
ATOM     40  O   UNL     1     -12.415  36.809  10.775  1.00  0.00    -0.387 OA
ATOM     41  H   UNL     1     -12.884  37.657  10.547  1.00  0.00     0.211 HD
ENDBRANCH  32  40
ENDBRANCH   1  27
TORSDOF 12
ENDMDL
MODEL 4
REMARK VINA RESULT:    -5.862      1.753      2.998
REMARK INTER + INTRA:         -10.238
REMARK INTER:                  -8.410
REMARK INTRA:                  -1.827
REMARK UNBOUND:                -1.634
REMARK SMILES O=c1c(O[C@@H]2O[C@@H](CO)[C@H](O)[C@@H](O)[C@@H]2O)c(-c2ccc(O)c(O)c2)oc2cc(O)cc(O)c12
REMARK SMILES IDX 4 1 3 2 16 3 25 4 2 5 26 6 1 7 33 8 27 9 31 10 28 11 30 12
REMARK SMILES IDX 17 13 18 14 19 15 20 16 24 17 22 18 21 19 23 21 32 23 29 25
REMARK SMILES IDX 5 27 14 28 6 29 12 30 7 31 10 32 15 33 13 35 8 37 9 38 11 40
REMARK H PARENT 21 20 23 22 32 24 29 26 15 34 13 36 9 39 11 41
REMARK Flexibility Score: inf
ROOT
ATOM      1  O   UNL     1      -9.157  31.524   6.954  1.00  0.00    -0.454 OA
ENDROOT
BRANCH   1   2
ATOM      2  C   UNL     1      -9.436  32.901   7.067  1.00  0.00     0.214 A 
ATOM      3  C   UNL     1     -10.344  33.321   8.062  1.00  0.00     0.180 A 
ATOM      4  O   UNL     1     -10.562  34.615   8.265  1.00  0.00    -0.452 OA
ATOM      5  C   UNL     1      -8.816  33.894   6.269  1.00  0.00     0.239 A 
ATOM      6  C   UNL     1      -9.999  35.577   7.548  1.00  0.00     0.146 A 
ATOM      7  O   UNL     1      -7.953  33.559   5.417  1.00  0.00    -0.285 OA
ATOM      8  C   UNL     1      -9.136  35.260   6.467  1.00  0.00     0.111 A 
ATOM      9  C   UNL     1     -10.277  36.908   7.879  1.00  0.00     0.094 A 
ATOM     10  C   UNL     1      -8.601  36.335   5.694  1.00  0.00     0.134 A 
ATOM     11  C   UNL     1      -9.700  37.949   7.157  1.00  0.00     0.123 A 
ATOM     12  C   UNL     1      -8.862  37.658   6.073  1.00  0.00     0.093 A 
BRANCH   3  13
ATOM     13  C   UNL     1     -11.070  32.359   8.927  1.00  0.00     0.025 A 
ATOM     14  C   UNL     1     -12.216  31.713   8.436  1.00  0.00     0.016 A 
ATOM     15  C   UNL     1     -12.899  30.780   9.225  1.00  0.00     0.051 A 
ATOM     16  C   UNL     1     -12.434  30.476  10.515  1.00  0.00     0.157 A 
ATOM     17  C   UNL     1     -10.605  32.038  10.211  1.00  0.00     0.062 A 
ATOM     18  C   UNL     1     -11.289  31.106  11.008  1.00  0.00     0.158 A 
BRANCH  16  19
ATOM     19  O   UNL     1     -13.119  29.557  11.312  1.00  0.00    -0.504 OA
ATOM     20  H   UNL     1     -13.012  29.555  12.323  1.00  0.00     0.293 HD
ENDBRANCH  16  19
BRANCH  18  21
ATOM     21  O   UNL     1     -10.833  30.818  12.293  1.00  0.00    -0.504 OA
ATOM     22  H   UNL     1      -9.930  31.148  12.620  1.00  0.00     0.293 HD
ENDBRANCH  18  21
ENDBRANCH   3  13
BRANCH  10  23
ATOM     23  O   UNL     1      -7.842  36.160   4.532  1.00  0.00    -0.507 OA
ATOM     24  H   UNL     1      -8.220  35.953   3.618  1.00  0.00     0.293 HD
ENDBRANCH  10  23
BRANCH  11  25
ATOM     25  O   UNL     1      -9.986  39.268   7.497  1.00  0.00    -0.508 OA
ATOM     26  H   UNL     1      -9.441  39.754   8.197  1.00  0.00     0.293 HD
ENDBRANCH  11  25
ENDBRANCH   1   2
BRANCH   1  27
ATOM     27  C   UNL     1      -9.729  30.588   6.028  1.00  0.00     0.339 C 
ATOM     28  C   UNL     1      -8.636  29.955   5.149  1.00  0.00     0.214 C 
ATOM     29  O   UNL     1     -10.480  29.583   6.694  1.00  0.00    -0.332 OA
ATOM     30  C   UNL     1      -7.711  29.086   6.009  1.00  0.00     0.180 C 
ATOM     31  C   UNL     1      -9.672  28.824   7.581  1.00  0.00     0.179 C 
ATOM     32  C   UNL     1      -8.551  28.079   6.811  1.00  0.00     0.177 C 
BRANCH  28  33
ATOM     33  O   UNL     1      -7.888  30.958   4.510  1.00  0.00    -0.384 OA
ATOM     34  H   UNL     1      -7.127  31.186   5.108  1.00  0.00     0.211 HD
ENDBRANCH  28  33
BRANCH  30  35
ATOM     35  O   UNL     1      -6.806  28.405   5.175  1.00  0.00    -0.387 OA
ATOM     36  H   UNL     1      -7.323  28.108   4.380  1.00  0.00     0.211 HD
ENDBRANCH  30  35
BRANCH  31  37
ATOM     37  C   UNL     1     -10.590  27.838   8.327  1.00  0.00     0.191 C 
BRANCH  37  38
ATOM     38  O   UNL     1      -9.974  27.357   9.488  1.00  0.00    -0.394 OA
ATOM     39  H   UNL     1      -9.278  26.707   9.196  1.00  0.00     0.210 HD
ENDBRANCH  37  38
ENDBRANCH  31  37
BRANCH  32  40
ATOM     40  O   UNL     1      -7.718  27.405   7.719  1.00  0.00    -0.387 OA
ATOM     41  H   UNL     1      -7.434  28.071   8.402  1.00  0.00     0.211 HD
ENDBRANCH  32  40
ENDBRANCH   1  27
TORSDOF 12
ENDMDL
MODEL 5
REMARK VINA RESULT:    -5.789      1.532      5.343
REMARK INTER + INTRA:         -10.131
REMARK INTER:                  -9.437
REMARK INTRA:                  -0.693
REMARK UNBOUND:                -1.634
REMARK SMILES O=c1c(O[C@@H]2O[C@@H](CO)[C@H](O)[C@@H](O)[C@@H]2O)c(-c2ccc(O)c(O)c2)oc2cc(O)cc(O)c12
REMARK SMILES IDX 4 1 3 2 16 3 25 4 2 5 26 6 1 7 33 8 27 9 31 10 28 11 30 12
REMARK SMILES IDX 17 13 18 14 19 15 20 16 24 17 22 18 21 19 23 21 32 23 29 25
REMARK SMILES IDX 5 27 14 28 6 29 12 30 7 31 10 32 15 33 13 35 8 37 9 38 11 40
REMARK H PARENT 21 20 23 22 32 24 29 26 15 34 13 36 9 39 11 41
REMARK Flexibility Score: inf
ROOT
ATOM      1  O   UNL     1     -10.483  32.127   8.112  1.00  0.00    -0.454 OA
ENDROOT
BRANCH   1   2
ATOM      2  C   UNL     1     -10.045  33.409   7.724  1.00  0.00     0.214 A 
ATOM      3  C   UNL     1      -8.959  33.502   6.827  1.00  0.00     0.180 A 
ATOM      4  O   UNL     1      -8.576  34.686   6.362  1.00  0.00    -0.452 OA
ATOM      5  C   UNL     1     -10.667  34.611   8.144  1.00  0.00     0.239 A 
ATOM      6  C   UNL     1      -9.134  35.833   6.722  1.00  0.00     0.146 A 
ATOM      7  O   UNL     1     -11.678  34.560   8.891  1.00  0.00    -0.285 OA
ATOM      8  C   UNL     1     -10.177  35.857   7.684  1.00  0.00     0.111 A 
ATOM      9  C   UNL     1      -8.668  37.016   6.136  1.00  0.00     0.094 A 
ATOM     10  C   UNL     1     -10.702  37.126   8.075  1.00  0.00     0.134 A 
ATOM     11  C   UNL     1      -9.232  38.241   6.480  1.00  0.00     0.123 A 
ATOM     12  C   UNL     1     -10.249  38.290   7.442  1.00  0.00     0.093 A 
BRANCH   3  13
ATOM     13  C   UNL     1      -8.219  32.307   6.354  1.00  0.00     0.025 A 
ATOM     14  C   UNL     1      -8.798  31.473   5.385  1.00  0.00     0.016 A 
ATOM     15  C   UNL     1      -8.105  30.356   4.903  1.00  0.00     0.051 A 
ATOM     16  C   UNL     1      -6.816  30.068   5.380  1.00  0.00     0.157 A 
ATOM     17  C   UNL     1      -6.925  32.020   6.814  1.00  0.00     0.062 A 
ATOM     18  C   UNL     1      -6.228  30.899   6.337  1.00  0.00     0.158 A 
BRANCH  16  19
ATOM     19  O   UNL     1      -6.126  28.948   4.914  1.00  0.00    -0.504 OA
ATOM     20  H   UNL     1      -5.272  28.631   5.364  1.00  0.00     0.293 HD
ENDBRANCH  16  19
BRANCH  18  21
ATOM     21  O   UNL     1      -4.955  30.608   6.824  1.00  0.00    -0.504 OA
ATOM     22  H   UNL     1      -4.124  30.772   6.263  1.00  0.00     0.293 HD
ENDBRANCH  18  21
ENDBRANCH   3  13
BRANCH  10  23
ATOM     23  O   UNL     1     -11.641  37.302   9.099  1.00  0.00    -0.507 OA
ATOM     24  H   UNL     1     -12.613  37.538   8.959  1.00  0.00     0.293 HD
ENDBRANCH  10  23
BRANCH  11  25
ATOM     25  O   UNL     1      -8.760  39.410   5.889  1.00  0.00    -0.508 OA
ATOM     26  H   UNL     1      -8.194  39.377   5.051  1.00  0.00     0.293 HD
ENDBRANCH  11  25
ENDBRANCH   1   2
BRANCH   1  27
ATOM     27  C   UNL     1     -11.802  31.576   7.977  1.00  0.00     0.339 C 
ATOM     28  C   UNL     1     -11.746  30.038   7.927  1.00  0.00     0.214 C 
ATOM     29  O   UNL     1     -12.662  32.011   9.020  1.00  0.00    -0.332 OA
ATOM     30  C   UNL     1     -11.266  29.489   9.275  1.00  0.00     0.180 C 
ATOM     31  C   UNL     1     -12.189  31.607  10.296  1.00  0.00     0.179 C 
ATOM     32  C   UNL     1     -12.136  30.061  10.405  1.00  0.00     0.177 C 
BRANCH  28  33
ATOM     33  O   UNL     1     -10.879  29.619   6.905  1.00  0.00    -0.384 OA
ATOM     34  H   UNL     1     -11.404  29.036   6.293  1.00  0.00     0.211 HD
ENDBRANCH  28  33
BRANCH  30  35
ATOM     35  O   UNL     1     -11.353  28.085   9.262  1.00  0.00    -0.387 OA
ATOM     36  H   UNL     1     -12.139  27.856   8.700  1.00  0.00     0.211 HD
ENDBRANCH  30  35
BRANCH  31  37
ATOM     37  C   UNL     1     -13.125  32.213  11.359  1.00  0.00     0.191 C 
BRANCH  37  38
ATOM     38  O   UNL     1     -13.012  33.607  11.393  1.00  0.00    -0.394 OA
ATOM     39  H   UNL     1     -12.246  33.819  11.993  1.00  0.00     0.210 HD
ENDBRANCH  37  38
ENDBRANCH  31  37
BRANCH  32  40
ATOM     40  O   UNL     1     -11.587  29.691  11.643  1.00  0.00    -0.387 OA
ATOM     41  H   UNL     1     -11.167  28.796  11.518  1.00  0.00     0.211 HD
ENDBRANCH  32  40
ENDBRANCH   1  27
TORSDOF 12
ENDMDL
MODEL 6
REMARK VINA RESULT:    -5.463     14.223     17.394
REMARK INTER + INTRA:          -9.653
REMARK INTER:                  -9.601
REMARK INTRA:                  -0.052
REMARK UNBOUND:                -1.634
REMARK SMILES O=c1c(O[C@@H]2O[C@@H](CO)[C@H](O)[C@@H](O)[C@@H]2O)c(-c2ccc(O)c(O)c2)oc2cc(O)cc(O)c12
REMARK SMILES IDX 4 1 3 2 16 3 25 4 2 5 26 6 1 7 33 8 27 9 31 10 28 11 30 12
REMARK SMILES IDX 17 13 18 14 19 15 20 16 24 17 22 18 21 19 23 21 32 23 29 25
REMARK SMILES IDX 5 27 14 28 6 29 12 30 7 31 10 32 15 33 13 35 8 37 9 38 11 40
REMARK H PARENT 21 20 23 22 32 24 29 26 15 34 13 36 9 39 11 41
REMARK Flexibility Score: inf
ROOT
ATOM      1  O   UNL     1       1.809  45.325   0.775  1.00  0.00    -0.454 OA
ENDROOT
BRANCH   1   2
ATOM      2  C   UNL     1       2.669  44.260   1.106  1.00  0.00     0.214 A 
ATOM      3  C   UNL     1       2.652  43.772   2.430  1.00  0.00     0.180 A 
ATOM      4  O   UNL     1       3.374  42.707   2.760  1.00  0.00    -0.452 OA
ATOM      5  C   UNL     1       3.515  43.615   0.170  1.00  0.00     0.239 A 
ATOM      6  C   UNL     1       4.173  42.070   1.916  1.00  0.00     0.146 A 
ATOM      7  O   UNL     1       3.506  43.982  -1.033  1.00  0.00    -0.285 OA
ATOM      8  C   UNL     1       4.329  42.532   0.583  1.00  0.00     0.111 A 
ATOM      9  C   UNL     1       4.858  40.938   2.370  1.00  0.00     0.094 A 
ATOM     10  C   UNL     1       5.244  41.839  -0.266  1.00  0.00     0.134 A 
ATOM     11  C   UNL     1       5.701  40.234   1.513  1.00  0.00     0.123 A 
ATOM     12  C   UNL     1       5.885  40.684   0.200  1.00  0.00     0.093 A 
BRANCH   3  13
ATOM     13  C   UNL     1       1.826  44.397   3.492  1.00  0.00     0.025 A 
ATOM     14  C   UNL     1       2.093  45.716   3.891  1.00  0.00     0.016 A 
ATOM     15  C   UNL     1       1.307  46.334   4.871  1.00  0.00     0.051 A 
ATOM     16  C   UNL     1       0.237  45.639   5.457  1.00  0.00     0.157 A 
ATOM     17  C   UNL     1       0.746  43.715   4.073  1.00  0.00     0.062 A 
ATOM     18  C   UNL     1      -0.042  44.329   5.059  1.00  0.00     0.158 A 
BRANCH  16  19
ATOM     19  O   UNL     1      -0.541  46.246   6.445  1.00  0.00    -0.504 OA
ATOM     20  H   UNL     1      -0.249  47.114   6.885  1.00  0.00     0.293 HD
ENDBRANCH  16  19
BRANCH  18  21
ATOM     21  O   UNL     1      -1.095  43.631   5.648  1.00  0.00    -0.504 OA
ATOM     22  H   UNL     1      -1.330  42.687   5.359  1.00  0.00     0.293 HD
ENDBRANCH  18  21
ENDBRANCH   3  13
BRANCH  10  23
ATOM     23  O   UNL     1       5.586  42.261  -1.556  1.00  0.00    -0.507 OA
ATOM     24  H   UNL     1       5.711  41.650  -2.352  1.00  0.00     0.293 HD
ENDBRANCH  10  23
BRANCH  11  25
ATOM     25  O   UNL     1       6.376  39.109   1.977  1.00  0.00    -0.508 OA
ATOM     26  H   UNL     1       7.318  38.905   1.671  1.00  0.00     0.293 HD
ENDBRANCH  11  25
ENDBRANCH   1   2
BRANCH   1  27
ATOM     27  C   UNL     1       0.375  45.304   0.708  1.00  0.00     0.339 C 
ATOM     28  C   UNL     1      -0.113  45.818  -0.659  1.00  0.00     0.214 C 
ATOM     29  O   UNL     1      -0.144  44.009   0.970  1.00  0.00    -0.332 OA
ATOM     30  C   UNL     1       0.309  44.844  -1.765  1.00  0.00     0.180 C 
ATOM     31  C   UNL     1       0.314  43.056   0.021  1.00  0.00     0.179 C 
ATOM     32  C   UNL     1      -0.161  43.425  -1.409  1.00  0.00     0.177 C 
BRANCH  28  33
ATOM     33  O   UNL     1       0.420  47.092  -0.916  1.00  0.00    -0.384 OA
ATOM     34  H   UNL     1      -0.342  47.693  -1.133  1.00  0.00     0.211 HD
ENDBRANCH  28  33
BRANCH  30  35
ATOM     35  O   UNL     1      -0.261  45.251  -2.984  1.00  0.00    -0.387 OA
ATOM     36  H   UNL     1       0.448  45.742  -3.478  1.00  0.00     0.211 HD
ENDBRANCH  30  35
BRANCH  31  37
ATOM     37  C   UNL     1      -0.214  41.674   0.448  1.00  0.00     0.191 C 
BRANCH  37  38
ATOM     38  O   UNL     1      -1.455  41.406  -0.140  1.00  0.00    -0.394 OA
ATOM     39  H   UNL     1      -2.147  41.600   0.549  1.00  0.00     0.210 HD
ENDBRANCH  37  38
ENDBRANCH  31  37
BRANCH  32  40
ATOM     40  O   UNL     1       0.374  42.516  -2.336  1.00  0.00    -0.387 OA
ATOM     41  H   UNL     1       0.086  41.607  -2.051  1.00  0.00     0.211 HD
ENDBRANCH  32  40
ENDBRANCH   1  27
TORSDOF 12
ENDMDL
MODEL 7
REMARK VINA RESULT:    -5.397     14.769     17.495
REMARK INTER + INTRA:          -9.556
REMARK INTER:                  -7.610
REMARK INTRA:                  -1.946
REMARK UNBOUND:                -1.634
REMARK SMILES O=c1c(O[C@@H]2O[C@@H](CO)[C@H](O)[C@@H](O)[C@@H]2O)c(-c2ccc(O)c(O)c2)oc2cc(O)cc(O)c12
REMARK SMILES IDX 4 1 3 2 16 3 25 4 2 5 26 6 1 7 33 8 27 9 31 10 28 11 30 12
REMARK SMILES IDX 17 13 18 14 19 15 20 16 24 17 22 18 21 19 23 21 32 23 29 25
REMARK SMILES IDX 5 27 14 28 6 29 12 30 7 31 10 32 15 33 13 35 8 37 9 38 11 40
REMARK H PARENT 21 20 23 22 32 24 29 26 15 34 13 36 9 39 11 41
REMARK Flexibility Score: inf
ROOT
ATOM      1  O   UNL     1       3.509  44.587   1.909  1.00  0.00    -0.454 OA
ENDROOT
BRANCH   1   2
ATOM      2  C   UNL     1       2.800  45.105   3.010  1.00  0.00     0.214 A 
ATOM      3  C   UNL     1       1.389  45.053   2.983  1.00  0.00     0.180 A 
ATOM      4  O   UNL     1       0.686  45.441   4.041  1.00  0.00    -0.452 OA
ATOM      5  C   UNL     1       3.425  45.631   4.168  1.00  0.00     0.239 A 
ATOM      6  C   UNL     1       1.229  45.932   5.146  1.00  0.00     0.146 A 
ATOM      7  O   UNL     1       4.680  45.632   4.251  1.00  0.00    -0.285 OA
ATOM      8  C   UNL     1       2.634  46.108   5.242  1.00  0.00     0.111 A 
ATOM      9  C   UNL     1       0.386  46.276   6.209  1.00  0.00     0.094 A 
ATOM     10  C   UNL     1       3.159  46.693   6.434  1.00  0.00     0.134 A 
ATOM     11  C   UNL     1       0.917  46.787   7.391  1.00  0.00     0.123 A 
ATOM     12  C   UNL     1       2.298  46.987   7.499  1.00  0.00     0.093 A 
BRANCH   3  13
ATOM     13  C   UNL     1       0.639  44.551   1.807  1.00  0.00     0.025 A 
ATOM     14  C   UNL     1       0.347  45.424   0.747  1.00  0.00     0.016 A 
ATOM     15  C   UNL     1      -0.335  44.964  -0.386  1.00  0.00     0.051 A 
ATOM     16  C   UNL     1      -0.724  43.617  -0.474  1.00  0.00     0.157 A 
ATOM     17  C   UNL     1       0.259  43.204   1.703  1.00  0.00     0.062 A 
ATOM     18  C   UNL     1      -0.428  42.738   0.572  1.00  0.00     0.158 A 
BRANCH  16  19
ATOM     19  O   UNL     1      -1.416  43.155  -1.595  1.00  0.00    -0.504 OA
ATOM     20  H   UNL     1      -1.505  43.727  -2.430  1.00  0.00     0.293 HD
ENDBRANCH  16  19
BRANCH  18  21
ATOM     21  O   UNL     1      -0.825  41.405   0.494  1.00  0.00    -0.504 OA
ATOM     22  H   UNL     1      -1.253  41.029  -0.346  1.00  0.00     0.293 HD
ENDBRANCH  18  21
ENDBRANCH   3  13
BRANCH  10  23
ATOM     23  O   UNL     1       4.504  47.035   6.610  1.00  0.00    -0.507 OA
ATOM     24  H   UNL     1       4.858  47.644   7.335  1.00  0.00     0.293 HD
ENDBRANCH  10  23
BRANCH  11  25
ATOM     25  O   UNL     1       0.067  47.124   8.440  1.00  0.00    -0.508 OA
ATOM     26  H   UNL     1      -0.826  47.565   8.265  1.00  0.00     0.293 HD
ENDBRANCH  11  25
ENDBRANCH   1   2
BRANCH   1  27
ATOM     27  C   UNL     1       4.017  45.309   0.777  1.00  0.00     0.339 C 
ATOM     28  C   UNL     1       5.522  45.042   0.592  1.00  0.00     0.214 C 
ATOM     29  O   UNL     1       3.304  44.994  -0.410  1.00  0.00    -0.332 OA
ATOM     30  C   UNL     1       5.750  43.575   0.210  1.00  0.00     0.180 C 
ATOM     31  C   UNL     1       3.407  43.616  -0.737  1.00  0.00     0.179 C 
ATOM     32  C   UNL     1       4.882  43.219  -1.008  1.00  0.00     0.177 C 
BRANCH  28  33
ATOM     33  O   UNL     1       6.215  45.340   1.777  1.00  0.00    -0.384 OA
ATOM     34  H   UNL     1       7.061  44.816   1.764  1.00  0.00     0.211 HD
ENDBRANCH  28  33
BRANCH  30  35
ATOM     35  O   UNL     1       7.110  43.379  -0.091  1.00  0.00    -0.387 OA
ATOM     36  H   UNL     1       7.494  44.281  -0.257  1.00  0.00     0.211 HD
ENDBRANCH  30  35
BRANCH  31  37
ATOM     37  C   UNL     1       2.521  43.356  -1.969  1.00  0.00     0.191 C 
BRANCH  37  38
ATOM     38  O   UNL     1       2.225  41.995  -2.097  1.00  0.00    -0.394 OA
ATOM     39  H   UNL     1       1.815  41.873  -2.997  1.00  0.00     0.210 HD
ENDBRANCH  37  38
ENDBRANCH  31  37
BRANCH  32  40
ATOM     40  O   UNL     1       4.966  41.838  -1.245  1.00  0.00    -0.387 OA
ATOM     41  H   UNL     1       5.452  41.440  -0.473  1.00  0.00     0.211 HD
ENDBRANCH  32  40
ENDBRANCH   1  27
TORSDOF 12
ENDMDL
MODEL 8
REMARK VINA RESULT:    -5.065      2.219      8.167
REMARK INTER + INTRA:          -9.068
REMARK INTER:                  -7.607
REMARK INTRA:                  -1.461
REMARK UNBOUND:                -1.634
REMARK SMILES O=c1c(O[C@@H]2O[C@@H](CO)[C@H](O)[C@@H](O)[C@@H]2O)c(-c2ccc(O)c(O)c2)oc2cc(O)cc(O)c12
REMARK SMILES IDX 4 1 3 2 16 3 25 4 2 5 26 6 1 7 33 8 27 9 31 10 28 11 30 12
REMARK SMILES IDX 17 13 18 14 19 15 20 16 24 17 22 18 21 19 23 21 32 23 29 25
REMARK SMILES IDX 5 27 14 28 6 29 12 30 7 31 10 32 15 33 13 35 8 37 9 38 11 40
REMARK H PARENT 21 20 23 22 32 24 29 26 15 34 13 36 9 39 11 41
REMARK Flexibility Score: inf
ROOT
ATOM      1  O   UNL     1     -10.444  32.118   7.731  1.00  0.00    -0.454 OA
ENDROOT
BRANCH   1   2
ATOM      2  C   UNL     1      -9.761  31.265   6.842  1.00  0.00     0.214 A 
ATOM      3  C   UNL     1      -8.855  31.840   5.925  1.00  0.00     0.180 A 
ATOM      4  O   UNL     1      -8.119  31.065   5.137  1.00  0.00    -0.452 OA
ATOM      5  C   UNL     1      -9.895  29.854   6.851  1.00  0.00     0.239 A 
ATOM      6  C   UNL     1      -8.207  29.742   5.117  1.00  0.00     0.146 A 
ATOM      7  O   UNL     1     -10.645  29.306   7.699  1.00  0.00    -0.285 OA
ATOM      8  C   UNL     1      -9.149  29.069   5.938  1.00  0.00     0.111 A 
ATOM      9  C   UNL     1      -7.354  29.029   4.267  1.00  0.00     0.094 A 
ATOM     10  C   UNL     1      -9.238  27.648   5.834  1.00  0.00     0.134 A 
ATOM     11  C   UNL     1      -7.408  27.638   4.221  1.00  0.00     0.123 A 
ATOM     12  C   UNL     1      -8.344  26.955   5.008  1.00  0.00     0.093 A 
BRANCH   3  13
ATOM     13  C   UNL     1      -8.666  33.307   5.814  1.00  0.00     0.025 A 
ATOM     14  C   UNL     1      -7.370  33.844   5.861  1.00  0.00     0.016 A 
ATOM     15  C   UNL     1      -7.167  35.223   5.729  1.00  0.00     0.051 A 
ATOM     16  C   UNL     1      -8.264  36.080   5.538  1.00  0.00     0.157 A 
ATOM     17  C   UNL     1      -9.753  34.169   5.609  1.00  0.00     0.062 A 
ATOM     18  C   UNL     1      -9.556  35.553   5.480  1.00  0.00     0.158 A 
BRANCH  16  19
ATOM     19  O   UNL     1      -8.069  37.458   5.420  1.00  0.00    -0.504 OA
ATOM     20  H   UNL     1      -7.236  37.835   4.978  1.00  0.00     0.293 HD
ENDBRANCH  16  19
BRANCH  18  21
ATOM     21  O   UNL     1     -10.648  36.402   5.306  1.00  0.00    -0.504 OA
ATOM     22  H   UNL     1     -10.547  37.306   4.855  1.00  0.00     0.293 HD
ENDBRANCH  18  21
ENDBRANCH   3  13
BRANCH  10  23
ATOM     23  O   UNL     1     -10.203  26.875   6.491  1.00  0.00    -0.507 OA
ATOM     24  H   UNL     1     -11.082  26.581   6.089  1.00  0.00     0.293 HD
ENDBRANCH  10  23
BRANCH  11  25
ATOM     25  O   UNL     1      -6.554  26.941   3.372  1.00  0.00    -0.508 OA
ATOM     26  H   UNL     1      -6.658  26.999   2.367  1.00  0.00     0.293 HD
ENDBRANCH  11  25
ENDBRANCH   1   2
BRANCH   1  27
ATOM     27  C   UNL     1     -11.807  32.014   8.171  1.00  0.00     0.339 C 
ATOM     28  C   UNL     1     -11.874  31.856   9.701  1.00  0.00     0.214 C 
ATOM     29  O   UNL     1     -12.581  33.127   7.749  1.00  0.00    -0.332 OA
ATOM     30  C   UNL     1     -11.377  33.136  10.381  1.00  0.00     0.180 C 
ATOM     31  C   UNL     1     -12.083  34.347   8.279  1.00  0.00     0.179 C 
ATOM     32  C   UNL     1     -12.147  34.346   9.828  1.00  0.00     0.177 C 
BRANCH  28  33
ATOM     33  O   UNL     1     -11.091  30.764  10.109  1.00  0.00    -0.384 OA
ATOM     34  H   UNL     1     -10.139  31.012   9.962  1.00  0.00     0.211 HD
ENDBRANCH  28  33
BRANCH  30  35
ATOM     35  O   UNL     1     -11.575  33.031  11.770  1.00  0.00    -0.387 OA
ATOM     36  H   UNL     1     -11.112  33.808  12.181  1.00  0.00     0.211 HD
ENDBRANCH  30  35
BRANCH  31  37
ATOM     37  C   UNL     1     -12.918  35.495   7.683  1.00  0.00     0.191 C 
BRANCH  37  38
ATOM     38  O   UNL     1     -12.195  36.693   7.677  1.00  0.00    -0.394 OA
ATOM     39  H   UNL     1     -11.756  36.768   8.568  1.00  0.00     0.210 HD
ENDBRANCH  37  38
ENDBRANCH  31  37
BRANCH  32  40
ATOM     40  O   UNL     1     -11.573  35.526  10.328  1.00  0.00    -0.387 OA
ATOM     41  H   UNL     1     -11.100  35.284  11.170  1.00  0.00     0.211 HD
ENDBRANCH  32  40
ENDBRANCH   1  27
TORSDOF 12
ENDMDL
MODEL 9
REMARK VINA RESULT:    -4.867     15.733     18.843
REMARK INTER + INTRA:          -8.778
REMARK INTER:                  -7.450
REMARK INTRA:                  -1.328
REMARK UNBOUND:                -1.634
REMARK SMILES O=c1c(O[C@@H]2O[C@@H](CO)[C@H](O)[C@@H](O)[C@@H]2O)c(-c2ccc(O)c(O)c2)oc2cc(O)cc(O)c12
REMARK SMILES IDX 4 1 3 2 16 3 25 4 2 5 26 6 1 7 33 8 27 9 31 10 28 11 30 12
REMARK SMILES IDX 17 13 18 14 19 15 20 16 24 17 22 18 21 19 23 21 32 23 29 25
REMARK SMILES IDX 5 27 14 28 6 29 12 30 7 31 10 32 15 33 13 35 8 37 9 38 11 40
REMARK H PARENT 21 20 23 22 32 24 29 26 15 34 13 36 9 39 11 41
REMARK Flexibility Score: inf
ROOT
ATOM      1  O   UNL     1       2.083  45.895   2.279  1.00  0.00    -0.454 OA
ENDROOT
BRANCH   1   2
ATOM      2  C   UNL     1       2.885  45.988   3.434  1.00  0.00     0.214 A 
ATOM      3  C   UNL     1       4.285  46.060   3.273  1.00  0.00     0.180 A 
ATOM      4  O   UNL     1       5.071  46.246   4.328  1.00  0.00    -0.452 OA
ATOM      5  C   UNL     1       2.360  46.064   4.748  1.00  0.00     0.239 A 
ATOM      6  C   UNL     1       4.623  46.330   5.573  1.00  0.00     0.146 A 
ATOM      7  O   UNL     1       1.115  46.069   4.921  1.00  0.00    -0.285 OA
ATOM      8  C   UNL     1       3.239  46.183   5.852  1.00  0.00     0.111 A 
ATOM      9  C   UNL     1       5.544  46.562   6.600  1.00  0.00     0.094 A 
ATOM     10  C   UNL     1       2.820  46.227   7.217  1.00  0.00     0.134 A 
ATOM     11  C   UNL     1       5.115  46.665   7.921  1.00  0.00     0.123 A 
ATOM     12  C   UNL     1       3.757  46.503   8.221  1.00  0.00     0.093 A 
BRANCH   3  13
ATOM     13  C   UNL     1       4.935  45.957   1.944  1.00  0.00     0.025 A 
ATOM     14  C   UNL     1       5.328  47.125   1.272  1.00  0.00     0.016 A 
ATOM     15  C   UNL     1       5.969  47.049   0.029  1.00  0.00     0.051 A 
ATOM     16  C   UNL     1       6.233  45.797  -0.550  1.00  0.00     0.157 A 
ATOM     17  C   UNL     1       5.216  44.711   1.363  1.00  0.00     0.062 A 
ATOM     18  C   UNL     1       5.854  44.629   0.116  1.00  0.00     0.158 A 
BRANCH  16  19
ATOM     19  O   UNL     1       6.859  45.715  -1.796  1.00  0.00    -0.504 OA
ATOM     20  H   UNL     1       6.633  44.970  -2.449  1.00  0.00     0.293 HD
ENDBRANCH  16  19
BRANCH  18  21
ATOM     21  O   UNL     1       6.102  43.385  -0.462  1.00  0.00    -0.504 OA
ATOM     22  H   UNL     1       5.383  42.893  -0.985  1.00  0.00     0.293 HD
ENDBRANCH  18  21
ENDBRANCH   3  13
BRANCH  10  23
ATOM     23  O   UNL     1       1.511  45.974   7.641  1.00  0.00    -0.507 OA
ATOM     24  H   UNL     1       1.245  45.723   8.583  1.00  0.00     0.293 HD
ENDBRANCH  10  23
BRANCH  11  25
ATOM     25  O   UNL     1       6.042  46.896   8.933  1.00  0.00    -0.508 OA
ATOM     26  H   UNL     1       6.268  46.175   9.605  1.00  0.00     0.293 HD
ENDBRANCH  11  25
ENDBRANCH   1   2
BRANCH   1  27
ATOM     27  C   UNL     1       0.941  45.051   2.072  1.00  0.00     0.339 C 
ATOM     28  C   UNL     1       0.512  45.068   0.594  1.00  0.00     0.214 C 
ATOM     29  O   UNL     1       1.185  43.721   2.507  1.00  0.00    -0.332 OA
ATOM     30  C   UNL     1       1.597  44.418  -0.272  1.00  0.00     0.180 C 
ATOM     31  C   UNL     1       2.257  43.123   1.794  1.00  0.00     0.179 C 
ATOM     32  C   UNL     1       1.932  43.023   0.281  1.00  0.00     0.177 C 
BRANCH  28  33
ATOM     33  O   UNL     1       0.290  46.388   0.170  1.00  0.00    -0.384 OA
ATOM     34  H   UNL     1      -0.689  46.495   0.034  1.00  0.00     0.211 HD
ENDBRANCH  28  33
BRANCH  30  35
ATOM     35  O   UNL     1       1.133  44.314  -1.596  1.00  0.00    -0.387 OA
ATOM     36  H   UNL     1       1.411  43.417  -1.923  1.00  0.00     0.211 HD
ENDBRANCH  30  35
BRANCH  31  37
ATOM     37  C   UNL     1       2.512  41.732   2.406  1.00  0.00     0.191 C 
BRANCH  37  38
ATOM     38  O   UNL     1       1.778  40.746   1.736  1.00  0.00    -0.394 OA
ATOM     39  H   UNL     1       1.931  40.888   0.761  1.00  0.00     0.210 HD
ENDBRANCH  37  38
ENDBRANCH  31  37
BRANCH  32  40
ATOM     40  O   UNL     1       3.039  42.507  -0.410  1.00  0.00    -0.387 OA
ATOM     41  H   UNL     1       2.682  41.957  -1.160  1.00  0.00     0.211 HD
ENDBRANCH  32  40
ENDBRANCH   1  27
TORSDOF 12
ENDMDL
