MODEL 1
REMARK VINA RESULT:    -4.490      0.000      0.000
REMARK INTER + INTRA:         -16.501
REMARK INTER:                 -11.839
REMARK INTRA:                  -4.663
REMARK UNBOUND:                -4.663
REMARK SMILES CCCCCCCCCCCCCCCCCCCCCCCCCCCCCC(=O)[O-]
REMARK SMILES IDX 16 1 17 2 18 3 19 4 20 5 21 6 22 7 23 8 24 9 25 10 26 11
REMARK SMILES IDX 27 12 28 13 29 14 30 15 31 16 32 17 15 18 14 19 13 20 12 21
REMARK SMILES IDX 11 22 10 23 9 24 8 25 7 26 6 27 5 28 4 29 3 30 2 31 1 32
REMARK H PARENT
REMARK Flexibility Score: inf
ROOT
ATOM      1  C   UNL     1     101.874 314.153 187.046  1.00  0.00     0.000 C 
ENDROOT
BRANCH   1   2
ATOM      2  C   UNL     1     103.332 314.517 187.367  1.00  0.00     0.000 C 
BRANCH   2   3
ATOM      3  C   UNL     1     104.187 313.258 187.564  1.00  0.00     0.000 C 
BRANCH   3   4
ATOM      4  C   UNL     1     104.306 312.907 189.055  1.00  0.00     0.000 C 
BRANCH   4   5
ATOM      5  C   UNL     1     104.322 314.149 189.963  1.00  0.00     0.000 C 
BRANCH   5   6
ATOM      6  C   UNL     1     103.157 314.158 190.969  1.00  0.00     0.000 C 
BRANCH   6   7
ATOM      7  C   UNL     1     102.083 313.098 190.660  1.00  0.00     0.000 C 
BRANCH   7   8
ATOM      8  C   UNL     1     101.227 312.651 191.860  1.00  0.00     0.000 C 
BRANCH   8   9
ATOM      9  C   UNL     1      99.719 312.660 191.563  1.00  0.00     0.000 C 
BRANCH   9  10
ATOM     10  C   UNL     1      99.363 313.452 190.294  1.00  0.00     0.000 C 
BRANCH  10  11
ATOM     11  C   UNL     1      98.578 314.750 190.576  1.00  0.00     0.000 C 
BRANCH  11  12
ATOM     12  C   UNL     1      98.504 315.062 192.081  1.00  0.00     0.000 C 
BRANCH  12  13
ATOM     13  C   UNL     1      99.146 316.412 192.435  1.00  0.00     0.006 C 
BRANCH  13  14
ATOM     14  C   UNL     1     100.680 316.347 192.442  1.00  0.00     0.053 C 
BRANCH  14  15
ATOM     15  C   UNL     1     101.227 316.994 193.676  1.00  0.00     0.041 C 
ATOM     16  O   UNL     1     100.451 317.574 194.483  1.00  0.00    -0.550 OA
ATOM     17  O   UNL     1     102.582 316.912 193.963  1.00  0.00    -0.550 OA
ENDBRANCH  14  15
ENDBRANCH  13  14
ENDBRANCH  12  13
ENDBRANCH  11  12
ENDBRANCH  10  11
ENDBRANCH   9  10
ENDBRANCH   8   9
ENDBRANCH   7   8
ENDBRANCH   6   7
ENDBRANCH   5   6
ENDBRANCH   4   5
ENDBRANCH   3   4
ENDBRANCH   2   3
ENDBRANCH   1   2
BRANCH   1  18
ATOM     18  C   UNL     1     100.908 315.334 187.244  1.00  0.00     0.000 C 
BRANCH  18  19
ATOM     19  C   UNL     1     101.178 316.188 188.499  1.00  0.00     0.000 C 
BRANCH  19  20
ATOM     20  C   UNL     1     100.979 317.707 188.313  1.00  0.00     0.000 C 
BRANCH  20  21
ATOM     21  C   UNL     1     100.011 318.368 189.313  1.00  0.00     0.000 C 
BRANCH  21  22
ATOM     22  C   UNL     1      98.544 318.302 188.854  1.00  0.00     0.000 C 
BRANCH  22  23
ATOM     23  C   UNL     1      97.554 318.311 190.029  1.00  0.00     0.000 C 
BRANCH  23  24
ATOM     24  C   UNL     1      96.220 317.622 189.682  1.00  0.00    -0.000 C 
BRANCH  24  25
ATOM     25  C   UNL     1      95.290 317.504 190.903  1.00  0.00    -0.000 C 
BRANCH  25  26
ATOM     26  C   UNL     1      94.339 318.711 191.073  1.00  0.00    -0.000 C 
BRANCH  26  27
ATOM     27  C   UNL     1      92.845 318.334 191.022  1.00  0.00    -0.000 C 
BRANCH  27  28
ATOM     28  C   UNL     1      92.181 318.523 189.647  1.00  0.00    -0.000 C 
BRANCH  28  29
ATOM     29  C   UNL     1      91.961 317.223 188.849  1.00  0.00    -0.000 C 
BRANCH  29  30
ATOM     30  C   UNL     1      91.557 316.017 189.723  1.00  0.00    -0.000 C 
BRANCH  30  31
ATOM     31  C   UNL     1      90.153 315.495 189.384  1.00  0.00    -0.003 C 
ATOM     32  C   UNL     1      89.436 316.430 188.413  1.00  0.00     0.004 C 
ENDBRANCH  30  31
ENDBRANCH  29  30
ENDBRANCH  28  29
ENDBRANCH  27  28
ENDBRANCH  26  27
ENDBRANCH  25  26
ENDBRANCH  24  25
ENDBRANCH  23  24
ENDBRANCH  22  23
ENDBRANCH  21  22
ENDBRANCH  20  21
ENDBRANCH  19  20
ENDBRANCH  18  19
ENDBRANCH   1  18
TORSDOF 28
ENDMDL
MODEL 2
REMARK VINA RESULT:    -4.457     10.426     14.243
REMARK INTER + INTRA:         -16.415
REMARK INTER:                 -10.828
REMARK INTRA:                  -5.586
REMARK UNBOUND:                -4.663
REMARK SMILES CCCCCCCCCCCCCCCCCCCCCCCCCCCCCC(=O)[O-]
REMARK SMILES IDX 16 1 17 2 18 3 19 4 20 5 21 6 22 7 23 8 24 9 25 10 26 11
REMARK SMILES IDX 27 12 28 13 29 14 30 15 31 16 32 17 15 18 14 19 13 20 12 21
REMARK SMILES IDX 11 22 10 23 9 24 8 25 7 26 6 27 5 28 4 29 3 30 2 31 1 32
REMARK H PARENT
REMARK Flexibility Score: inf
ROOT
ATOM      1  C   UNL     1      92.233 308.812 194.324  1.00  0.00     0.000 C 
ENDROOT
BRANCH   1   2
ATOM      2  C   UNL     1      92.945 307.487 194.012  1.00  0.00     0.000 C 
BRANCH   2   3
ATOM      3  C   UNL     1      94.294 307.731 193.324  1.00  0.00     0.000 C 
BRANCH   3   4
ATOM      4  C   UNL     1      94.603 306.613 192.316  1.00  0.00     0.000 C 
BRANCH   4   5
ATOM      5  C   UNL     1      95.293 307.131 191.042  1.00  0.00     0.000 C 
BRANCH   5   6
ATOM      6  C   UNL     1      95.317 308.667 190.969  1.00  0.00     0.000 C 
BRANCH   6   7
ATOM      7  C   UNL     1      94.942 309.213 189.578  1.00  0.00     0.000 C 
BRANCH   7   8
ATOM      8  C   UNL     1      93.492 309.711 189.429  1.00  0.00     0.000 C 
BRANCH   8   9
ATOM      9  C   UNL     1      92.798 309.963 190.778  1.00  0.00     0.000 C 
BRANCH   9  10
ATOM     10  C   UNL     1      91.354 309.436 190.815  1.00  0.00     0.000 C 
BRANCH  10  11
ATOM     11  C   UNL     1      91.240 307.928 190.508  1.00  0.00     0.000 C 
BRANCH  11  12
ATOM     12  C   UNL     1      90.017 307.610 189.629  1.00  0.00     0.000 C 
BRANCH  12  13
ATOM     13  C   UNL     1      88.689 307.779 190.385  1.00  0.00     0.006 C 
BRANCH  13  14
ATOM     14  C   UNL     1      87.566 308.314 189.486  1.00  0.00     0.053 C 
BRANCH  14  15
ATOM     15  C   UNL     1      87.333 309.769 189.748  1.00  0.00     0.041 C 
ATOM     16  O   UNL     1      86.426 310.386 189.128  1.00  0.00    -0.550 OA
ATOM     17  O   UNL     1      88.081 310.431 190.712  1.00  0.00    -0.550 OA
ENDBRANCH  14  15
ENDBRANCH  13  14
ENDBRANCH  12  13
ENDBRANCH  11  12
ENDBRANCH  10  11
ENDBRANCH   9  10
ENDBRANCH   8   9
ENDBRANCH   7   8
ENDBRANCH   6   7
ENDBRANCH   5   6
ENDBRANCH   4   5
ENDBRANCH   3   4
ENDBRANCH   2   3
ENDBRANCH   1   2
BRANCH   1  18
ATOM     18  C   UNL     1      90.732 308.629 194.610  1.00  0.00     0.000 C 
BRANCH  18  19
ATOM     19  C   UNL     1      90.075 307.439 193.882  1.00  0.00     0.000 C 
BRANCH  19  20
ATOM     20  C   UNL     1      88.631 307.120 194.320  1.00  0.00     0.000 C 
BRANCH  20  21
ATOM     21  C   UNL     1      88.146 307.872 195.575  1.00  0.00     0.000 C 
BRANCH  21  22
ATOM     22  C   UNL     1      87.236 307.012 196.469  1.00  0.00     0.000 C 
BRANCH  22  23
ATOM     23  C   UNL     1      85.841 306.795 195.860  1.00  0.00     0.000 C 
BRANCH  23  24
ATOM     24  C   UNL     1      85.115 305.580 196.468  1.00  0.00    -0.000 C 
BRANCH  24  25
ATOM     25  C   UNL     1      85.875 304.263 196.225  1.00  0.00    -0.000 C 
BRANCH  25  26
ATOM     26  C   UNL     1      86.041 303.914 194.728  1.00  0.00    -0.000 C 
BRANCH  26  27
ATOM     27  C   UNL     1      87.502 303.652 194.312  1.00  0.00    -0.000 C 
BRANCH  27  28
ATOM     28  C   UNL     1      88.411 303.142 195.444  1.00  0.00    -0.000 C 
BRANCH  28  29
ATOM     29  C   UNL     1      89.764 303.868 195.567  1.00  0.00    -0.000 C 
BRANCH  29  30
ATOM     30  C   UNL     1      89.952 304.611 196.907  1.00  0.00    -0.000 C 
BRANCH  30  31
ATOM     31  C   UNL     1      91.230 305.463 196.927  1.00  0.00    -0.003 C 
ATOM     32  C   UNL     1      91.014 306.763 197.698  1.00  0.00     0.004 C 
ENDBRANCH  30  31
ENDBRANCH  29  30
ENDBRANCH  28  29
ENDBRANCH  27  28
ENDBRANCH  26  27
ENDBRANCH  25  26
ENDBRANCH  24  25
ENDBRANCH  23  24
ENDBRANCH  22  23
ENDBRANCH  21  22
ENDBRANCH  20  21
ENDBRANCH  19  20
ENDBRANCH  18  19
ENDBRANCH   1  18
TORSDOF 28
ENDMDL
MODEL 3
REMARK VINA RESULT:    -4.379      1.418      2.047
REMARK INTER + INTRA:         -16.209
REMARK INTER:                 -12.295
REMARK INTRA:                  -3.914
REMARK UNBOUND:                -4.663
REMARK SMILES CCCCCCCCCCCCCCCCCCCCCCCCCCCCCC(=O)[O-]
REMARK SMILES IDX 16 1 17 2 18 3 19 4 20 5 21 6 22 7 23 8 24 9 25 10 26 11
REMARK SMILES IDX 27 12 28 13 29 14 30 15 31 16 32 17 15 18 14 19 13 20 12 21
REMARK SMILES IDX 11 22 10 23 9 24 8 25 7 26 6 27 5 28 4 29 3 30 2 31 1 32
REMARK H PARENT
REMARK Flexibility Score: inf
ROOT
ATOM      1  C   UNL     1     101.976 315.219 187.627  1.00  0.00     0.000 C 
ENDROOT
BRANCH   1   2
ATOM      2  C   UNL     1     102.801 314.138 186.913  1.00  0.00     0.000 C 
BRANCH   2   3
ATOM      3  C   UNL     1     104.241 314.101 187.441  1.00  0.00     0.000 C 
BRANCH   3   4
ATOM      4  C   UNL     1     104.580 312.712 188.006  1.00  0.00     0.000 C 
BRANCH   4   5
ATOM      5  C   UNL     1     104.365 312.618 189.527  1.00  0.00     0.000 C 
BRANCH   5   6
ATOM      6  C   UNL     1     104.345 313.998 190.205  1.00  0.00     0.000 C 
BRANCH   6   7
ATOM      7  C   UNL     1     103.070 314.248 191.032  1.00  0.00     0.000 C 
BRANCH   7   8
ATOM      8  C   UNL     1     101.935 313.227 190.826  1.00  0.00     0.000 C 
BRANCH   8   9
ATOM      9  C   UNL     1     100.542 313.875 190.763  1.00  0.00     0.000 C 
BRANCH   9  10
ATOM     10  C   UNL     1      99.400 312.846 190.815  1.00  0.00     0.000 C 
BRANCH  10  11
ATOM     11  C   UNL     1      98.646 312.829 192.160  1.00  0.00     0.000 C 
BRANCH  11  12
ATOM     12  C   UNL     1      99.571 312.465 193.335  1.00  0.00     0.000 C 
BRANCH  12  13
ATOM     13  C   UNL     1      99.411 313.420 194.528  1.00  0.00     0.006 C 
BRANCH  13  14
ATOM     14  C   UNL     1      98.524 314.629 194.198  1.00  0.00     0.053 C 
BRANCH  14  15
ATOM     15  C   UNL     1      99.311 315.898 194.292  1.00  0.00     0.041 C 
ATOM     16  O   UNL     1      99.170 316.658 195.287  1.00  0.00    -0.550 OA
ATOM     17  O   UNL     1     100.237 316.217 193.308  1.00  0.00    -0.550 OA
ENDBRANCH  14  15
ENDBRANCH  13  14
ENDBRANCH  12  13
ENDBRANCH  11  12
ENDBRANCH  10  11
ENDBRANCH   9  10
ENDBRANCH   8   9
ENDBRANCH   7   8
ENDBRANCH   6   7
ENDBRANCH   5   6
ENDBRANCH   4   5
ENDBRANCH   3   4
ENDBRANCH   2   3
ENDBRANCH   1   2
BRANCH   1  18
ATOM     18  C   UNL     1     100.565 315.379 187.035  1.00  0.00     0.000 C 
BRANCH  18  19
ATOM     19  C   UNL     1      99.821 316.657 187.471  1.00  0.00     0.000 C 
BRANCH  19  20
ATOM     20  C   UNL     1     100.583 317.549 188.472  1.00  0.00     0.000 C 
BRANCH  20  21
ATOM     21  C   UNL     1      99.715 318.185 189.575  1.00  0.00     0.000 C 
BRANCH  21  22
ATOM     22  C   UNL     1      98.329 318.616 189.067  1.00  0.00     0.000 C 
BRANCH  22  23
ATOM     23  C   UNL     1      97.185 318.100 189.956  1.00  0.00     0.000 C 
BRANCH  23  24
ATOM     24  C   UNL     1      97.652 317.768 191.386  1.00  0.00    -0.000 C 
BRANCH  24  25
ATOM     25  C   UNL     1      96.542 317.108 192.223  1.00  0.00    -0.000 C 
BRANCH  25  26
ATOM     26  C   UNL     1      95.939 318.043 193.297  1.00  0.00    -0.000 C 
BRANCH  26  27
ATOM     27  C   UNL     1      94.426 318.283 193.128  1.00  0.00    -0.000 C 
BRANCH  27  28
ATOM     28  C   UNL     1      94.050 319.243 191.985  1.00  0.00    -0.000 C 
BRANCH  28  29
ATOM     29  C   UNL     1      93.008 318.694 190.992  1.00  0.00    -0.000 C 
BRANCH  29  30
ATOM     30  C   UNL     1      93.413 317.353 190.343  1.00  0.00    -0.000 C 
BRANCH  30  31
ATOM     31  C   UNL     1      92.342 316.826 189.376  1.00  0.00    -0.003 C 
ATOM     32  C   UNL     1      91.346 317.923 189.005  1.00  0.00     0.004 C 
ENDBRANCH  30  31
ENDBRANCH  29  30
ENDBRANCH  28  29
ENDBRANCH  27  28
ENDBRANCH  26  27
ENDBRANCH  25  26
ENDBRANCH  24  25
ENDBRANCH  23  24
ENDBRANCH  22  23
ENDBRANCH  21  22
ENDBRANCH  20  21
ENDBRANCH  19  20
ENDBRANCH  18  19
ENDBRANCH   1  18
TORSDOF 28
ENDMDL
MODEL 4
REMARK VINA RESULT:    -4.340      3.380      6.222
REMARK INTER + INTRA:         -16.106
REMARK INTER:                 -10.579
REMARK INTRA:                  -5.527
REMARK UNBOUND:                -4.663
REMARK SMILES CCCCCCCCCCCCCCCCCCCCCCCCCCCCCC(=O)[O-]
REMARK SMILES IDX 16 1 17 2 18 3 19 4 20 5 21 6 22 7 23 8 24 9 25 10 26 11
REMARK SMILES IDX 27 12 28 13 29 14 30 15 31 16 32 17 15 18 14 19 13 20 12 21
REMARK SMILES IDX 11 22 10 23 9 24 8 25 7 26 6 27 5 28 4 29 3 30 2 31 1 32
REMARK H PARENT
REMARK Flexibility Score: inf
ROOT
ATOM      1  C   UNL     1     102.255 314.460 187.126  1.00  0.00     0.000 C 
ENDROOT
BRANCH   1   2
ATOM      2  C   UNL     1     100.973 315.257 187.412  1.00  0.00     0.000 C 
BRANCH   2   3
ATOM      3  C   UNL     1     101.026 315.914 188.797  1.00  0.00     0.000 C 
BRANCH   3   4
ATOM      4  C   UNL     1     100.580 317.383 188.721  1.00  0.00     0.000 C 
BRANCH   4   5
ATOM      5  C   UNL     1      99.809 317.707 187.430  1.00  0.00     0.000 C 
BRANCH   5   6
ATOM      6  C   UNL     1      98.398 318.253 187.708  1.00  0.00     0.000 C 
BRANCH   6   7
ATOM      7  C   UNL     1      97.961 318.081 189.175  1.00  0.00     0.000 C 
BRANCH   7   8
ATOM      8  C   UNL     1      96.636 317.326 189.389  1.00  0.00     0.000 C 
BRANCH   8   9
ATOM      9  C   UNL     1      96.826 315.811 189.570  1.00  0.00     0.000 C 
BRANCH   9  10
ATOM     10  C   UNL     1      96.618 315.022 188.266  1.00  0.00     0.000 C 
BRANCH  10  11
ATOM     11  C   UNL     1      97.809 314.112 187.899  1.00  0.00     0.000 C 
BRANCH  11  12
ATOM     12  C   UNL     1      98.124 313.099 189.014  1.00  0.00     0.000 C 
BRANCH  12  13
ATOM     13  C   UNL     1      99.343 312.224 188.686  1.00  0.00     0.006 C 
BRANCH  13  14
ATOM     14  C   UNL     1      99.238 311.564 187.304  1.00  0.00     0.053 C 
BRANCH  14  15
ATOM     15  C   UNL     1      98.407 310.322 187.378  1.00  0.00     0.041 C 
ATOM     16  O   UNL     1      98.898 309.258 187.841  1.00  0.00    -0.550 OA
ATOM     17  O   UNL     1      97.076 310.351 186.985  1.00  0.00    -0.550 OA
ENDBRANCH  14  15
ENDBRANCH  13  14
ENDBRANCH  12  13
ENDBRANCH  11  12
ENDBRANCH  10  11
ENDBRANCH   9  10
ENDBRANCH   8   9
ENDBRANCH   7   8
ENDBRANCH   6   7
ENDBRANCH   5   6
ENDBRANCH   4   5
ENDBRANCH   3   4
ENDBRANCH   2   3
ENDBRANCH   1   2
BRANCH   1  18
ATOM     18  C   UNL     1     103.437 314.897 188.010  1.00  0.00     0.000 C 
BRANCH  18  19
ATOM     19  C   UNL     1     104.431 313.773 188.364  1.00  0.00     0.000 C 
BRANCH  19  20
ATOM     20  C   UNL     1     104.051 312.926 189.596  1.00  0.00     0.000 C 
BRANCH  20  21
ATOM     21  C   UNL     1     103.312 313.689 190.712  1.00  0.00     0.000 C 
BRANCH  21  22
ATOM     22  C   UNL     1     101.948 313.067 191.056  1.00  0.00     0.000 C 
BRANCH  22  23
ATOM     23  C   UNL     1     101.084 313.983 191.938  1.00  0.00     0.000 C 
BRANCH  23  24
ATOM     24  C   UNL     1     101.857 315.218 192.441  1.00  0.00    -0.000 C 
BRANCH  24  25
ATOM     25  C   UNL     1     100.927 316.411 192.727  1.00  0.00    -0.000 C 
BRANCH  25  26
ATOM     26  C   UNL     1      99.495 316.223 192.175  1.00  0.00    -0.000 C 
BRANCH  26  27
ATOM     27  C   UNL     1      98.391 316.479 193.219  1.00  0.00    -0.000 C 
BRANCH  27  28
ATOM     28  C   UNL     1      97.480 317.681 192.910  1.00  0.00    -0.000 C 
BRANCH  28  29
ATOM     29  C   UNL     1      96.667 318.205 194.110  1.00  0.00    -0.000 C 
BRANCH  29  30
ATOM     30  C   UNL     1      95.255 318.704 193.735  1.00  0.00    -0.000 C 
BRANCH  30  31
ATOM     31  C   UNL     1      94.753 318.096 192.416  1.00  0.00    -0.003 C 
ATOM     32  C   UNL     1      93.822 319.060 191.684  1.00  0.00     0.004 C 
ENDBRANCH  30  31
ENDBRANCH  29  30
ENDBRANCH  28  29
ENDBRANCH  27  28
ENDBRANCH  26  27
ENDBRANCH  25  26
ENDBRANCH  24  25
ENDBRANCH  23  24
ENDBRANCH  22  23
ENDBRANCH  21  22
ENDBRANCH  20  21
ENDBRANCH  19  20
ENDBRANCH  18  19
ENDBRANCH   1  18
TORSDOF 28
ENDMDL
MODEL 5
REMARK VINA RESULT:    -4.301      7.453     12.103
REMARK INTER + INTRA:         -16.003
REMARK INTER:                 -10.224
REMARK INTRA:                  -5.780
REMARK UNBOUND:                -4.663
REMARK SMILES CCCCCCCCCCCCCCCCCCCCCCCCCCCCCC(=O)[O-]
REMARK SMILES IDX 16 1 17 2 18 3 19 4 20 5 21 6 22 7 23 8 24 9 25 10 26 11
REMARK SMILES IDX 27 12 28 13 29 14 30 15 31 16 32 17 15 18 14 19 13 20 12 21
REMARK SMILES IDX 11 22 10 23 9 24 8 25 7 26 6 27 5 28 4 29 3 30 2 31 1 32
REMARK H PARENT
REMARK Flexibility Score: inf
ROOT
ATOM      1  C   UNL     1      90.080 308.517 191.393  1.00  0.00     0.000 C 
ENDROOT
BRANCH   1   2
ATOM      2  C   UNL     1      88.601 308.122 191.261  1.00  0.00     0.000 C 
BRANCH   2   3
ATOM      3  C   UNL     1      88.363 307.280 190.001  1.00  0.00     0.000 C 
BRANCH   3   4
ATOM      4  C   UNL     1      87.476 308.035 188.999  1.00  0.00     0.000 C 
BRANCH   4   5
ATOM      5  C   UNL     1      88.229 308.436 187.718  1.00  0.00     0.000 C 
BRANCH   5   6
ATOM      6  C   UNL     1      88.314 309.962 187.540  1.00  0.00     0.000 C 
BRANCH   6   7
ATOM      7  C   UNL     1      87.627 310.744 188.676  1.00  0.00     0.000 C 
BRANCH   7   8
ATOM      8  C   UNL     1      88.574 311.491 189.634  1.00  0.00     0.000 C 
BRANCH   8   9
ATOM      9  C   UNL     1      87.873 311.991 190.908  1.00  0.00     0.000 C 
BRANCH   9  10
ATOM     10  C   UNL     1      88.680 313.071 191.650  1.00  0.00     0.000 C 
BRANCH  10  11
ATOM     11  C   UNL     1      89.393 314.064 190.708  1.00  0.00     0.000 C 
BRANCH  11  12
ATOM     12  C   UNL     1      90.914 314.087 190.941  1.00  0.00     0.000 C 
BRANCH  12  13
ATOM     13  C   UNL     1      91.706 314.272 189.638  1.00  0.00     0.006 C 
BRANCH  13  14
ATOM     14  C   UNL     1      90.809 314.664 188.456  1.00  0.00     0.053 C 
BRANCH  14  15
ATOM     15  C   UNL     1      91.011 316.104 188.099  1.00  0.00     0.041 C 
ATOM     16  O   UNL     1      91.771 316.419 187.145  1.00  0.00    -0.550 OA
ATOM     17  O   UNL     1      90.320 317.094 188.785  1.00  0.00    -0.550 OA
ENDBRANCH  14  15
ENDBRANCH  13  14
ENDBRANCH  12  13
ENDBRANCH  11  12
ENDBRANCH  10  11
ENDBRANCH   9  10
ENDBRANCH   8   9
ENDBRANCH   7   8
ENDBRANCH   6   7
ENDBRANCH   5   6
ENDBRANCH   4   5
ENDBRANCH   3   4
ENDBRANCH   2   3
ENDBRANCH   1   2
BRANCH   1  18
ATOM     18  C   UNL     1      90.969 307.864 190.321  1.00  0.00     0.000 C 
BRANCH  18  19
ATOM     19  C   UNL     1      91.645 308.852 189.349  1.00  0.00     0.000 C 
BRANCH  19  20
ATOM     20  C   UNL     1      91.912 310.257 189.927  1.00  0.00     0.000 C 
BRANCH  20  21
ATOM     21  C   UNL     1      93.307 310.836 189.622  1.00  0.00     0.000 C 
BRANCH  21  22
ATOM     22  C   UNL     1      94.187 310.959 190.878  1.00  0.00     0.000 C 
BRANCH  22  23
ATOM     23  C   UNL     1      95.411 310.030 190.838  1.00  0.00     0.000 C 
BRANCH  23  24
ATOM     24  C   UNL     1      95.374 309.056 189.644  1.00  0.00    -0.000 C 
BRANCH  24  25
ATOM     25  C   UNL     1      95.593 307.595 190.075  1.00  0.00    -0.000 C 
BRANCH  25  26
ATOM     26  C   UNL     1      94.495 307.060 191.023  1.00  0.00    -0.000 C 
BRANCH  26  27
ATOM     27  C   UNL     1      95.015 306.688 192.425  1.00  0.00    -0.000 C 
BRANCH  27  28
ATOM     28  C   UNL     1      94.081 307.081 193.583  1.00  0.00    -0.000 C 
BRANCH  28  29
ATOM     29  C   UNL     1      93.199 308.316 193.316  1.00  0.00    -0.000 C 
BRANCH  29  30
ATOM     30  C   UNL     1      93.515 309.516 194.234  1.00  0.00    -0.000 C 
BRANCH  30  31
ATOM     31  C   UNL     1      94.969 309.505 194.729  1.00  0.00    -0.003 C 
ATOM     32  C   UNL     1      95.650 310.846 194.466  1.00  0.00     0.004 C 
ENDBRANCH  30  31
ENDBRANCH  29  30
ENDBRANCH  28  29
ENDBRANCH  27  28
ENDBRANCH  26  27
ENDBRANCH  25  26
ENDBRANCH  24  25
ENDBRANCH  23  24
ENDBRANCH  22  23
ENDBRANCH  21  22
ENDBRANCH  20  21
ENDBRANCH  19  20
ENDBRANCH  18  19
ENDBRANCH   1  18
TORSDOF 28
ENDMDL
MODEL 6
REMARK VINA RESULT:    -4.300     10.750     14.691
REMARK INTER + INTRA:         -16.001
REMARK INTER:                 -10.707
REMARK INTRA:                  -5.294
REMARK UNBOUND:                -4.663
REMARK SMILES CCCCCCCCCCCCCCCCCCCCCCCCCCCCCC(=O)[O-]
REMARK SMILES IDX 16 1 17 2 18 3 19 4 20 5 21 6 22 7 23 8 24 9 25 10 26 11
REMARK SMILES IDX 27 12 28 13 29 14 30 15 31 16 32 17 15 18 14 19 13 20 12 21
REMARK SMILES IDX 11 22 10 23 9 24 8 25 7 26 6 27 5 28 4 29 3 30 2 31 1 32
REMARK H PARENT
REMARK Flexibility Score: inf
ROOT
ATOM      1  C   UNL     1     104.786 308.126 200.857  1.00  0.00     0.000 C 
ENDROOT
BRANCH   1   2
ATOM      2  C   UNL     1     104.872 309.486 200.148  1.00  0.00     0.000 C 
BRANCH   2   3
ATOM      3  C   UNL     1     104.738 310.643 201.147  1.00  0.00     0.000 C 
BRANCH   3   4
ATOM      4  C   UNL     1     103.560 311.555 200.772  1.00  0.00     0.000 C 
BRANCH   4   5
ATOM      5  C   UNL     1     102.834 311.098 199.494  1.00  0.00     0.000 C 
BRANCH   5   6
ATOM      6  C   UNL     1     101.703 312.058 199.085  1.00  0.00     0.000 C 
BRANCH   6   7
ATOM      7  C   UNL     1     100.355 311.346 198.866  1.00  0.00     0.000 C 
BRANCH   7   8
ATOM      8  C   UNL     1      99.984 311.066 197.397  1.00  0.00     0.000 C 
BRANCH   8   9
ATOM      9  C   UNL     1      98.484 310.803 197.192  1.00  0.00     0.000 C 
BRANCH   9  10
ATOM     10  C   UNL     1      98.157 309.310 197.014  1.00  0.00     0.000 C 
BRANCH  10  11
ATOM     11  C   UNL     1      96.974 308.830 197.881  1.00  0.00     0.000 C 
BRANCH  11  12
ATOM     12  C   UNL     1      97.450 308.080 199.138  1.00  0.00     0.000 C 
BRANCH  12  13
ATOM     13  C   UNL     1      97.495 308.984 200.380  1.00  0.00     0.006 C 
BRANCH  13  14
ATOM     14  C   UNL     1      97.629 308.184 201.684  1.00  0.00     0.053 C 
BRANCH  14  15
ATOM     15  C   UNL     1      96.552 307.148 201.775  1.00  0.00     0.041 C 
ATOM     16  O   UNL     1      95.347 307.471 201.599  1.00  0.00    -0.550 OA
ATOM     17  O   UNL     1      96.883 305.819 202.001  1.00  0.00    -0.550 OA
ENDBRANCH  14  15
ENDBRANCH  13  14
ENDBRANCH  12  13
ENDBRANCH  11  12
ENDBRANCH  10  11
ENDBRANCH   9  10
ENDBRANCH   8   9
ENDBRANCH   7   8
ENDBRANCH   6   7
ENDBRANCH   5   6
ENDBRANCH   4   5
ENDBRANCH   3   4
ENDBRANCH   2   3
ENDBRANCH   1   2
BRANCH   1  18
ATOM     18  C   UNL     1     103.643 308.063 201.886  1.00  0.00     0.000 C 
BRANCH  18  19
ATOM     19  C   UNL     1     103.949 307.222 203.142  1.00  0.00     0.000 C 
BRANCH  19  20
ATOM     20  C   UNL     1     104.906 307.882 204.155  1.00  0.00     0.000 C 
BRANCH  20  21
ATOM     21  C   UNL     1     104.712 309.398 204.348  1.00  0.00     0.000 C 
BRANCH  21  22
ATOM     22  C   UNL     1     103.622 309.731 205.383  1.00  0.00     0.000 C 
BRANCH  22  23
ATOM     23  C   UNL     1     102.418 310.457 204.763  1.00  0.00     0.000 C 
BRANCH  23  24
ATOM     24  C   UNL     1     101.106 309.665 204.921  1.00  0.00    -0.000 C 
BRANCH  24  25
ATOM     25  C   UNL     1     100.501 309.261 203.564  1.00  0.00    -0.000 C 
BRANCH  25  26
ATOM     26  C   UNL     1     100.664 310.341 202.469  1.00  0.00    -0.000 C 
BRANCH  26  27
ATOM     27  C   UNL     1      99.548 311.404 202.478  1.00  0.00    -0.000 C 
BRANCH  27  28
ATOM     28  C   UNL     1      99.944 312.747 203.119  1.00  0.00    -0.000 C 
BRANCH  28  29
ATOM     29  C   UNL     1     101.242 313.370 202.570  1.00  0.00    -0.000 C 
BRANCH  29  30
ATOM     30  C   UNL     1     102.150 313.978 203.660  1.00  0.00    -0.000 C 
BRANCH  30  31
ATOM     31  C   UNL     1     103.584 314.212 203.161  1.00  0.00    -0.003 C 
ATOM     32  C   UNL     1     104.583 313.351 203.930  1.00  0.00     0.004 C 
ENDBRANCH  30  31
ENDBRANCH  29  30
ENDBRANCH  28  29
ENDBRANCH  27  28
ENDBRANCH  26  27
ENDBRANCH  25  26
ENDBRANCH  24  25
ENDBRANCH  23  24
ENDBRANCH  22  23
ENDBRANCH  21  22
ENDBRANCH  20  21
ENDBRANCH  19  20
ENDBRANCH  18  19
ENDBRANCH   1  18
TORSDOF 28
ENDMDL
MODEL 7
REMARK VINA RESULT:    -4.298      2.694      3.615
REMARK INTER + INTRA:         -15.996
REMARK INTER:                 -11.353
REMARK INTRA:                  -4.643
REMARK UNBOUND:                -4.663
REMARK SMILES CCCCCCCCCCCCCCCCCCCCCCCCCCCCCC(=O)[O-]
REMARK SMILES IDX 16 1 17 2 18 3 19 4 20 5 21 6 22 7 23 8 24 9 25 10 26 11
REMARK SMILES IDX 27 12 28 13 29 14 30 15 31 16 32 17 15 18 14 19 13 20 12 21
REMARK SMILES IDX 11 22 10 23 9 24 8 25 7 26 6 27 5 28 4 29 3 30 2 31 1 32
REMARK H PARENT
REMARK Flexibility Score: inf
ROOT
ATOM      1  C   UNL     1     100.603 314.143 187.360  1.00  0.00     0.000 C 
ENDROOT
BRANCH   1   2
ATOM      2  C   UNL     1     101.412 312.840 187.253  1.00  0.00     0.000 C 
BRANCH   2   3
ATOM      3  C   UNL     1     102.892 313.129 186.970  1.00  0.00     0.000 C 
BRANCH   3   4
ATOM      4  C   UNL     1     103.745 311.869 187.190  1.00  0.00     0.000 C 
BRANCH   4   5
ATOM      5  C   UNL     1     104.746 312.021 188.348  1.00  0.00     0.000 C 
BRANCH   5   6
ATOM      6  C   UNL     1     104.520 313.310 189.157  1.00  0.00     0.000 C 
BRANCH   6   7
ATOM      7  C   UNL     1     103.813 313.063 190.503  1.00  0.00     0.000 C 
BRANCH   7   8
ATOM      8  C   UNL     1     103.053 314.270 191.084  1.00  0.00     0.000 C 
BRANCH   8   9
ATOM      9  C   UNL     1     101.695 313.892 191.697  1.00  0.00     0.000 C 
BRANCH   9  10
ATOM     10  C   UNL     1     101.092 312.620 191.076  1.00  0.00     0.000 C 
BRANCH  10  11
ATOM     11  C   UNL     1      99.604 312.765 190.695  1.00  0.00     0.000 C 
BRANCH  11  12
ATOM     12  C   UNL     1      98.926 313.920 191.454  1.00  0.00     0.000 C 
BRANCH  12  13
ATOM     13  C   UNL     1      97.397 313.772 191.505  1.00  0.00     0.006 C 
BRANCH  13  14
ATOM     14  C   UNL     1      96.759 313.785 190.108  1.00  0.00     0.053 C 
BRANCH  14  15
ATOM     15  C   UNL     1      95.984 312.526 189.875  1.00  0.00     0.041 C 
ATOM     16  O   UNL     1      94.840 312.384 190.384  1.00  0.00    -0.550 OA
ATOM     17  O   UNL     1      96.500 311.533 189.053  1.00  0.00    -0.550 OA
ENDBRANCH  14  15
ENDBRANCH  13  14
ENDBRANCH  12  13
ENDBRANCH  11  12
ENDBRANCH  10  11
ENDBRANCH   9  10
ENDBRANCH   8   9
ENDBRANCH   7   8
ENDBRANCH   6   7
ENDBRANCH   5   6
ENDBRANCH   4   5
ENDBRANCH   3   4
ENDBRANCH   2   3
ENDBRANCH   1   2
BRANCH   1  18
ATOM     18  C   UNL     1     101.412 315.295 187.981  1.00  0.00     0.000 C 
BRANCH  18  19
ATOM     19  C   UNL     1     100.570 316.339 188.744  1.00  0.00     0.000 C 
BRANCH  19  20
ATOM     20  C   UNL     1     100.992 317.806 188.525  1.00  0.00     0.000 C 
BRANCH  20  21
ATOM     21  C   UNL     1      99.915 318.854 188.865  1.00  0.00     0.000 C 
BRANCH  21  22
ATOM     22  C   UNL     1      98.490 318.364 188.559  1.00  0.00     0.000 C 
BRANCH  22  23
ATOM     23  C   UNL     1      97.537 318.527 189.754  1.00  0.00     0.000 C 
BRANCH  23  24
ATOM     24  C   UNL     1      97.624 317.350 190.743  1.00  0.00    -0.000 C 
BRANCH  24  25
ATOM     25  C   UNL     1      98.016 317.805 192.160  1.00  0.00    -0.000 C 
BRANCH  25  26
ATOM     26  C   UNL     1      96.831 317.825 193.153  1.00  0.00    -0.000 C 
BRANCH  26  27
ATOM     27  C   UNL     1      95.495 317.375 192.530  1.00  0.00    -0.000 C 
BRANCH  27  28
ATOM     28  C   UNL     1      94.324 318.349 192.748  1.00  0.00    -0.000 C 
BRANCH  28  29
ATOM     29  C   UNL     1      93.957 319.209 191.523  1.00  0.00    -0.000 C 
BRANCH  29  30
ATOM     30  C   UNL     1      92.807 318.624 190.675  1.00  0.00    -0.000 C 
BRANCH  30  31
ATOM     31  C   UNL     1      93.243 317.386 189.876  1.00  0.00    -0.003 C 
ATOM     32  C   UNL     1      92.230 316.253 190.020  1.00  0.00     0.004 C 
ENDBRANCH  30  31
ENDBRANCH  29  30
ENDBRANCH  28  29
ENDBRANCH  27  28
ENDBRANCH  26  27
ENDBRANCH  25  26
ENDBRANCH  24  25
ENDBRANCH  23  24
ENDBRANCH  22  23
ENDBRANCH  21  22
ENDBRANCH  20  21
ENDBRANCH  19  20
ENDBRANCH  18  19
ENDBRANCH   1  18
TORSDOF 28
ENDMDL
MODEL 8
REMARK VINA RESULT:    -4.220      2.188      4.802
REMARK INTER + INTRA:         -15.791
REMARK INTER:                 -10.432
REMARK INTRA:                  -5.358
REMARK UNBOUND:                -4.663
REMARK SMILES CCCCCCCCCCCCCCCCCCCCCCCCCCCCCC(=O)[O-]
REMARK SMILES IDX 16 1 17 2 18 3 19 4 20 5 21 6 22 7 23 8 24 9 25 10 26 11
REMARK SMILES IDX 27 12 28 13 29 14 30 15 31 16 32 17 15 18 14 19 13 20 12 21
REMARK SMILES IDX 11 22 10 23 9 24 8 25 7 26 6 27 5 28 4 29 3 30 2 31 1 32
REMARK H PARENT
REMARK Flexibility Score: inf
ROOT
ATOM      1  C   UNL     1     104.315 314.451 187.904  1.00  0.00     0.000 C 
ENDROOT
BRANCH   1   2
ATOM      2  C   UNL     1     103.177 314.545 186.876  1.00  0.00     0.000 C 
BRANCH   2   3
ATOM      3  C   UNL     1     101.885 313.923 187.421  1.00  0.00     0.000 C 
BRANCH   3   4
ATOM      4  C   UNL     1     100.764 314.971 187.496  1.00  0.00     0.000 C 
BRANCH   4   5
ATOM      5  C   UNL     1     101.137 316.184 188.366  1.00  0.00     0.000 C 
BRANCH   5   6
ATOM      6  C   UNL     1     100.236 317.402 188.095  1.00  0.00     0.000 C 
BRANCH   6   7
ATOM      7  C   UNL     1     100.186 318.391 189.274  1.00  0.00     0.000 C 
BRANCH   7   8
ATOM      8  C   UNL     1      98.913 318.329 190.139  1.00  0.00     0.000 C 
BRANCH   8   9
ATOM      9  C   UNL     1      99.210 318.257 191.646  1.00  0.00     0.000 C 
BRANCH   9  10
ATOM     10  C   UNL     1      98.551 317.046 192.328  1.00  0.00     0.000 C 
BRANCH  10  11
ATOM     11  C   UNL     1      97.010 317.107 192.339  1.00  0.00     0.000 C 
BRANCH  11  12
ATOM     12  C   UNL     1      96.403 316.140 193.372  1.00  0.00     0.000 C 
BRANCH  12  13
ATOM     13  C   UNL     1      95.037 316.616 193.892  1.00  0.00     0.006 C 
BRANCH  13  14
ATOM     14  C   UNL     1      95.123 317.216 195.303  1.00  0.00     0.053 C 
BRANCH  14  15
ATOM     15  C   UNL     1      95.534 318.654 195.237  1.00  0.00     0.041 C 
ATOM     16  O   UNL     1      94.737 319.520 194.786  1.00  0.00    -0.550 OA
ATOM     17  O   UNL     1      96.775 319.045 195.721  1.00  0.00    -0.550 OA
ENDBRANCH  14  15
ENDBRANCH  13  14
ENDBRANCH  12  13
ENDBRANCH  11  12
ENDBRANCH  10  11
ENDBRANCH   9  10
ENDBRANCH   8   9
ENDBRANCH   7   8
ENDBRANCH   6   7
ENDBRANCH   5   6
ENDBRANCH   4   5
ENDBRANCH   3   4
ENDBRANCH   2   3
ENDBRANCH   1   2
BRANCH   1  18
ATOM     18  C   UNL     1     104.366 313.086 188.612  1.00  0.00     0.000 C 
BRANCH  18  19
ATOM     19  C   UNL     1     104.327 313.154 190.152  1.00  0.00     0.000 C 
BRANCH  19  20
ATOM     20  C   UNL     1     102.928 312.981 190.779  1.00  0.00     0.000 C 
BRANCH  20  21
ATOM     21  C   UNL     1     102.235 314.289 191.205  1.00  0.00     0.000 C 
BRANCH  21  22
ATOM     22  C   UNL     1     100.705 314.152 191.287  1.00  0.00     0.000 C 
BRANCH  22  23
ATOM     23  C   UNL     1     100.199 312.812 190.729  1.00  0.00     0.000 C 
BRANCH  23  24
ATOM     24  C   UNL     1      98.755 312.901 190.198  1.00  0.00    -0.000 C 
BRANCH  24  25
ATOM     25  C   UNL     1      98.260 314.355 190.095  1.00  0.00    -0.000 C 
BRANCH  25  26
ATOM     26  C   UNL     1      96.960 314.507 189.272  1.00  0.00    -0.000 C 
BRANCH  26  27
ATOM     27  C   UNL     1      96.636 315.964 188.890  1.00  0.00    -0.000 C 
BRANCH  27  28
ATOM     28  C   UNL     1      95.137 316.312 188.892  1.00  0.00    -0.000 C 
BRANCH  28  29
ATOM     29  C   UNL     1      94.318 315.649 190.017  1.00  0.00    -0.000 C 
BRANCH  29  30
ATOM     30  C   UNL     1      93.392 316.627 190.771  1.00  0.00    -0.000 C 
BRANCH  30  31
ATOM     31  C   UNL     1      93.588 318.082 190.319  1.00  0.00    -0.003 C 
ATOM     32  C   UNL     1      93.547 319.039 191.508  1.00  0.00     0.004 C 
ENDBRANCH  30  31
ENDBRANCH  29  30
ENDBRANCH  28  29
ENDBRANCH  27  28
ENDBRANCH  26  27
ENDBRANCH  25  26
ENDBRANCH  24  25
ENDBRANCH  23  24
ENDBRANCH  22  23
ENDBRANCH  21  22
ENDBRANCH  20  21
ENDBRANCH  19  20
ENDBRANCH  18  19
ENDBRANCH   1  18
TORSDOF 28
ENDMDL
MODEL 9
REMARK VINA RESULT:    -4.217      2.216      7.089
REMARK INTER + INTRA:         -15.783
REMARK INTER:                 -11.347
REMARK INTRA:                  -4.436
REMARK UNBOUND:                -4.663
REMARK SMILES CCCCCCCCCCCCCCCCCCCCCCCCCCCCCC(=O)[O-]
REMARK SMILES IDX 16 1 17 2 18 3 19 4 20 5 21 6 22 7 23 8 24 9 25 10 26 11
REMARK SMILES IDX 27 12 28 13 29 14 30 15 31 16 32 17 15 18 14 19 13 20 12 21
REMARK SMILES IDX 11 22 10 23 9 24 8 25 7 26 6 27 5 28 4 29 3 30 2 31 1 32
REMARK H PARENT
REMARK Flexibility Score: inf
ROOT
ATOM      1  C   UNL     1     100.569 316.009 188.514  1.00  0.00     0.000 C 
ENDROOT
BRANCH   1   2
ATOM      2  C   UNL     1      99.864 316.526 187.251  1.00  0.00     0.000 C 
BRANCH   2   3
ATOM      3  C   UNL     1      99.166 317.867 187.515  1.00  0.00     0.000 C 
BRANCH   3   4
ATOM      4  C   UNL     1      97.747 317.869 186.924  1.00  0.00     0.000 C 
BRANCH   4   5
ATOM      5  C   UNL     1      96.733 317.114 187.800  1.00  0.00     0.000 C 
BRANCH   5   6
ATOM      6  C   UNL     1      96.839 317.498 189.287  1.00  0.00     0.000 C 
BRANCH   6   7
ATOM      7  C   UNL     1      96.639 316.302 190.236  1.00  0.00     0.000 C 
BRANCH   7   8
ATOM      8  C   UNL     1      95.336 315.505 190.034  1.00  0.00     0.000 C 
BRANCH   8   9
ATOM      9  C   UNL     1      94.393 315.571 191.247  1.00  0.00     0.000 C 
BRANCH   9  10
ATOM     10  C   UNL     1      93.044 316.235 190.921  1.00  0.00     0.000 C 
BRANCH  10  11
ATOM     11  C   UNL     1      93.178 317.521 190.078  1.00  0.00     0.000 C 
BRANCH  11  12
ATOM     12  C   UNL     1      93.066 318.790 190.942  1.00  0.00     0.000 C 
BRANCH  12  13
ATOM     13  C   UNL     1      94.358 319.088 191.720  1.00  0.00     0.006 C 
BRANCH  13  14
ATOM     14  C   UNL     1      94.194 318.879 193.232  1.00  0.00     0.053 C 
BRANCH  14  15
ATOM     15  C   UNL     1      95.522 318.620 193.872  1.00  0.00     0.041 C 
ATOM     16  O   UNL     1      95.982 319.427 194.724  1.00  0.00    -0.550 OA
ATOM     17  O   UNL     1      96.227 317.463 193.569  1.00  0.00    -0.550 OA
ENDBRANCH  14  15
ENDBRANCH  13  14
ENDBRANCH  12  13
ENDBRANCH  11  12
ENDBRANCH  10  11
ENDBRANCH   9  10
ENDBRANCH   8   9
ENDBRANCH   7   8
ENDBRANCH   6   7
ENDBRANCH   5   6
ENDBRANCH   4   5
ENDBRANCH   3   4
ENDBRANCH   2   3
ENDBRANCH   1   2
BRANCH   1  18
ATOM     18  C   UNL     1     102.055 315.686 188.276  1.00  0.00     0.000 C 
BRANCH  18  19
ATOM     19  C   UNL     1     102.317 314.528 187.293  1.00  0.00     0.000 C 
BRANCH  19  20
ATOM     20  C   UNL     1     103.761 313.988 187.287  1.00  0.00     0.000 C 
BRANCH  20  21
ATOM     21  C   UNL     1     104.017 312.791 188.222  1.00  0.00     0.000 C 
BRANCH  21  22
ATOM     22  C   UNL     1     104.384 313.221 189.653  1.00  0.00     0.000 C 
BRANCH  22  23
ATOM     23  C   UNL     1     103.249 312.967 190.658  1.00  0.00     0.000 C 
BRANCH  23  24
ATOM     24  C   UNL     1     102.888 314.224 191.472  1.00  0.00    -0.000 C 
BRANCH  24  25
ATOM     25  C   UNL     1     101.376 314.332 191.740  1.00  0.00    -0.000 C 
BRANCH  25  26
ATOM     26  C   UNL     1     100.616 313.002 191.533  1.00  0.00    -0.000 C 
BRANCH  26  27
ATOM     27  C   UNL     1      99.108 313.184 191.273  1.00  0.00    -0.000 C 
BRANCH  27  28
ATOM     28  C   UNL     1      98.683 313.003 189.805  1.00  0.00    -0.000 C 
BRANCH  28  29
ATOM     29  C   UNL     1      99.792 312.491 188.866  1.00  0.00    -0.000 C 
BRANCH  29  30
ATOM     30  C   UNL     1      99.283 312.086 187.466  1.00  0.00    -0.000 C 
BRANCH  30  31
ATOM     31  C   UNL     1      99.178 310.562 187.302  1.00  0.00    -0.003 C 
ATOM     32  C   UNL     1      98.061 309.990 188.171  1.00  0.00     0.004 C 
ENDBRANCH  30  31
ENDBRANCH  29  30
ENDBRANCH  28  29
ENDBRANCH  27  28
ENDBRANCH  26  27
ENDBRANCH  25  26
ENDBRANCH  24  25
ENDBRANCH  23  24
ENDBRANCH  22  23
ENDBRANCH  21  22
ENDBRANCH  20  21
ENDBRANCH  19  20
ENDBRANCH  18  19
ENDBRANCH   1  18
TORSDOF 28
ENDMDL
