MODEL 1
REMARK VINA RESULT:    22.098      0.000      0.000
REMARK INTER + INTRA:          53.858
REMARK INTER:                  55.687
REMARK INTRA:                  -1.829
REMARK UNBOUND:                -1.829
REMARK SMILES CCCCCCCCCCCCCCCCCCCCCCCCCCCC(=O)[O-]
REMARK SMILES IDX 15 1 16 2 17 3 18 4 19 5 20 6 21 7 22 8 23 9 24 10 25 11
REMARK SMILES IDX 26 12 27 13 28 14 29 15 30 16 14 17 13 18 12 19 11 20 10 21
REMARK SMILES IDX 9 22 8 23 7 24 6 25 5 26 4 27 3 28 2 29 1 30
REMARK H PARENT
REMARK Flexibility Score: inf
ROOT
ATOM      1  C   UNL     1      17.236  17.155  18.900  1.00  0.00     0.000 C 
ENDROOT
BRANCH   1   2
ATOM      2  C   UNL     1      15.725  17.077  19.178  1.00  0.00     0.000 C 
BRANCH   2   3
ATOM      3  C   UNL     1      15.387  16.170  20.373  1.00  0.00     0.000 C 
BRANCH   3   4
ATOM      4  C   UNL     1      15.759  14.701  20.118  1.00  0.00     0.000 C 
BRANCH   4   5
ATOM      5  C   UNL     1      14.859  13.723  20.896  1.00  0.00     0.000 C 
BRANCH   5   6
ATOM      6  C   UNL     1      13.865  12.986  19.973  1.00  0.00     0.000 C 
BRANCH   6   7
ATOM      7  C   UNL     1      14.445  11.714  19.329  1.00  0.00     0.000 C 
BRANCH   7   8
ATOM      8  C   UNL     1      15.502  11.030  20.210  1.00  0.00     0.000 C 
BRANCH   8   9
ATOM      9  C   UNL     1      15.753   9.567  19.807  1.00  0.00     0.000 C 
BRANCH   9  10
ATOM     10  C   UNL     1      17.201   9.119  20.074  1.00  0.00     0.000 C 
BRANCH  10  11
ATOM     11  C   UNL     1      18.114   9.287  18.846  1.00  0.00     0.000 C 
BRANCH  11  12
ATOM     12  C   UNL     1      19.609   9.004  19.104  1.00  0.00     0.006 C 
BRANCH  12  13
ATOM     13  C   UNL     1      20.464  10.258  19.341  1.00  0.00     0.053 C 
BRANCH  13  14
ATOM     14  C   UNL     1      20.087  10.968  20.605  1.00  0.00     0.041 C 
ATOM     15  O   UNL     1      19.966  12.221  20.616  1.00  0.00    -0.550 OA
ATOM     16  O   UNL     1      19.888  10.246  21.777  1.00  0.00    -0.550 OA
ENDBRANCH  13  14
ENDBRANCH  12  13
ENDBRANCH  11  12
ENDBRANCH  10  11
ENDBRANCH   9  10
ENDBRANCH   8   9
ENDBRANCH   7   8
ENDBRANCH   6   7
ENDBRANCH   5   6
ENDBRANCH   4   5
ENDBRANCH   3   4
ENDBRANCH   2   3
ENDBRANCH   1   2
BRANCH   1  17
ATOM     17  C   UNL     1      18.109  17.466  20.133  1.00  0.00     0.000 C 
BRANCH  17  18
ATOM     18  C   UNL     1      19.583  17.790  19.825  1.00  0.00     0.000 C 
BRANCH  18  19
ATOM     19  C   UNL     1      20.306  18.459  21.005  1.00  0.00     0.000 C 
BRANCH  19  20
ATOM     20  C   UNL     1      19.334  18.731  22.162  1.00  0.00     0.000 C 
BRANCH  20  21
ATOM     21  C   UNL     1      20.028  18.706  23.533  1.00  0.00     0.000 C 
BRANCH  21  22
ATOM     22  C   UNL     1      21.435  19.324  23.495  1.00  0.00    -0.000 C 
BRANCH  22  23
ATOM     23  C   UNL     1      21.507  20.569  24.392  1.00  0.00    -0.000 C 
BRANCH  23  24
ATOM     24  C   UNL     1      22.948  20.937  24.795  1.00  0.00    -0.000 C 
BRANCH  24  25
ATOM     25  C   UNL     1      23.914  21.160  23.618  1.00  0.00    -0.000 C 
BRANCH  25  26
ATOM     26  C   UNL     1      24.883  19.985  23.410  1.00  0.00    -0.000 C 
BRANCH  26  27
ATOM     27  C   UNL     1      25.090  19.636  21.926  1.00  0.00    -0.000 C 
BRANCH  27  28
ATOM     28  C   UNL     1      24.577  18.242  21.508  1.00  0.00    -0.000 C 
BRANCH  28  29
ATOM     29  C   UNL     1      24.499  17.209  22.646  1.00  0.00    -0.003 C 
ATOM     30  C   UNL     1      25.764  16.359  22.766  1.00  0.00     0.004 C 
ENDBRANCH  28  29
ENDBRANCH  27  28
ENDBRANCH  26  27
ENDBRANCH  25  26
ENDBRANCH  24  25
ENDBRANCH  23  24
ENDBRANCH  22  23
ENDBRANCH  21  22
ENDBRANCH  20  21
ENDBRANCH  19  20
ENDBRANCH  18  19
ENDBRANCH  17  18
ENDBRANCH   1  17
TORSDOF 26
ENDMDL
MODEL 2
REMARK VINA RESULT:    22.142      2.162     10.052
REMARK INTER + INTRA:          53.967
REMARK INTER:                  55.848
REMARK INTRA:                  -1.882
REMARK UNBOUND:                -1.829
REMARK SMILES CCCCCCCCCCCCCCCCCCCCCCCCCCCC(=O)[O-]
REMARK SMILES IDX 15 1 16 2 17 3 18 4 19 5 20 6 21 7 22 8 23 9 24 10 25 11
REMARK SMILES IDX 26 12 27 13 28 14 29 15 30 16 14 17 13 18 12 19 11 20 10 21
REMARK SMILES IDX 9 22 8 23 7 24 6 25 5 26 4 27 3 28 2 29 1 30
REMARK H PARENT
REMARK Flexibility Score: inf
ROOT
ATOM      1  C   UNL     1      18.215  17.337  20.242  1.00  0.00     0.000 C 
ENDROOT
BRANCH   1   2
ATOM      2  C   UNL     1      19.478  18.173  19.976  1.00  0.00     0.000 C 
BRANCH   2   3
ATOM      3  C   UNL     1      20.181  18.617  21.270  1.00  0.00     0.000 C 
BRANCH   3   4
ATOM      4  C   UNL     1      19.471  18.094  22.530  1.00  0.00     0.000 C 
BRANCH   4   5
ATOM      5  C   UNL     1      20.028  18.722  23.821  1.00  0.00     0.000 C 
BRANCH   5   6
ATOM      6  C   UNL     1      21.203  19.684  23.540  1.00  0.00     0.000 C 
BRANCH   6   7
ATOM      7  C   UNL     1      21.537  20.614  24.720  1.00  0.00     0.000 C 
BRANCH   7   8
ATOM      8  C   UNL     1      22.808  21.446  24.480  1.00  0.00     0.000 C 
BRANCH   8   9
ATOM      9  C   UNL     1      24.023  20.578  24.115  1.00  0.00     0.000 C 
BRANCH   9  10
ATOM     10  C   UNL     1      24.676  21.002  22.787  1.00  0.00     0.000 C 
BRANCH  10  11
ATOM     11  C   UNL     1      25.491  19.871  22.135  1.00  0.00     0.000 C 
BRANCH  11  12
ATOM     12  C   UNL     1      24.650  18.792  21.420  1.00  0.00     0.006 C 
BRANCH  12  13
ATOM     13  C   UNL     1      24.211  17.626  22.319  1.00  0.00     0.053 C 
BRANCH  13  14
ATOM     14  C   UNL     1      25.367  17.003  23.040  1.00  0.00     0.041 C 
ATOM     15  O   UNL     1      26.000  16.049  22.518  1.00  0.00    -0.550 OA
ATOM     16  O   UNL     1      25.733  17.464  24.300  1.00  0.00    -0.550 OA
ENDBRANCH  13  14
ENDBRANCH  12  13
ENDBRANCH  11  12
ENDBRANCH  10  11
ENDBRANCH   9  10
ENDBRANCH   8   9
ENDBRANCH   7   8
ENDBRANCH   6   7
ENDBRANCH   5   6
ENDBRANCH   4   5
ENDBRANCH   3   4
ENDBRANCH   2   3
ENDBRANCH   1   2
BRANCH   1  17
ATOM     17  C   UNL     1      16.999  17.695  19.362  1.00  0.00     0.000 C 
BRANCH  17  18
ATOM     18  C   UNL     1      15.976  16.561  19.167  1.00  0.00     0.000 C 
BRANCH  18  19
ATOM     19  C   UNL     1      16.132  15.433  20.198  1.00  0.00     0.000 C 
BRANCH  19  20
ATOM     20  C   UNL     1      14.763  14.870  20.608  1.00  0.00     0.000 C 
BRANCH  20  21
ATOM     21  C   UNL     1      14.777  13.342  20.766  1.00  0.00     0.000 C 
BRANCH  21  22
ATOM     22  C   UNL     1      13.789  12.640  19.821  1.00  0.00    -0.000 C 
BRANCH  22  23
ATOM     23  C   UNL     1      14.455  11.443  19.126  1.00  0.00    -0.000 C 
BRANCH  23  24
ATOM     24  C   UNL     1      15.566  10.796  19.977  1.00  0.00    -0.000 C 
BRANCH  24  25
ATOM     25  C   UNL     1      15.683   9.268  19.835  1.00  0.00    -0.000 C 
BRANCH  25  26
ATOM     26  C   UNL     1      17.005   8.828  19.185  1.00  0.00    -0.000 C 
BRANCH  26  27
ATOM     27  C   UNL     1      18.242   9.309  19.963  1.00  0.00    -0.000 C 
BRANCH  27  28
ATOM     28  C   UNL     1      19.526   9.449  19.120  1.00  0.00    -0.000 C 
BRANCH  28  29
ATOM     29  C   UNL     1      20.620  10.335  19.741  1.00  0.00    -0.003 C 
ATOM     30  C   UNL     1      20.056  11.458  20.612  1.00  0.00     0.004 C 
ENDBRANCH  28  29
ENDBRANCH  27  28
ENDBRANCH  26  27
ENDBRANCH  25  26
ENDBRANCH  24  25
ENDBRANCH  23  24
ENDBRANCH  22  23
ENDBRANCH  21  22
ENDBRANCH  20  21
ENDBRANCH  19  20
ENDBRANCH  18  19
ENDBRANCH  17  18
ENDBRANCH   1  17
TORSDOF 26
ENDMDL
MODEL 3
REMARK VINA RESULT:    22.449      2.036      9.757
REMARK INTER + INTRA:          54.741
REMARK INTER:                  56.556
REMARK INTRA:                  -1.815
REMARK UNBOUND:                -1.829
REMARK SMILES CCCCCCCCCCCCCCCCCCCCCCCCCCCC(=O)[O-]
REMARK SMILES IDX 15 1 16 2 17 3 18 4 19 5 20 6 21 7 22 8 23 9 24 10 25 11
REMARK SMILES IDX 26 12 27 13 28 14 29 15 30 16 14 17 13 18 12 19 11 20 10 21
REMARK SMILES IDX 9 22 8 23 7 24 6 25 5 26 4 27 3 28 2 29 1 30
REMARK H PARENT
REMARK Flexibility Score: inf
ROOT
ATOM      1  C   UNL     1      15.851  16.768  19.107  1.00  0.00     0.000 C 
ENDROOT
BRANCH   1   2
ATOM      2  C   UNL     1      17.157  17.581  19.063  1.00  0.00     0.000 C 
BRANCH   2   3
ATOM      3  C   UNL     1      18.105  17.246  20.227  1.00  0.00     0.000 C 
BRANCH   3   4
ATOM      4  C   UNL     1      19.463  17.955  20.099  1.00  0.00     0.000 C 
BRANCH   4   5
ATOM      5  C   UNL     1      19.787  18.829  21.324  1.00  0.00     0.000 C 
BRANCH   5   6
ATOM      6  C   UNL     1      19.456  18.114  22.652  1.00  0.00     0.000 C 
BRANCH   6   7
ATOM      7  C   UNL     1      20.220  18.675  23.865  1.00  0.00     0.000 C 
BRANCH   7   8
ATOM      8  C   UNL     1      21.149  19.843  23.494  1.00  0.00     0.000 C 
BRANCH   8   9
ATOM      9  C   UNL     1      21.546  20.693  24.712  1.00  0.00     0.000 C 
BRANCH   9  10
ATOM     10  C   UNL     1      23.067  20.905  24.816  1.00  0.00     0.000 C 
BRANCH  10  11
ATOM     11  C   UNL     1      23.793  20.687  23.476  1.00  0.00     0.000 C 
BRANCH  11  12
ATOM     12  C   UNL     1      24.938  19.654  23.517  1.00  0.00     0.006 C 
BRANCH  12  13
ATOM     13  C   UNL     1      25.312  19.060  22.151  1.00  0.00     0.053 C 
BRANCH  13  14
ATOM     14  C   UNL     1      24.475  17.866  21.806  1.00  0.00     0.041 C 
ATOM     15  O   UNL     1      24.713  16.751  22.338  1.00  0.00    -0.550 OA
ATOM     16  O   UNL     1      23.444  17.981  20.881  1.00  0.00    -0.550 OA
ENDBRANCH  13  14
ENDBRANCH  12  13
ENDBRANCH  11  12
ENDBRANCH  10  11
ENDBRANCH   9  10
ENDBRANCH   8   9
ENDBRANCH   7   8
ENDBRANCH   6   7
ENDBRANCH   5   6
ENDBRANCH   4   5
ENDBRANCH   3   4
ENDBRANCH   2   3
ENDBRANCH   1   2
BRANCH   1  17
ATOM     17  C   UNL     1      15.676  15.885  20.360  1.00  0.00     0.000 C 
BRANCH  17  18
ATOM     18  C   UNL     1      15.449  14.388  20.079  1.00  0.00     0.000 C 
BRANCH  18  19
ATOM     19  C   UNL     1      14.334  13.781  20.945  1.00  0.00     0.000 C 
BRANCH  19  20
ATOM     20  C   UNL     1      13.609  12.654  20.195  1.00  0.00     0.000 C 
BRANCH  20  21
ATOM     21  C   UNL     1      14.559  11.820  19.321  1.00  0.00     0.000 C 
BRANCH  21  22
ATOM     22  C   UNL     1      15.495  10.928  20.150  1.00  0.00    -0.000 C 
BRANCH  22  23
ATOM     23  C   UNL     1      15.363   9.457  19.727  1.00  0.00    -0.000 C 
BRANCH  23  24
ATOM     24  C   UNL     1      16.602   8.934  18.976  1.00  0.00    -0.000 C 
BRANCH  24  25
ATOM     25  C   UNL     1      17.900   8.913  19.803  1.00  0.00    -0.000 C 
BRANCH  25  26
ATOM     26  C   UNL     1      19.165   8.989  18.932  1.00  0.00    -0.000 C 
BRANCH  26  27
ATOM     27  C   UNL     1      20.208   9.981  19.476  1.00  0.00    -0.000 C 
BRANCH  27  28
ATOM     28  C   UNL     1      20.104  10.268  20.988  1.00  0.00    -0.000 C 
BRANCH  28  29
ATOM     29  C   UNL     1      20.164  11.757  21.373  1.00  0.00    -0.003 C 
ATOM     30  C   UNL     1      20.372  12.677  20.170  1.00  0.00     0.004 C 
ENDBRANCH  28  29
ENDBRANCH  27  28
ENDBRANCH  26  27
ENDBRANCH  25  26
ENDBRANCH  24  25
ENDBRANCH  23  24
ENDBRANCH  22  23
ENDBRANCH  21  22
ENDBRANCH  20  21
ENDBRANCH  19  20
ENDBRANCH  18  19
ENDBRANCH  17  18
ENDBRANCH   1  17
TORSDOF 26
ENDMDL
MODEL 4
REMARK VINA RESULT:    22.658      0.854      1.698
REMARK INTER + INTRA:          55.268
REMARK INTER:                  57.474
REMARK INTRA:                  -2.206
REMARK UNBOUND:                -1.829
REMARK SMILES CCCCCCCCCCCCCCCCCCCCCCCCCCCC(=O)[O-]
REMARK SMILES IDX 15 1 16 2 17 3 18 4 19 5 20 6 21 7 22 8 23 9 24 10 25 11
REMARK SMILES IDX 26 12 27 13 28 14 29 15 30 16 14 17 13 18 12 19 11 20 10 21
REMARK SMILES IDX 9 22 8 23 7 24 6 25 5 26 4 27 3 28 2 29 1 30
REMARK H PARENT
REMARK Flexibility Score: inf
ROOT
ATOM      1  C   UNL     1      18.127  17.186  20.328  1.00  0.00     0.000 C 
ENDROOT
BRANCH   1   2
ATOM      2  C   UNL     1      17.149  17.468  19.175  1.00  0.00     0.000 C 
BRANCH   2   3
ATOM      3  C   UNL     1      15.753  16.873  19.421  1.00  0.00     0.000 C 
BRANCH   3   4
ATOM      4  C   UNL     1      15.807  15.572  20.238  1.00  0.00     0.000 C 
BRANCH   4   5
ATOM      5  C   UNL     1      14.756  14.545  19.777  1.00  0.00     0.000 C 
BRANCH   5   6
ATOM      6  C   UNL     1      14.699  13.313  20.707  1.00  0.00     0.000 C 
BRANCH   6   7
ATOM      7  C   UNL     1      14.688  11.970  19.956  1.00  0.00     0.000 C 
BRANCH   7   8
ATOM      8  C   UNL     1      15.886  11.077  20.316  1.00  0.00     0.000 C 
BRANCH   8   9
ATOM      9  C   UNL     1      15.532   9.581  20.308  1.00  0.00     0.000 C 
BRANCH   9  10
ATOM     10  C   UNL     1      16.226   8.815  19.167  1.00  0.00     0.000 C 
BRANCH  10  11
ATOM     11  C   UNL     1      17.571   9.442  18.758  1.00  0.00     0.000 C 
BRANCH  11  12
ATOM     12  C   UNL     1      18.793   8.931  19.550  1.00  0.00     0.006 C 
BRANCH  12  13
ATOM     13  C   UNL     1      20.044   9.814  19.432  1.00  0.00     0.053 C 
BRANCH  13  14
ATOM     14  C   UNL     1      20.085  10.880  20.484  1.00  0.00     0.041 C 
ATOM     15  O   UNL     1      19.939  10.577  21.697  1.00  0.00    -0.550 OA
ATOM     16  O   UNL     1      20.263  12.210  20.123  1.00  0.00    -0.550 OA
ENDBRANCH  13  14
ENDBRANCH  12  13
ENDBRANCH  11  12
ENDBRANCH  10  11
ENDBRANCH   9  10
ENDBRANCH   8   9
ENDBRANCH   7   8
ENDBRANCH   6   7
ENDBRANCH   5   6
ENDBRANCH   4   5
ENDBRANCH   3   4
ENDBRANCH   2   3
ENDBRANCH   1   2
BRANCH   1  17
ATOM     17  C   UNL     1      19.493  17.894  20.212  1.00  0.00     0.000 C 
BRANCH  17  18
ATOM     18  C   UNL     1      19.799  18.910  21.327  1.00  0.00     0.000 C 
BRANCH  18  19
ATOM     19  C   UNL     1      19.613  18.325  22.736  1.00  0.00     0.000 C 
BRANCH  19  20
ATOM     20  C   UNL     1      20.740  18.781  23.674  1.00  0.00     0.000 C 
BRANCH  20  21
ATOM     21  C   UNL     1      20.994  20.295  23.599  1.00  0.00     0.000 C 
BRANCH  21  22
ATOM     22  C   UNL     1      21.815  20.817  24.788  1.00  0.00    -0.000 C 
BRANCH  22  23
ATOM     23  C   UNL     1      23.269  20.330  24.702  1.00  0.00    -0.000 C 
BRANCH  23  24
ATOM     24  C   UNL     1      24.085  21.060  23.618  1.00  0.00    -0.000 C 
BRANCH  24  25
ATOM     25  C   UNL     1      24.901  20.141  22.692  1.00  0.00    -0.000 C 
BRANCH  25  26
ATOM     26  C   UNL     1      25.570  18.978  23.443  1.00  0.00    -0.000 C 
BRANCH  26  27
ATOM     27  C   UNL     1      24.951  17.611  23.101  1.00  0.00    -0.000 C 
BRANCH  27  28
ATOM     28  C   UNL     1      24.648  17.391  21.605  1.00  0.00    -0.000 C 
BRANCH  28  29
ATOM     29  C   UNL     1      23.156  17.422  21.231  1.00  0.00    -0.003 C 
ATOM     30  C   UNL     1      22.895  18.062  19.868  1.00  0.00     0.004 C 
ENDBRANCH  28  29
ENDBRANCH  27  28
ENDBRANCH  26  27
ENDBRANCH  25  26
ENDBRANCH  24  25
ENDBRANCH  23  24
ENDBRANCH  22  23
ENDBRANCH  21  22
ENDBRANCH  20  21
ENDBRANCH  19  20
ENDBRANCH  18  19
ENDBRANCH  17  18
ENDBRANCH   1  17
TORSDOF 26
ENDMDL
MODEL 5
REMARK VINA RESULT:    22.719      2.669     10.284
REMARK INTER + INTRA:          55.422
REMARK INTER:                  57.447
REMARK INTRA:                  -2.025
REMARK UNBOUND:                -1.829
REMARK SMILES CCCCCCCCCCCCCCCCCCCCCCCCCCCC(=O)[O-]
REMARK SMILES IDX 15 1 16 2 17 3 18 4 19 5 20 6 21 7 22 8 23 9 24 10 25 11
REMARK SMILES IDX 26 12 27 13 28 14 29 15 30 16 14 17 13 18 12 19 11 20 10 21
REMARK SMILES IDX 9 22 8 23 7 24 6 25 5 26 4 27 3 28 2 29 1 30
REMARK H PARENT
REMARK Flexibility Score: inf
ROOT
ATOM      1  C   UNL     1      18.277  17.249  20.028  1.00  0.00     0.000 C 
ENDROOT
BRANCH   1   2
ATOM      2  C   UNL     1      18.745  18.078  21.237  1.00  0.00     0.000 C 
BRANCH   2   3
ATOM      3  C   UNL     1      20.240  18.429  21.174  1.00  0.00     0.000 C 
BRANCH   3   4
ATOM      4  C   UNL     1      20.877  18.040  19.830  1.00  0.00     0.000 C 
BRANCH   4   5
ATOM      5  C   UNL     1      22.416  18.087  19.873  1.00  0.00     0.000 C 
BRANCH   5   6
ATOM      6  C   UNL     1      22.974  17.633  21.239  1.00  0.00     0.000 C 
BRANCH   6   7
ATOM      7  C   UNL     1      24.487  17.355  21.229  1.00  0.00     0.000 C 
BRANCH   7   8
ATOM      8  C   UNL     1      25.028  16.955  22.611  1.00  0.00     0.000 C 
BRANCH   8   9
ATOM      9  C   UNL     1      25.161  18.154  23.564  1.00  0.00     0.000 C 
BRANCH   9  10
ATOM     10  C   UNL     1      25.892  19.345  22.918  1.00  0.00     0.000 C 
BRANCH  10  11
ATOM     11  C   UNL     1      25.096  20.659  23.018  1.00  0.00     0.000 C 
BRANCH  11  12
ATOM     12  C   UNL     1      23.576  20.484  23.221  1.00  0.00     0.006 C 
BRANCH  12  13
ATOM     13  C   UNL     1      23.052  20.984  24.576  1.00  0.00     0.053 C 
BRANCH  13  14
ATOM     14  C   UNL     1      21.562  20.869  24.681  1.00  0.00     0.041 C 
ATOM     15  O   UNL     1      20.958  19.922  24.112  1.00  0.00    -0.550 OA
ATOM     16  O   UNL     1      20.838  21.819  25.393  1.00  0.00    -0.550 OA
ENDBRANCH  13  14
ENDBRANCH  12  13
ENDBRANCH  11  12
ENDBRANCH  10  11
ENDBRANCH   9  10
ENDBRANCH   8   9
ENDBRANCH   7   8
ENDBRANCH   6   7
ENDBRANCH   5   6
ENDBRANCH   4   5
ENDBRANCH   3   4
ENDBRANCH   2   3
ENDBRANCH   1   2
BRANCH   1  17
ATOM     17  C   UNL     1      16.981  17.749  19.357  1.00  0.00     0.000 C 
BRANCH  17  18
ATOM     18  C   UNL     1      15.867  16.695  19.222  1.00  0.00     0.000 C 
BRANCH  18  19
ATOM     19  C   UNL     1      16.103  15.460  20.105  1.00  0.00     0.000 C 
BRANCH  19  20
ATOM     20  C   UNL     1      14.772  14.881  20.608  1.00  0.00     0.000 C 
BRANCH  20  21
ATOM     21  C   UNL     1      14.802  13.350  20.726  1.00  0.00     0.000 C 
BRANCH  21  22
ATOM     22  C   UNL     1      14.024  12.654  19.599  1.00  0.00    -0.000 C 
BRANCH  22  23
ATOM     23  C   UNL     1      14.684  11.318  19.225  1.00  0.00    -0.000 C 
BRANCH  23  24
ATOM     24  C   UNL     1      15.368  10.629  20.421  1.00  0.00    -0.000 C 
BRANCH  24  25
ATOM     25  C   UNL     1      15.911   9.218  20.133  1.00  0.00    -0.000 C 
BRANCH  25  26
ATOM     26  C   UNL     1      17.059   9.217  19.110  1.00  0.00    -0.000 C 
BRANCH  26  27
ATOM     27  C   UNL     1      18.425   8.907  19.746  1.00  0.00    -0.000 C 
BRANCH  27  28
ATOM     28  C   UNL     1      19.643   9.433  18.958  1.00  0.00    -0.000 C 
BRANCH  28  29
ATOM     29  C   UNL     1      20.429  10.560  19.650  1.00  0.00    -0.003 C 
ATOM     30  C   UNL     1      19.800  11.002  20.971  1.00  0.00     0.004 C 
ENDBRANCH  28  29
ENDBRANCH  27  28
ENDBRANCH  26  27
ENDBRANCH  25  26
ENDBRANCH  24  25
ENDBRANCH  23  24
ENDBRANCH  22  23
ENDBRANCH  21  22
ENDBRANCH  20  21
ENDBRANCH  19  20
ENDBRANCH  18  19
ENDBRANCH  17  18
ENDBRANCH   1  17
TORSDOF 26
ENDMDL
MODEL 6
REMARK VINA RESULT:    22.720      2.602      9.927
REMARK INTER + INTRA:          55.424
REMARK INTER:                  57.371
REMARK INTRA:                  -1.946
REMARK UNBOUND:                -1.829
REMARK SMILES CCCCCCCCCCCCCCCCCCCCCCCCCCCC(=O)[O-]
REMARK SMILES IDX 15 1 16 2 17 3 18 4 19 5 20 6 21 7 22 8 23 9 24 10 25 11
REMARK SMILES IDX 26 12 27 13 28 14 29 15 30 16 14 17 13 18 12 19 11 20 10 21
REMARK SMILES IDX 9 22 8 23 7 24 6 25 5 26 4 27 3 28 2 29 1 30
REMARK H PARENT
REMARK Flexibility Score: inf
ROOT
ATOM      1  C   UNL     1      16.889  17.720  19.131  1.00  0.00     0.000 C 
ENDROOT
BRANCH   1   2
ATOM      2  C   UNL     1      18.140  17.200  19.861  1.00  0.00     0.000 C 
BRANCH   2   3
ATOM      3  C   UNL     1      18.572  18.112  21.022  1.00  0.00     0.000 C 
BRANCH   3   4
ATOM      4  C   UNL     1      20.091  18.343  21.051  1.00  0.00     0.000 C 
BRANCH   4   5
ATOM      5  C   UNL     1      20.754  18.065  19.689  1.00  0.00     0.000 C 
BRANCH   5   6
ATOM      6  C   UNL     1      22.259  17.751  19.827  1.00  0.00     0.000 C 
BRANCH   6   7
ATOM      7  C   UNL     1      22.803  17.942  21.254  1.00  0.00     0.000 C 
BRANCH   7   8
ATOM      8  C   UNL     1      24.325  18.154  21.287  1.00  0.00     0.000 C 
BRANCH   8   9
ATOM      9  C   UNL     1      25.040  17.168  22.226  1.00  0.00     0.000 C 
BRANCH   9  10
ATOM     10  C   UNL     1      25.449  17.814  23.562  1.00  0.00     0.000 C 
BRANCH  10  11
ATOM     11  C   UNL     1      25.179  19.329  23.601  1.00  0.00     0.000 C 
BRANCH  11  12
ATOM     12  C   UNL     1      24.031  19.761  24.536  1.00  0.00     0.006 C 
BRANCH  12  13
ATOM     13  C   UNL     1      23.165  20.909  23.996  1.00  0.00     0.053 C 
BRANCH  13  14
ATOM     14  C   UNL     1      21.730  20.774  24.404  1.00  0.00     0.041 C 
ATOM     15  O   UNL     1      21.206  21.627  25.168  1.00  0.00    -0.550 OA
ATOM     16  O   UNL     1      20.976  19.695  23.958  1.00  0.00    -0.550 OA
ENDBRANCH  13  14
ENDBRANCH  12  13
ENDBRANCH  11  12
ENDBRANCH  10  11
ENDBRANCH   9  10
ENDBRANCH   8   9
ENDBRANCH   7   8
ENDBRANCH   6   7
ENDBRANCH   5   6
ENDBRANCH   4   5
ENDBRANCH   3   4
ENDBRANCH   2   3
ENDBRANCH   1   2
BRANCH   1  17
ATOM     17  C   UNL     1      15.702  16.735  19.092  1.00  0.00     0.000 C 
BRANCH  17  18
ATOM     18  C   UNL     1      15.427  15.990  20.411  1.00  0.00     0.000 C 
BRANCH  18  19
ATOM     19  C   UNL     1      15.759  14.491  20.330  1.00  0.00     0.000 C 
BRANCH  19  20
ATOM     20  C   UNL     1      14.541  13.638  20.713  1.00  0.00     0.000 C 
BRANCH  20  21
ATOM     21  C   UNL     1      13.893  12.956  19.499  1.00  0.00     0.000 C 
BRANCH  21  22
ATOM     22  C   UNL     1      14.077  11.430  19.508  1.00  0.00    -0.000 C 
BRANCH  22  23
ATOM     23  C   UNL     1      15.560  11.061  19.661  1.00  0.00    -0.000 C 
BRANCH  23  24
ATOM     24  C   UNL     1      15.778   9.571  19.989  1.00  0.00    -0.000 C 
BRANCH  24  25
ATOM     25  C   UNL     1      17.240   9.175  20.263  1.00  0.00    -0.000 C 
BRANCH  25  26
ATOM     26  C   UNL     1      18.133   9.292  19.017  1.00  0.00    -0.000 C 
BRANCH  26  27
ATOM     27  C   UNL     1      19.598   9.614  19.360  1.00  0.00    -0.000 C 
BRANCH  27  28
ATOM     28  C   UNL     1      19.874   9.872  20.855  1.00  0.00    -0.000 C 
BRANCH  28  29
ATOM     29  C   UNL     1      20.150  11.341  21.222  1.00  0.00    -0.003 C 
ATOM     30  C   UNL     1      20.236  12.255  20.000  1.00  0.00     0.004 C 
ENDBRANCH  28  29
ENDBRANCH  27  28
ENDBRANCH  26  27
ENDBRANCH  25  26
ENDBRANCH  24  25
ENDBRANCH  23  24
ENDBRANCH  22  23
ENDBRANCH  21  22
ENDBRANCH  20  21
ENDBRANCH  19  20
ENDBRANCH  18  19
ENDBRANCH  17  18
ENDBRANCH   1  17
TORSDOF 26
ENDMDL
MODEL 7
REMARK VINA RESULT:    22.898      1.040      3.134
REMARK INTER + INTRA:          55.872
REMARK INTER:                  56.428
REMARK INTRA:                  -0.556
REMARK UNBOUND:                -1.829
REMARK SMILES CCCCCCCCCCCCCCCCCCCCCCCCCCCC(=O)[O-]
REMARK SMILES IDX 15 1 16 2 17 3 18 4 19 5 20 6 21 7 22 8 23 9 24 10 25 11
REMARK SMILES IDX 26 12 27 13 28 14 29 15 30 16 14 17 13 18 12 19 11 20 10 21
REMARK SMILES IDX 9 22 8 23 7 24 6 25 5 26 4 27 3 28 2 29 1 30
REMARK H PARENT
REMARK Flexibility Score: inf
ROOT
ATOM      1  C   UNL     1      19.216  18.257  20.356  1.00  0.00     0.000 C 
ENDROOT
BRANCH   1   2
ATOM      2  C   UNL     1      18.035  17.271  20.362  1.00  0.00     0.000 C 
BRANCH   2   3
ATOM      3  C   UNL     1      16.929  17.663  19.367  1.00  0.00     0.000 C 
BRANCH   3   4
ATOM      4  C   UNL     1      15.802  16.620  19.304  1.00  0.00     0.000 C 
BRANCH   4   5
ATOM      5  C   UNL     1      16.106  15.374  20.156  1.00  0.00     0.000 C 
BRANCH   5   6
ATOM      6  C   UNL     1      14.818  14.687  20.661  1.00  0.00     0.000 C 
BRANCH   6   7
ATOM      7  C   UNL     1      14.924  13.153  20.737  1.00  0.00     0.000 C 
BRANCH   7   8
ATOM      8  C   UNL     1      14.105  12.446  19.644  1.00  0.00     0.000 C 
BRANCH   8   9
ATOM      9  C   UNL     1      14.770  11.150  19.153  1.00  0.00     0.000 C 
BRANCH   9  10
ATOM     10  C   UNL     1      15.536  10.417  20.269  1.00  0.00     0.000 C 
BRANCH  10  11
ATOM     11  C   UNL     1      16.241   9.142  19.771  1.00  0.00     0.000 C 
BRANCH  11  12
ATOM     12  C   UNL     1      17.736   9.317  19.431  1.00  0.00     0.006 C 
BRANCH  12  13
ATOM     13  C   UNL     1      18.642   9.565  20.646  1.00  0.00     0.053 C 
BRANCH  13  14
ATOM     14  C   UNL     1      19.812  10.439  20.310  1.00  0.00     0.041 C 
ATOM     15  O   UNL     1      20.082  11.439  21.025  1.00  0.00    -0.550 OA
ATOM     16  O   UNL     1      20.591  10.159  19.193  1.00  0.00    -0.550 OA
ENDBRANCH  13  14
ENDBRANCH  12  13
ENDBRANCH  11  12
ENDBRANCH  10  11
ENDBRANCH   9  10
ENDBRANCH   8   9
ENDBRANCH   7   8
ENDBRANCH   6   7
ENDBRANCH   5   6
ENDBRANCH   4   5
ENDBRANCH   3   4
ENDBRANCH   2   3
ENDBRANCH   1   2
BRANCH   1  17
ATOM     17  C   UNL     1      20.527  17.698  19.765  1.00  0.00     0.000 C 
BRANCH  17  18
ATOM     18  C   UNL     1      21.768  17.854  20.663  1.00  0.00     0.000 C 
BRANCH  18  19
ATOM     19  C   UNL     1      23.042  18.183  19.869  1.00  0.00     0.000 C 
BRANCH  19  20
ATOM     20  C   UNL     1      24.259  18.286  20.801  1.00  0.00     0.000 C 
BRANCH  20  21
ATOM     21  C   UNL     1      24.448  17.029  21.664  1.00  0.00     0.000 C 
BRANCH  21  22
ATOM     22  C   UNL     1      24.674  17.358  23.148  1.00  0.00    -0.000 C 
BRANCH  22  23
ATOM     23  C   UNL     1      25.638  18.544  23.302  1.00  0.00    -0.000 C 
BRANCH  23  24
ATOM     24  C   UNL     1      25.163  19.807  22.558  1.00  0.00    -0.000 C 
BRANCH  24  25
ATOM     25  C   UNL     1      24.287  20.759  23.392  1.00  0.00    -0.000 C 
BRANCH  25  26
ATOM     26  C   UNL     1      23.742  20.103  24.671  1.00  0.00    -0.000 C 
BRANCH  26  27
ATOM     27  C   UNL     1      22.467  20.785  25.196  1.00  0.00    -0.000 C 
BRANCH  27  28
ATOM     28  C   UNL     1      21.320  20.896  24.171  1.00  0.00    -0.000 C 
BRANCH  28  29
ATOM     29  C   UNL     1      21.129  19.662  23.271  1.00  0.00    -0.003 C 
ATOM     30  C   UNL     1      20.198  18.616  23.883  1.00  0.00     0.004 C 
ENDBRANCH  28  29
ENDBRANCH  27  28
ENDBRANCH  26  27
ENDBRANCH  25  26
ENDBRANCH  24  25
ENDBRANCH  23  24
ENDBRANCH  22  23
ENDBRANCH  21  22
ENDBRANCH  20  21
ENDBRANCH  19  20
ENDBRANCH  18  19
ENDBRANCH  17  18
ENDBRANCH   1  17
TORSDOF 26
ENDMDL
MODEL 8
REMARK VINA RESULT:    22.981      0.910      2.630
REMARK INTER + INTRA:          56.082
REMARK INTER:                  56.685
REMARK INTRA:                  -0.602
REMARK UNBOUND:                -1.829
REMARK SMILES CCCCCCCCCCCCCCCCCCCCCCCCCCCC(=O)[O-]
REMARK SMILES IDX 15 1 16 2 17 3 18 4 19 5 20 6 21 7 22 8 23 9 24 10 25 11
REMARK SMILES IDX 26 12 27 13 28 14 29 15 30 16 14 17 13 18 12 19 11 20 10 21
REMARK SMILES IDX 9 22 8 23 7 24 6 25 5 26 4 27 3 28 2 29 1 30
REMARK H PARENT
REMARK Flexibility Score: inf
ROOT
ATOM      1  C   UNL     1      17.103  17.483  18.989  1.00  0.00     0.000 C 
ENDROOT
BRANCH   1   2
ATOM      2  C   UNL     1      15.777  16.826  19.410  1.00  0.00     0.000 C 
BRANCH   2   3
ATOM      3  C   UNL     1      15.983  15.507  20.173  1.00  0.00     0.000 C 
BRANCH   3   4
ATOM      4  C   UNL     1      14.655  14.796  20.481  1.00  0.00     0.000 C 
BRANCH   4   5
ATOM      5  C   UNL     1      14.846  13.295  20.771  1.00  0.00     0.000 C 
BRANCH   5   6
ATOM      6  C   UNL     1      14.154  12.406  19.715  1.00  0.00     0.000 C 
BRANCH   6   7
ATOM      7  C   UNL     1      15.007  11.210  19.258  1.00  0.00     0.000 C 
BRANCH   7   8
ATOM      8  C   UNL     1      15.283  10.208  20.391  1.00  0.00     0.000 C 
BRANCH   8   9
ATOM      9  C   UNL     1      16.097   8.992  19.920  1.00  0.00     0.000 C 
BRANCH   9  10
ATOM     10  C   UNL     1      17.321   9.390  19.076  1.00  0.00     0.000 C 
BRANCH  10  11
ATOM     11  C   UNL     1      18.613   8.688  19.530  1.00  0.00     0.000 C 
BRANCH  11  12
ATOM     12  C   UNL     1      19.895   9.157  18.811  1.00  0.00     0.006 C 
BRANCH  12  13
ATOM     13  C   UNL     1      20.340  10.584  19.168  1.00  0.00     0.053 C 
BRANCH  13  14
ATOM     14  C   UNL     1      19.998  10.945  20.581  1.00  0.00     0.041 C 
ATOM     15  O   UNL     1      20.081  12.141  20.967  1.00  0.00    -0.550 OA
ATOM     16  O   UNL     1      19.608   9.957  21.478  1.00  0.00    -0.550 OA
ENDBRANCH  13  14
ENDBRANCH  12  13
ENDBRANCH  11  12
ENDBRANCH  10  11
ENDBRANCH   9  10
ENDBRANCH   8   9
ENDBRANCH   7   8
ENDBRANCH   6   7
ENDBRANCH   5   6
ENDBRANCH   4   5
ENDBRANCH   3   4
ENDBRANCH   2   3
ENDBRANCH   1   2
BRANCH   1  17
ATOM     17  C   UNL     1      18.307  17.159  19.898  1.00  0.00     0.000 C 
BRANCH  17  18
ATOM     18  C   UNL     1      18.425  18.030  21.162  1.00  0.00     0.000 C 
BRANCH  18  19
ATOM     19  C   UNL     1      19.868  18.472  21.450  1.00  0.00     0.000 C 
BRANCH  19  20
ATOM     20  C   UNL     1      20.724  18.418  20.176  1.00  0.00     0.000 C 
BRANCH  20  21
ATOM     21  C   UNL     1      21.885  17.418  20.288  1.00  0.00     0.000 C 
BRANCH  21  22
ATOM     22  C   UNL     1      23.216  18.095  20.648  1.00  0.00    -0.000 C 
BRANCH  22  23
ATOM     23  C   UNL     1      24.079  17.171  21.520  1.00  0.00    -0.000 C 
BRANCH  23  24
ATOM     24  C   UNL     1      25.207  17.920  22.256  1.00  0.00    -0.000 C 
BRANCH  24  25
ATOM     25  C   UNL     1      24.732  18.898  23.346  1.00  0.00    -0.000 C 
BRANCH  25  26
ATOM     26  C   UNL     1      24.795  20.367  22.897  1.00  0.00    -0.000 C 
BRANCH  26  27
ATOM     27  C   UNL     1      23.948  21.299  23.782  1.00  0.00    -0.000 C 
BRANCH  27  28
ATOM     28  C   UNL     1      23.109  20.584  24.861  1.00  0.00    -0.000 C 
BRANCH  28  29
ATOM     29  C   UNL     1      21.589  20.597  24.617  1.00  0.00    -0.003 C 
ATOM     30  C   UNL     1      20.998  22.006  24.602  1.00  0.00     0.004 C 
ENDBRANCH  28  29
ENDBRANCH  27  28
ENDBRANCH  26  27
ENDBRANCH  25  26
ENDBRANCH  24  25
ENDBRANCH  23  24
ENDBRANCH  22  23
ENDBRANCH  21  22
ENDBRANCH  20  21
ENDBRANCH  19  20
ENDBRANCH  18  19
ENDBRANCH  17  18
ENDBRANCH   1  17
TORSDOF 26
ENDMDL
