MODEL 1
REMARK VINA RESULT:    -3.197      0.000      0.000
REMARK INTER + INTRA:          -8.036
REMARK INTER:                  -5.814
REMARK INTRA:                  -2.222
REMARK UNBOUND:                -2.222
REMARK SMILES CCCCCCCCCCCCCCCC(=O)[O-]
REMARK SMILES IDX 9 1 10 2 11 3 12 4 13 5 14 6 15 7 16 8 17 9 18 10 8 11 7 12
REMARK SMILES IDX 6 13 5 14 4 15 3 16 2 17 1 18
REMARK H PARENT
REMARK Flexibility Score: inf
ROOT
ATOM      1  C   UNL     1      57.977  26.032  51.715  1.00  0.00     0.000 C 
ENDROOT
BRANCH   1   2
ATOM      2  C   UNL     1      58.491  26.336  50.304  1.00  0.00     0.000 C 
BRANCH   2   3
ATOM      3  C   UNL     1      59.612  27.381  50.340  1.00  0.00     0.000 C 
BRANCH   3   4
ATOM      4  C   UNL     1      59.361  28.494  49.315  1.00  0.00     0.000 C 
BRANCH   4   5
ATOM      5  C   UNL     1      58.402  29.553  49.878  1.00  0.00     0.000 C 
BRANCH   5   6
ATOM      6  C   UNL     1      58.712  29.920  51.342  1.00  0.00     0.006 C 
BRANCH   6   7
ATOM      7  C   UNL     1      57.492  29.878  52.276  1.00  0.00     0.053 C 
BRANCH   7   8
ATOM      8  C   UNL     1      57.805  29.210  53.579  1.00  0.00     0.041 C 
ATOM      9  O   UNL     1      56.902  29.052  54.443  1.00  0.00    -0.550 OA
ATOM     10  O   UNL     1      59.085  28.732  53.826  1.00  0.00    -0.550 OA
ENDBRANCH   7   8
ENDBRANCH   6   7
ENDBRANCH   5   6
ENDBRANCH   4   5
ENDBRANCH   3   4
ENDBRANCH   2   3
ENDBRANCH   1   2
BRANCH   1  11
ATOM     11  C   UNL     1      56.450  26.155  51.783  1.00  0.00     0.000 C 
BRANCH  11  12
ATOM     12  C   UNL     1      55.867  26.548  50.419  1.00  0.00    -0.000 C 
BRANCH  12  13
ATOM     13  C   UNL     1      55.139  27.903  50.445  1.00  0.00    -0.000 C 
BRANCH  13  14
ATOM     14  C   UNL     1      53.613  27.787  50.246  1.00  0.00    -0.000 C 
BRANCH  14  15
ATOM     15  C   UNL     1      52.878  29.077  50.649  1.00  0.00    -0.000 C 
BRANCH  15  16
ATOM     16  C   UNL     1      53.824  30.282  50.772  1.00  0.00    -0.000 C 
BRANCH  16  17
ATOM     17  C   UNL     1      53.442  31.211  51.934  1.00  0.00    -0.003 C 
ATOM     18  C   UNL     1      53.896  30.632  53.271  1.00  0.00     0.004 C 
ENDBRANCH  16  17
ENDBRANCH  15  16
ENDBRANCH  14  15
ENDBRANCH  13  14
ENDBRANCH  12  13
ENDBRANCH  11  12
ENDBRANCH   1  11
TORSDOF 14
ENDMDL
MODEL 2
REMARK VINA RESULT:    -3.141      1.785      3.038
REMARK INTER + INTRA:          -7.934
REMARK INTER:                  -6.008
REMARK INTRA:                  -1.925
REMARK UNBOUND:                -2.222
REMARK SMILES CCCCCCCCCCCCCCCC(=O)[O-]
REMARK SMILES IDX 9 1 10 2 11 3 12 4 13 5 14 6 15 7 16 8 17 9 18 10 8 11 7 12
REMARK SMILES IDX 6 13 5 14 4 15 3 16 2 17 1 18
REMARK H PARENT
REMARK Flexibility Score: inf
ROOT
ATOM      1  C   UNL     1      55.676  26.952  51.108  1.00  0.00     0.000 C 
ENDROOT
BRANCH   1   2
ATOM      2  C   UNL     1      56.997  27.501  50.557  1.00  0.00     0.000 C 
BRANCH   2   3
ATOM      3  C   UNL     1      57.051  29.028  50.677  1.00  0.00     0.000 C 
BRANCH   3   4
ATOM      4  C   UNL     1      58.355  29.581  50.089  1.00  0.00     0.000 C 
BRANCH   4   5
ATOM      5  C   UNL     1      59.204  28.455  49.481  1.00  0.00     0.000 C 
BRANCH   5   6
ATOM      6  C   UNL     1      60.640  28.422  50.040  1.00  0.00     0.006 C 
BRANCH   6   7
ATOM      7  C   UNL     1      61.225  27.009  50.195  1.00  0.00     0.053 C 
BRANCH   7   8
ATOM      8  C   UNL     1      60.387  26.148  51.088  1.00  0.00     0.041 C 
ATOM      9  O   UNL     1      60.112  26.527  52.257  1.00  0.00    -0.550 OA
ATOM     10  O   UNL     1      59.882  24.943  50.617  1.00  0.00    -0.550 OA
ENDBRANCH   7   8
ENDBRANCH   6   7
ENDBRANCH   5   6
ENDBRANCH   4   5
ENDBRANCH   3   4
ENDBRANCH   2   3
ENDBRANCH   1   2
BRANCH   1  11
ATOM     11  C   UNL     1      54.839  26.313  49.993  1.00  0.00     0.000 C 
BRANCH  11  12
ATOM     12  C   UNL     1      53.408  26.867  49.991  1.00  0.00    -0.000 C 
BRANCH  12  13
ATOM     13  C   UNL     1      53.211  28.024  50.985  1.00  0.00    -0.000 C 
BRANCH  13  14
ATOM     14  C   UNL     1      53.307  29.420  50.334  1.00  0.00    -0.000 C 
BRANCH  14  15
ATOM     15  C   UNL     1      53.669  30.512  51.356  1.00  0.00    -0.000 C 
BRANCH  15  16
ATOM     16  C   UNL     1      53.907  29.945  52.765  1.00  0.00    -0.000 C 
BRANCH  16  17
ATOM     17  C   UNL     1      55.219  30.449  53.385  1.00  0.00    -0.003 C 
ATOM     18  C   UNL     1      55.908  29.345  54.182  1.00  0.00     0.004 C 
ENDBRANCH  16  17
ENDBRANCH  15  16
ENDBRANCH  14  15
ENDBRANCH  13  14
ENDBRANCH  12  13
ENDBRANCH  11  12
ENDBRANCH   1  11
TORSDOF 14
ENDMDL
MODEL 3
REMARK VINA RESULT:    -3.095      1.723      3.932
REMARK INTER + INTRA:          -7.851
REMARK INTER:                  -5.561
REMARK INTRA:                  -2.290
REMARK UNBOUND:                -2.222
REMARK SMILES CCCCCCCCCCCCCCCC(=O)[O-]
REMARK SMILES IDX 9 1 10 2 11 3 12 4 13 5 14 6 15 7 16 8 17 9 18 10 8 11 7 12
REMARK SMILES IDX 6 13 5 14 4 15 3 16 2 17 1 18
REMARK H PARENT
REMARK Flexibility Score: inf
ROOT
ATOM      1  C   UNL     1      56.101  29.308  53.627  1.00  0.00     0.000 C 
ENDROOT
BRANCH   1   2
ATOM      2  C   UNL     1      56.887  30.250  52.708  1.00  0.00     0.000 C 
BRANCH   2   3
ATOM      3  C   UNL     1      57.963  29.486  51.927  1.00  0.00     0.000 C 
BRANCH   3   4
ATOM      4  C   UNL     1      57.584  29.361  50.446  1.00  0.00     0.000 C 
BRANCH   4   5
ATOM      5  C   UNL     1      58.799  29.625  49.545  1.00  0.00     0.000 C 
BRANCH   5   6
ATOM      6  C   UNL     1      60.135  29.553  50.308  1.00  0.00     0.006 C 
BRANCH   6   7
ATOM      7  C   UNL     1      61.000  28.332  49.954  1.00  0.00     0.053 C 
BRANCH   7   8
ATOM      8  C   UNL     1      60.558  27.100  50.682  1.00  0.00     0.041 C 
ATOM      9  O   UNL     1      60.645  27.040  51.936  1.00  0.00    -0.550 OA
ATOM     10  O   UNL     1      60.018  26.032  49.977  1.00  0.00    -0.550 OA
ENDBRANCH   7   8
ENDBRANCH   6   7
ENDBRANCH   5   6
ENDBRANCH   4   5
ENDBRANCH   3   4
ENDBRANCH   2   3
ENDBRANCH   1   2
BRANCH   1  11
ATOM     11  C   UNL     1      54.603  29.633  53.596  1.00  0.00     0.000 C 
BRANCH  11  12
ATOM     12  C   UNL     1      54.288  30.680  52.519  1.00  0.00    -0.000 C 
BRANCH  12  13
ATOM     13  C   UNL     1      53.383  30.137  51.400  1.00  0.00    -0.000 C 
BRANCH  13  14
ATOM     14  C   UNL     1      54.126  29.241  50.386  1.00  0.00    -0.000 C 
BRANCH  14  15
ATOM     15  C   UNL     1      53.645  27.781  50.443  1.00  0.00    -0.000 C 
BRANCH  15  16
ATOM     16  C   UNL     1      54.797  26.774  50.290  1.00  0.00    -0.000 C 
BRANCH  16  17
ATOM     17  C   UNL     1      55.341  26.297  51.645  1.00  0.00    -0.003 C 
ATOM     18  C   UNL     1      56.844  26.040  51.572  1.00  0.00     0.004 C 
ENDBRANCH  16  17
ENDBRANCH  15  16
ENDBRANCH  14  15
ENDBRANCH  13  14
ENDBRANCH  12  13
ENDBRANCH  11  12
ENDBRANCH   1  11
TORSDOF 14
ENDMDL
MODEL 4
REMARK VINA RESULT:    -3.068      1.418      4.960
REMARK INTER + INTRA:          -7.800
REMARK INTER:                  -5.374
REMARK INTRA:                  -2.426
REMARK UNBOUND:                -2.222
REMARK SMILES CCCCCCCCCCCCCCCC(=O)[O-]
REMARK SMILES IDX 9 1 10 2 11 3 12 4 13 5 14 6 15 7 16 8 17 9 18 10 8 11 7 12
REMARK SMILES IDX 6 13 5 14 4 15 3 16 2 17 1 18
REMARK H PARENT
REMARK Flexibility Score: inf
ROOT
ATOM      1  C   UNL     1      57.086  26.703  51.918  1.00  0.00     0.000 C 
ENDROOT
BRANCH   1   2
ATOM      2  C   UNL     1      55.955  26.486  50.906  1.00  0.00     0.000 C 
BRANCH   2   3
ATOM      3  C   UNL     1      55.347  27.823  50.467  1.00  0.00     0.000 C 
BRANCH   3   4
ATOM      4  C   UNL     1      53.848  27.678  50.176  1.00  0.00     0.000 C 
BRANCH   4   5
ATOM      5  C   UNL     1      53.085  28.951  50.571  1.00  0.00     0.000 C 
BRANCH   5   6
ATOM      6  C   UNL     1      53.970  29.967  51.319  1.00  0.00     0.006 C 
BRANCH   6   7
ATOM      7  C   UNL     1      53.676  30.074  52.824  1.00  0.00     0.053 C 
BRANCH   7   8
ATOM      8  C   UNL     1      54.515  31.121  53.487  1.00  0.00     0.041 C 
ATOM      9  O   UNL     1      54.587  32.279  52.998  1.00  0.00    -0.550 OA
ATOM     10  O   UNL     1      55.191  30.828  54.666  1.00  0.00    -0.550 OA
ENDBRANCH   7   8
ENDBRANCH   6   7
ENDBRANCH   5   6
ENDBRANCH   4   5
ENDBRANCH   3   4
ENDBRANCH   2   3
ENDBRANCH   1   2
BRANCH   1  11
ATOM     11  C   UNL     1      56.669  27.702  53.004  1.00  0.00     0.000 C 
BRANCH  11  12
ATOM     12  C   UNL     1      57.808  28.682  53.318  1.00  0.00    -0.000 C 
BRANCH  12  13
ATOM     13  C   UNL     1      57.785  29.935  52.426  1.00  0.00    -0.000 C 
BRANCH  13  14
ATOM     14  C   UNL     1      58.952  29.998  51.419  1.00  0.00    -0.000 C 
BRANCH  14  15
ATOM     15  C   UNL     1      58.495  29.691  49.983  1.00  0.00    -0.000 C 
BRANCH  15  16
ATOM     16  C   UNL     1      59.346  28.599  49.314  1.00  0.00    -0.000 C 
BRANCH  16  17
ATOM     17  C   UNL     1      60.318  27.929  50.297  1.00  0.00    -0.003 C 
ATOM     18  C   UNL     1      60.181  26.410  50.254  1.00  0.00     0.004 C 
ENDBRANCH  16  17
ENDBRANCH  15  16
ENDBRANCH  14  15
ENDBRANCH  13  14
ENDBRANCH  12  13
ENDBRANCH  11  12
ENDBRANCH   1  11
TORSDOF 14
ENDMDL
MODEL 5
REMARK VINA RESULT:    -3.052      1.799      4.584
REMARK INTER + INTRA:          -7.773
REMARK INTER:                  -5.476
REMARK INTRA:                  -2.296
REMARK UNBOUND:                -2.222
REMARK SMILES CCCCCCCCCCCCCCCC(=O)[O-]
REMARK SMILES IDX 9 1 10 2 11 3 12 4 13 5 14 6 15 7 16 8 17 9 18 10 8 11 7 12
REMARK SMILES IDX 6 13 5 14 4 15 3 16 2 17 1 18
REMARK H PARENT
REMARK Flexibility Score: inf
ROOT
ATOM      1  C   UNL     1      59.701  26.191  52.359  1.00  0.00     0.000 C 
ENDROOT
BRANCH   1   2
ATOM      2  C   UNL     1      58.235  26.515  52.670  1.00  0.00     0.000 C 
BRANCH   2   3
ATOM      3  C   UNL     1      57.301  25.883  51.632  1.00  0.00     0.000 C 
BRANCH   3   4
ATOM      4  C   UNL     1      55.890  26.477  51.728  1.00  0.00     0.000 C 
BRANCH   4   5
ATOM      5  C   UNL     1      55.410  26.977  50.358  1.00  0.00     0.000 C 
BRANCH   5   6
ATOM      6  C   UNL     1      54.204  27.931  50.459  1.00  0.00     0.006 C 
BRANCH   6   7
ATOM      7  C   UNL     1      54.581  29.404  50.685  1.00  0.00     0.053 C 
BRANCH   7   8
ATOM      8  C   UNL     1      53.861  29.995  51.857  1.00  0.00     0.041 C 
ATOM      9  O   UNL     1      53.831  29.383  52.957  1.00  0.00    -0.550 OA
ATOM     10  O   UNL     1      53.251  31.238  51.744  1.00  0.00    -0.550 OA
ENDBRANCH   7   8
ENDBRANCH   6   7
ENDBRANCH   5   6
ENDBRANCH   4   5
ENDBRANCH   3   4
ENDBRANCH   2   3
ENDBRANCH   1   2
BRANCH   1  11
ATOM     11  C   UNL     1      59.916  26.010  50.852  1.00  0.00     0.000 C 
BRANCH  11  12
ATOM     12  C   UNL     1      61.098  26.855  50.357  1.00  0.00    -0.000 C 
BRANCH  12  13
ATOM     13  C   UNL     1      60.663  28.209  49.771  1.00  0.00    -0.000 C 
BRANCH  13  14
ATOM     14  C   UNL     1      59.146  28.310  49.510  1.00  0.00    -0.000 C 
BRANCH  14  15
ATOM     15  C   UNL     1      58.509  29.497  50.253  1.00  0.00    -0.000 C 
BRANCH  15  16
ATOM     16  C   UNL     1      59.492  30.191  51.209  1.00  0.00    -0.000 C 
BRANCH  16  17
ATOM     17  C   UNL     1      58.810  30.689  52.492  1.00  0.00    -0.003 C 
ATOM     18  C   UNL     1      57.493  29.956  52.733  1.00  0.00     0.004 C 
ENDBRANCH  16  17
ENDBRANCH  15  16
ENDBRANCH  14  15
ENDBRANCH  13  14
ENDBRANCH  12  13
ENDBRANCH  11  12
ENDBRANCH   1  11
TORSDOF 14
ENDMDL
MODEL 6
REMARK VINA RESULT:    -3.052      2.646      4.214
REMARK INTER + INTRA:          -7.771
REMARK INTER:                  -5.326
REMARK INTRA:                  -2.445
REMARK UNBOUND:                -2.222
REMARK SMILES CCCCCCCCCCCCCCCC(=O)[O-]
REMARK SMILES IDX 9 1 10 2 11 3 12 4 13 5 14 6 15 7 16 8 17 9 18 10 8 11 7 12
REMARK SMILES IDX 6 13 5 14 4 15 3 16 2 17 1 18
REMARK H PARENT
REMARK Flexibility Score: inf
ROOT
ATOM      1  C   UNL     1      59.414  29.633  52.769  1.00  0.00     0.000 C 
ENDROOT
BRANCH   1   2
ATOM      2  C   UNL     1      58.354  29.979  51.717  1.00  0.00     0.000 C 
BRANCH   2   3
ATOM      3  C   UNL     1      58.957  29.977  50.308  1.00  0.00     0.000 C 
BRANCH   3   4
ATOM      4  C   UNL     1      58.805  28.601  49.646  1.00  0.00     0.000 C 
BRANCH   4   5
ATOM      5  C   UNL     1      60.136  27.836  49.659  1.00  0.00     0.000 C 
BRANCH   5   6
ATOM      6  C   UNL     1      59.978  26.372  50.110  1.00  0.00     0.006 C 
BRANCH   6   7
ATOM      7  C   UNL     1      60.869  25.977  51.299  1.00  0.00     0.053 C 
BRANCH   7   8
ATOM      8  C   UNL     1      62.156  25.355  50.855  1.00  0.00     0.041 C 
ATOM      9  O   UNL     1      62.275  24.102  50.815  1.00  0.00    -0.550 OA
ATOM     10  O   UNL     1      63.214  26.160  50.452  1.00  0.00    -0.550 OA
ENDBRANCH   7   8
ENDBRANCH   6   7
ENDBRANCH   5   6
ENDBRANCH   4   5
ENDBRANCH   3   4
ENDBRANCH   2   3
ENDBRANCH   1   2
BRANCH   1  11
ATOM     11  C   UNL     1      59.045  28.347  53.520  1.00  0.00     0.000 C 
BRANCH  11  12
ATOM     12  C   UNL     1      57.595  27.936  53.230  1.00  0.00    -0.000 C 
BRANCH  12  13
ATOM     13  C   UNL     1      57.455  26.449  52.861  1.00  0.00    -0.000 C 
BRANCH  13  14
ATOM     14  C   UNL     1      56.626  26.206  51.582  1.00  0.00    -0.000 C 
BRANCH  14  15
ATOM     15  C   UNL     1      55.252  26.896  51.643  1.00  0.00    -0.000 C 
BRANCH  15  16
ATOM     16  C   UNL     1      54.988  27.792  50.422  1.00  0.00    -0.000 C 
BRANCH  16  17
ATOM     17  C   UNL     1      54.850  29.274  50.802  1.00  0.00    -0.003 C 
ATOM     18  C   UNL     1      53.430  29.773  50.550  1.00  0.00     0.004 C 
ENDBRANCH  16  17
ENDBRANCH  15  16
ENDBRANCH  14  15
ENDBRANCH  13  14
ENDBRANCH  12  13
ENDBRANCH  11  12
ENDBRANCH   1  11
TORSDOF 14
ENDMDL
MODEL 7
REMARK VINA RESULT:    -3.041      1.786      3.048
REMARK INTER + INTRA:          -7.751
REMARK INTER:                  -5.297
REMARK INTRA:                  -2.454
REMARK UNBOUND:                -2.222
REMARK SMILES CCCCCCCCCCCCCCCC(=O)[O-]
REMARK SMILES IDX 9 1 10 2 11 3 12 4 13 5 14 6 15 7 16 8 17 9 18 10 8 11 7 12
REMARK SMILES IDX 6 13 5 14 4 15 3 16 2 17 1 18
REMARK H PARENT
REMARK Flexibility Score: inf
ROOT
ATOM      1  C   UNL     1      57.457  28.107  53.545  1.00  0.00     0.000 C 
ENDROOT
BRANCH   1   2
ATOM      2  C   UNL     1      58.543  29.101  53.117  1.00  0.00     0.000 C 
BRANCH   2   3
ATOM      3  C   UNL     1      58.085  29.933  51.914  1.00  0.00     0.000 C 
BRANCH   3   4
ATOM      4  C   UNL     1      59.193  30.030  50.858  1.00  0.00     0.000 C 
BRANCH   4   5
ATOM      5  C   UNL     1      58.794  29.289  49.573  1.00  0.00     0.000 C 
BRANCH   5   6
ATOM      6  C   UNL     1      59.242  27.815  49.571  1.00  0.00     0.006 C 
BRANCH   6   7
ATOM      7  C   UNL     1      60.646  27.580  50.151  1.00  0.00     0.053 C 
BRANCH   7   8
ATOM      8  C   UNL     1      60.723  26.310  50.939  1.00  0.00     0.041 C 
ATOM      9  O   UNL     1      61.061  26.335  52.152  1.00  0.00    -0.550 OA
ATOM     10  O   UNL     1      60.388  25.100  50.344  1.00  0.00    -0.550 OA
ENDBRANCH   7   8
ENDBRANCH   6   7
ENDBRANCH   5   6
ENDBRANCH   4   5
ENDBRANCH   3   4
ENDBRANCH   2   3
ENDBRANCH   1   2
BRANCH   1  11
ATOM     11  C   UNL     1      57.530  26.821  52.712  1.00  0.00     0.000 C 
BRANCH  11  12
ATOM     12  C   UNL     1      56.127  26.317  52.350  1.00  0.00    -0.000 C 
BRANCH  12  13
ATOM     13  C   UNL     1      55.822  26.419  50.846  1.00  0.00    -0.000 C 
BRANCH  13  14
ATOM     14  C   UNL     1      55.535  27.859  50.370  1.00  0.00    -0.000 C 
BRANCH  14  15
ATOM     15  C   UNL     1      54.046  28.223  50.494  1.00  0.00    -0.000 C 
BRANCH  15  16
ATOM     16  C   UNL     1      53.822  29.729  50.700  1.00  0.00    -0.000 C 
BRANCH  16  17
ATOM     17  C   UNL     1      54.388  30.228  52.038  1.00  0.00    -0.003 C 
ATOM     18  C   UNL     1      53.943  29.332  53.190  1.00  0.00     0.004 C 
ENDBRANCH  16  17
ENDBRANCH  15  16
ENDBRANCH  14  15
ENDBRANCH  13  14
ENDBRANCH  12  13
ENDBRANCH  11  12
ENDBRANCH   1  11
TORSDOF 14
ENDMDL
MODEL 8
REMARK VINA RESULT:    -3.032      1.711      5.223
REMARK INTER + INTRA:          -7.736
REMARK INTER:                  -4.931
REMARK INTRA:                  -2.805
REMARK UNBOUND:                -2.222
REMARK SMILES CCCCCCCCCCCCCCCC(=O)[O-]
REMARK SMILES IDX 9 1 10 2 11 3 12 4 13 5 14 6 15 7 16 8 17 9 18 10 8 11 7 12
REMARK SMILES IDX 6 13 5 14 4 15 3 16 2 17 1 18
REMARK H PARENT
REMARK Flexibility Score: inf
ROOT
ATOM      1  C   UNL     1      59.209  27.917  53.423  1.00  0.00     0.000 C 
ENDROOT
BRANCH   1   2
ATOM      2  C   UNL     1      58.591  26.521  53.287  1.00  0.00     0.000 C 
BRANCH   2   3
ATOM      3  C   UNL     1      57.060  26.593  53.296  1.00  0.00     0.000 C 
BRANCH   3   4
ATOM      4  C   UNL     1      56.470  25.928  52.047  1.00  0.00     0.000 C 
BRANCH   4   5
ATOM      5  C   UNL     1      56.456  26.903  50.860  1.00  0.00     0.000 C 
BRANCH   5   6
ATOM      6  C   UNL     1      55.085  27.575  50.656  1.00  0.00     0.006 C 
BRANCH   6   7
ATOM      7  C   UNL     1      55.124  29.111  50.674  1.00  0.00     0.053 C 
BRANCH   7   8
ATOM      8  C   UNL     1      54.412  29.678  51.862  1.00  0.00     0.041 C 
ATOM      9  O   UNL     1      53.686  30.700  51.738  1.00  0.00    -0.550 OA
ATOM     10  O   UNL     1      54.522  29.058  53.100  1.00  0.00    -0.550 OA
ENDBRANCH   7   8
ENDBRANCH   6   7
ENDBRANCH   5   6
ENDBRANCH   4   5
ENDBRANCH   3   4
ENDBRANCH   2   3
ENDBRANCH   1   2
BRANCH   1  11
ATOM     11  C   UNL     1      58.128  28.975  53.672  1.00  0.00     0.000 C 
BRANCH  11  12
ATOM     12  C   UNL     1      58.121  30.030  52.557  1.00  0.00    -0.000 C 
BRANCH  12  13
ATOM     13  C   UNL     1      59.279  29.857  51.560  1.00  0.00    -0.000 C 
BRANCH  13  14
ATOM     14  C   UNL     1      58.814  29.655  50.103  1.00  0.00    -0.000 C 
BRANCH  14  15
ATOM     15  C   UNL     1      59.475  28.430  49.448  1.00  0.00    -0.000 C 
BRANCH  15  16
ATOM     16  C   UNL     1      60.914  28.203  49.939  1.00  0.00    -0.000 C 
BRANCH  16  17
ATOM     17  C   UNL     1      61.154  26.760  50.405  1.00  0.00    -0.003 C 
ATOM     18  C   UNL     1      59.922  25.892  50.161  1.00  0.00     0.004 C 
ENDBRANCH  16  17
ENDBRANCH  15  16
ENDBRANCH  14  15
ENDBRANCH  13  14
ENDBRANCH  12  13
ENDBRANCH  11  12
ENDBRANCH   1  11
TORSDOF 14
ENDMDL
MODEL 9
REMARK VINA RESULT:    -2.978      1.129      2.304
REMARK INTER + INTRA:          -7.637
REMARK INTER:                  -5.314
REMARK INTRA:                  -2.323
REMARK UNBOUND:                -2.222
REMARK SMILES CCCCCCCCCCCCCCCC(=O)[O-]
REMARK SMILES IDX 9 1 10 2 11 3 12 4 13 5 14 6 15 7 16 8 17 9 18 10 8 11 7 12
REMARK SMILES IDX 6 13 5 14 4 15 3 16 2 17 1 18
REMARK H PARENT
REMARK Flexibility Score: inf
ROOT
ATOM      1  C   UNL     1      59.582  27.433  50.298  1.00  0.00     0.000 C 
ENDROOT
BRANCH   1   2
ATOM      2  C   UNL     1      59.269  28.581  49.332  1.00  0.00     0.000 C 
BRANCH   2   3
ATOM      3  C   UNL     1      58.452  29.677  50.026  1.00  0.00     0.000 C 
BRANCH   3   4
ATOM      4  C   UNL     1      59.057  30.035  51.390  1.00  0.00     0.000 C 
BRANCH   4   5
ATOM      5  C   UNL     1      57.988  30.611  52.330  1.00  0.00     0.000 C 
BRANCH   5   6
ATOM      6  C   UNL     1      57.517  29.597  53.390  1.00  0.00     0.006 C 
BRANCH   6   7
ATOM      7  C   UNL     1      58.632  28.696  53.943  1.00  0.00     0.053 C 
BRANCH   7   8
ATOM      8  C   UNL     1      58.673  28.705  55.439  1.00  0.00     0.041 C 
ATOM      9  O   UNL     1      58.525  29.785  56.071  1.00  0.00    -0.550 OA
ATOM     10  O   UNL     1      58.840  27.516  56.138  1.00  0.00    -0.550 OA
ENDBRANCH   7   8
ENDBRANCH   6   7
ENDBRANCH   5   6
ENDBRANCH   4   5
ENDBRANCH   3   4
ENDBRANCH   2   3
ENDBRANCH   1   2
BRANCH   1  11
ATOM     11  C   UNL     1      58.558  26.300  50.156  1.00  0.00     0.000 C 
BRANCH  11  12
ATOM     12  C   UNL     1      57.826  26.049  51.481  1.00  0.00    -0.000 C 
BRANCH  12  13
ATOM     13  C   UNL     1      56.499  26.819  51.589  1.00  0.00    -0.000 C 
BRANCH  13  14
ATOM     14  C   UNL     1      55.528  26.542  50.421  1.00  0.00    -0.000 C 
BRANCH  14  15
ATOM     15  C   UNL     1      54.439  27.622  50.305  1.00  0.00    -0.000 C 
BRANCH  15  16
ATOM     16  C   UNL     1      54.960  29.026  50.653  1.00  0.00    -0.000 C 
BRANCH  16  17
ATOM     17  C   UNL     1      53.825  30.013  50.962  1.00  0.00    -0.003 C 
ATOM     18  C   UNL     1      54.141  30.842  52.203  1.00  0.00     0.004 C 
ENDBRANCH  16  17
ENDBRANCH  15  16
ENDBRANCH  14  15
ENDBRANCH  13  14
ENDBRANCH  12  13
ENDBRANCH  11  12
ENDBRANCH   1  11
TORSDOF 14
ENDMDL
