MODEL 1
REMARK VINA RESULT:    -3.890      0.000      0.000
REMARK INTER + INTRA:         -10.759
REMARK INTER:                  -8.438
REMARK INTRA:                  -2.321
REMARK UNBOUND:                -2.321
REMARK SMILES CCCCCCCCCCCCCCCCCCCCCC(=O)[O-]
REMARK SMILES IDX 12 1 11 2 10 3 9 4 8 5 7 6 6 7 5 8 4 9 3 10 2 11 1 12 13 13
REMARK SMILES IDX 14 14 15 15 16 16 17 17 18 18 19 19 20 20 21 21 22 22 23 23
REMARK SMILES IDX 24 24
REMARK H PARENT
REMARK Flexibility Score: inf
ROOT
ATOM      1  C   UNL     1      -4.603   0.712   9.012  1.00  0.00     0.000 C 
ENDROOT
BRANCH   1   2
ATOM      2  C   UNL     1      -6.019   0.627   9.603  1.00  0.00     0.000 C 
BRANCH   2   3
ATOM      3  C   UNL     1      -6.526   1.987  10.116  1.00  0.00     0.000 C 
BRANCH   3   4
ATOM      4  C   UNL     1      -7.511   2.658   9.146  1.00  0.00    -0.000 C 
BRANCH   4   5
ATOM      5  C   UNL     1      -7.355   4.189   9.111  1.00  0.00    -0.000 C 
BRANCH   5   6
ATOM      6  C   UNL     1      -5.926   4.643   9.451  1.00  0.00    -0.000 C 
BRANCH   6   7
ATOM      7  C   UNL     1      -5.371   5.663   8.440  1.00  0.00    -0.000 C 
BRANCH   7   8
ATOM      8  C   UNL     1      -5.460   7.109   8.953  1.00  0.00    -0.000 C 
BRANCH   8   9
ATOM      9  C   UNL     1      -6.361   7.992   8.072  1.00  0.00    -0.000 C 
BRANCH   9  10
ATOM     10  C   UNL     1      -7.021   7.207   6.928  1.00  0.00    -0.000 C 
BRANCH  10  11
ATOM     11  C   UNL     1      -8.546   7.388   6.890  1.00  0.00    -0.003 C 
ATOM     12  C   UNL     1      -9.244   6.084   6.509  1.00  0.00     0.004 C 
ENDBRANCH  10  11
ENDBRANCH   9  10
ENDBRANCH   8   9
ENDBRANCH   7   8
ENDBRANCH   6   7
ENDBRANCH   5   6
ENDBRANCH   4   5
ENDBRANCH   3   4
ENDBRANCH   2   3
ENDBRANCH   1   2
BRANCH   1  13
ATOM     13  C   UNL     1      -3.742   1.788   9.690  1.00  0.00     0.000 C 
BRANCH  13  14
ATOM     14  C   UNL     1      -2.410   1.972   8.952  1.00  0.00     0.000 C 
BRANCH  14  15
ATOM     15  C   UNL     1      -1.531   3.016   9.656  1.00  0.00     0.000 C 
BRANCH  15  16
ATOM     16  C   UNL     1      -1.658   4.415   9.032  1.00  0.00     0.000 C 
BRANCH  16  17
ATOM     17  C   UNL     1      -2.127   5.474  10.040  1.00  0.00     0.000 C 
BRANCH  17  18
ATOM     18  C   UNL     1      -1.615   6.866   9.649  1.00  0.00     0.000 C 
BRANCH  18  19
ATOM     19  C   UNL     1      -0.450   6.767   8.657  1.00  0.00     0.000 C 
BRANCH  19  20
ATOM     20  C   UNL     1       0.190   8.144   8.422  1.00  0.00     0.006 C 
BRANCH  20  21
ATOM     21  C   UNL     1       0.948   8.212   7.090  1.00  0.00     0.053 C 
BRANCH  21  22
ATOM     22  C   UNL     1       2.381   8.602   7.283  1.00  0.00     0.041 C 
ATOM     23  O   UNL     1       3.297   7.752   7.125  1.00  0.00    -0.550 OA
ATOM     24  O   UNL     1       2.709   9.914   7.601  1.00  0.00    -0.550 OA
ENDBRANCH  21  22
ENDBRANCH  20  21
ENDBRANCH  19  20
ENDBRANCH  18  19
ENDBRANCH  17  18
ENDBRANCH  16  17
ENDBRANCH  15  16
ENDBRANCH  14  15
ENDBRANCH  13  14
ENDBRANCH   1  13
TORSDOF 20
ENDMDL
MODEL 2
REMARK VINA RESULT:    -3.641      3.311      7.566
REMARK INTER + INTRA:         -10.219
REMARK INTER:                  -8.188
REMARK INTRA:                  -2.031
REMARK UNBOUND:                -2.321
REMARK SMILES CCCCCCCCCCCCCCCCCCCCCC(=O)[O-]
REMARK SMILES IDX 12 1 11 2 10 3 9 4 8 5 7 6 6 7 5 8 4 9 3 10 2 11 1 12 13 13
REMARK SMILES IDX 14 14 15 15 16 16 17 17 18 18 19 19 20 20 21 21 22 22 23 23
REMARK SMILES IDX 24 24
REMARK H PARENT
REMARK Flexibility Score: inf
ROOT
ATOM      1  C   UNL     1      -1.923   2.212   8.917  1.00  0.00     0.000 C 
ENDROOT
BRANCH   1   2
ATOM      2  C   UNL     1      -1.834   3.412   9.873  1.00  0.00     0.000 C 
BRANCH   2   3
ATOM      3  C   UNL     1      -1.835   4.760   9.129  1.00  0.00     0.000 C 
BRANCH   3   4
ATOM      4  C   UNL     1      -2.270   5.932  10.023  1.00  0.00    -0.000 C 
BRANCH   4   5
ATOM      5  C   UNL     1      -1.585   7.255   9.639  1.00  0.00    -0.000 C 
BRANCH   5   6
ATOM      6  C   UNL     1      -0.380   7.045   8.709  1.00  0.00    -0.000 C 
BRANCH   6   7
ATOM      7  C   UNL     1      -0.038   8.302   7.888  1.00  0.00    -0.000 C 
BRANCH   7   8
ATOM      8  C   UNL     1       0.657   9.385   8.728  1.00  0.00    -0.000 C 
BRANCH   8   9
ATOM      9  C   UNL     1       2.085   9.682   8.241  1.00  0.00    -0.000 C 
BRANCH   9  10
ATOM     10  C   UNL     1       2.531   8.745   7.108  1.00  0.00    -0.000 C 
BRANCH  10  11
ATOM     11  C   UNL     1       3.693   7.831   7.520  1.00  0.00    -0.003 C 
ATOM     12  C   UNL     1       4.707   8.585   8.378  1.00  0.00     0.004 C 
ENDBRANCH  10  11
ENDBRANCH   9  10
ENDBRANCH   8   9
ENDBRANCH   7   8
ENDBRANCH   6   7
ENDBRANCH   5   6
ENDBRANCH   4   5
ENDBRANCH   3   4
ENDBRANCH   2   3
ENDBRANCH   1   2
BRANCH   1  13
ATOM     13  C   UNL     1      -3.278   1.493   8.995  1.00  0.00     0.000 C 
BRANCH  13  14
ATOM     14  C   UNL     1      -4.202   2.173  10.013  1.00  0.00     0.000 C 
BRANCH  14  15
ATOM     15  C   UNL     1      -5.677   2.005   9.616  1.00  0.00     0.000 C 
BRANCH  15  16
ATOM     16  C   UNL     1      -6.429   3.344   9.548  1.00  0.00     0.000 C 
BRANCH  16  17
ATOM     17  C   UNL     1      -5.559   4.485   9.002  1.00  0.00     0.000 C 
BRANCH  17  18
ATOM     18  C   UNL     1      -5.849   5.796   9.744  1.00  0.00     0.000 C 
BRANCH  18  19
ATOM     19  C   UNL     1      -5.675   7.005   8.816  1.00  0.00     0.000 C 
BRANCH  19  20
ATOM     20  C   UNL     1      -7.039   7.562   8.378  1.00  0.00     0.006 C 
BRANCH  20  21
ATOM     21  C   UNL     1      -7.394   7.162   6.940  1.00  0.00     0.053 C 
BRANCH  21  22
ATOM     22  C   UNL     1      -7.761   8.350   6.105  1.00  0.00     0.041 C 
ATOM     23  O   UNL     1      -7.136   9.435   6.236  1.00  0.00    -0.550 OA
ATOM     24  O   UNL     1      -8.769   8.247   5.154  1.00  0.00    -0.550 OA
ENDBRANCH  21  22
ENDBRANCH  20  21
ENDBRANCH  19  20
ENDBRANCH  18  19
ENDBRANCH  17  18
ENDBRANCH  16  17
ENDBRANCH  15  16
ENDBRANCH  14  15
ENDBRANCH  13  14
ENDBRANCH   1  13
TORSDOF 20
ENDMDL
MODEL 3
REMARK VINA RESULT:    -3.614      1.639      2.902
REMARK INTER + INTRA:         -10.162
REMARK INTER:                  -8.199
REMARK INTRA:                  -1.963
REMARK UNBOUND:                -2.321
REMARK SMILES CCCCCCCCCCCCCCCCCCCCCC(=O)[O-]
REMARK SMILES IDX 12 1 11 2 10 3 9 4 8 5 7 6 6 7 5 8 4 9 3 10 2 11 1 12 13 13
REMARK SMILES IDX 14 14 15 15 16 16 17 17 18 18 19 19 20 20 21 21 22 22 23 23
REMARK SMILES IDX 24 24
REMARK H PARENT
REMARK Flexibility Score: inf
ROOT
ATOM      1  C   UNL     1      -1.653   2.696   9.380  1.00  0.00     0.000 C 
ENDROOT
BRANCH   1   2
ATOM      2  C   UNL     1      -2.984   2.263  10.014  1.00  0.00     0.000 C 
BRANCH   2   3
ATOM      3  C   UNL     1      -4.166   2.369   9.033  1.00  0.00     0.000 C 
BRANCH   3   4
ATOM      4  C   UNL     1      -5.153   3.485   9.410  1.00  0.00    -0.000 C 
BRANCH   4   5
ATOM      5  C   UNL     1      -4.852   4.809   8.686  1.00  0.00    -0.000 C 
BRANCH   5   6
ATOM      6  C   UNL     1      -4.549   5.957   9.663  1.00  0.00    -0.000 C 
BRANCH   6   7
ATOM      7  C   UNL     1      -5.262   7.267   9.277  1.00  0.00    -0.000 C 
BRANCH   7   8
ATOM      8  C   UNL     1      -6.740   7.050   8.918  1.00  0.00    -0.000 C 
BRANCH   8   9
ATOM      9  C   UNL     1      -7.094   7.598   7.524  1.00  0.00    -0.000 C 
BRANCH   9  10
ATOM     10  C   UNL     1      -6.719   9.079   7.359  1.00  0.00    -0.000 C 
BRANCH  10  11
ATOM     11  C   UNL     1      -7.528   9.773   6.253  1.00  0.00    -0.003 C 
ATOM     12  C   UNL     1      -7.863   8.800   5.126  1.00  0.00     0.004 C 
ENDBRANCH  10  11
ENDBRANCH   9  10
ENDBRANCH   8   9
ENDBRANCH   7   8
ENDBRANCH   6   7
ENDBRANCH   5   6
ENDBRANCH   4   5
ENDBRANCH   3   4
ENDBRANCH   2   3
ENDBRANCH   1   2
BRANCH   1  13
ATOM     13  C   UNL     1      -1.114   4.007   9.973  1.00  0.00     0.000 C 
BRANCH  13  14
ATOM     14  C   UNL     1      -1.150   5.135   8.934  1.00  0.00     0.000 C 
BRANCH  14  15
ATOM     15  C   UNL     1      -0.410   6.379   9.448  1.00  0.00     0.000 C 
BRANCH  15  16
ATOM     16  C   UNL     1      -1.161   7.685   9.137  1.00  0.00     0.000 C 
BRANCH  16  17
ATOM     17  C   UNL     1      -0.356   8.630   8.233  1.00  0.00     0.000 C 
BRANCH  17  18
ATOM     18  C   UNL     1       0.182   9.824   9.032  1.00  0.00     0.000 C 
BRANCH  18  19
ATOM     19  C   UNL     1       1.699   9.967   8.856  1.00  0.00     0.000 C 
BRANCH  19  20
ATOM     20  C   UNL     1       2.234   8.945   7.841  1.00  0.00     0.006 C 
BRANCH  20  21
ATOM     21  C   UNL     1       3.113   7.875   8.503  1.00  0.00     0.053 C 
BRANCH  21  22
ATOM     22  C   UNL     1       4.503   8.373   8.753  1.00  0.00     0.041 C 
ATOM     23  O   UNL     1       5.184   7.906   9.704  1.00  0.00    -0.550 OA
ATOM     24  O   UNL     1       5.063   9.326   7.910  1.00  0.00    -0.550 OA
ENDBRANCH  21  22
ENDBRANCH  20  21
ENDBRANCH  19  20
ENDBRANCH  18  19
ENDBRANCH  17  18
ENDBRANCH  16  17
ENDBRANCH  15  16
ENDBRANCH  14  15
ENDBRANCH  13  14
ENDBRANCH   1  13
TORSDOF 20
ENDMDL
MODEL 4
REMARK VINA RESULT:    -3.481      1.046      2.580
REMARK INTER + INTRA:          -9.873
REMARK INTER:                  -7.920
REMARK INTRA:                  -1.953
REMARK UNBOUND:                -2.321
REMARK SMILES CCCCCCCCCCCCCCCCCCCCCC(=O)[O-]
REMARK SMILES IDX 12 1 11 2 10 3 9 4 8 5 7 6 6 7 5 8 4 9 3 10 2 11 1 12 13 13
REMARK SMILES IDX 14 14 15 15 16 16 17 17 18 18 19 19 20 20 21 21 22 22 23 23
REMARK SMILES IDX 24 24
REMARK H PARENT
REMARK Flexibility Score: inf
ROOT
ATOM      1  C   UNL     1      -2.286   1.915   9.004  1.00  0.00     0.000 C 
ENDROOT
BRANCH   1   2
ATOM      2  C   UNL     1      -3.802   2.167   9.018  1.00  0.00     0.000 C 
BRANCH   2   3
ATOM      3  C   UNL     1      -4.562   1.140   9.876  1.00  0.00     0.000 C 
BRANCH   3   4
ATOM      4  C   UNL     1      -5.535   0.282   9.052  1.00  0.00    -0.000 C 
BRANCH   4   5
ATOM      5  C   UNL     1      -6.988   0.782   9.144  1.00  0.00    -0.000 C 
BRANCH   5   6
ATOM      6  C   UNL     1      -7.126   2.026  10.036  1.00  0.00    -0.000 C 
BRANCH   6   7
ATOM      7  C   UNL     1      -7.346   3.316   9.225  1.00  0.00    -0.000 C 
BRANCH   7   8
ATOM      8  C   UNL     1      -6.553   4.507   9.785  1.00  0.00    -0.000 C 
BRANCH   8   9
ATOM      9  C   UNL     1      -5.926   5.371   8.676  1.00  0.00    -0.000 C 
BRANCH   9  10
ATOM     10  C   UNL     1      -5.572   6.786   9.158  1.00  0.00    -0.000 C 
BRANCH  10  11
ATOM     11  C   UNL     1      -6.101   7.879   8.218  1.00  0.00    -0.003 C 
ATOM     12  C   UNL     1      -7.338   7.401   7.462  1.00  0.00     0.004 C 
ENDBRANCH  10  11
ENDBRANCH   9  10
ENDBRANCH   8   9
ENDBRANCH   7   8
ENDBRANCH   6   7
ENDBRANCH   5   6
ENDBRANCH   4   5
ENDBRANCH   3   4
ENDBRANCH   2   3
ENDBRANCH   1   2
BRANCH   1  13
ATOM     13  C   UNL     1      -1.492   3.048   9.675  1.00  0.00     0.000 C 
BRANCH  13  14
ATOM     14  C   UNL     1      -1.732   4.384   8.960  1.00  0.00     0.000 C 
BRANCH  14  15
ATOM     15  C   UNL     1      -2.271   5.440   9.937  1.00  0.00     0.000 C 
BRANCH  15  16
ATOM     16  C   UNL     1      -1.463   6.747   9.900  1.00  0.00     0.000 C 
BRANCH  16  17
ATOM     17  C   UNL     1      -0.111   6.589   9.191  1.00  0.00     0.000 C 
BRANCH  17  18
ATOM     18  C   UNL     1       0.011   7.573   8.020  1.00  0.00     0.000 C 
BRANCH  18  19
ATOM     19  C   UNL     1      -0.044   9.025   8.512  1.00  0.00     0.000 C 
BRANCH  19  20
ATOM     20  C   UNL     1       1.369   9.609   8.662  1.00  0.00     0.006 C 
BRANCH  20  21
ATOM     21  C   UNL     1       2.368   8.969   7.690  1.00  0.00     0.053 C 
BRANCH  21  22
ATOM     22  C   UNL     1       3.503   8.309   8.411  1.00  0.00     0.041 C 
ATOM     23  O   UNL     1       4.603   8.123   7.827  1.00  0.00    -0.550 OA
ATOM     24  O   UNL     1       3.358   7.933   9.741  1.00  0.00    -0.550 OA
ENDBRANCH  21  22
ENDBRANCH  20  21
ENDBRANCH  19  20
ENDBRANCH  18  19
ENDBRANCH  17  18
ENDBRANCH  16  17
ENDBRANCH  15  16
ENDBRANCH  14  15
ENDBRANCH  13  14
ENDBRANCH   1  13
TORSDOF 20
ENDMDL
MODEL 5
REMARK VINA RESULT:    -3.404      1.413      2.923
REMARK INTER + INTRA:          -9.706
REMARK INTER:                  -7.707
REMARK INTRA:                  -1.998
REMARK UNBOUND:                -2.321
REMARK SMILES CCCCCCCCCCCCCCCCCCCCCC(=O)[O-]
REMARK SMILES IDX 12 1 11 2 10 3 9 4 8 5 7 6 6 7 5 8 4 9 3 10 2 11 1 12 13 13
REMARK SMILES IDX 14 14 15 15 16 16 17 17 18 18 19 19 20 20 21 21 22 22 23 23
REMARK SMILES IDX 24 24
REMARK H PARENT
REMARK Flexibility Score: inf
ROOT
ATOM      1  C   UNL     1      -2.272   2.488   9.095  1.00  0.00     0.000 C 
ENDROOT
BRANCH   1   2
ATOM      2  C   UNL     1      -3.506   2.476  10.011  1.00  0.00     0.000 C 
BRANCH   2   3
ATOM      3  C   UNL     1      -4.735   3.130   9.354  1.00  0.00     0.000 C 
BRANCH   3   4
ATOM      4  C   UNL     1      -4.886   4.614   9.719  1.00  0.00    -0.000 C 
BRANCH   4   5
ATOM      5  C   UNL     1      -4.854   5.534   8.485  1.00  0.00    -0.000 C 
BRANCH   5   6
ATOM      6  C   UNL     1      -5.987   6.572   8.497  1.00  0.00    -0.000 C 
BRANCH   6   7
ATOM      7  C   UNL     1      -6.614   6.780   7.106  1.00  0.00    -0.000 C 
BRANCH   7   8
ATOM      8  C   UNL     1      -8.057   7.303   7.183  1.00  0.00    -0.000 C 
BRANCH   8   9
ATOM      9  C   UNL     1      -8.993   6.342   7.935  1.00  0.00    -0.000 C 
BRANCH   9  10
ATOM     10  C   UNL     1      -9.691   5.342   7.000  1.00  0.00    -0.000 C 
BRANCH  10  11
ATOM     11  C   UNL     1      -9.576   3.893   7.493  1.00  0.00    -0.003 C 
ATOM     12  C   UNL     1      -8.563   3.778   8.630  1.00  0.00     0.004 C 
ENDBRANCH  10  11
ENDBRANCH   9  10
ENDBRANCH   8   9
ENDBRANCH   7   8
ENDBRANCH   6   7
ENDBRANCH   5   6
ENDBRANCH   4   5
ENDBRANCH   3   4
ENDBRANCH   2   3
ENDBRANCH   1   2
BRANCH   1  13
ATOM     13  C   UNL     1      -1.034   3.089   9.779  1.00  0.00     0.000 C 
BRANCH  13  14
ATOM     14  C   UNL     1      -1.248   4.575  10.093  1.00  0.00     0.000 C 
BRANCH  14  15
ATOM     15  C   UNL     1      -1.173   5.423   8.815  1.00  0.00     0.000 C 
BRANCH  15  16
ATOM     16  C   UNL     1      -1.024   6.925   9.108  1.00  0.00     0.000 C 
BRANCH  16  17
ATOM     17  C   UNL     1      -0.198   7.658   8.043  1.00  0.00     0.000 C 
BRANCH  17  18
ATOM     18  C   UNL     1       0.384   8.962   8.603  1.00  0.00     0.000 C 
BRANCH  18  19
ATOM     19  C   UNL     1       1.586   8.683   9.514  1.00  0.00     0.000 C 
BRANCH  19  20
ATOM     20  C   UNL     1       2.608   9.828   9.442  1.00  0.00     0.006 C 
BRANCH  20  21
ATOM     21  C   UNL     1       3.454   9.772   8.164  1.00  0.00     0.053 C 
BRANCH  21  22
ATOM     22  C   UNL     1       4.147   8.453   8.010  1.00  0.00     0.041 C 
ATOM     23  O   UNL     1       5.220   8.225   8.627  1.00  0.00    -0.550 OA
ATOM     24  O   UNL     1       3.585   7.461   7.216  1.00  0.00    -0.550 OA
ENDBRANCH  21  22
ENDBRANCH  20  21
ENDBRANCH  19  20
ENDBRANCH  18  19
ENDBRANCH  17  18
ENDBRANCH  16  17
ENDBRANCH  15  16
ENDBRANCH  14  15
ENDBRANCH  13  14
ENDBRANCH   1  13
TORSDOF 20
ENDMDL
MODEL 6
REMARK VINA RESULT:    -3.368      2.869      7.417
REMARK INTER + INTRA:          -9.628
REMARK INTER:                  -7.747
REMARK INTRA:                  -1.881
REMARK UNBOUND:                -2.321
REMARK SMILES CCCCCCCCCCCCCCCCCCCCCC(=O)[O-]
REMARK SMILES IDX 12 1 11 2 10 3 9 4 8 5 7 6 6 7 5 8 4 9 3 10 2 11 1 12 13 13
REMARK SMILES IDX 14 14 15 15 16 16 17 17 18 18 19 19 20 20 21 21 22 22 23 23
REMARK SMILES IDX 24 24
REMARK H PARENT
REMARK Flexibility Score: inf
ROOT
ATOM      1  C   UNL     1      -3.465   2.664   9.983  1.00  0.00     0.000 C 
ENDROOT
BRANCH   1   2
ATOM      2  C   UNL     1      -1.968   3.006  10.006  1.00  0.00     0.000 C 
BRANCH   2   3
ATOM      3  C   UNL     1      -1.624   4.208   9.107  1.00  0.00     0.000 C 
BRANCH   3   4
ATOM      4  C   UNL     1      -2.604   5.379   9.280  1.00  0.00    -0.000 C 
BRANCH   4   5
ATOM      5  C   UNL     1      -1.888   6.731   9.439  1.00  0.00    -0.000 C 
BRANCH   5   6
ATOM      6  C   UNL     1      -0.408   6.665   9.032  1.00  0.00    -0.000 C 
BRANCH   6   7
ATOM      7  C   UNL     1      -0.030   7.736   7.993  1.00  0.00    -0.000 C 
BRANCH   7   8
ATOM      8  C   UNL     1       0.340   9.081   8.640  1.00  0.00    -0.000 C 
BRANCH   8   9
ATOM      9  C   UNL     1       1.746   9.560   8.239  1.00  0.00    -0.000 C 
BRANCH   9  10
ATOM     10  C   UNL     1       2.449   8.591   7.276  1.00  0.00    -0.000 C 
BRANCH  10  11
ATOM     11  C   UNL     1       3.777   8.063   7.836  1.00  0.00    -0.003 C 
ATOM     12  C   UNL     1       3.760   8.042   9.363  1.00  0.00     0.004 C 
ENDBRANCH  10  11
ENDBRANCH   9  10
ENDBRANCH   8   9
ENDBRANCH   7   8
ENDBRANCH   6   7
ENDBRANCH   5   6
ENDBRANCH   4   5
ENDBRANCH   3   4
ENDBRANCH   2   3
ENDBRANCH   1   2
BRANCH   1  13
ATOM     13  C   UNL     1      -3.781   1.450   9.095  1.00  0.00     0.000 C 
BRANCH  13  14
ATOM     14  C   UNL     1      -4.787   0.516   9.780  1.00  0.00     0.000 C 
BRANCH  14  15
ATOM     15  C   UNL     1      -6.164   0.603   9.107  1.00  0.00     0.000 C 
BRANCH  15  16
ATOM     16  C   UNL     1      -7.310   0.764  10.120  1.00  0.00     0.000 C 
BRANCH  16  17
ATOM     17  C   UNL     1      -7.903   2.180  10.124  1.00  0.00     0.000 C 
BRANCH  17  18
ATOM     18  C   UNL     1      -7.127   3.101   9.174  1.00  0.00     0.000 C 
BRANCH  18  19
ATOM     19  C   UNL     1      -6.775   4.428   9.858  1.00  0.00     0.000 C 
BRANCH  19  20
ATOM     20  C   UNL     1      -7.221   5.623   9.002  1.00  0.00     0.006 C 
BRANCH  20  21
ATOM     21  C   UNL     1      -6.036   6.344   8.347  1.00  0.00     0.053 C 
BRANCH  21  22
ATOM     22  C   UNL     1      -6.319   7.798   8.129  1.00  0.00     0.041 C 
ATOM     23  O   UNL     1      -7.355   8.157   7.508  1.00  0.00    -0.550 OA
ATOM     24  O   UNL     1      -5.460   8.760   8.646  1.00  0.00    -0.550 OA
ENDBRANCH  21  22
ENDBRANCH  20  21
ENDBRANCH  19  20
ENDBRANCH  18  19
ENDBRANCH  17  18
ENDBRANCH  16  17
ENDBRANCH  15  16
ENDBRANCH  14  15
ENDBRANCH  13  14
ENDBRANCH   1  13
TORSDOF 20
ENDMDL
MODEL 7
REMARK VINA RESULT:    -3.205      4.335      8.633
REMARK INTER + INTRA:          -9.274
REMARK INTER:                  -7.219
REMARK INTRA:                  -2.055
REMARK UNBOUND:                -2.321
REMARK SMILES CCCCCCCCCCCCCCCCCCCCCC(=O)[O-]
REMARK SMILES IDX 12 1 11 2 10 3 9 4 8 5 7 6 6 7 5 8 4 9 3 10 2 11 1 12 13 13
REMARK SMILES IDX 14 14 15 15 16 16 17 17 18 18 19 19 20 20 21 21 22 22 23 23
REMARK SMILES IDX 24 24
REMARK H PARENT
REMARK Flexibility Score: inf
ROOT
ATOM      1  C   UNL     1      -3.939   3.346  10.123  1.00  0.00     0.000 C 
ENDROOT
BRANCH   1   2
ATOM      2  C   UNL     1      -2.986   2.857   9.021  1.00  0.00     0.000 C 
BRANCH   2   3
ATOM      3  C   UNL     1      -1.507   2.941   9.440  1.00  0.00     0.000 C 
BRANCH   3   4
ATOM      4  C   UNL     1      -1.138   4.304  10.047  1.00  0.00    -0.000 C 
BRANCH   4   5
ATOM      5  C   UNL     1      -1.202   5.446   9.017  1.00  0.00    -0.000 C 
BRANCH   5   6
ATOM      6  C   UNL     1      -1.806   6.732   9.603  1.00  0.00    -0.000 C 
BRANCH   6   7
ATOM      7  C   UNL     1      -1.188   8.006   8.998  1.00  0.00    -0.000 C 
BRANCH   7   8
ATOM      8  C   UNL     1       0.332   8.083   9.210  1.00  0.00    -0.000 C 
BRANCH   8   9
ATOM      9  C   UNL     1       1.105   8.204   7.886  1.00  0.00    -0.000 C 
BRANCH   9  10
ATOM     10  C   UNL     1       2.473   8.883   8.059  1.00  0.00    -0.000 C 
BRANCH  10  11
ATOM     11  C   UNL     1       3.644   7.946   7.731  1.00  0.00    -0.003 C 
ATOM     12  C   UNL     1       4.982   8.604   8.060  1.00  0.00     0.004 C 
ENDBRANCH  10  11
ENDBRANCH   9  10
ENDBRANCH   8   9
ENDBRANCH   7   8
ENDBRANCH   6   7
ENDBRANCH   5   6
ENDBRANCH   4   5
ENDBRANCH   3   4
ENDBRANCH   2   3
ENDBRANCH   1   2
BRANCH   1  13
ATOM     13  C   UNL     1      -5.245   3.928   9.561  1.00  0.00     0.000 C 
BRANCH  13  14
ATOM     14  C   UNL     1      -4.957   5.036   8.539  1.00  0.00     0.000 C 
BRANCH  14  15
ATOM     15  C   UNL     1      -5.367   6.410   9.089  1.00  0.00     0.000 C 
BRANCH  15  16
ATOM     16  C   UNL     1      -6.752   6.858   8.592  1.00  0.00     0.000 C 
BRANCH  16  17
ATOM     17  C   UNL     1      -6.808   7.027   7.067  1.00  0.00     0.000 C 
BRANCH  17  18
ATOM     18  C   UNL     1      -8.181   6.614   6.521  1.00  0.00     0.000 C 
BRANCH  18  19
ATOM     19  C   UNL     1      -9.107   6.149   7.651  1.00  0.00     0.000 C 
BRANCH  19  20
ATOM     20  C   UNL     1      -9.551   4.694   7.436  1.00  0.00     0.006 C 
BRANCH  20  21
ATOM     21  C   UNL     1      -8.781   3.714   8.330  1.00  0.00     0.053 C 
BRANCH  21  22
ATOM     22  C   UNL     1      -9.285   2.311   8.183  1.00  0.00     0.041 C 
ATOM     23  O   UNL     1      -9.242   1.735   7.063  1.00  0.00    -0.550 OA
ATOM     24  O   UNL     1      -9.767   1.626   9.291  1.00  0.00    -0.550 OA
ENDBRANCH  21  22
ENDBRANCH  20  21
ENDBRANCH  19  20
ENDBRANCH  18  19
ENDBRANCH  17  18
ENDBRANCH  16  17
ENDBRANCH  15  16
ENDBRANCH  14  15
ENDBRANCH  13  14
ENDBRANCH   1  13
TORSDOF 20
ENDMDL
MODEL 8
REMARK VINA RESULT:    -3.201      5.950     10.649
REMARK INTER + INTRA:          -9.265
REMARK INTER:                  -8.449
REMARK INTRA:                  -0.816
REMARK UNBOUND:                -2.321
REMARK SMILES CCCCCCCCCCCCCCCCCCCCCC(=O)[O-]
REMARK SMILES IDX 12 1 11 2 10 3 9 4 8 5 7 6 6 7 5 8 4 9 3 10 2 11 1 12 13 13
REMARK SMILES IDX 14 14 15 15 16 16 17 17 18 18 19 19 20 20 21 21 22 22 23 23
REMARK SMILES IDX 24 24
REMARK H PARENT
REMARK Flexibility Score: inf
ROOT
ATOM      1  C   UNL     1      -2.949   2.013   9.379  1.00  0.00     0.000 C 
ENDROOT
BRANCH   1   2
ATOM      2  C   UNL     1      -3.324   3.499   9.484  1.00  0.00     0.000 C 
BRANCH   2   3
ATOM      3  C   UNL     1      -2.128   4.382   9.885  1.00  0.00     0.000 C 
BRANCH   3   4
ATOM      4  C   UNL     1      -2.523   5.850  10.113  1.00  0.00    -0.000 C 
BRANCH   4   5
ATOM      5  C   UNL     1      -1.316   6.803  10.053  1.00  0.00    -0.000 C 
BRANCH   5   6
ATOM      6  C   UNL     1      -0.472   6.603   8.784  1.00  0.00    -0.000 C 
BRANCH   6   7
ATOM      7  C   UNL     1       0.672   7.628   8.665  1.00  0.00    -0.000 C 
BRANCH   7   8
ATOM      8  C   UNL     1       0.838   8.163   7.234  1.00  0.00    -0.000 C 
BRANCH   8   9
ATOM      9  C   UNL     1       2.285   8.586   6.928  1.00  0.00    -0.000 C 
BRANCH   9  10
ATOM     10  C   UNL     1       2.788   9.695   7.866  1.00  0.00    -0.000 C 
BRANCH  10  11
ATOM     11  C   UNL     1       3.917   9.218   8.792  1.00  0.00    -0.003 C 
ATOM     12  C   UNL     1       5.125   8.748   7.986  1.00  0.00     0.004 C 
ENDBRANCH  10  11
ENDBRANCH   9  10
ENDBRANCH   8   9
ENDBRANCH   7   8
ENDBRANCH   6   7
ENDBRANCH   5   6
ENDBRANCH   4   5
ENDBRANCH   3   4
ENDBRANCH   2   3
ENDBRANCH   1   2
BRANCH   1  13
ATOM     13  C   UNL     1      -4.118   1.081   9.735  1.00  0.00     0.000 C 
BRANCH  13  14
ATOM     14  C   UNL     1      -5.450   1.659   9.240  1.00  0.00     0.000 C 
BRANCH  14  15
ATOM     15  C   UNL     1      -6.638   0.947   9.904  1.00  0.00     0.000 C 
BRANCH  15  16
ATOM     16  C   UNL     1      -7.966   1.201   9.170  1.00  0.00     0.000 C 
BRANCH  16  17
ATOM     17  C   UNL     1      -8.474  -0.039   8.420  1.00  0.00     0.000 C 
BRANCH  17  18
ATOM     18  C   UNL     1      -9.892  -0.409   8.874  1.00  0.00     0.000 C 
BRANCH  18  19
ATOM     19  C   UNL     1      -9.857  -1.297  10.124  1.00  0.00     0.000 C 
BRANCH  19  20
ATOM     20  C   UNL     1      -9.619  -2.768   9.747  1.00  0.00     0.006 C 
BRANCH  20  21
ATOM     21  C   UNL     1     -10.080  -3.083   8.318  1.00  0.00     0.053 C 
BRANCH  21  22
ATOM     22  C   UNL     1      -9.620  -4.436   7.870  1.00  0.00     0.041 C 
ATOM     23  O   UNL     1     -10.066  -4.937   6.803  1.00  0.00    -0.550 OA
ATOM     24  O   UNL     1      -8.670  -5.129   8.610  1.00  0.00    -0.550 OA
ENDBRANCH  21  22
ENDBRANCH  20  21
ENDBRANCH  19  20
ENDBRANCH  18  19
ENDBRANCH  17  18
ENDBRANCH  16  17
ENDBRANCH  15  16
ENDBRANCH  14  15
ENDBRANCH  13  14
ENDBRANCH   1  13
TORSDOF 20
ENDMDL
MODEL 9
REMARK VINA RESULT:    -2.240      2.604      7.228
REMARK INTER + INTRA:          -7.180
REMARK INTER:                  -5.135
REMARK INTRA:                  -2.045
REMARK UNBOUND:                -2.321
REMARK SMILES CCCCCCCCCCCCCCCCCCCCCC(=O)[O-]
REMARK SMILES IDX 12 1 11 2 10 3 9 4 8 5 7 6 6 7 5 8 4 9 3 10 2 11 1 12 13 13
REMARK SMILES IDX 14 14 15 15 16 16 17 17 18 18 19 19 20 20 21 21 22 22 23 23
REMARK SMILES IDX 24 24
REMARK H PARENT
REMARK Flexibility Score: inf
ROOT
ATOM      1  C   UNL     1      -7.559   8.611   5.738  1.00  0.00     0.000 C 
ENDROOT
BRANCH   1   2
ATOM      2  C   UNL     1      -7.589   9.496   6.994  1.00  0.00     0.000 C 
BRANCH   2   3
ATOM      3  C   UNL     1      -6.184   9.762   7.562  1.00  0.00     0.000 C 
BRANCH   3   4
ATOM      4  C   UNL     1      -6.094   9.498   9.073  1.00  0.00    -0.000 C 
BRANCH   4   5
ATOM      5  C   UNL     1      -5.892   8.008   9.402  1.00  0.00    -0.000 C 
BRANCH   5   6
ATOM      6  C   UNL     1      -4.562   7.740  10.125  1.00  0.00    -0.000 C 
BRANCH   6   7
ATOM      7  C   UNL     1      -3.336   8.096   9.264  1.00  0.00    -0.000 C 
BRANCH   7   8
ATOM      8  C   UNL     1      -2.464   9.188   9.902  1.00  0.00    -0.000 C 
BRANCH   8   9
ATOM      9  C   UNL     1      -1.110   9.352   9.189  1.00  0.00    -0.000 C 
BRANCH   9  10
ATOM     10  C   UNL     1      -0.542   8.016   8.685  1.00  0.00    -0.000 C 
BRANCH  10  11
ATOM     11  C   UNL     1       0.492   8.200   7.564  1.00  0.00    -0.003 C 
ATOM     12  C   UNL     1       1.836   8.656   8.127  1.00  0.00     0.004 C 
ENDBRANCH  10  11
ENDBRANCH   9  10
ENDBRANCH   8   9
ENDBRANCH   7   8
ENDBRANCH   6   7
ENDBRANCH   5   6
ENDBRANCH   4   5
ENDBRANCH   3   4
ENDBRANCH   2   3
ENDBRANCH   1   2
BRANCH   1  13
ATOM     13  C   UNL     1      -7.352   7.124   6.067  1.00  0.00     0.000 C 
BRANCH  13  14
ATOM     14  C   UNL     1      -8.667   6.473   6.515  1.00  0.00     0.000 C 
BRANCH  14  15
ATOM     15  C   UNL     1      -8.634   6.142   8.015  1.00  0.00     0.000 C 
BRANCH  15  16
ATOM     16  C   UNL     1      -8.594   4.629   8.286  1.00  0.00     0.000 C 
BRANCH  16  17
ATOM     17  C   UNL     1      -8.016   4.290   9.667  1.00  0.00     0.000 C 
BRANCH  17  18
ATOM     18  C   UNL     1      -6.846   3.306   9.544  1.00  0.00     0.000 C 
BRANCH  18  19
ATOM     19  C   UNL     1      -5.503   4.046   9.510  1.00  0.00     0.000 C 
BRANCH  19  20
ATOM     20  C   UNL     1      -4.334   3.059   9.378  1.00  0.00     0.006 C 
BRANCH  20  21
ATOM     21  C   UNL     1      -2.973   3.742   9.568  1.00  0.00     0.053 C 
BRANCH  21  22
ATOM     22  C   UNL     1      -1.836   2.799   9.319  1.00  0.00     0.041 C 
ATOM     23  O   UNL     1      -0.688   3.057   9.767  1.00  0.00    -0.550 OA
ATOM     24  O   UNL     1      -2.054   1.615   8.626  1.00  0.00    -0.550 OA
ENDBRANCH  21  22
ENDBRANCH  20  21
ENDBRANCH  19  20
ENDBRANCH  18  19
ENDBRANCH  17  18
ENDBRANCH  16  17
ENDBRANCH  15  16
ENDBRANCH  14  15
ENDBRANCH  13  14
ENDBRANCH   1  13
TORSDOF 20
ENDMDL
