MODEL 1
REMARK VINA RESULT:    -2.828      0.000      0.000
REMARK INTER + INTRA:         -10.669
REMARK INTER:                  -6.466
REMARK INTRA:                  -4.203
REMARK UNBOUND:                -4.203
REMARK SMILES CCCCCCCCCCCCCCCCCCCCCCCC(=O)[O-]
REMARK SMILES IDX 13 1 14 2 15 3 16 4 17 5 18 6 19 7 20 8 21 9 22 10 23 11
REMARK SMILES IDX 24 12 25 13 26 14 12 15 11 16 10 17 9 18 8 19 7 20 6 21 5 22
REMARK SMILES IDX 4 23 3 24 2 25 1 26
REMARK H PARENT
REMARK Flexibility Score: inf
ROOT
ATOM      1  C   UNL     1      11.003 -18.649  20.916  1.00  0.00     0.000 C 
ENDROOT
BRANCH   1   2
ATOM      2  C   UNL     1      11.632 -19.484  22.046  1.00  0.00     0.000 C 
BRANCH   2   3
ATOM      3  C   UNL     1      13.172 -19.463  22.097  1.00  0.00     0.000 C 
BRANCH   3   4
ATOM      4  C   UNL     1      13.795 -18.150  22.612  1.00  0.00     0.000 C 
BRANCH   4   5
ATOM      5  C   UNL     1      14.784 -17.478  21.643  1.00  0.00     0.000 C 
BRANCH   5   6
ATOM      6  C   UNL     1      14.398 -16.031  21.306  1.00  0.00     0.000 C 
BRANCH   6   7
ATOM      7  C   UNL     1      13.171 -15.590  22.113  1.00  0.00     0.000 C 
BRANCH   7   8
ATOM      8  C   UNL     1      12.021 -15.168  21.188  1.00  0.00     0.000 C 
BRANCH   8   9
ATOM      9  C   UNL     1      12.473 -15.043  19.717  1.00  0.00     0.000 C 
BRANCH   9  10
ATOM     10  C   UNL     1      12.282 -13.630  19.134  1.00  0.00     0.006 C 
BRANCH  10  11
ATOM     11  C   UNL     1      11.355 -12.732  19.964  1.00  0.00     0.053 C 
BRANCH  11  12
ATOM     12  C   UNL     1      12.045 -11.477  20.408  1.00  0.00     0.041 C 
ATOM     13  O   UNL     1      12.408 -11.340  21.606  1.00  0.00    -0.550 OA
ATOM     14  O   UNL     1      12.303 -10.465  19.491  1.00  0.00    -0.550 OA
ENDBRANCH  11  12
ENDBRANCH  10  11
ENDBRANCH   9  10
ENDBRANCH   8   9
ENDBRANCH   7   8
ENDBRANCH   6   7
ENDBRANCH   5   6
ENDBRANCH   4   5
ENDBRANCH   3   4
ENDBRANCH   2   3
ENDBRANCH   1   2
BRANCH   1  15
ATOM     15  C   UNL     1      11.722 -18.830  19.568  1.00  0.00     0.000 C 
BRANCH  15  16
ATOM     16  C   UNL     1      10.782 -19.350  18.468  1.00  0.00     0.000 C 
BRANCH  16  17
ATOM     17  C   UNL     1       9.549 -18.452  18.273  1.00  0.00     0.000 C 
BRANCH  17  18
ATOM     18  C   UNL     1       8.233 -19.247  18.237  1.00  0.00    -0.000 C 
BRANCH  18  19
ATOM     19  C   UNL     1       8.018 -20.204  19.425  1.00  0.00    -0.000 C 
BRANCH  19  20
ATOM     20  C   UNL     1       7.162 -19.603  20.560  1.00  0.00    -0.000 C 
BRANCH  20  21
ATOM     21  C   UNL     1       6.197 -18.518  20.050  1.00  0.00    -0.000 C 
BRANCH  21  22
ATOM     22  C   UNL     1       6.369 -17.182  20.789  1.00  0.00    -0.000 C 
BRANCH  22  23
ATOM     23  C   UNL     1       7.744 -17.054  21.468  1.00  0.00    -0.000 C 
BRANCH  23  24
ATOM     24  C   UNL     1       8.568 -15.871  20.929  1.00  0.00    -0.000 C 
BRANCH  24  25
ATOM     25  C   UNL     1       8.080 -15.309  19.582  1.00  0.00    -0.003 C 
ATOM     26  C   UNL     1       7.605 -13.860  19.675  1.00  0.00     0.004 C 
ENDBRANCH  24  25
ENDBRANCH  23  24
ENDBRANCH  22  23
ENDBRANCH  21  22
ENDBRANCH  20  21
ENDBRANCH  19  20
ENDBRANCH  18  19
ENDBRANCH  17  18
ENDBRANCH  16  17
ENDBRANCH  15  16
ENDBRANCH   1  15
TORSDOF 22
ENDMDL
MODEL 2
REMARK VINA RESULT:    -2.797      1.391      5.222
REMARK INTER + INTRA:         -10.597
REMARK INTER:                  -6.970
REMARK INTRA:                  -3.627
REMARK UNBOUND:                -4.203
REMARK SMILES CCCCCCCCCCCCCCCCCCCCCCCC(=O)[O-]
REMARK SMILES IDX 13 1 14 2 15 3 16 4 17 5 18 6 19 7 20 8 21 9 22 10 23 11
REMARK SMILES IDX 24 12 25 13 26 14 12 15 11 16 10 17 9 18 8 19 7 20 6 21 5 22
REMARK SMILES IDX 4 23 3 24 2 25 1 26
REMARK H PARENT
REMARK Flexibility Score: inf
ROOT
ATOM      1  C   UNL     1       4.738 -18.082  20.496  1.00  0.00     0.000 C 
ENDROOT
BRANCH   1   2
ATOM      2  C   UNL     1       4.617 -18.326  18.981  1.00  0.00     0.000 C 
BRANCH   2   3
ATOM      3  C   UNL     1       5.176 -17.200  18.090  1.00  0.00     0.000 C 
BRANCH   3   4
ATOM      4  C   UNL     1       5.720 -15.971  18.845  1.00  0.00     0.000 C 
BRANCH   4   5
ATOM      5  C   UNL     1       7.233 -15.734  18.693  1.00  0.00     0.000 C 
BRANCH   5   6
ATOM      6  C   UNL     1       7.949 -15.575  20.041  1.00  0.00     0.000 C 
BRANCH   6   7
ATOM      7  C   UNL     1       9.424 -15.983  19.928  1.00  0.00     0.000 C 
BRANCH   7   8
ATOM      8  C   UNL     1      10.341 -14.926  20.561  1.00  0.00     0.000 C 
BRANCH   8   9
ATOM      9  C   UNL     1       9.924 -13.489  20.181  1.00  0.00     0.000 C 
BRANCH   9  10
ATOM     10  C   UNL     1      11.080 -12.475  20.252  1.00  0.00     0.006 C 
BRANCH  10  11
ATOM     11  C   UNL     1      12.445 -13.055  19.854  1.00  0.00     0.053 C 
BRANCH  11  12
ATOM     12  C   UNL     1      13.555 -12.486  20.685  1.00  0.00     0.041 C 
ATOM     13  O   UNL     1      14.365 -13.250  21.273  1.00  0.00    -0.550 OA
ATOM     14  O   UNL     1      13.705 -11.109  20.796  1.00  0.00    -0.550 OA
ENDBRANCH  11  12
ENDBRANCH  10  11
ENDBRANCH   9  10
ENDBRANCH   8   9
ENDBRANCH   7   8
ENDBRANCH   6   7
ENDBRANCH   5   6
ENDBRANCH   4   5
ENDBRANCH   3   4
ENDBRANCH   2   3
ENDBRANCH   1   2
BRANCH   1  15
ATOM     15  C   UNL     1       5.611 -19.133  21.202  1.00  0.00     0.000 C 
BRANCH  15  16
ATOM     16  C   UNL     1       7.098 -19.005  20.830  1.00  0.00     0.000 C 
BRANCH  16  17
ATOM     17  C   UNL     1       7.768 -20.371  20.600  1.00  0.00     0.000 C 
BRANCH  17  18
ATOM     18  C   UNL     1       8.204 -20.581  19.140  1.00  0.00    -0.000 C 
BRANCH  18  19
ATOM     19  C   UNL     1       8.109 -19.329  18.246  1.00  0.00    -0.000 C 
BRANCH  19  20
ATOM     20  C   UNL     1       9.479 -18.724  17.875  1.00  0.00    -0.000 C 
BRANCH  20  21
ATOM     21  C   UNL     1      10.651 -19.540  18.448  1.00  0.00    -0.000 C 
BRANCH  21  22
ATOM     22  C   UNL     1      11.622 -18.680  19.272  1.00  0.00    -0.000 C 
BRANCH  22  23
ATOM     23  C   UNL     1      11.523 -18.957  20.782  1.00  0.00    -0.000 C 
BRANCH  23  24
ATOM     24  C   UNL     1      12.877 -18.824  21.503  1.00  0.00    -0.000 C 
BRANCH  24  25
ATOM     25  C   UNL     1      13.615 -17.499  21.245  1.00  0.00    -0.003 C 
ATOM     26  C   UNL     1      13.341 -16.443  22.315  1.00  0.00     0.004 C 
ENDBRANCH  24  25
ENDBRANCH  23  24
ENDBRANCH  22  23
ENDBRANCH  21  22
ENDBRANCH  20  21
ENDBRANCH  19  20
ENDBRANCH  18  19
ENDBRANCH  17  18
ENDBRANCH  16  17
ENDBRANCH  15  16
ENDBRANCH   1  15
TORSDOF 22
ENDMDL
MODEL 3
REMARK VINA RESULT:    -2.747      3.158      5.174
REMARK INTER + INTRA:         -10.483
REMARK INTER:                  -5.971
REMARK INTRA:                  -4.512
REMARK UNBOUND:                -4.203
REMARK SMILES CCCCCCCCCCCCCCCCCCCCCCCC(=O)[O-]
REMARK SMILES IDX 13 1 14 2 15 3 16 4 17 5 18 6 19 7 20 8 21 9 22 10 23 11
REMARK SMILES IDX 24 12 25 13 26 14 12 15 11 16 10 17 9 18 8 19 7 20 6 21 5 22
REMARK SMILES IDX 4 23 3 24 2 25 1 26
REMARK H PARENT
REMARK Flexibility Score: inf
ROOT
ATOM      1  C   UNL     1       8.574 -14.624  20.677  1.00  0.00     0.000 C 
ENDROOT
BRANCH   1   2
ATOM      2  C   UNL     1       9.257 -13.360  20.126  1.00  0.00     0.000 C 
BRANCH   2   3
ATOM      3  C   UNL     1      10.592 -12.990  20.800  1.00  0.00     0.000 C 
BRANCH   3   4
ATOM      4  C   UNL     1      11.819 -12.973  19.866  1.00  0.00     0.000 C 
BRANCH   4   5
ATOM      5  C   UNL     1      12.849 -14.085  20.129  1.00  0.00     0.000 C 
BRANCH   5   6
ATOM      6  C   UNL     1      13.221 -14.215  21.613  1.00  0.00     0.000 C 
BRANCH   6   7
ATOM      7  C   UNL     1      13.191 -15.683  22.057  1.00  0.00     0.000 C 
BRANCH   7   8
ATOM      8  C   UNL     1      13.197 -16.629  20.848  1.00  0.00     0.000 C 
BRANCH   8   9
ATOM      9  C   UNL     1      13.423 -18.100  21.259  1.00  0.00     0.000 C 
BRANCH   9  10
ATOM     10  C   UNL     1      12.170 -18.980  21.104  1.00  0.00     0.006 C 
BRANCH  10  11
ATOM     11  C   UNL     1      11.295 -19.051  22.363  1.00  0.00     0.053 C 
BRANCH  11  12
ATOM     12  C   UNL     1      11.324 -20.414  22.986  1.00  0.00     0.041 C 
ATOM     13  O   UNL     1      10.260 -21.072  23.126  1.00  0.00    -0.550 OA
ATOM     14  O   UNL     1      12.532 -20.965  23.397  1.00  0.00    -0.550 OA
ENDBRANCH  11  12
ENDBRANCH  10  11
ENDBRANCH   9  10
ENDBRANCH   8   9
ENDBRANCH   7   8
ENDBRANCH   6   7
ENDBRANCH   5   6
ENDBRANCH   4   5
ENDBRANCH   3   4
ENDBRANCH   2   3
ENDBRANCH   1   2
BRANCH   1  15
ATOM     15  C   UNL     1       9.527 -15.828  20.765  1.00  0.00     0.000 C 
BRANCH  15  16
ATOM     16  C   UNL     1       9.915 -16.370  19.379  1.00  0.00     0.000 C 
BRANCH  16  17
ATOM     17  C   UNL     1       8.692 -16.632  18.485  1.00  0.00     0.000 C 
BRANCH  17  18
ATOM     18  C   UNL     1       8.688 -18.047  17.881  1.00  0.00    -0.000 C 
BRANCH  18  19
ATOM     19  C   UNL     1       9.296 -19.140  18.780  1.00  0.00    -0.000 C 
BRANCH  19  20
ATOM     20  C   UNL     1       8.372 -20.358  18.991  1.00  0.00    -0.000 C 
BRANCH  20  21
ATOM     21  C   UNL     1       7.883 -20.473  20.446  1.00  0.00    -0.000 C 
BRANCH  21  22
ATOM     22  C   UNL     1       7.840 -19.114  21.163  1.00  0.00    -0.000 C 
BRANCH  22  23
ATOM     23  C   UNL     1       6.420 -18.723  21.606  1.00  0.00    -0.000 C 
BRANCH  23  24
ATOM     24  C   UNL     1       5.993 -17.338  21.089  1.00  0.00    -0.000 C 
BRANCH  24  25
ATOM     25  C   UNL     1       5.453 -17.328  19.648  1.00  0.00    -0.003 C 
ATOM     26  C   UNL     1       4.654 -18.582  19.299  1.00  0.00     0.004 C 
ENDBRANCH  24  25
ENDBRANCH  23  24
ENDBRANCH  22  23
ENDBRANCH  21  22
ENDBRANCH  20  21
ENDBRANCH  19  20
ENDBRANCH  18  19
ENDBRANCH  17  18
ENDBRANCH  16  17
ENDBRANCH  15  16
ENDBRANCH   1  15
TORSDOF 22
ENDMDL
MODEL 4
REMARK VINA RESULT:    -2.727      1.346      2.780
REMARK INTER + INTRA:         -10.437
REMARK INTER:                  -6.541
REMARK INTRA:                  -3.896
REMARK UNBOUND:                -4.203
REMARK SMILES CCCCCCCCCCCCCCCCCCCCCCCC(=O)[O-]
REMARK SMILES IDX 13 1 14 2 15 3 16 4 17 5 18 6 19 7 20 8 21 9 22 10 23 11
REMARK SMILES IDX 24 12 25 13 26 14 12 15 11 16 10 17 9 18 8 19 7 20 6 21 5 22
REMARK SMILES IDX 4 23 3 24 2 25 1 26
REMARK H PARENT
REMARK Flexibility Score: inf
ROOT
ATOM      1  C   UNL     1      11.014 -17.978  20.572  1.00  0.00     0.000 C 
ENDROOT
BRANCH   1   2
ATOM      2  C   UNL     1      11.587 -18.272  21.971  1.00  0.00     0.000 C 
BRANCH   2   3
ATOM      3  C   UNL     1      12.755 -19.277  22.002  1.00  0.00     0.000 C 
BRANCH   3   4
ATOM      4  C   UNL     1      14.125 -18.682  22.381  1.00  0.00     0.000 C 
BRANCH   4   5
ATOM      5  C   UNL     1      14.154 -17.149  22.508  1.00  0.00     0.000 C 
BRANCH   5   6
ATOM      6  C   UNL     1      14.699 -16.457  21.252  1.00  0.00     0.000 C 
BRANCH   6   7
ATOM      7  C   UNL     1      14.242 -14.994  21.191  1.00  0.00     0.000 C 
BRANCH   7   8
ATOM      8  C   UNL     1      12.762 -14.891  20.795  1.00  0.00     0.000 C 
BRANCH   8   9
ATOM      9  C   UNL     1      12.531 -13.867  19.663  1.00  0.00     0.000 C 
BRANCH   9  10
ATOM     10  C   UNL     1      11.716 -12.638  20.103  1.00  0.00     0.006 C 
BRANCH  10  11
ATOM     11  C   UNL     1      12.401 -11.296  19.810  1.00  0.00     0.053 C 
BRANCH  11  12
ATOM     12  C   UNL     1      13.474 -10.988  20.810  1.00  0.00     0.041 C 
ATOM     13  O   UNL     1      13.377 -11.404  21.995  1.00  0.00    -0.550 OA
ATOM     14  O   UNL     1      14.590 -10.255  20.428  1.00  0.00    -0.550 OA
ENDBRANCH  11  12
ENDBRANCH  10  11
ENDBRANCH   9  10
ENDBRANCH   8   9
ENDBRANCH   7   8
ENDBRANCH   6   7
ENDBRANCH   5   6
ENDBRANCH   4   5
ENDBRANCH   3   4
ENDBRANCH   2   3
ENDBRANCH   1   2
BRANCH   1  15
ATOM     15  C   UNL     1       9.777 -17.066  20.614  1.00  0.00     0.000 C 
BRANCH  15  16
ATOM     16  C   UNL     1       9.626 -16.225  19.335  1.00  0.00     0.000 C 
BRANCH  16  17
ATOM     17  C   UNL     1       8.247 -15.549  19.234  1.00  0.00     0.000 C 
BRANCH  17  18
ATOM     18  C   UNL     1       7.124 -16.393  19.861  1.00  0.00    -0.000 C 
BRANCH  18  19
ATOM     19  C   UNL     1       6.226 -17.135  18.852  1.00  0.00    -0.000 C 
BRANCH  19  20
ATOM     20  C   UNL     1       6.335 -18.672  18.935  1.00  0.00    -0.000 C 
BRANCH  20  21
ATOM     21  C   UNL     1       7.638 -19.198  18.307  1.00  0.00    -0.000 C 
BRANCH  21  22
ATOM     22  C   UNL     1       8.374 -20.190  19.222  1.00  0.00    -0.000 C 
BRANCH  22  23
ATOM     23  C   UNL     1       7.629 -20.439  20.545  1.00  0.00    -0.000 C 
BRANCH  23  24
ATOM     24  C   UNL     1       8.571 -20.479  21.761  1.00  0.00    -0.000 C 
BRANCH  24  25
ATOM     25  C   UNL     1       8.224 -19.478  22.878  1.00  0.00    -0.003 C 
ATOM     26  C   UNL     1       6.895 -18.761  22.647  1.00  0.00     0.004 C 
ENDBRANCH  24  25
ENDBRANCH  23  24
ENDBRANCH  22  23
ENDBRANCH  21  22
ENDBRANCH  20  21
ENDBRANCH  19  20
ENDBRANCH  18  19
ENDBRANCH  17  18
ENDBRANCH  16  17
ENDBRANCH  15  16
ENDBRANCH   1  15
TORSDOF 22
ENDMDL
MODEL 5
REMARK VINA RESULT:    -2.690      1.868      4.878
REMARK INTER + INTRA:         -10.352
REMARK INTER:                  -5.822
REMARK INTRA:                  -4.530
REMARK UNBOUND:                -4.203
REMARK SMILES CCCCCCCCCCCCCCCCCCCCCCCC(=O)[O-]
REMARK SMILES IDX 13 1 14 2 15 3 16 4 17 5 18 6 19 7 20 8 21 9 22 10 23 11
REMARK SMILES IDX 24 12 25 13 26 14 12 15 11 16 10 17 9 18 8 19 7 20 6 21 5 22
REMARK SMILES IDX 4 23 3 24 2 25 1 26
REMARK H PARENT
REMARK Flexibility Score: inf
ROOT
ATOM      1  C   UNL     1       6.825 -18.106  20.053  1.00  0.00     0.000 C 
ENDROOT
BRANCH   1   2
ATOM      2  C   UNL     1       6.914 -16.579  19.873  1.00  0.00     0.000 C 
BRANCH   2   3
ATOM      3  C   UNL     1       8.024 -16.096  18.919  1.00  0.00     0.000 C 
BRANCH   3   4
ATOM      4  C   UNL     1       9.044 -15.121  19.539  1.00  0.00     0.000 C 
BRANCH   4   5
ATOM      5  C   UNL     1       8.429 -13.890  20.228  1.00  0.00     0.000 C 
BRANCH   5   6
ATOM      6  C   UNL     1       9.410 -13.186  21.177  1.00  0.00     0.000 C 
BRANCH   6   7
ATOM      7  C   UNL     1      10.259 -12.157  20.420  1.00  0.00     0.000 C 
BRANCH   7   8
ATOM      8  C   UNL     1      11.758 -12.414  20.631  1.00  0.00     0.000 C 
BRANCH   8   9
ATOM      9  C   UNL     1      12.376 -13.239  19.482  1.00  0.00     0.000 C 
BRANCH   9  10
ATOM     10  C   UNL     1      12.598 -14.720  19.839  1.00  0.00     0.006 C 
BRANCH  10  11
ATOM     11  C   UNL     1      12.714 -14.988  21.346  1.00  0.00     0.053 C 
BRANCH  11  12
ATOM     12  C   UNL     1      14.112 -15.359  21.740  1.00  0.00     0.041 C 
ATOM     13  O   UNL     1      14.529 -15.120  22.904  1.00  0.00    -0.550 OA
ATOM     14  O   UNL     1      14.948 -15.985  20.825  1.00  0.00    -0.550 OA
ENDBRANCH  11  12
ENDBRANCH  10  11
ENDBRANCH   9  10
ENDBRANCH   8   9
ENDBRANCH   7   8
ENDBRANCH   6   7
ENDBRANCH   5   6
ENDBRANCH   4   5
ENDBRANCH   3   4
ENDBRANCH   2   3
ENDBRANCH   1   2
BRANCH   1  15
ATOM     15  C   UNL     1       6.858 -18.867  18.717  1.00  0.00     0.000 C 
BRANCH  15  16
ATOM     16  C   UNL     1       8.019 -19.873  18.644  1.00  0.00     0.000 C 
BRANCH  16  17
ATOM     17  C   UNL     1       9.082 -19.625  19.728  1.00  0.00     0.000 C 
BRANCH  17  18
ATOM     18  C   UNL     1      10.423 -19.144  19.148  1.00  0.00    -0.000 C 
BRANCH  18  19
ATOM     19  C   UNL     1      11.187 -18.132  20.024  1.00  0.00    -0.000 C 
BRANCH  19  20
ATOM     20  C   UNL     1      12.583 -18.620  20.464  1.00  0.00    -0.000 C 
BRANCH  20  21
ATOM     21  C   UNL     1      12.664 -18.862  21.982  1.00  0.00    -0.000 C 
BRANCH  21  22
ATOM     22  C   UNL     1      12.083 -20.224  22.393  1.00  0.00    -0.000 C 
BRANCH  22  23
ATOM     23  C   UNL     1      10.910 -20.093  23.380  1.00  0.00    -0.000 C 
BRANCH  23  24
ATOM     24  C   UNL     1      10.558 -18.628  23.697  1.00  0.00    -0.000 C 
BRANCH  24  25
ATOM     25  C   UNL     1       9.203 -18.157  23.140  1.00  0.00    -0.003 C 
ATOM     26  C   UNL     1       9.165 -16.658  22.846  1.00  0.00     0.004 C 
ENDBRANCH  24  25
ENDBRANCH  23  24
ENDBRANCH  22  23
ENDBRANCH  21  22
ENDBRANCH  20  21
ENDBRANCH  19  20
ENDBRANCH  18  19
ENDBRANCH  17  18
ENDBRANCH  16  17
ENDBRANCH  15  16
ENDBRANCH   1  15
TORSDOF 22
ENDMDL
MODEL 6
REMARK VINA RESULT:    -2.676      4.642      8.135
REMARK INTER + INTRA:         -10.321
REMARK INTER:                  -6.354
REMARK INTRA:                  -3.968
REMARK UNBOUND:                -4.203
REMARK SMILES CCCCCCCCCCCCCCCCCCCCCCCC(=O)[O-]
REMARK SMILES IDX 13 1 14 2 15 3 16 4 17 5 18 6 19 7 20 8 21 9 22 10 23 11
REMARK SMILES IDX 24 12 25 13 26 14 12 15 11 16 10 17 9 18 8 19 7 20 6 21 5 22
REMARK SMILES IDX 4 23 3 24 2 25 1 26
REMARK H PARENT
REMARK Flexibility Score: inf
ROOT
ATOM      1  C   UNL     1       7.289 -16.862  21.538  1.00  0.00     0.000 C 
ENDROOT
BRANCH   1   2
ATOM      2  C   UNL     1       8.501 -16.211  20.848  1.00  0.00     0.000 C 
BRANCH   2   3
ATOM      3  C   UNL     1       8.316 -15.905  19.349  1.00  0.00     0.000 C 
BRANCH   3   4
ATOM      4  C   UNL     1       7.327 -14.768  19.027  1.00  0.00     0.000 C 
BRANCH   4   5
ATOM      5  C   UNL     1       6.295 -15.095  17.933  1.00  0.00     0.000 C 
BRANCH   5   6
ATOM      6  C   UNL     1       5.023 -15.749  18.491  1.00  0.00     0.000 C 
BRANCH   6   7
ATOM      7  C   UNL     1       4.814 -17.143  17.885  1.00  0.00     0.000 C 
BRANCH   7   8
ATOM      8  C   UNL     1       4.549 -18.188  18.978  1.00  0.00     0.000 C 
BRANCH   8   9
ATOM      9  C   UNL     1       3.788 -17.592  20.182  1.00  0.00     0.000 C 
BRANCH   9  10
ATOM     10  C   UNL     1       2.425 -18.260  20.439  1.00  0.00     0.006 C 
BRANCH  10  11
ATOM     11  C   UNL     1       2.266 -19.633  19.770  1.00  0.00     0.053 C 
BRANCH  11  12
ATOM     12  C   UNL     1       1.093 -19.664  18.837  1.00  0.00     0.041 C 
ATOM     13  O   UNL     1       0.625 -18.594  18.366  1.00  0.00    -0.550 OA
ATOM     14  O   UNL     1       0.527 -20.880  18.474  1.00  0.00    -0.550 OA
ENDBRANCH  11  12
ENDBRANCH  10  11
ENDBRANCH   9  10
ENDBRANCH   8   9
ENDBRANCH   7   8
ENDBRANCH   6   7
ENDBRANCH   5   6
ENDBRANCH   4   5
ENDBRANCH   3   4
ENDBRANCH   2   3
ENDBRANCH   1   2
BRANCH   1  15
ATOM     15  C   UNL     1       7.555 -18.315  21.967  1.00  0.00     0.000 C 
BRANCH  15  16
ATOM     16  C   UNL     1       6.944 -19.335  20.992  1.00  0.00     0.000 C 
BRANCH  16  17
ATOM     17  C   UNL     1       7.853 -20.555  20.768  1.00  0.00     0.000 C 
BRANCH  17  18
ATOM     18  C   UNL     1       8.282 -20.716  19.300  1.00  0.00    -0.000 C 
BRANCH  18  19
ATOM     19  C   UNL     1       7.974 -19.507  18.395  1.00  0.00    -0.000 C 
BRANCH  19  20
ATOM     20  C   UNL     1       9.233 -18.783  17.875  1.00  0.00    -0.000 C 
BRANCH  20  21
ATOM     21  C   UNL     1      10.525 -19.337  18.501  1.00  0.00    -0.000 C 
BRANCH  21  22
ATOM     22  C   UNL     1      11.241 -18.305  19.387  1.00  0.00    -0.000 C 
BRANCH  22  23
ATOM     23  C   UNL     1      12.053 -18.959  20.518  1.00  0.00    -0.000 C 
BRANCH  23  24
ATOM     24  C   UNL     1      11.199 -19.273  21.760  1.00  0.00    -0.000 C 
BRANCH  24  25
ATOM     25  C   UNL     1      11.108 -18.129  22.784  1.00  0.00    -0.003 C 
ATOM     26  C   UNL     1      12.030 -18.326  23.987  1.00  0.00     0.004 C 
ENDBRANCH  24  25
ENDBRANCH  23  24
ENDBRANCH  22  23
ENDBRANCH  21  22
ENDBRANCH  20  21
ENDBRANCH  19  20
ENDBRANCH  18  19
ENDBRANCH  17  18
ENDBRANCH  16  17
ENDBRANCH  15  16
ENDBRANCH   1  15
TORSDOF 22
ENDMDL
MODEL 7
REMARK VINA RESULT:    -2.667      1.426      1.934
REMARK INTER + INTRA:         -10.300
REMARK INTER:                  -6.089
REMARK INTRA:                  -4.211
REMARK UNBOUND:                -4.203
REMARK SMILES CCCCCCCCCCCCCCCCCCCCCCCC(=O)[O-]
REMARK SMILES IDX 13 1 14 2 15 3 16 4 17 5 18 6 19 7 20 8 21 9 22 10 23 11
REMARK SMILES IDX 24 12 25 13 26 14 12 15 11 16 10 17 9 18 8 19 7 20 6 21 5 22
REMARK SMILES IDX 4 23 3 24 2 25 1 26
REMARK H PARENT
REMARK Flexibility Score: inf
ROOT
ATOM      1  C   UNL     1      10.858 -18.851  19.795  1.00  0.00     0.000 C 
ENDROOT
BRANCH   1   2
ATOM      2  C   UNL     1      12.328 -18.904  20.250  1.00  0.00     0.000 C 
BRANCH   2   3
ATOM      3  C   UNL     1      12.546 -19.334  21.714  1.00  0.00     0.000 C 
BRANCH   3   4
ATOM      4  C   UNL     1      13.598 -18.518  22.490  1.00  0.00     0.000 C 
BRANCH   4   5
ATOM      5  C   UNL     1      14.374 -17.491  21.646  1.00  0.00     0.000 C 
BRANCH   5   6
ATOM      6  C   UNL     1      14.551 -16.144  22.360  1.00  0.00     0.000 C 
BRANCH   6   7
ATOM      7  C   UNL     1      13.806 -15.029  21.615  1.00  0.00     0.000 C 
BRANCH   7   8
ATOM      8  C   UNL     1      13.431 -15.467  20.192  1.00  0.00     0.000 C 
BRANCH   8   9
ATOM      9  C   UNL     1      12.279 -14.622  19.607  1.00  0.00     0.000 C 
BRANCH   9  10
ATOM     10  C   UNL     1      12.557 -13.108  19.626  1.00  0.00     0.006 C 
BRANCH  10  11
ATOM     11  C   UNL     1      11.413 -12.270  20.213  1.00  0.00     0.053 C 
BRANCH  11  12
ATOM     12  C   UNL     1      11.685 -10.800  20.102  1.00  0.00     0.041 C 
ATOM     13  O   UNL     1      12.729 -10.387  19.532  1.00  0.00    -0.550 OA
ATOM     14  O   UNL     1      10.774  -9.884  20.614  1.00  0.00    -0.550 OA
ENDBRANCH  11  12
ENDBRANCH  10  11
ENDBRANCH   9  10
ENDBRANCH   8   9
ENDBRANCH   7   8
ENDBRANCH   6   7
ENDBRANCH   5   6
ENDBRANCH   4   5
ENDBRANCH   3   4
ENDBRANCH   2   3
ENDBRANCH   1   2
BRANCH   1  15
ATOM     15  C   UNL     1      10.323 -17.415  19.670  1.00  0.00     0.000 C 
BRANCH  15  16
ATOM     16  C   UNL     1       9.069 -17.332  18.784  1.00  0.00     0.000 C 
BRANCH  16  17
ATOM     17  C   UNL     1       8.903 -18.565  17.881  1.00  0.00     0.000 C 
BRANCH  17  18
ATOM     18  C   UNL     1       7.734 -19.467  18.314  1.00  0.00    -0.000 C 
BRANCH  18  19
ATOM     19  C   UNL     1       6.954 -18.974  19.549  1.00  0.00    -0.000 C 
BRANCH  19  20
ATOM     20  C   UNL     1       7.071 -19.907  20.771  1.00  0.00    -0.000 C 
BRANCH  20  21
ATOM     21  C   UNL     1       7.816 -19.243  21.943  1.00  0.00    -0.000 C 
BRANCH  21  22
ATOM     22  C   UNL     1       7.482 -17.750  22.083  1.00  0.00    -0.000 C 
BRANCH  22  23
ATOM     23  C   UNL     1       8.246 -17.079  23.237  1.00  0.00    -0.000 C 
BRANCH  23  24
ATOM     24  C   UNL     1       9.729 -17.489  23.289  1.00  0.00    -0.000 C 
BRANCH  24  25
ATOM     25  C   UNL     1      10.724 -16.319  23.180  1.00  0.00    -0.003 C 
ATOM     26  C   UNL     1      10.098 -15.053  22.600  1.00  0.00     0.004 C 
ENDBRANCH  24  25
ENDBRANCH  23  24
ENDBRANCH  22  23
ENDBRANCH  21  22
ENDBRANCH  20  21
ENDBRANCH  19  20
ENDBRANCH  18  19
ENDBRANCH  17  18
ENDBRANCH  16  17
ENDBRANCH  15  16
ENDBRANCH   1  15
TORSDOF 22
ENDMDL
MODEL 8
REMARK VINA RESULT:    -2.653      3.796      7.590
REMARK INTER + INTRA:         -10.269
REMARK INTER:                  -5.841
REMARK INTRA:                  -4.428
REMARK UNBOUND:                -4.203
REMARK SMILES CCCCCCCCCCCCCCCCCCCCCCCC(=O)[O-]
REMARK SMILES IDX 13 1 14 2 15 3 16 4 17 5 18 6 19 7 20 8 21 9 22 10 23 11
REMARK SMILES IDX 24 12 25 13 26 14 12 15 11 16 10 17 9 18 8 19 7 20 6 21 5 22
REMARK SMILES IDX 4 23 3 24 2 25 1 26
REMARK H PARENT
REMARK Flexibility Score: inf
ROOT
ATOM      1  C   UNL     1       8.635 -16.033  21.080  1.00  0.00     0.000 C 
ENDROOT
BRANCH   1   2
ATOM      2  C   UNL     1       8.496 -15.707  19.582  1.00  0.00     0.000 C 
BRANCH   2   3
ATOM      3  C   UNL     1       9.097 -16.756  18.625  1.00  0.00     0.000 C 
BRANCH   3   4
ATOM      4  C   UNL     1       9.898 -17.884  19.305  1.00  0.00     0.000 C 
BRANCH   4   5
ATOM      5  C   UNL     1       9.780 -19.262  18.630  1.00  0.00     0.000 C 
BRANCH   5   6
ATOM      6  C   UNL     1       8.489 -20.001  19.008  1.00  0.00     0.000 C 
BRANCH   6   7
ATOM      7  C   UNL     1       8.190 -19.849  20.505  1.00  0.00     0.000 C 
BRANCH   7   8
ATOM      8  C   UNL     1       6.740 -19.403  20.738  1.00  0.00     0.000 C 
BRANCH   8   9
ATOM      9  C   UNL     1       6.095 -18.825  19.460  1.00  0.00     0.000 C 
BRANCH   9  10
ATOM     10  C   UNL     1       5.331 -17.510  19.700  1.00  0.00     0.006 C 
BRANCH  10  11
ATOM     11  C   UNL     1       3.849 -17.567  19.300  1.00  0.00     0.053 C 
BRANCH  11  12
ATOM     12  C   UNL     1       3.231 -18.890  19.640  1.00  0.00     0.041 C 
ATOM     13  O   UNL     1       2.782 -19.635  18.729  1.00  0.00    -0.550 OA
ATOM     14  O   UNL     1       3.166 -19.306  20.964  1.00  0.00    -0.550 OA
ENDBRANCH  11  12
ENDBRANCH  10  11
ENDBRANCH   9  10
ENDBRANCH   8   9
ENDBRANCH   7   8
ENDBRANCH   6   7
ENDBRANCH   5   6
ENDBRANCH   4   5
ENDBRANCH   3   4
ENDBRANCH   2   3
ENDBRANCH   1   2
BRANCH   1  15
ATOM     15  C   UNL     1       8.062 -14.930  21.986  1.00  0.00     0.000 C 
BRANCH  15  16
ATOM     16  C   UNL     1       9.021 -14.552  23.127  1.00  0.00     0.000 C 
BRANCH  16  17
ATOM     17  C   UNL     1      10.263 -13.795  22.627  1.00  0.00     0.000 C 
BRANCH  17  18
ATOM     18  C   UNL     1       9.913 -12.652  21.659  1.00  0.00    -0.000 C 
BRANCH  18  19
ATOM     19  C   UNL     1      10.594 -12.735  20.279  1.00  0.00    -0.000 C 
BRANCH  19  20
ATOM     20  C   UNL     1      11.991 -13.390  20.313  1.00  0.00    -0.000 C 
BRANCH  20  21
ATOM     21  C   UNL     1      12.086 -14.609  19.378  1.00  0.00    -0.000 C 
BRANCH  21  22
ATOM     22  C   UNL     1      12.993 -15.714  19.941  1.00  0.00    -0.000 C 
BRANCH  22  23
ATOM     23  C   UNL     1      12.954 -15.786  21.478  1.00  0.00    -0.000 C 
BRANCH  23  24
ATOM     24  C   UNL     1      12.261 -17.059  21.998  1.00  0.00    -0.000 C 
BRANCH  24  25
ATOM     25  C   UNL     1      12.818 -18.374  21.426  1.00  0.00    -0.003 C 
ATOM     26  C   UNL     1      12.107 -19.612  21.968  1.00  0.00     0.004 C 
ENDBRANCH  24  25
ENDBRANCH  23  24
ENDBRANCH  22  23
ENDBRANCH  21  22
ENDBRANCH  20  21
ENDBRANCH  19  20
ENDBRANCH  18  19
ENDBRANCH  17  18
ENDBRANCH  16  17
ENDBRANCH  15  16
ENDBRANCH   1  15
TORSDOF 22
ENDMDL
MODEL 9
REMARK VINA RESULT:    -2.645      3.326      7.076
REMARK INTER + INTRA:         -10.251
REMARK INTER:                  -5.809
REMARK INTRA:                  -4.441
REMARK UNBOUND:                -4.203
REMARK SMILES CCCCCCCCCCCCCCCCCCCCCCCC(=O)[O-]
REMARK SMILES IDX 13 1 14 2 15 3 16 4 17 5 18 6 19 7 20 8 21 9 22 10 23 11
REMARK SMILES IDX 24 12 25 13 26 14 12 15 11 16 10 17 9 18 8 19 7 20 6 21 5 22
REMARK SMILES IDX 4 23 3 24 2 25 1 26
REMARK H PARENT
REMARK Flexibility Score: inf
ROOT
ATOM      1  C   UNL     1       9.509 -15.497  21.015  1.00  0.00     0.000 C 
ENDROOT
BRANCH   1   2
ATOM      2  C   UNL     1      10.486 -15.919  22.128  1.00  0.00     0.000 C 
BRANCH   2   3
ATOM      3  C   UNL     1      10.139 -17.244  22.835  1.00  0.00     0.000 C 
BRANCH   3   4
ATOM      4  C   UNL     1      11.148 -18.389  22.620  1.00  0.00     0.000 C 
BRANCH   4   5
ATOM      5  C   UNL     1      10.912 -19.232  21.355  1.00  0.00     0.000 C 
BRANCH   5   6
ATOM      6  C   UNL     1      12.037 -19.084  20.321  1.00  0.00     0.000 C 
BRANCH   6   7
ATOM      7  C   UNL     1      11.463 -18.901  18.910  1.00  0.00     0.000 C 
BRANCH   7   8
ATOM      8  C   UNL     1      10.036 -19.457  18.816  1.00  0.00     0.000 C 
BRANCH   8   9
ATOM      9  C   UNL     1       9.033 -18.406  18.293  1.00  0.00     0.000 C 
BRANCH   9  10
ATOM     10  C   UNL     1       7.585 -18.655  18.752  1.00  0.00     0.006 C 
BRANCH  10  11
ATOM     11  C   UNL     1       7.359 -18.428  20.254  1.00  0.00     0.053 C 
BRANCH  11  12
ATOM     12  C   UNL     1       6.748 -19.627  20.913  1.00  0.00     0.041 C 
ATOM     13  O   UNL     1       5.564 -19.585  21.340  1.00  0.00    -0.550 OA
ATOM     14  O   UNL     1       7.484 -20.799  21.042  1.00  0.00    -0.550 OA
ENDBRANCH  11  12
ENDBRANCH  10  11
ENDBRANCH   9  10
ENDBRANCH   8   9
ENDBRANCH   7   8
ENDBRANCH   6   7
ENDBRANCH   5   6
ENDBRANCH   4   5
ENDBRANCH   3   4
ENDBRANCH   2   3
ENDBRANCH   1   2
BRANCH   1  15
ATOM     15  C   UNL     1      10.216 -15.192  19.684  1.00  0.00     0.000 C 
BRANCH  15  16
ATOM     16  C   UNL     1      11.740 -15.380  19.773  1.00  0.00     0.000 C 
BRANCH  16  17
ATOM     17  C   UNL     1      12.512 -14.082  19.484  1.00  0.00     0.000 C 
BRANCH  17  18
ATOM     18  C   UNL     1      11.713 -12.820  19.852  1.00  0.00    -0.000 C 
BRANCH  18  19
ATOM     19  C   UNL     1      12.431 -11.852  20.813  1.00  0.00    -0.000 C 
BRANCH  19  20
ATOM     20  C   UNL     1      13.908 -12.214  21.073  1.00  0.00    -0.000 C 
BRANCH  20  21
ATOM     21  C   UNL     1      14.164 -12.599  22.541  1.00  0.00    -0.000 C 
BRANCH  21  22
ATOM     22  C   UNL     1      13.457 -13.903  22.941  1.00  0.00    -0.000 C 
BRANCH  22  23
ATOM     23  C   UNL     1      14.435 -15.079  23.108  1.00  0.00    -0.000 C 
BRANCH  23  24
ATOM     24  C   UNL     1      14.960 -15.613  21.762  1.00  0.00    -0.000 C 
BRANCH  24  25
ATOM     25  C   UNL     1      14.783 -17.128  21.559  1.00  0.00    -0.003 C 
ATOM     26  C   UNL     1      14.797 -17.914  22.869  1.00  0.00     0.004 C 
ENDBRANCH  24  25
ENDBRANCH  23  24
ENDBRANCH  22  23
ENDBRANCH  21  22
ENDBRANCH  20  21
ENDBRANCH  19  20
ENDBRANCH  18  19
ENDBRANCH  17  18
ENDBRANCH  16  17
ENDBRANCH  15  16
ENDBRANCH   1  15
TORSDOF 22
ENDMDL
