MODEL 1
REMARK VINA RESULT:     2.327      0.000      0.000
REMARK INTER + INTRA:           2.479
REMARK INTER:                   2.803
REMARK INTRA:                  -0.324
REMARK UNBOUND:                -0.324
REMARK SMILES O=c1c(O)c(-c2ccc(O)c(O)c2)oc2cc(O)cc(O)c12
REMARK SMILES IDX 5 1 3 2 2 3 1 4 22 5 20 6 19 7 17 8 16 9 15 10 14 11 6 12
REMARK SMILES IDX 7 13 8 14 9 15 13 16 11 17 10 18 12 20 4 22 21 24 18 26
REMARK H PARENT 10 19 12 21 4 23 21 25 18 27
REMARK Flexibility Score: inf
ROOT
ATOM      1  C   UNL     1       8.324  16.824  37.954  1.00  0.00     0.180 A 
ATOM      2  C   UNL     1       8.570  15.727  38.799  1.00  0.00     0.208 A 
ATOM      3  C   UNL     1       8.455  15.898  40.188  1.00  0.00     0.238 A 
ATOM      4  O   UNL     1       8.624  14.900  40.935  1.00  0.00    -0.285 OA
ATOM      5  C   UNL     1       8.111  17.165  40.716  1.00  0.00     0.111 A 
ATOM      6  C   UNL     1       8.004  17.461  42.108  1.00  0.00     0.134 A 
ATOM      7  C   UNL     1       7.530  18.716  42.513  1.00  0.00     0.093 A 
ATOM      8  C   UNL     1       7.220  19.704  41.580  1.00  0.00     0.123 A 
ATOM      9  C   UNL     1       7.376  19.445  40.218  1.00  0.00     0.094 A 
ATOM     10  C   UNL     1       7.813  18.191  39.781  1.00  0.00     0.146 A 
ATOM     11  O   UNL     1       7.939  17.982  38.476  1.00  0.00    -0.452 OA
ENDROOT
BRANCH   1  12
ATOM     12  C   UNL     1       8.450  16.729  36.481  1.00  0.00     0.025 A 
ATOM     13  C   UNL     1       9.646  17.071  35.825  1.00  0.00     0.016 A 
ATOM     14  C   UNL     1       9.733  16.996  34.433  1.00  0.00     0.051 A 
ATOM     15  C   UNL     1       8.626  16.592  33.675  1.00  0.00     0.157 A 
ATOM     16  C   UNL     1       7.337  16.344  35.716  1.00  0.00     0.062 A 
ATOM     17  C   UNL     1       7.422  16.268  34.321  1.00  0.00     0.158 A 
BRANCH  15  18
ATOM     18  O   UNL     1       8.718  16.517  32.287  1.00  0.00    -0.504 OA
ATOM     19  H   UNL     1       7.907  16.322  31.710  1.00  0.00     0.293 HD
ENDBRANCH  15  18
BRANCH  17  20
ATOM     20  O   UNL     1       6.300  15.869  33.595  1.00  0.00    -0.504 OA
ATOM     21  H   UNL     1       5.380  15.807  34.016  1.00  0.00     0.293 HD
ENDBRANCH  17  20
ENDBRANCH   1  12
BRANCH   2  22
ATOM     22  O   UNL     1       8.888  14.479  38.256  1.00  0.00    -0.502 OA
ATOM     23  H   UNL     1       8.806  13.619  38.784  1.00  0.00     0.293 HD
ENDBRANCH   2  22
BRANCH   6  24
ATOM     24  O   UNL     1       8.376  16.577  43.125  1.00  0.00    -0.507 OA
ATOM     25  H   UNL     1       8.763  15.657  42.973  1.00  0.00     0.293 HD
ENDBRANCH   6  24
BRANCH   8  26
ATOM     26  O   UNL     1       6.765  20.945  42.019  1.00  0.00    -0.508 OA
ATOM     27  H   UNL     1       6.117  21.029  42.795  1.00  0.00     0.293 HD
ENDBRANCH   8  26
TORSDOF 6
ENDMDL
