MODEL 1
REMARK VINA RESULT:    -5.754      0.000      0.000
REMARK INTER + INTRA:         -16.946
REMARK INTER:                 -14.500
REMARK INTRA:                  -2.447
REMARK UNBOUND:                -2.447
REMARK SMILES CCCCCCCCCCCCCCCCCCCCCCCCCCCC(=O)[O-]
REMARK SMILES IDX 15 1 16 2 17 3 18 4 19 5 20 6 21 7 22 8 23 9 24 10 25 11
REMARK SMILES IDX 26 12 27 13 28 14 29 15 30 16 14 17 13 18 12 19 11 20 10 21
REMARK SMILES IDX 9 22 8 23 7 24 6 25 5 26 4 27 3 28 2 29 1 30
REMARK H PARENT
REMARK Flexibility Score: inf
ROOT
ATOM      1  C   UNL     1       3.873 -17.686   0.880  1.00  0.00     0.000 C 
ENDROOT
BRANCH   1   2
ATOM      2  C   UNL     1       3.841 -18.992   1.702  1.00  0.00     0.000 C 
BRANCH   2   3
ATOM      3  C   UNL     1       3.944 -18.802   3.225  1.00  0.00     0.000 C 
BRANCH   3   4
ATOM      4  C   UNL     1       3.489 -17.410   3.686  1.00  0.00     0.000 C 
BRANCH   4   5
ATOM      5  C   UNL     1       4.655 -16.634   4.313  1.00  0.00     0.000 C 
BRANCH   5   6
ATOM      6  C   UNL     1       6.031 -17.125   3.830  1.00  0.00     0.000 C 
BRANCH   6   7
ATOM      7  C   UNL     1       7.206 -16.162   4.102  1.00  0.00     0.000 C 
BRANCH   7   8
ATOM      8  C   UNL     1       6.967 -15.128   5.218  1.00  0.00     0.000 C 
BRANCH   8   9
ATOM      9  C   UNL     1       7.580 -15.549   6.565  1.00  0.00     0.000 C 
BRANCH   9  10
ATOM     10  C   UNL     1       8.568 -14.508   7.116  1.00  0.00     0.000 C 
BRANCH  10  11
ATOM     11  C   UNL     1       8.040 -13.066   7.004  1.00  0.00     0.000 C 
BRANCH  11  12
ATOM     12  C   UNL     1       8.904 -12.194   6.079  1.00  0.00     0.006 C 
BRANCH  12  13
ATOM     13  C   UNL     1      10.077 -12.965   5.462  1.00  0.00     0.053 C 
BRANCH  13  14
ATOM     14  C   UNL     1      10.947 -12.043   4.668  1.00  0.00     0.041 C 
ATOM     15  O   UNL     1      11.405 -10.994   5.194  1.00  0.00    -0.550 OA
ATOM     16  O   UNL     1      11.295 -12.366   3.362  1.00  0.00    -0.550 OA
ENDBRANCH  13  14
ENDBRANCH  12  13
ENDBRANCH  11  12
ENDBRANCH  10  11
ENDBRANCH   9  10
ENDBRANCH   8   9
ENDBRANCH   7   8
ENDBRANCH   6   7
ENDBRANCH   5   6
ENDBRANCH   4   5
ENDBRANCH   3   4
ENDBRANCH   2   3
ENDBRANCH   1   2
BRANCH   1  17
ATOM     17  C   UNL     1       3.664 -17.859  -0.636  1.00  0.00     0.000 C 
BRANCH  17  18
ATOM     18  C   UNL     1       3.132 -16.612  -1.370  1.00  0.00     0.000 C 
BRANCH  18  19
ATOM     19  C   UNL     1       2.321 -16.931  -2.647  1.00  0.00     0.000 C 
BRANCH  19  20
ATOM     20  C   UNL     1       2.394 -18.400  -3.115  1.00  0.00     0.000 C 
BRANCH  20  21
ATOM     21  C   UNL     1       3.229 -18.646  -4.386  1.00  0.00     0.000 C 
BRANCH  21  22
ATOM     22  C   UNL     1       4.704 -18.245  -4.226  1.00  0.00    -0.000 C 
BRANCH  22  23
ATOM     23  C   UNL     1       5.138 -17.299  -5.356  1.00  0.00    -0.000 C 
BRANCH  23  24
ATOM     24  C   UNL     1       5.663 -15.946  -4.840  1.00  0.00    -0.000 C 
BRANCH  24  25
ATOM     25  C   UNL     1       4.994 -14.708  -5.467  1.00  0.00    -0.000 C 
BRANCH  25  26
ATOM     26  C   UNL     1       4.080 -15.006  -6.671  1.00  0.00    -0.000 C 
BRANCH  26  27
ATOM     27  C   UNL     1       4.605 -14.431  -8.006  1.00  0.00    -0.000 C 
BRANCH  27  28
ATOM     28  C   UNL     1       6.123 -14.162  -8.023  1.00  0.00    -0.000 C 
BRANCH  28  29
ATOM     29  C   UNL     1       6.947 -15.177  -8.838  1.00  0.00    -0.003 C 
ATOM     30  C   UNL     1       7.555 -16.285  -7.976  1.00  0.00     0.004 C 
ENDBRANCH  28  29
ENDBRANCH  27  28
ENDBRANCH  26  27
ENDBRANCH  25  26
ENDBRANCH  24  25
ENDBRANCH  23  24
ENDBRANCH  22  23
ENDBRANCH  21  22
ENDBRANCH  20  21
ENDBRANCH  19  20
ENDBRANCH  18  19
ENDBRANCH  17  18
ENDBRANCH   1  17
TORSDOF 26
ENDMDL
MODEL 2
REMARK VINA RESULT:    -5.650      5.045     10.642
REMARK INTER + INTRA:         -16.684
REMARK INTER:                 -14.951
REMARK INTRA:                  -1.733
REMARK UNBOUND:                -2.447
REMARK SMILES CCCCCCCCCCCCCCCCCCCCCCCCCCCC(=O)[O-]
REMARK SMILES IDX 15 1 16 2 17 3 18 4 19 5 20 6 21 7 22 8 23 9 24 10 25 11
REMARK SMILES IDX 26 12 27 13 28 14 29 15 30 16 14 17 13 18 12 19 11 20 10 21
REMARK SMILES IDX 9 22 8 23 7 24 6 25 5 26 4 27 3 28 2 29 1 30
REMARK H PARENT
REMARK Flexibility Score: inf
ROOT
ATOM      1  C   UNL     1       7.998 -13.033   7.027  1.00  0.00     0.000 C 
ENDROOT
BRANCH   1   2
ATOM      2  C   UNL     1       8.721 -14.393   7.128  1.00  0.00     0.000 C 
BRANCH   2   3
ATOM      3  C   UNL     1       7.966 -15.577   6.500  1.00  0.00     0.000 C 
BRANCH   3   4
ATOM      4  C   UNL     1       7.662 -15.369   5.009  1.00  0.00     0.000 C 
BRANCH   4   5
ATOM      5  C   UNL     1       7.077 -16.645   4.388  1.00  0.00     0.000 C 
BRANCH   5   6
ATOM      6  C   UNL     1       5.781 -16.387   3.599  1.00  0.00     0.000 C 
BRANCH   6   7
ATOM      7  C   UNL     1       4.484 -16.419   4.436  1.00  0.00     0.000 C 
BRANCH   7   8
ATOM      8  C   UNL     1       3.430 -17.446   3.982  1.00  0.00     0.000 C 
BRANCH   8   9
ATOM      9  C   UNL     1       4.054 -18.708   3.362  1.00  0.00     0.000 C 
BRANCH   9  10
ATOM     10  C   UNL     1       3.477 -19.034   1.975  1.00  0.00     0.000 C 
BRANCH  10  11
ATOM     11  C   UNL     1       4.288 -18.402   0.829  1.00  0.00     0.000 C 
BRANCH  11  12
ATOM     12  C   UNL     1       3.390 -17.820  -0.275  1.00  0.00     0.006 C 
BRANCH  12  13
ATOM     13  C   UNL     1       3.927 -18.096  -1.685  1.00  0.00     0.053 C 
BRANCH  13  14
ATOM     14  C   UNL     1       2.833 -17.965  -2.695  1.00  0.00     0.041 C 
ATOM     15  O   UNL     1       2.015 -17.010  -2.623  1.00  0.00    -0.550 OA
ATOM     16  O   UNL     1       2.744 -18.869  -3.747  1.00  0.00    -0.550 OA
ENDBRANCH  13  14
ENDBRANCH  12  13
ENDBRANCH  11  12
ENDBRANCH  10  11
ENDBRANCH   9  10
ENDBRANCH   8   9
ENDBRANCH   7   8
ENDBRANCH   6   7
ENDBRANCH   5   6
ENDBRANCH   4   5
ENDBRANCH   3   4
ENDBRANCH   2   3
ENDBRANCH   1   2
BRANCH   1  17
ATOM     17  C   UNL     1       8.625 -12.028   6.043  1.00  0.00     0.000 C 
BRANCH  17  18
ATOM     18  C   UNL     1       9.986 -12.451   5.454  1.00  0.00     0.000 C 
BRANCH  18  19
ATOM     19  C   UNL     1      10.683 -11.348   4.624  1.00  0.00     0.000 C 
BRANCH  19  20
ATOM     20  C   UNL     1      12.139 -11.046   5.034  1.00  0.00     0.000 C 
BRANCH  20  21
ATOM     21  C   UNL     1      12.631  -9.621   4.718  1.00  0.00     0.000 C 
BRANCH  21  22
ATOM     22  C   UNL     1      11.582  -8.767   3.991  1.00  0.00    -0.000 C 
BRANCH  22  23
ATOM     23  C   UNL     1      12.217  -8.003   2.818  1.00  0.00    -0.000 C 
BRANCH  23  24
ATOM     24  C   UNL     1      12.270  -8.828   1.519  1.00  0.00    -0.000 C 
BRANCH  24  25
ATOM     25  C   UNL     1      13.345  -8.382   0.509  1.00  0.00    -0.000 C 
BRANCH  25  26
ATOM     26  C   UNL     1      13.776  -9.467  -0.497  1.00  0.00    -0.000 C 
BRANCH  26  27
ATOM     27  C   UNL     1      13.599  -9.049  -1.974  1.00  0.00    -0.000 C 
BRANCH  27  28
ATOM     28  C   UNL     1      13.821  -7.546  -2.235  1.00  0.00    -0.000 C 
BRANCH  28  29
ATOM     29  C   UNL     1      12.737  -6.876  -3.101  1.00  0.00    -0.003 C 
ATOM     30  C   UNL     1      11.389  -6.756  -2.388  1.00  0.00     0.004 C 
ENDBRANCH  28  29
ENDBRANCH  27  28
ENDBRANCH  26  27
ENDBRANCH  25  26
ENDBRANCH  24  25
ENDBRANCH  23  24
ENDBRANCH  22  23
ENDBRANCH  21  22
ENDBRANCH  20  21
ENDBRANCH  19  20
ENDBRANCH  18  19
ENDBRANCH  17  18
ENDBRANCH   1  17
TORSDOF 26
ENDMDL
MODEL 3
REMARK VINA RESULT:    -5.643      2.226      5.923
REMARK INTER + INTRA:         -16.666
REMARK INTER:                 -14.491
REMARK INTRA:                  -2.175
REMARK UNBOUND:                -2.447
REMARK SMILES CCCCCCCCCCCCCCCCCCCCCCCCCCCC(=O)[O-]
REMARK SMILES IDX 15 1 16 2 17 3 18 4 19 5 20 6 21 7 22 8 23 9 24 10 25 11
REMARK SMILES IDX 26 12 27 13 28 14 29 15 30 16 14 17 13 18 12 19 11 20 10 21
REMARK SMILES IDX 9 22 8 23 7 24 6 25 5 26 4 27 3 28 2 29 1 30
REMARK H PARENT
REMARK Flexibility Score: inf
ROOT
ATOM      1  C   UNL     1       7.521 -16.046   4.768  1.00  0.00     0.000 C 
ENDROOT
BRANCH   1   2
ATOM      2  C   UNL     1       7.233 -15.802   6.264  1.00  0.00     0.000 C 
BRANCH   2   3
ATOM      3  C   UNL     1       8.406 -15.208   7.062  1.00  0.00     0.000 C 
BRANCH   3   4
ATOM      4  C   UNL     1       9.271 -14.251   6.230  1.00  0.00     0.000 C 
BRANCH   4   5
ATOM      5  C   UNL     1       8.687 -12.830   6.249  1.00  0.00     0.000 C 
BRANCH   5   6
ATOM      6  C   UNL     1       9.616 -11.792   5.594  1.00  0.00     0.000 C 
BRANCH   6   7
ATOM      7  C   UNL     1      10.316 -12.260   4.300  1.00  0.00     0.000 C 
BRANCH   7   8
ATOM      8  C   UNL     1      11.691 -11.623   4.026  1.00  0.00     0.000 C 
BRANCH   8   9
ATOM      9  C   UNL     1      12.189 -10.750   5.191  1.00  0.00     0.000 C 
BRANCH   9  10
ATOM     10  C   UNL     1      12.908  -9.478   4.713  1.00  0.00     0.000 C 
BRANCH  10  11
ATOM     11  C   UNL     1      11.963  -8.488   4.009  1.00  0.00     0.000 C 
BRANCH  11  12
ATOM     12  C   UNL     1      12.450  -8.111   2.600  1.00  0.00     0.006 C 
BRANCH  12  13
ATOM     13  C   UNL     1      11.837  -8.994   1.505  1.00  0.00     0.053 C 
BRANCH  13  14
ATOM     14  C   UNL     1      12.910  -9.740   0.777  1.00  0.00     0.041 C 
ATOM     15  O   UNL     1      13.923  -9.131   0.344  1.00  0.00    -0.550 OA
ATOM     16  O   UNL     1      12.816 -11.118   0.619  1.00  0.00    -0.550 OA
ENDBRANCH  13  14
ENDBRANCH  12  13
ENDBRANCH  11  12
ENDBRANCH  10  11
ENDBRANCH   9  10
ENDBRANCH   8   9
ENDBRANCH   7   8
ENDBRANCH   6   7
ENDBRANCH   5   6
ENDBRANCH   4   5
ENDBRANCH   3   4
ENDBRANCH   2   3
ENDBRANCH   1   2
BRANCH   1  17
ATOM     17  C   UNL     1       6.340 -16.608   3.955  1.00  0.00     0.000 C 
BRANCH  17  18
ATOM     18  C   UNL     1       4.955 -16.050   4.342  1.00  0.00     0.000 C 
BRANCH  18  19
ATOM     19  C   UNL     1       3.781 -17.002   4.019  1.00  0.00     0.000 C 
BRANCH  19  20
ATOM     20  C   UNL     1       4.189 -18.452   3.688  1.00  0.00     0.000 C 
BRANCH  20  21
ATOM     21  C   UNL     1       3.813 -18.938   2.275  1.00  0.00     0.000 C 
BRANCH  21  22
ATOM     22  C   UNL     1       3.798 -17.809   1.232  1.00  0.00    -0.000 C 
BRANCH  22  23
ATOM     23  C   UNL     1       4.879 -18.038   0.165  1.00  0.00    -0.000 C 
BRANCH  23  24
ATOM     24  C   UNL     1       4.296 -18.273  -1.242  1.00  0.00    -0.000 C 
BRANCH  24  25
ATOM     25  C   UNL     1       2.835 -17.821  -1.424  1.00  0.00    -0.000 C 
BRANCH  25  26
ATOM     26  C   UNL     1       2.380 -17.677  -2.889  1.00  0.00    -0.000 C 
BRANCH  26  27
ATOM     27  C   UNL     1       2.922 -18.786  -3.819  1.00  0.00    -0.000 C 
BRANCH  27  28
ATOM     28  C   UNL     1       3.815 -18.267  -4.964  1.00  0.00    -0.000 C 
BRANCH  28  29
ATOM     29  C   UNL     1       4.566 -16.959  -4.652  1.00  0.00    -0.003 C 
ATOM     30  C   UNL     1       4.519 -15.951  -5.802  1.00  0.00     0.004 C 
ENDBRANCH  28  29
ENDBRANCH  27  28
ENDBRANCH  26  27
ENDBRANCH  25  26
ENDBRANCH  24  25
ENDBRANCH  23  24
ENDBRANCH  22  23
ENDBRANCH  21  22
ENDBRANCH  20  21
ENDBRANCH  19  20
ENDBRANCH  18  19
ENDBRANCH  17  18
ENDBRANCH   1  17
TORSDOF 26
ENDMDL
MODEL 4
REMARK VINA RESULT:    -5.606      6.339     14.262
REMARK INTER + INTRA:         -16.574
REMARK INTER:                 -14.213
REMARK INTRA:                  -2.361
REMARK UNBOUND:                -2.447
REMARK SMILES CCCCCCCCCCCCCCCCCCCCCCCCCCCC(=O)[O-]
REMARK SMILES IDX 15 1 16 2 17 3 18 4 19 5 20 6 21 7 22 8 23 9 24 10 25 11
REMARK SMILES IDX 26 12 27 13 28 14 29 15 30 16 14 17 13 18 12 19 11 20 10 21
REMARK SMILES IDX 9 22 8 23 7 24 6 25 5 26 4 27 3 28 2 29 1 30
REMARK H PARENT
REMARK Flexibility Score: inf
ROOT
ATOM      1  C   UNL     1      13.014  -9.304  -3.836  1.00  0.00     0.000 C 
ENDROOT
BRANCH   1   2
ATOM      2  C   UNL     1      12.303 -10.093  -4.956  1.00  0.00     0.000 C 
BRANCH   2   3
ATOM      3  C   UNL     1      11.750  -9.231  -6.105  1.00  0.00     0.000 C 
BRANCH   3   4
ATOM      4  C   UNL     1      12.351  -9.599  -7.469  1.00  0.00     0.000 C 
BRANCH   4   5
ATOM      5  C   UNL     1      11.291 -10.236  -8.379  1.00  0.00     0.000 C 
BRANCH   5   6
ATOM      6  C   UNL     1       9.898  -9.605  -8.209  1.00  0.00     0.000 C 
BRANCH   6   7
ATOM      7  C   UNL     1       8.753 -10.603  -7.935  1.00  0.00     0.000 C 
BRANCH   7   8
ATOM      8  C   UNL     1       8.444 -10.862  -6.448  1.00  0.00     0.000 C 
BRANCH   8   9
ATOM      9  C   UNL     1       9.057 -12.174  -5.930  1.00  0.00     0.000 C 
BRANCH   9  10
ATOM     10  C   UNL     1       9.374 -13.167  -7.060  1.00  0.00     0.000 C 
BRANCH  10  11
ATOM     11  C   UNL     1       8.268 -14.221  -7.255  1.00  0.00     0.000 C 
BRANCH  11  12
ATOM     12  C   UNL     1       7.583 -14.108  -8.627  1.00  0.00     0.006 C 
BRANCH  12  13
ATOM     13  C   UNL     1       6.447 -15.122  -8.808  1.00  0.00     0.053 C 
BRANCH  13  14
ATOM     14  C   UNL     1       5.377 -14.894  -7.789  1.00  0.00     0.041 C 
ATOM     15  O   UNL     1       5.301 -15.633  -6.772  1.00  0.00    -0.550 OA
ATOM     16  O   UNL     1       4.492 -13.832  -7.935  1.00  0.00    -0.550 OA
ENDBRANCH  13  14
ENDBRANCH  12  13
ENDBRANCH  11  12
ENDBRANCH  10  11
ENDBRANCH   9  10
ENDBRANCH   8   9
ENDBRANCH   7   8
ENDBRANCH   6   7
ENDBRANCH   5   6
ENDBRANCH   4   5
ENDBRANCH   3   4
ENDBRANCH   2   3
ENDBRANCH   1   2
BRANCH   1  17
ATOM     17  C   UNL     1      12.545  -7.848  -3.659  1.00  0.00     0.000 C 
BRANCH  17  18
ATOM     18  C   UNL     1      13.436  -6.980  -2.747  1.00  0.00     0.000 C 
BRANCH  18  19
ATOM     19  C   UNL     1      14.642  -7.735  -2.142  1.00  0.00     0.000 C 
BRANCH  19  20
ATOM     20  C   UNL     1      14.386  -8.368  -0.758  1.00  0.00     0.000 C 
BRANCH  20  21
ATOM     21  C   UNL     1      12.971  -8.156  -0.187  1.00  0.00     0.000 C 
BRANCH  21  22
ATOM     22  C   UNL     1      12.090  -9.412  -0.274  1.00  0.00    -0.000 C 
BRANCH  22  23
ATOM     23  C   UNL     1      12.586 -10.494   0.697  1.00  0.00    -0.000 C 
BRANCH  23  24
ATOM     24  C   UNL     1      12.804  -9.967   2.128  1.00  0.00    -0.000 C 
BRANCH  24  25
ATOM     25  C   UNL     1      13.863 -10.728   2.947  1.00  0.00    -0.000 C 
BRANCH  25  26
ATOM     26  C   UNL     1      14.105 -10.175   4.365  1.00  0.00    -0.000 C 
BRANCH  26  27
ATOM     27  C   UNL     1      12.805  -9.895   5.153  1.00  0.00    -0.000 C 
BRANCH  27  28
ATOM     28  C   UNL     1      11.960 -11.152   5.439  1.00  0.00    -0.000 C 
BRANCH  28  29
ATOM     29  C   UNL     1      10.563 -11.149   4.790  1.00  0.00    -0.003 C 
ATOM     30  C   UNL     1       9.547 -12.004   5.550  1.00  0.00     0.004 C 
ENDBRANCH  28  29
ENDBRANCH  27  28
ENDBRANCH  26  27
ENDBRANCH  25  26
ENDBRANCH  24  25
ENDBRANCH  23  24
ENDBRANCH  22  23
ENDBRANCH  21  22
ENDBRANCH  20  21
ENDBRANCH  19  20
ENDBRANCH  18  19
ENDBRANCH  17  18
ENDBRANCH   1  17
TORSDOF 26
ENDMDL
MODEL 5
REMARK VINA RESULT:    -5.568      5.653      9.657
REMARK INTER + INTRA:         -16.478
REMARK INTER:                 -13.691
REMARK INTRA:                  -2.787
REMARK UNBOUND:                -2.447
REMARK SMILES CCCCCCCCCCCCCCCCCCCCCCCCCCCC(=O)[O-]
REMARK SMILES IDX 15 1 16 2 17 3 18 4 19 5 20 6 21 7 22 8 23 9 24 10 25 11
REMARK SMILES IDX 26 12 27 13 28 14 29 15 30 16 14 17 13 18 12 19 11 20 10 21
REMARK SMILES IDX 9 22 8 23 7 24 6 25 5 26 4 27 3 28 2 29 1 30
REMARK H PARENT
REMARK Flexibility Score: inf
ROOT
ATOM      1  C   UNL     1      11.839 -10.126   0.013  1.00  0.00     0.000 C 
ENDROOT
BRANCH   1   2
ATOM      2  C   UNL     1      10.947 -10.221   1.269  1.00  0.00     0.000 C 
BRANCH   2   3
ATOM      3  C   UNL     1      10.154  -8.945   1.599  1.00  0.00     0.000 C 
BRANCH   3   4
ATOM      4  C   UNL     1      10.424  -8.424   3.017  1.00  0.00     0.000 C 
BRANCH   4   5
ATOM      5  C   UNL     1      11.891  -7.998   3.173  1.00  0.00     0.000 C 
BRANCH   5   6
ATOM      6  C   UNL     1      12.605  -8.721   4.329  1.00  0.00     0.000 C 
BRANCH   6   7
ATOM      7  C   UNL     1      12.660 -10.259   4.209  1.00  0.00     0.000 C 
BRANCH   7   8
ATOM      8  C   UNL     1      11.990 -11.035   5.358  1.00  0.00     0.000 C 
BRANCH   8   9
ATOM      9  C   UNL     1      10.536 -11.431   5.045  1.00  0.00     0.000 C 
BRANCH   9  10
ATOM     10  C   UNL     1      10.289 -12.941   5.190  1.00  0.00     0.000 C 
BRANCH  10  11
ATOM     11  C   UNL     1       9.084 -13.264   6.093  1.00  0.00     0.000 C 
BRANCH  11  12
ATOM     12  C   UNL     1       9.146 -14.688   6.669  1.00  0.00     0.006 C 
BRANCH  12  13
ATOM     13  C   UNL     1       7.775 -15.373   6.706  1.00  0.00     0.053 C 
BRANCH  13  14
ATOM     14  C   UNL     1       7.327 -15.719   5.322  1.00  0.00     0.041 C 
ATOM     15  O   UNL     1       8.176 -15.964   4.424  1.00  0.00    -0.550 OA
ATOM     16  O   UNL     1       5.972 -15.821   5.033  1.00  0.00    -0.550 OA
ENDBRANCH  13  14
ENDBRANCH  12  13
ENDBRANCH  11  12
ENDBRANCH  10  11
ENDBRANCH   9  10
ENDBRANCH   8   9
ENDBRANCH   7   8
ENDBRANCH   6   7
ENDBRANCH   5   6
ENDBRANCH   4   5
ENDBRANCH   3   4
ENDBRANCH   2   3
ENDBRANCH   1   2
BRANCH   1  17
ATOM     17  C   UNL     1      13.281  -9.646   0.266  1.00  0.00     0.000 C 
BRANCH  17  18
ATOM     18  C   UNL     1      13.533  -8.152  -0.016  1.00  0.00     0.000 C 
BRANCH  18  19
ATOM     19  C   UNL     1      14.750  -7.880  -0.930  1.00  0.00     0.000 C 
BRANCH  19  20
ATOM     20  C   UNL     1      14.427  -7.787  -2.435  1.00  0.00     0.000 C 
BRANCH  20  21
ATOM     21  C   UNL     1      13.134  -7.026  -2.787  1.00  0.00     0.000 C 
BRANCH  21  22
ATOM     22  C   UNL     1      12.126  -7.879  -3.572  1.00  0.00    -0.000 C 
BRANCH  22  23
ATOM     23  C   UNL     1      12.537  -9.359  -3.561  1.00  0.00    -0.000 C 
BRANCH  23  24
ATOM     24  C   UNL     1      12.355 -10.046  -4.928  1.00  0.00    -0.000 C 
BRANCH  24  25
ATOM     25  C   UNL     1      11.870  -9.121  -6.060  1.00  0.00    -0.000 C 
BRANCH  25  26
ATOM     26  C   UNL     1      12.319  -9.538  -7.474  1.00  0.00    -0.000 C 
BRANCH  26  27
ATOM     27  C   UNL     1      11.169 -10.068  -8.360  1.00  0.00    -0.000 C 
BRANCH  27  28
ATOM     28  C   UNL     1       9.761  -9.710  -7.845  1.00  0.00    -0.000 C 
BRANCH  28  29
ATOM     29  C   UNL     1       8.885 -10.920  -7.472  1.00  0.00    -0.003 C 
ATOM     30  C   UNL     1       8.638 -11.040  -5.967  1.00  0.00     0.004 C 
ENDBRANCH  28  29
ENDBRANCH  27  28
ENDBRANCH  26  27
ENDBRANCH  25  26
ENDBRANCH  24  25
ENDBRANCH  23  24
ENDBRANCH  22  23
ENDBRANCH  21  22
ENDBRANCH  20  21
ENDBRANCH  19  20
ENDBRANCH  18  19
ENDBRANCH  17  18
ENDBRANCH   1  17
TORSDOF 26
ENDMDL
MODEL 6
REMARK VINA RESULT:    -5.547      4.868     10.812
REMARK INTER + INTRA:         -16.425
REMARK INTER:                 -14.529
REMARK INTRA:                  -1.896
REMARK UNBOUND:                -2.447
REMARK SMILES CCCCCCCCCCCCCCCCCCCCCCCCCCCC(=O)[O-]
REMARK SMILES IDX 15 1 16 2 17 3 18 4 19 5 20 6 21 7 22 8 23 9 24 10 25 11
REMARK SMILES IDX 26 12 27 13 28 14 29 15 30 16 14 17 13 18 12 19 11 20 10 21
REMARK SMILES IDX 9 22 8 23 7 24 6 25 5 26 4 27 3 28 2 29 1 30
REMARK H PARENT
REMARK Flexibility Score: inf
ROOT
ATOM      1  C   UNL     1      10.607 -11.108   4.723  1.00  0.00     0.000 C 
ENDROOT
BRANCH   1   2
ATOM      2  C   UNL     1      12.114 -11.126   5.055  1.00  0.00     0.000 C 
BRANCH   2   3
ATOM      3  C   UNL     1      12.974 -10.164   4.217  1.00  0.00     0.000 C 
BRANCH   3   4
ATOM      4  C   UNL     1      12.507  -8.704   4.317  1.00  0.00     0.000 C 
BRANCH   4   5
ATOM      5  C   UNL     1      12.264  -8.112   2.921  1.00  0.00     0.000 C 
BRANCH   5   6
ATOM      6  C   UNL     1      12.290  -9.173   1.807  1.00  0.00     0.000 C 
BRANCH   6   7
ATOM      7  C   UNL     1      12.529  -8.626   0.384  1.00  0.00     0.000 C 
BRANCH   7   8
ATOM      8  C   UNL     1      13.898  -8.967  -0.233  1.00  0.00     0.000 C 
BRANCH   8   9
ATOM      9  C   UNL     1      14.595  -7.744  -0.856  1.00  0.00     0.000 C 
BRANCH   9  10
ATOM     10  C   UNL     1      14.409  -7.670  -2.381  1.00  0.00     0.000 C 
BRANCH  10  11
ATOM     11  C   UNL     1      13.097  -6.976  -2.788  1.00  0.00     0.000 C 
BRANCH  11  12
ATOM     12  C   UNL     1      12.284  -7.802  -3.798  1.00  0.00     0.006 C 
BRANCH  12  13
ATOM     13  C   UNL     1      12.775  -9.250  -3.912  1.00  0.00     0.053 C 
BRANCH  13  14
ATOM     14  C   UNL     1      11.751 -10.193  -3.367  1.00  0.00     0.041 C 
ATOM     15  O   UNL     1      12.050 -10.982  -2.432  1.00  0.00    -0.550 OA
ATOM     16  O   UNL     1      10.450 -10.167  -3.855  1.00  0.00    -0.550 OA
ENDBRANCH  13  14
ENDBRANCH  12  13
ENDBRANCH  11  12
ENDBRANCH  10  11
ENDBRANCH   9  10
ENDBRANCH   8   9
ENDBRANCH   7   8
ENDBRANCH   6   7
ENDBRANCH   5   6
ENDBRANCH   4   5
ENDBRANCH   3   4
ENDBRANCH   2   3
ENDBRANCH   1   2
BRANCH   1  17
ATOM     17  C   UNL     1       9.784 -12.251   5.347  1.00  0.00     0.000 C 
BRANCH  17  18
ATOM     18  C   UNL     1       8.653 -11.801   6.293  1.00  0.00     0.000 C 
BRANCH  18  19
ATOM     19  C   UNL     1       7.991 -12.958   7.078  1.00  0.00     0.000 C 
BRANCH  19  20
ATOM     20  C   UNL     1       8.750 -14.300   7.022  1.00  0.00     0.000 C 
BRANCH  20  21
ATOM     21  C   UNL     1       7.886 -15.533   6.695  1.00  0.00     0.000 C 
BRANCH  21  22
ATOM     22  C   UNL     1       7.014 -15.345   5.445  1.00  0.00    -0.000 C 
BRANCH  22  23
ATOM     23  C   UNL     1       7.186 -16.526   4.477  1.00  0.00    -0.000 C 
BRANCH  23  24
ATOM     24  C   UNL     1       5.945 -16.770   3.597  1.00  0.00    -0.000 C 
BRANCH  24  25
ATOM     25  C   UNL     1       4.596 -16.478   4.281  1.00  0.00    -0.000 C 
BRANCH  25  26
ATOM     26  C   UNL     1       3.453 -17.436   3.892  1.00  0.00    -0.000 C 
BRANCH  26  27
ATOM     27  C   UNL     1       3.858 -18.491   2.838  1.00  0.00    -0.000 C 
BRANCH  27  28
ATOM     28  C   UNL     1       3.604 -18.055   1.381  1.00  0.00    -0.000 C 
BRANCH  28  29
ATOM     29  C   UNL     1       4.666 -18.533   0.372  1.00  0.00    -0.003 C 
ATOM     30  C   UNL     1       4.796 -17.611  -0.842  1.00  0.00     0.004 C 
ENDBRANCH  28  29
ENDBRANCH  27  28
ENDBRANCH  26  27
ENDBRANCH  25  26
ENDBRANCH  24  25
ENDBRANCH  23  24
ENDBRANCH  22  23
ENDBRANCH  21  22
ENDBRANCH  20  21
ENDBRANCH  19  20
ENDBRANCH  18  19
ENDBRANCH  17  18
ENDBRANCH   1  17
TORSDOF 26
ENDMDL
MODEL 7
REMARK VINA RESULT:    -5.526      5.232      9.942
REMARK INTER + INTRA:         -16.371
REMARK INTER:                 -14.533
REMARK INTRA:                  -1.838
REMARK UNBOUND:                -2.447
REMARK SMILES CCCCCCCCCCCCCCCCCCCCCCCCCCCC(=O)[O-]
REMARK SMILES IDX 15 1 16 2 17 3 18 4 19 5 20 6 21 7 22 8 23 9 24 10 25 11
REMARK SMILES IDX 26 12 27 13 28 14 29 15 30 16 14 17 13 18 12 19 11 20 10 21
REMARK SMILES IDX 9 22 8 23 7 24 6 25 5 26 4 27 3 28 2 29 1 30
REMARK H PARENT
REMARK Flexibility Score: inf
ROOT
ATOM      1  C   UNL     1       6.268 -14.834  -8.727  1.00  0.00     0.000 C 
ENDROOT
BRANCH   1   2
ATOM      2  C   UNL     1       5.164 -14.250  -7.819  1.00  0.00     0.000 C 
BRANCH   2   3
ATOM      3  C   UNL     1       4.472 -15.272  -6.902  1.00  0.00     0.000 C 
BRANCH   3   4
ATOM      4  C   UNL     1       5.188 -15.448  -5.555  1.00  0.00     0.000 C 
BRANCH   4   5
ATOM      5  C   UNL     1       4.311 -16.233  -4.568  1.00  0.00     0.000 C 
BRANCH   5   6
ATOM      6  C   UNL     1       4.105 -17.700  -4.986  1.00  0.00     0.000 C 
BRANCH   6   7
ATOM      7  C   UNL     1       3.152 -18.511  -4.083  1.00  0.00     0.000 C 
BRANCH   7   8
ATOM      8  C   UNL     1       2.532 -17.732  -2.908  1.00  0.00     0.000 C 
BRANCH   8   9
ATOM      9  C   UNL     1       3.106 -18.150  -1.544  1.00  0.00     0.000 C 
BRANCH   9  10
ATOM     10  C   UNL     1       4.122 -17.136  -0.993  1.00  0.00     0.000 C 
BRANCH  10  11
ATOM     11  C   UNL     1       4.061 -17.004   0.540  1.00  0.00     0.000 C 
BRANCH  11  12
ATOM     12  C   UNL     1       3.647 -18.315   1.227  1.00  0.00     0.006 C 
BRANCH  12  13
ATOM     13  C   UNL     1       4.653 -18.771   2.291  1.00  0.00     0.053 C 
BRANCH  13  14
ATOM     14  C   UNL     1       4.658 -17.821   3.446  1.00  0.00     0.041 C 
ATOM     15  O   UNL     1       5.746 -17.371   3.892  1.00  0.00    -0.550 OA
ATOM     16  O   UNL     1       3.457 -17.390   3.998  1.00  0.00    -0.550 OA
ENDBRANCH  13  14
ENDBRANCH  12  13
ENDBRANCH  11  12
ENDBRANCH  10  11
ENDBRANCH   9  10
ENDBRANCH   8   9
ENDBRANCH   7   8
ENDBRANCH   6   7
ENDBRANCH   5   6
ENDBRANCH   4   5
ENDBRANCH   3   4
ENDBRANCH   2   3
ENDBRANCH   1   2
BRANCH   1  17
ATOM     17  C   UNL     1       7.669 -14.222  -8.533  1.00  0.00     0.000 C 
BRANCH  17  18
ATOM     18  C   UNL     1       7.771 -13.162  -7.419  1.00  0.00     0.000 C 
BRANCH  18  19
ATOM     19  C   UNL     1       8.573 -11.902  -7.821  1.00  0.00     0.000 C 
BRANCH  19  20
ATOM     20  C   UNL     1       8.537 -10.752  -6.794  1.00  0.00     0.000 C 
BRANCH  20  21
ATOM     21  C   UNL     1       9.408  -9.530  -7.142  1.00  0.00     0.000 C 
BRANCH  21  22
ATOM     22  C   UNL     1      10.594  -9.873  -8.056  1.00  0.00    -0.000 C 
BRANCH  22  23
ATOM     23  C   UNL     1      11.924  -9.736  -7.300  1.00  0.00    -0.000 C 
BRANCH  23  24
ATOM     24  C   UNL     1      11.959 -10.546  -5.991  1.00  0.00    -0.000 C 
BRANCH  24  25
ATOM     25  C   UNL     1      12.535  -9.794  -4.776  1.00  0.00    -0.000 C 
BRANCH  25  26
ATOM     26  C   UNL     1      12.091  -8.324  -4.655  1.00  0.00    -0.000 C 
BRANCH  26  27
ATOM     27  C   UNL     1      12.010  -7.818  -3.197  1.00  0.00    -0.000 C 
BRANCH  27  28
ATOM     28  C   UNL     1      13.175  -6.897  -2.784  1.00  0.00    -0.000 C 
BRANCH  28  29
ATOM     29  C   UNL     1      14.419  -7.633  -2.251  1.00  0.00    -0.003 C 
ATOM     30  C   UNL     1      14.098  -8.611  -1.119  1.00  0.00     0.004 C 
ENDBRANCH  28  29
ENDBRANCH  27  28
ENDBRANCH  26  27
ENDBRANCH  25  26
ENDBRANCH  24  25
ENDBRANCH  23  24
ENDBRANCH  22  23
ENDBRANCH  21  22
ENDBRANCH  20  21
ENDBRANCH  19  20
ENDBRANCH  18  19
ENDBRANCH  17  18
ENDBRANCH   1  17
TORSDOF 26
ENDMDL
MODEL 8
REMARK VINA RESULT:    -5.504      5.426     10.269
REMARK INTER + INTRA:         -16.316
REMARK INTER:                 -12.656
REMARK INTRA:                  -3.660
REMARK UNBOUND:                -2.447
REMARK SMILES CCCCCCCCCCCCCCCCCCCCCCCCCCCC(=O)[O-]
REMARK SMILES IDX 15 1 16 2 17 3 18 4 19 5 20 6 21 7 22 8 23 9 24 10 25 11
REMARK SMILES IDX 26 12 27 13 28 14 29 15 30 16 14 17 13 18 12 19 11 20 10 21
REMARK SMILES IDX 9 22 8 23 7 24 6 25 5 26 4 27 3 28 2 29 1 30
REMARK H PARENT
REMARK Flexibility Score: inf
ROOT
ATOM      1  C   UNL     1      11.616 -11.443   5.139  1.00  0.00     0.000 C 
ENDROOT
BRANCH   1   2
ATOM      2  C   UNL     1      12.558 -11.346   3.920  1.00  0.00     0.000 C 
BRANCH   2   3
ATOM      3  C   UNL     1      13.398 -10.059   3.851  1.00  0.00     0.000 C 
BRANCH   3   4
ATOM      4  C   UNL     1      12.651  -8.829   4.384  1.00  0.00     0.000 C 
BRANCH   4   5
ATOM      5  C   UNL     1      11.906  -8.108   3.251  1.00  0.00     0.000 C 
BRANCH   5   6
ATOM      6  C   UNL     1      10.387  -8.352   3.282  1.00  0.00     0.000 C 
BRANCH   6   7
ATOM      7  C   UNL     1       9.784  -8.911   1.976  1.00  0.00     0.000 C 
BRANCH   7   8
ATOM      8  C   UNL     1       9.572 -10.436   1.946  1.00  0.00     0.000 C 
BRANCH   8   9
ATOM      9  C   UNL     1      10.597 -11.165   1.060  1.00  0.00     0.000 C 
BRANCH   9  10
ATOM     10  C   UNL     1      11.327 -10.216   0.096  1.00  0.00     0.000 C 
BRANCH  10  11
ATOM     11  C   UNL     1      12.853 -10.418   0.103  1.00  0.00     0.000 C 
BRANCH  11  12
ATOM     12  C   UNL     1      13.622  -9.087   0.143  1.00  0.00     0.006 C 
BRANCH  12  13
ATOM     13  C   UNL     1      12.951  -7.988  -0.690  1.00  0.00     0.053 C 
BRANCH  13  14
ATOM     14  C   UNL     1      13.734  -7.726  -1.936  1.00  0.00     0.041 C 
ATOM     15  O   UNL     1      13.148  -7.642  -3.048  1.00  0.00    -0.550 OA
ATOM     16  O   UNL     1      15.107  -7.523  -1.866  1.00  0.00    -0.550 OA
ENDBRANCH  13  14
ENDBRANCH  12  13
ENDBRANCH  11  12
ENDBRANCH  10  11
ENDBRANCH   9  10
ENDBRANCH   8   9
ENDBRANCH   7   8
ENDBRANCH   6   7
ENDBRANCH   5   6
ENDBRANCH   4   5
ENDBRANCH   3   4
ENDBRANCH   2   3
ENDBRANCH   1   2
BRANCH   1  17
ATOM     17  C   UNL     1      10.590 -12.591   5.085  1.00  0.00     0.000 C 
BRANCH  17  18
ATOM     18  C   UNL     1       9.126 -12.173   5.326  1.00  0.00     0.000 C 
BRANCH  18  19
ATOM     19  C   UNL     1       8.443 -12.919   6.495  1.00  0.00     0.000 C 
BRANCH  19  20
ATOM     20  C   UNL     1       9.045 -14.300   6.828  1.00  0.00     0.000 C 
BRANCH  20  21
ATOM     21  C   UNL     1       8.074 -15.490   6.706  1.00  0.00     0.000 C 
BRANCH  21  22
ATOM     22  C   UNL     1       6.982 -15.273   5.648  1.00  0.00    -0.000 C 
BRANCH  22  23
ATOM     23  C   UNL     1       7.158 -16.248   4.474  1.00  0.00    -0.000 C 
BRANCH  23  24
ATOM     24  C   UNL     1       6.409 -15.803   3.204  1.00  0.00    -0.000 C 
BRANCH  24  25
ATOM     25  C   UNL     1       4.913 -15.498   3.404  1.00  0.00    -0.000 C 
BRANCH  25  26
ATOM     26  C   UNL     1       4.193 -16.420   4.407  1.00  0.00    -0.000 C 
BRANCH  26  27
ATOM     27  C   UNL     1       3.399 -17.565   3.737  1.00  0.00    -0.000 C 
BRANCH  27  28
ATOM     28  C   UNL     1       4.224 -18.845   3.494  1.00  0.00    -0.000 C 
BRANCH  28  29
ATOM     29  C   UNL     1       4.695 -19.041   2.041  1.00  0.00    -0.003 C 
ATOM     30  C   UNL     1       3.857 -18.259   1.028  1.00  0.00     0.004 C 
ENDBRANCH  28  29
ENDBRANCH  27  28
ENDBRANCH  26  27
ENDBRANCH  25  26
ENDBRANCH  24  25
ENDBRANCH  23  24
ENDBRANCH  22  23
ENDBRANCH  21  22
ENDBRANCH  20  21
ENDBRANCH  19  20
ENDBRANCH  18  19
ENDBRANCH  17  18
ENDBRANCH   1  17
TORSDOF 26
ENDMDL
MODEL 9
REMARK VINA RESULT:    -5.444      3.025     10.465
REMARK INTER + INTRA:         -16.165
REMARK INTER:                 -12.726
REMARK INTRA:                  -3.439
REMARK UNBOUND:                -2.447
REMARK SMILES CCCCCCCCCCCCCCCCCCCCCCCCCCCC(=O)[O-]
REMARK SMILES IDX 15 1 16 2 17 3 18 4 19 5 20 6 21 7 22 8 23 9 24 10 25 11
REMARK SMILES IDX 26 12 27 13 28 14 29 15 30 16 14 17 13 18 12 19 11 20 10 21
REMARK SMILES IDX 9 22 8 23 7 24 6 25 5 26 4 27 3 28 2 29 1 30
REMARK H PARENT
REMARK Flexibility Score: inf
ROOT
ATOM      1  C   UNL     1       2.485 -16.023  -2.262  1.00  0.00     0.000 C 
ENDROOT
BRANCH   1   2
ATOM      2  C   UNL     1       2.004 -17.467  -2.005  1.00  0.00     0.000 C 
BRANCH   2   3
ATOM      3  C   UNL     1       2.383 -18.481  -3.099  1.00  0.00     0.000 C 
BRANCH   3   4
ATOM      4  C   UNL     1       3.804 -19.037  -2.930  1.00  0.00     0.000 C 
BRANCH   4   5
ATOM      5  C   UNL     1       4.791 -18.303  -3.849  1.00  0.00     0.000 C 
BRANCH   5   6
ATOM      6  C   UNL     1       4.111 -17.676  -5.079  1.00  0.00     0.000 C 
BRANCH   6   7
ATOM      7  C   UNL     1       4.912 -16.553  -5.772  1.00  0.00     0.000 C 
BRANCH   7   8
ATOM      8  C   UNL     1       4.849 -15.176  -5.084  1.00  0.00     0.000 C 
BRANCH   8   9
ATOM      9  C   UNL     1       4.793 -14.010  -6.085  1.00  0.00     0.000 C 
BRANCH   9  10
ATOM     10  C   UNL     1       4.525 -14.477  -7.525  1.00  0.00     0.000 C 
BRANCH  10  11
ATOM     11  C   UNL     1       5.818 -14.706  -8.329  1.00  0.00     0.000 C 
BRANCH  11  12
ATOM     12  C   UNL     1       6.901 -13.663  -8.009  1.00  0.00     0.006 C 
BRANCH  12  13
ATOM     13  C   UNL     1       8.292 -14.285  -7.835  1.00  0.00     0.053 C 
BRANCH  13  14
ATOM     14  C   UNL     1       8.317 -15.178  -6.635  1.00  0.00     0.041 C 
ATOM     15  O   UNL     1       8.306 -14.683  -5.477  1.00  0.00    -0.550 OA
ATOM     16  O   UNL     1       8.302 -16.558  -6.794  1.00  0.00    -0.550 OA
ENDBRANCH  13  14
ENDBRANCH  12  13
ENDBRANCH  11  12
ENDBRANCH  10  11
ENDBRANCH   9  10
ENDBRANCH   8   9
ENDBRANCH   7   8
ENDBRANCH   6   7
ENDBRANCH   5   6
ENDBRANCH   4   5
ENDBRANCH   3   4
ENDBRANCH   2   3
ENDBRANCH   1   2
BRANCH   1  17
ATOM     17  C   UNL     1       3.770 -15.617  -1.516  1.00  0.00     0.000 C 
BRANCH  17  18
ATOM     18  C   UNL     1       3.909 -16.191  -0.092  1.00  0.00     0.000 C 
BRANCH  18  19
ATOM     19  C   UNL     1       5.105 -17.156   0.083  1.00  0.00     0.000 C 
BRANCH  19  20
ATOM     20  C   UNL     1       4.734 -18.571   0.572  1.00  0.00     0.000 C 
BRANCH  20  21
ATOM     21  C   UNL     1       3.567 -18.638   1.576  1.00  0.00     0.000 C 
BRANCH  21  22
ATOM     22  C   UNL     1       4.023 -18.541   3.039  1.00  0.00    -0.000 C 
BRANCH  22  23
ATOM     23  C   UNL     1       3.407 -17.310   3.722  1.00  0.00    -0.000 C 
BRANCH  23  24
ATOM     24  C   UNL     1       4.456 -16.413   4.406  1.00  0.00    -0.000 C 
BRANCH  24  25
ATOM     25  C   UNL     1       5.404 -15.672   3.445  1.00  0.00    -0.000 C 
BRANCH  25  26
ATOM     26  C   UNL     1       6.791 -15.342   4.031  1.00  0.00    -0.000 C 
BRANCH  26  27
ATOM     27  C   UNL     1       6.936 -15.705   5.526  1.00  0.00    -0.000 C 
BRANCH  27  28
ATOM     28  C   UNL     1       7.765 -14.694   6.342  1.00  0.00    -0.000 C 
BRANCH  28  29
ATOM     29  C   UNL     1       9.193 -15.159   6.683  1.00  0.00    -0.003 C 
ATOM     30  C   UNL     1      10.270 -14.421   5.886  1.00  0.00     0.004 C 
ENDBRANCH  28  29
ENDBRANCH  27  28
ENDBRANCH  26  27
ENDBRANCH  25  26
ENDBRANCH  24  25
ENDBRANCH  23  24
ENDBRANCH  22  23
ENDBRANCH  21  22
ENDBRANCH  20  21
ENDBRANCH  19  20
ENDBRANCH  18  19
ENDBRANCH  17  18
ENDBRANCH   1  17
TORSDOF 26
ENDMDL
