MODEL 1
REMARK VINA RESULT:    -3.888      0.000      0.000
REMARK INTER + INTRA:          -7.005
REMARK INTER:                  -6.160
REMARK INTRA:                  -0.845
REMARK UNBOUND:                -0.845
REMARK SMILES CCCCCCCCCCCC(=O)[O-]
REMARK SMILES IDX 7 1 8 2 9 3 10 4 11 5 12 6 13 7 14 8 6 9 5 10 4 11 3 12 2 13
REMARK SMILES IDX 1 14
REMARK H PARENT
REMARK Flexibility Score: inf
ROOT
ATOM      1  C   UNL     1      76.001 -72.209  -4.125  1.00  0.00     0.000 C 
ENDROOT
BRANCH   1   2
ATOM      2  C   UNL     1      75.084 -71.473  -3.133  1.00  0.00     0.000 C 
BRANCH   2   3
ATOM      3  C   UNL     1      74.102 -72.418  -2.422  1.00  0.00     0.000 C 
BRANCH   3   4
ATOM      4  C   UNL     1      74.188 -72.322  -0.889  1.00  0.00     0.006 C 
BRANCH   4   5
ATOM      5  C   UNL     1      73.009 -71.542  -0.291  1.00  0.00     0.053 C 
BRANCH   5   6
ATOM      6  C   UNL     1      73.463 -70.308   0.426  1.00  0.00     0.041 C 
ATOM      7  O   UNL     1      74.241 -69.497  -0.142  1.00  0.00    -0.550 OA
ATOM      8  O   UNL     1      73.004 -70.037   1.708  1.00  0.00    -0.550 OA
ENDBRANCH   5   6
ENDBRANCH   4   5
ENDBRANCH   3   4
ENDBRANCH   2   3
ENDBRANCH   1   2
BRANCH   1   9
ATOM      9  C   UNL     1      77.260 -72.782  -3.450  1.00  0.00     0.000 C 
BRANCH   9  10
ATOM     10  C   UNL     1      77.430 -74.291  -3.701  1.00  0.00    -0.000 C 
BRANCH  10  11
ATOM     11  C   UNL     1      77.808 -75.062  -2.427  1.00  0.00    -0.000 C 
BRANCH  11  12
ATOM     12  C   UNL     1      76.651 -75.149  -1.419  1.00  0.00    -0.000 C 
BRANCH  12  13
ATOM     13  C   UNL     1      76.998 -76.102  -0.270  1.00  0.00    -0.003 C 
ATOM     14  C   UNL     1      77.663 -77.374  -0.790  1.00  0.00     0.004 C 
ENDBRANCH  12  13
ENDBRANCH  11  12
ENDBRANCH  10  11
ENDBRANCH   9  10
ENDBRANCH   1   9
TORSDOF 10
ENDMDL
MODEL 2
REMARK VINA RESULT:    -3.840      1.340      2.177
REMARK INTER + INTRA:          -6.930
REMARK INTER:                  -5.659
REMARK INTRA:                  -1.271
REMARK UNBOUND:                -0.845
REMARK SMILES CCCCCCCCCCCC(=O)[O-]
REMARK SMILES IDX 7 1 8 2 9 3 10 4 11 5 12 6 13 7 14 8 6 9 5 10 4 11 3 12 2 13
REMARK SMILES IDX 1 14
REMARK H PARENT
REMARK Flexibility Score: inf
ROOT
ATOM      1  C   UNL     1      77.583 -73.509  -3.259  1.00  0.00     0.000 C 
ENDROOT
BRANCH   1   2
ATOM      2  C   UNL     1      76.522 -72.509  -3.752  1.00  0.00     0.000 C 
BRANCH   2   3
ATOM      3  C   UNL     1      75.175 -73.183  -4.062  1.00  0.00     0.000 C 
BRANCH   3   4
ATOM      4  C   UNL     1      74.070 -72.787  -3.067  1.00  0.00     0.006 C 
BRANCH   4   5
ATOM      5  C   UNL     1      74.524 -71.680  -2.106  1.00  0.00     0.053 C 
BRANCH   5   6
ATOM      6  C   UNL     1      73.683 -71.636  -0.868  1.00  0.00     0.041 C 
ATOM      7  O   UNL     1      72.804 -72.516  -0.668  1.00  0.00    -0.550 OA
ATOM      8  O   UNL     1      73.887 -70.642   0.079  1.00  0.00    -0.550 OA
ENDBRANCH   5   6
ENDBRANCH   4   5
ENDBRANCH   3   4
ENDBRANCH   2   3
ENDBRANCH   1   2
BRANCH   1   9
ATOM      9  C   UNL     1      77.572 -74.824  -4.058  1.00  0.00     0.000 C 
BRANCH   9  10
ATOM     10  C   UNL     1      77.974 -76.038  -3.203  1.00  0.00    -0.000 C 
BRANCH  10  11
ATOM     11  C   UNL     1      78.465 -75.637  -1.803  1.00  0.00    -0.000 C 
BRANCH  11  12
ATOM     12  C   UNL     1      77.633 -76.270  -0.677  1.00  0.00    -0.000 C 
BRANCH  12  13
ATOM     13  C   UNL     1      76.139 -76.245  -1.021  1.00  0.00    -0.003 C 
ATOM     14  C   UNL     1      75.479 -74.962  -0.522  1.00  0.00     0.004 C 
ENDBRANCH  12  13
ENDBRANCH  11  12
ENDBRANCH  10  11
ENDBRANCH   9  10
ENDBRANCH   1   9
TORSDOF 10
ENDMDL
MODEL 3
REMARK VINA RESULT:    -3.832      1.387      3.391
REMARK INTER + INTRA:          -6.917
REMARK INTER:                  -5.740
REMARK INTRA:                  -1.177
REMARK UNBOUND:                -0.845
REMARK SMILES CCCCCCCCCCCC(=O)[O-]
REMARK SMILES IDX 7 1 8 2 9 3 10 4 11 5 12 6 13 7 14 8 6 9 5 10 4 11 3 12 2 13
REMARK SMILES IDX 1 14
REMARK H PARENT
REMARK Flexibility Score: inf
ROOT
ATOM      1  C   UNL     1      75.334 -76.657  -0.696  1.00  0.00     0.000 C 
ENDROOT
BRANCH   1   2
ATOM      2  C   UNL     1      74.282 -75.583  -0.372  1.00  0.00     0.000 C 
BRANCH   2   3
ATOM      3  C   UNL     1      74.295 -74.421  -1.379  1.00  0.00     0.000 C 
BRANCH   3   4
ATOM      4  C   UNL     1      74.861 -73.121  -0.780  1.00  0.00     0.006 C 
BRANCH   4   5
ATOM      5  C   UNL     1      74.193 -71.872  -1.372  1.00  0.00     0.053 C 
BRANCH   5   6
ATOM      6  C   UNL     1      73.366 -71.147  -0.356  1.00  0.00     0.041 C 
ATOM      7  O   UNL     1      72.135 -71.393  -0.249  1.00  0.00    -0.550 OA
ATOM      8  O   UNL     1      73.958 -70.221   0.493  1.00  0.00    -0.550 OA
ENDBRANCH   5   6
ENDBRANCH   4   5
ENDBRANCH   3   4
ENDBRANCH   2   3
ENDBRANCH   1   2
BRANCH   1   9
ATOM      9  C   UNL     1      76.747 -76.257  -0.236  1.00  0.00     0.000 C 
BRANCH   9  10
ATOM     10  C   UNL     1      77.852 -76.997  -1.011  1.00  0.00    -0.000 C 
BRANCH  10  11
ATOM     11  C   UNL     1      78.662 -76.061  -1.921  1.00  0.00    -0.000 C 
BRANCH  11  12
ATOM     12  C   UNL     1      78.047 -74.657  -2.028  1.00  0.00    -0.000 C 
BRANCH  12  13
ATOM     13  C   UNL     1      77.466 -74.420  -3.427  1.00  0.00    -0.003 C 
ATOM     14  C   UNL     1      77.174 -72.940  -3.659  1.00  0.00     0.004 C 
ENDBRANCH  12  13
ENDBRANCH  11  12
ENDBRANCH  10  11
ENDBRANCH   9  10
ENDBRANCH   1   9
TORSDOF 10
ENDMDL
MODEL 4
REMARK VINA RESULT:    -3.830      3.298      5.890
REMARK INTER + INTRA:          -6.913
REMARK INTER:                  -5.946
REMARK INTRA:                  -0.967
REMARK UNBOUND:                -0.845
REMARK SMILES CCCCCCCCCCCC(=O)[O-]
REMARK SMILES IDX 7 1 8 2 9 3 10 4 11 5 12 6 13 7 14 8 6 9 5 10 4 11 3 12 2 13
REMARK SMILES IDX 1 14
REMARK H PARENT
REMARK Flexibility Score: inf
ROOT
ATOM      1  C   UNL     1      75.152 -71.654  -3.512  1.00  0.00     0.000 C 
ENDROOT
BRANCH   1   2
ATOM      2  C   UNL     1      76.531 -72.231  -3.877  1.00  0.00     0.000 C 
BRANCH   2   3
ATOM      3  C   UNL     1      76.668 -73.715  -3.503  1.00  0.00     0.000 C 
BRANCH   3   4
ATOM      4  C   UNL     1      77.402 -73.927  -2.167  1.00  0.00     0.006 C 
BRANCH   4   5
ATOM      5  C   UNL     1      76.715 -74.983  -1.290  1.00  0.00     0.053 C 
BRANCH   5   6
ATOM      6  C   UNL     1      77.506 -76.254  -1.225  1.00  0.00     0.041 C 
ATOM      7  O   UNL     1      78.730 -76.254  -1.521  1.00  0.00    -0.550 OA
ATOM      8  O   UNL     1      76.899 -77.432  -0.811  1.00  0.00    -0.550 OA
ENDBRANCH   5   6
ENDBRANCH   4   5
ENDBRANCH   3   4
ENDBRANCH   2   3
ENDBRANCH   1   2
BRANCH   1   9
ATOM      9  C   UNL     1      74.054 -72.731  -3.472  1.00  0.00     0.000 C 
BRANCH   9  10
ATOM     10  C   UNL     1      73.366 -72.823  -2.099  1.00  0.00    -0.000 C 
BRANCH  10  11
ATOM     11  C   UNL     1      74.110 -72.030  -1.013  1.00  0.00    -0.000 C 
BRANCH  11  12
ATOM     12  C   UNL     1      73.184 -71.093  -0.221  1.00  0.00    -0.000 C 
BRANCH  12  13
ATOM     13  C   UNL     1      73.908 -69.793   0.149  1.00  0.00    -0.003 C 
ATOM     14  C   UNL     1      73.036 -68.911   1.038  1.00  0.00     0.004 C 
ENDBRANCH  12  13
ENDBRANCH  11  12
ENDBRANCH  10  11
ENDBRANCH   9  10
ENDBRANCH   1   9
TORSDOF 10
ENDMDL
MODEL 5
REMARK VINA RESULT:    -3.787      2.884      4.296
REMARK INTER + INTRA:          -6.846
REMARK INTER:                  -5.255
REMARK INTRA:                  -1.591
REMARK UNBOUND:                -0.845
REMARK SMILES CCCCCCCCCCCC(=O)[O-]
REMARK SMILES IDX 7 1 8 2 9 3 10 4 11 5 12 6 13 7 14 8 6 9 5 10 4 11 3 12 2 13
REMARK SMILES IDX 1 14
REMARK H PARENT
REMARK Flexibility Score: inf
ROOT
ATOM      1  C   UNL     1      77.015 -75.762  -0.718  1.00  0.00     0.000 C 
ENDROOT
BRANCH   1   2
ATOM      2  C   UNL     1      76.422 -74.569  -1.487  1.00  0.00     0.000 C 
BRANCH   2   3
ATOM      3  C   UNL     1      77.489 -73.770  -2.252  1.00  0.00     0.000 C 
BRANCH   3   4
ATOM      4  C   UNL     1      77.031 -73.367  -3.665  1.00  0.00     0.006 C 
BRANCH   4   5
ATOM      5  C   UNL     1      75.580 -73.782  -3.943  1.00  0.00     0.053 C 
BRANCH   5   6
ATOM      6  C   UNL     1      74.642 -72.616  -3.863  1.00  0.00     0.041 C 
ATOM      7  O   UNL     1      75.093 -71.449  -3.719  1.00  0.00    -0.550 OA
ATOM      8  O   UNL     1      73.272 -72.814  -3.976  1.00  0.00    -0.550 OA
ENDBRANCH   5   6
ENDBRANCH   4   5
ENDBRANCH   3   4
ENDBRANCH   2   3
ENDBRANCH   1   2
BRANCH   1   9
ATOM      9  C   UNL     1      78.475 -76.049  -1.110  1.00  0.00     0.000 C 
BRANCH   9  10
ATOM     10  C   UNL     1      78.645 -77.416  -1.797  1.00  0.00    -0.000 C 
BRANCH  10  11
ATOM     11  C   UNL     1      78.913 -77.288  -3.305  1.00  0.00    -0.000 C 
BRANCH  11  12
ATOM     12  C   UNL     1      77.625 -77.117  -4.125  1.00  0.00    -0.000 C 
BRANCH  12  13
ATOM     13  C   UNL     1      76.558 -78.125  -3.684  1.00  0.00    -0.003 C 
ATOM     14  C   UNL     1      75.189 -77.460  -3.557  1.00  0.00     0.004 C 
ENDBRANCH  12  13
ENDBRANCH  11  12
ENDBRANCH  10  11
ENDBRANCH   9  10
ENDBRANCH   1   9
TORSDOF 10
ENDMDL
MODEL 6
REMARK VINA RESULT:    -3.745      4.144      6.165
REMARK INTER + INTRA:          -6.780
REMARK INTER:                  -5.244
REMARK INTRA:                  -1.536
REMARK UNBOUND:                -0.845
REMARK SMILES CCCCCCCCCCCC(=O)[O-]
REMARK SMILES IDX 7 1 8 2 9 3 10 4 11 5 12 6 13 7 14 8 6 9 5 10 4 11 3 12 2 13
REMARK SMILES IDX 1 14
REMARK H PARENT
REMARK Flexibility Score: inf
ROOT
ATOM      1  C   UNL     1      77.477 -74.698  -4.082  1.00  0.00     0.000 C 
ENDROOT
BRANCH   1   2
ATOM      2  C   UNL     1      77.960 -75.920  -3.281  1.00  0.00     0.000 C 
BRANCH   2   3
ATOM      3  C   UNL     1      78.285 -75.576  -1.818  1.00  0.00     0.000 C 
BRANCH   3   4
ATOM      4  C   UNL     1      77.778 -76.641  -0.830  1.00  0.00     0.006 C 
BRANCH   4   5
ATOM      5  C   UNL     1      78.369 -78.028  -1.120  1.00  0.00     0.053 C 
BRANCH   5   6
ATOM      6  C   UNL     1      77.301 -79.047  -1.375  1.00  0.00     0.041 C 
ATOM      7  O   UNL     1      77.473 -80.245  -1.027  1.00  0.00    -0.550 OA
ATOM      8  O   UNL     1      76.104 -78.669  -1.969  1.00  0.00    -0.550 OA
ENDBRANCH   5   6
ENDBRANCH   4   5
ENDBRANCH   3   4
ENDBRANCH   2   3
ENDBRANCH   1   2
BRANCH   1   9
ATOM      9  C   UNL     1      77.484 -73.405  -3.248  1.00  0.00     0.000 C 
BRANCH   9  10
ATOM     10  C   UNL     1      76.239 -72.536  -3.496  1.00  0.00    -0.000 C 
BRANCH  10  11
ATOM     11  C   UNL     1      74.990 -73.076  -2.781  1.00  0.00    -0.000 C 
BRANCH  11  12
ATOM     12  C   UNL     1      75.239 -73.372  -1.293  1.00  0.00    -0.000 C 
BRANCH  12  13
ATOM     13  C   UNL     1      74.644 -74.728  -0.899  1.00  0.00    -0.003 C 
ATOM     14  C   UNL     1      74.347 -75.579  -2.131  1.00  0.00     0.004 C 
ENDBRANCH  12  13
ENDBRANCH  11  12
ENDBRANCH  10  11
ENDBRANCH   9  10
ENDBRANCH   1   9
TORSDOF 10
ENDMDL
MODEL 7
REMARK VINA RESULT:    -3.688      1.891      3.095
REMARK INTER + INTRA:          -6.689
REMARK INTER:                  -5.412
REMARK INTRA:                  -1.277
REMARK UNBOUND:                -0.845
REMARK SMILES CCCCCCCCCCCC(=O)[O-]
REMARK SMILES IDX 7 1 8 2 9 3 10 4 11 5 12 6 13 7 14 8 6 9 5 10 4 11 3 12 2 13
REMARK SMILES IDX 1 14
REMARK H PARENT
REMARK Flexibility Score: inf
ROOT
ATOM      1  C   UNL     1      77.803 -73.977  -2.271  1.00  0.00     0.000 C 
ENDROOT
BRANCH   1   2
ATOM      2  C   UNL     1      77.138 -73.241  -3.448  1.00  0.00     0.000 C 
BRANCH   2   3
ATOM      3  C   UNL     1      75.832 -73.912  -3.903  1.00  0.00     0.000 C 
BRANCH   3   4
ATOM      4  C   UNL     1      74.628 -72.954  -3.870  1.00  0.00     0.006 C 
BRANCH   4   5
ATOM      5  C   UNL     1      74.844 -71.786  -2.899  1.00  0.00     0.053 C 
BRANCH   5   6
ATOM      6  C   UNL     1      74.103 -71.986  -1.612  1.00  0.00     0.041 C 
ATOM      7  O   UNL     1      73.558 -73.093  -1.361  1.00  0.00    -0.550 OA
ATOM      8  O   UNL     1      74.039 -70.960  -0.678  1.00  0.00    -0.550 OA
ENDBRANCH   5   6
ENDBRANCH   4   5
ENDBRANCH   3   4
ENDBRANCH   2   3
ENDBRANCH   1   2
BRANCH   1   9
ATOM      9  C   UNL     1      76.790 -74.762  -1.419  1.00  0.00     0.000 C 
BRANCH   9  10
ATOM     10  C   UNL     1      77.421 -75.988  -0.733  1.00  0.00    -0.000 C 
BRANCH  10  11
ATOM     11  C   UNL     1      78.473 -76.680  -1.614  1.00  0.00    -0.000 C 
BRANCH  11  12
ATOM     12  C   UNL     1      77.920 -77.915  -2.342  1.00  0.00    -0.000 C 
BRANCH  12  13
ATOM     13  C   UNL     1      77.351 -77.532  -3.713  1.00  0.00    -0.003 C 
ATOM     14  C   UNL     1      75.828 -77.635  -3.727  1.00  0.00     0.004 C 
ENDBRANCH  12  13
ENDBRANCH  11  12
ENDBRANCH  10  11
ENDBRANCH   9  10
ENDBRANCH   1   9
TORSDOF 10
ENDMDL
MODEL 8
REMARK VINA RESULT:    -3.663      1.837      3.143
REMARK INTER + INTRA:          -6.649
REMARK INTER:                  -5.454
REMARK INTRA:                  -1.196
REMARK UNBOUND:                -0.845
REMARK SMILES CCCCCCCCCCCC(=O)[O-]
REMARK SMILES IDX 7 1 8 2 9 3 10 4 11 5 12 6 13 7 14 8 6 9 5 10 4 11 3 12 2 13
REMARK SMILES IDX 1 14
REMARK H PARENT
REMARK Flexibility Score: inf
ROOT
ATOM      1  C   UNL     1      77.822 -73.983  -2.244  1.00  0.00     0.000 C 
ENDROOT
BRANCH   1   2
ATOM      2  C   UNL     1      77.297 -73.279  -3.507  1.00  0.00     0.000 C 
BRANCH   2   3
ATOM      3  C   UNL     1      75.925 -73.810  -3.952  1.00  0.00     0.000 C 
BRANCH   3   4
ATOM      4  C   UNL     1      74.867 -72.699  -4.073  1.00  0.00     0.006 C 
BRANCH   4   5
ATOM      5  C   UNL     1      74.913 -71.725  -2.888  1.00  0.00     0.053 C 
BRANCH   5   6
ATOM      6  C   UNL     1      73.954 -72.116  -1.806  1.00  0.00     0.041 C 
ATOM      7  O   UNL     1      74.178 -71.786  -0.612  1.00  0.00    -0.550 OA
ATOM      8  O   UNL     1      72.799 -72.820  -2.120  1.00  0.00    -0.550 OA
ENDBRANCH   5   6
ENDBRANCH   4   5
ENDBRANCH   3   4
ENDBRANCH   2   3
ENDBRANCH   1   2
BRANCH   1   9
ATOM      9  C   UNL     1      78.125 -75.473  -2.482  1.00  0.00     0.000 C 
BRANCH   9  10
ATOM     10  C   UNL     1      78.245 -76.269  -1.170  1.00  0.00    -0.000 C 
BRANCH  10  11
ATOM     11  C   UNL     1      76.971 -76.187  -0.313  1.00  0.00    -0.000 C 
BRANCH  11  12
ATOM     12  C   UNL     1      75.754 -76.830  -0.996  1.00  0.00    -0.000 C 
BRANCH  12  13
ATOM     13  C   UNL     1      74.636 -75.801  -1.202  1.00  0.00    -0.003 C 
ATOM     14  C   UNL     1      74.007 -75.396   0.128  1.00  0.00     0.004 C 
ENDBRANCH  12  13
ENDBRANCH  11  12
ENDBRANCH  10  11
ENDBRANCH   9  10
ENDBRANCH   1   9
TORSDOF 10
ENDMDL
