MODEL 1
REMARK VINA RESULT:    50.410      0.000      0.000
REMARK INTER + INTRA:          68.789
REMARK INTER:                  69.565
REMARK INTRA:                  -0.776
REMARK UNBOUND:                -0.776
REMARK SMILES CC[C@@H](CC[C@H](C)[C@@H]1CC[C@@H]2[C@H]3CC=C4C[C@H](O)CC[C@]4(C)[C@@H]3CC[C@]21C)C(C)C
REMARK SMILES IDX 5 1 4 2 3 3 2 4 1 5 28 6 29 7 30 8 6 9 7 10 8 11 9 12 26 13
REMARK SMILES IDX 10 14 11 15 25 16 27 17 12 18 24 19 23 20 13 21 21 22 14 23
REMARK SMILES IDX 15 24 20 25 22 26 16 27 19 28 17 29 18 30
REMARK H PARENT 18 31
REMARK Flexibility Score: inf
ROOT
ATOM      1  C   UNL     1     -31.257  24.918   7.040  1.00  0.00     0.004 C 
ENDROOT
BRANCH   1   2
ATOM      2  C   UNL     1     -30.090  25.891   7.313  1.00  0.00     0.004 C 
BRANCH   2   3
ATOM      3  C   UNL     1     -29.668  26.757   6.082  1.00  0.00    -0.009 C 
BRANCH   3   4
ATOM      4  C   UNL     1     -28.126  26.978   5.957  1.00  0.00     0.000 C 
ATOM      5  C   UNL     1     -27.600  27.430   4.588  1.00  0.00     0.004 C 
ENDBRANCH   3   4
BRANCH   3   6
ATOM      6  C   UNL     1     -30.523  28.065   5.965  1.00  0.00    -0.014 C 
ATOM      7  C   UNL     1     -30.818  28.450   4.505  1.00  0.00     0.007 C 
ATOM      8  C   UNL     1     -29.938  29.266   6.719  1.00  0.00     0.007 C 
ENDBRANCH   3   6
ENDBRANCH   2   3
ENDBRANCH   1   2
BRANCH   1   9
ATOM      9  C   UNL     1     -32.637  25.400   7.580  1.00  0.00    -0.011 C 
ATOM     10  C   UNL     1     -32.647  25.483   9.124  1.00  0.00     0.008 C 
BRANCH   9  11
ATOM     11  C   UNL     1     -33.830  24.612   6.925  1.00  0.00    -0.002 C 
ATOM     12  C   UNL     1     -33.671  24.362   5.403  1.00  0.00     0.005 C 
ATOM     13  C   UNL     1     -35.315  25.064   7.095  1.00  0.00    -0.026 C 
ATOM     14  C   UNL     1     -35.092  24.208   4.834  1.00  0.00     0.005 C 
ATOM     15  C   UNL     1     -35.981  24.129   6.069  1.00  0.00    -0.001 C 
ATOM     16  C   UNL     1     -35.953  24.753   8.470  1.00  0.00     0.007 C 
ATOM     17  C   UNL     1     -35.504  26.571   6.747  1.00  0.00     0.012 C 
ATOM     18  C   UNL     1     -37.501  24.356   5.907  1.00  0.00     0.000 C 
ATOM     19  C   UNL     1     -37.486  24.952   8.433  1.00  0.00     0.005 C 
ATOM     20  C   UNL     1     -38.194  24.156   7.287  1.00  0.00     0.003 C 
ATOM     21  C   UNL     1     -38.089  23.335   4.923  1.00  0.00     0.031 C 
ATOM     22  C   UNL     1     -39.760  24.389   7.201  1.00  0.00    -0.008 C 
ATOM     23  C   UNL     1     -39.578  23.472   4.835  1.00  0.00    -0.027 C 
ATOM     24  C   UNL     1     -40.344  23.905   5.859  1.00  0.00    -0.065 C 
ATOM     25  C   UNL     1     -40.123  25.901   7.343  1.00  0.00     0.014 C 
ATOM     26  C   UNL     1     -40.425  23.584   8.349  1.00  0.00     0.016 C 
ATOM     27  C   UNL     1     -41.814  24.158   5.594  1.00  0.00     0.063 C 
ATOM     28  C   UNL     1     -41.607  26.229   7.066  1.00  0.00     0.033 C 
ATOM     29  C   UNL     1     -42.124  25.657   5.731  1.00  0.00     0.118 C 
BRANCH  29  30
ATOM     30  O   UNL     1     -41.627  26.389   4.635  1.00  0.00    -0.393 OA
ATOM     31  H   UNL     1     -42.347  26.987   4.310  1.00  0.00     0.210 HD
ENDBRANCH  29  30
ENDBRANCH   9  11
ENDBRANCH   1   9
TORSDOF 7
ENDMDL
