MODEL 1
REMARK VINA RESULT:    -6.970      0.000      0.000
REMARK INTER + INTRA:          -8.484
REMARK INTER:                  -8.192
REMARK INTRA:                  -0.292
REMARK UNBOUND:                -0.292
REMARK SMILES O=c1cc(-c2ccc(O)c(O)c2)oc2cc(O)cc(O)c12
REMARK SMILES IDX 4 1 3 2 2 3 1 4 21 5 19 6 18 7 16 8 15 9 14 10 13 11 5 12
REMARK SMILES IDX 6 13 7 14 8 15 12 16 10 17 9 18 11 20 20 22 17 24
REMARK H PARENT 9 19 11 21 20 23 17 25
REMARK Flexibility Score: inf
ROOT
ATOM      1  C   UNL     1      -9.649   7.712   6.782  1.00  0.00     0.138 A 
ATOM      2  C   UNL     1     -10.350   8.606   5.960  1.00  0.00     0.100 A 
ATOM      3  C   UNL     1      -9.690   9.712   5.424  1.00  0.00     0.197 A 
ATOM      4  O   UNL     1     -10.331  10.464   4.646  1.00  0.00    -0.289 OA
ATOM      5  C   UNL     1      -8.331   9.944   5.743  1.00  0.00     0.107 A 
ATOM      6  C   UNL     1      -7.564  11.058   5.282  1.00  0.00     0.134 A 
ATOM      7  C   UNL     1      -6.199  11.127   5.584  1.00  0.00     0.093 A 
ATOM      8  C   UNL     1      -5.585  10.156   6.378  1.00  0.00     0.123 A 
ATOM      9  C   UNL     1      -6.335   9.092   6.874  1.00  0.00     0.094 A 
ATOM     10  C   UNL     1      -7.691   8.975   6.562  1.00  0.00     0.146 A 
ATOM     11  O   UNL     1      -8.365   7.935   7.041  1.00  0.00    -0.456 OA
ENDROOT
BRANCH   1  12
ATOM     12  C   UNL     1     -10.301   6.521   7.383  1.00  0.00     0.021 A 
ATOM     13  C   UNL     1      -9.740   5.929   8.527  1.00  0.00     0.016 A 
ATOM     14  C   UNL     1     -10.329   4.804   9.107  1.00  0.00     0.051 A 
ATOM     15  C   UNL     1     -11.484   4.243   8.548  1.00  0.00     0.157 A 
ATOM     16  C   UNL     1     -11.456   5.944   6.818  1.00  0.00     0.062 A 
ATOM     17  C   UNL     1     -12.046   4.812   7.400  1.00  0.00     0.158 A 
BRANCH  15  18
ATOM     18  O   UNL     1     -12.076   3.121   9.125  1.00  0.00    -0.504 OA
ATOM     19  H   UNL     1     -11.925   2.884  10.098  1.00  0.00     0.293 HD
ENDBRANCH  15  18
BRANCH  17  20
ATOM     20  O   UNL     1     -13.189   4.246   6.838  1.00  0.00    -0.504 OA
ATOM     21  H   UNL     1     -13.198   3.900   5.886  1.00  0.00     0.293 HD
ENDBRANCH  17  20
ENDBRANCH   1  12
BRANCH   6  22
ATOM     22  O   UNL     1      -8.095  12.125   4.549  1.00  0.00    -0.507 OA
ATOM     23  H   UNL     1      -8.804  12.759   4.881  1.00  0.00     0.293 HD
ENDBRANCH   6  22
BRANCH   8  24
ATOM     24  O   UNL     1      -4.229  10.243   6.685  1.00  0.00    -0.508 OA
ATOM     25  H   UNL     1      -3.527   9.776   6.123  1.00  0.00     0.293 HD
ENDBRANCH   8  24
TORSDOF 5
ENDMDL
MODEL 2
REMARK VINA RESULT:    -6.770      1.490      6.895
REMARK INTER + INTRA:          -8.249
REMARK INTER:                  -7.973
REMARK INTRA:                  -0.276
REMARK UNBOUND:                -0.292
REMARK SMILES O=c1cc(-c2ccc(O)c(O)c2)oc2cc(O)cc(O)c12
REMARK SMILES IDX 4 1 3 2 2 3 1 4 21 5 19 6 18 7 16 8 15 9 14 10 13 11 5 12
REMARK SMILES IDX 6 13 7 14 8 15 12 16 10 17 9 18 11 20 20 22 17 24
REMARK H PARENT 9 19 11 21 20 23 17 25
REMARK Flexibility Score: inf
ROOT
ATOM      1  C   UNL     1      -9.312   8.310   6.444  1.00  0.00     0.138 A 
ATOM      2  C   UNL     1     -10.525   8.561   5.788  1.00  0.00     0.100 A 
ATOM      3  C   UNL     1     -11.573   7.648   5.903  1.00  0.00     0.197 A 
ATOM      4  O   UNL     1     -12.667   7.929   5.349  1.00  0.00    -0.289 OA
ATOM      5  C   UNL     1     -11.393   6.459   6.650  1.00  0.00     0.107 A 
ATOM      6  C   UNL     1     -12.381   5.439   6.808  1.00  0.00     0.134 A 
ATOM      7  C   UNL     1     -12.120   4.354   7.653  1.00  0.00     0.093 A 
ATOM      8  C   UNL     1     -10.889   4.220   8.298  1.00  0.00     0.123 A 
ATOM      9  C   UNL     1      -9.901   5.183   8.110  1.00  0.00     0.094 A 
ATOM     10  C   UNL     1     -10.142   6.296   7.302  1.00  0.00     0.146 A 
ATOM     11  O   UNL     1      -9.178   7.201   7.165  1.00  0.00    -0.456 OA
ENDROOT
BRANCH   1  12
ATOM     12  C   UNL     1      -8.161   9.244   6.353  1.00  0.00     0.021 A 
ATOM     13  C   UNL     1      -7.572   9.496   5.103  1.00  0.00     0.016 A 
ATOM     14  C   UNL     1      -6.484  10.364   4.991  1.00  0.00     0.051 A 
ATOM     15  C   UNL     1      -5.958  10.988   6.129  1.00  0.00     0.157 A 
ATOM     16  C   UNL     1      -7.618   9.865   7.496  1.00  0.00     0.062 A 
ATOM     17  C   UNL     1      -6.524  10.735   7.384  1.00  0.00     0.158 A 
BRANCH  15  18
ATOM     18  O   UNL     1      -4.873  11.856   6.022  1.00  0.00    -0.504 OA
ATOM     19  H   UNL     1      -4.665  12.535   6.744  1.00  0.00     0.293 HD
ENDBRANCH  15  18
BRANCH  17  20
ATOM     20  O   UNL     1      -5.992  11.348   8.517  1.00  0.00    -0.504 OA
ATOM     21  H   UNL     1      -6.585  11.779   9.216  1.00  0.00     0.293 HD
ENDBRANCH  17  20
ENDBRANCH   1  12
BRANCH   6  22
ATOM     22  O   UNL     1     -13.614   5.433   6.148  1.00  0.00    -0.507 OA
ATOM     23  H   UNL     1     -14.276   4.673   6.167  1.00  0.00     0.293 HD
ENDBRANCH   6  22
BRANCH   8  24
ATOM     24  O   UNL     1     -10.634   3.127   9.124  1.00  0.00    -0.508 OA
ATOM     25  H   UNL     1     -11.279   2.856   9.858  1.00  0.00     0.293 HD
ENDBRANCH   8  24
TORSDOF 5
ENDMDL
MODEL 3
REMARK VINA RESULT:    -6.364      1.653      7.239
REMARK INTER + INTRA:          -7.771
REMARK INTER:                  -7.454
REMARK INTRA:                  -0.317
REMARK UNBOUND:                -0.292
REMARK SMILES O=c1cc(-c2ccc(O)c(O)c2)oc2cc(O)cc(O)c12
REMARK SMILES IDX 4 1 3 2 2 3 1 4 21 5 19 6 18 7 16 8 15 9 14 10 13 11 5 12
REMARK SMILES IDX 6 13 7 14 8 15 12 16 10 17 9 18 11 20 20 22 17 24
REMARK H PARENT 9 19 11 21 20 23 17 25
REMARK Flexibility Score: inf
ROOT
ATOM      1  C   UNL     1      -9.324   7.729   6.525  1.00  0.00     0.138 A 
ATOM      2  C   UNL     1      -9.136   6.718   7.477  1.00  0.00     0.100 A 
ATOM      3  C   UNL     1     -10.066   5.683   7.576  1.00  0.00     0.197 A 
ATOM      4  O   UNL     1      -9.840   4.761   8.402  1.00  0.00    -0.289 OA
ATOM      5  C   UNL     1     -11.208   5.680   6.741  1.00  0.00     0.107 A 
ATOM      6  C   UNL     1     -12.241   4.693   6.776  1.00  0.00     0.134 A 
ATOM      7  C   UNL     1     -13.273   4.742   5.831  1.00  0.00     0.093 A 
ATOM      8  C   UNL     1     -13.344   5.773   4.892  1.00  0.00     0.123 A 
ATOM      9  C   UNL     1     -12.369   6.768   4.881  1.00  0.00     0.094 A 
ATOM     10  C   UNL     1     -11.307   6.728   5.787  1.00  0.00     0.146 A 
ATOM     11  O   UNL     1     -10.389   7.688   5.730  1.00  0.00    -0.456 OA
ENDROOT
BRANCH   1  12
ATOM     12  C   UNL     1      -8.370   8.857   6.378  1.00  0.00     0.021 A 
ATOM     13  C   UNL     1      -7.182   8.862   7.130  1.00  0.00     0.016 A 
ATOM     14  C   UNL     1      -6.272   9.914   7.016  1.00  0.00     0.051 A 
ATOM     15  C   UNL     1      -6.537  10.988   6.157  1.00  0.00     0.157 A 
ATOM     16  C   UNL     1      -8.636   9.948   5.525  1.00  0.00     0.062 A 
ATOM     17  C   UNL     1      -7.722  11.006   5.413  1.00  0.00     0.158 A 
BRANCH  15  18
ATOM     18  O   UNL     1      -5.630  12.040   6.040  1.00  0.00    -0.504 OA
ATOM     19  H   UNL     1      -4.789  11.954   5.482  1.00  0.00     0.293 HD
ENDBRANCH  15  18
BRANCH  17  20
ATOM     20  O   UNL     1      -7.989  12.080   4.567  1.00  0.00    -0.504 OA
ATOM     21  H   UNL     1      -7.402  12.907   4.556  1.00  0.00     0.293 HD
ENDBRANCH  17  20
ENDBRANCH   1  12
BRANCH   6  22
ATOM     22  O   UNL     1     -12.311   3.666   7.722  1.00  0.00    -0.507 OA
ATOM     23  H   UNL     1     -12.720   3.751   8.639  1.00  0.00     0.293 HD
ENDBRANCH   6  22
BRANCH   8  24
ATOM     24  O   UNL     1     -14.384   5.821   3.966  1.00  0.00    -0.508 OA
ATOM     25  H   UNL     1     -15.338   6.014   4.250  1.00  0.00     0.293 HD
ENDBRANCH   8  24
TORSDOF 5
ENDMDL
MODEL 4
REMARK VINA RESULT:    -6.105     18.576     20.686
REMARK INTER + INTRA:          -7.468
REMARK INTER:                  -7.173
REMARK INTRA:                  -0.295
REMARK UNBOUND:                -0.292
REMARK SMILES O=c1cc(-c2ccc(O)c(O)c2)oc2cc(O)cc(O)c12
REMARK SMILES IDX 4 1 3 2 2 3 1 4 21 5 19 6 18 7 16 8 15 9 14 10 13 11 5 12
REMARK SMILES IDX 6 13 7 14 8 15 12 16 10 17 9 18 11 20 20 22 17 24
REMARK H PARENT 9 19 11 21 20 23 17 25
REMARK Flexibility Score: inf
ROOT
ATOM      1  C   UNL     1     -11.941  -2.033  -9.614  1.00  0.00     0.138 A 
ATOM      2  C   UNL     1     -10.553  -2.230  -9.602  1.00  0.00     0.100 A 
ATOM      3  C   UNL     1     -10.042  -3.525  -9.519  1.00  0.00     0.197 A 
ATOM      4  O   UNL     1      -8.793  -3.673  -9.567  1.00  0.00    -0.289 OA
ATOM      5  C   UNL     1     -10.925  -4.626  -9.410  1.00  0.00     0.107 A 
ATOM      6  C   UNL     1     -10.516  -5.989  -9.285  1.00  0.00     0.134 A 
ATOM      7  C   UNL     1     -11.484  -7.001  -9.285  1.00  0.00     0.093 A 
ATOM      8  C   UNL     1     -12.846  -6.698  -9.345  1.00  0.00     0.123 A 
ATOM      9  C   UNL     1     -13.256  -5.369  -9.417  1.00  0.00     0.094 A 
ATOM     10  C   UNL     1     -12.315  -4.338  -9.455  1.00  0.00     0.146 A 
ATOM     11  O   UNL     1     -12.750  -3.085  -9.542  1.00  0.00    -0.456 OA
ENDROOT
BRANCH   1  12
ATOM     12  C   UNL     1     -12.541  -0.677  -9.696  1.00  0.00     0.021 A 
ATOM     13  C   UNL     1     -13.904  -0.542 -10.010  1.00  0.00     0.016 A 
ATOM     14  C   UNL     1     -14.491   0.722 -10.101  1.00  0.00     0.051 A 
ATOM     15  C   UNL     1     -13.724   1.874  -9.892  1.00  0.00     0.157 A 
ATOM     16  C   UNL     1     -11.772   0.487  -9.499  1.00  0.00     0.062 A 
ATOM     17  C   UNL     1     -12.362   1.757  -9.593  1.00  0.00     0.158 A 
BRANCH  15  18
ATOM     18  O   UNL     1     -14.306   3.137  -9.981  1.00  0.00    -0.504 OA
ATOM     19  H   UNL     1     -14.323   3.652 -10.852  1.00  0.00     0.293 HD
ENDBRANCH  15  18
BRANCH  17  20
ATOM     20  O   UNL     1     -11.597   2.905  -9.396  1.00  0.00    -0.504 OA
ATOM     21  H   UNL     1     -11.860   3.795  -9.802  1.00  0.00     0.293 HD
ENDBRANCH  17  20
ENDBRANCH   1  12
BRANCH   6  22
ATOM     22  O   UNL     1      -9.187  -6.399  -9.138  1.00  0.00    -0.507 OA
ATOM     23  H   UNL     1      -8.787  -6.771  -8.291  1.00  0.00     0.293 HD
ENDBRANCH   6  22
BRANCH   8  24
ATOM     24  O   UNL     1     -13.801  -7.712  -9.329  1.00  0.00    -0.508 OA
ATOM     25  H   UNL     1     -14.128  -8.118  -8.459  1.00  0.00     0.293 HD
ENDBRANCH   8  24
TORSDOF 5
ENDMDL
MODEL 5
REMARK VINA RESULT:    -5.659      1.817      3.504
REMARK INTER + INTRA:          -6.943
REMARK INTER:                  -6.674
REMARK INTRA:                  -0.270
REMARK UNBOUND:                -0.292
REMARK SMILES O=c1cc(-c2ccc(O)c(O)c2)oc2cc(O)cc(O)c12
REMARK SMILES IDX 4 1 3 2 2 3 1 4 21 5 19 6 18 7 16 8 15 9 14 10 13 11 5 12
REMARK SMILES IDX 6 13 7 14 8 15 12 16 10 17 9 18 11 20 20 22 17 24
REMARK H PARENT 9 19 11 21 20 23 17 25
REMARK Flexibility Score: inf
ROOT
ATOM      1  C   UNL     1     -10.114   7.598   6.645  1.00  0.00     0.138 A 
ATOM      2  C   UNL     1      -8.829   8.143   6.519  1.00  0.00     0.100 A 
ATOM      3  C   UNL     1      -8.670   9.419   5.979  1.00  0.00     0.197 A 
ATOM      4  O   UNL     1      -7.509   9.902   5.931  1.00  0.00    -0.289 OA
ATOM      5  C   UNL     1      -9.802  10.139   5.528  1.00  0.00     0.107 A 
ATOM      6  C   UNL     1      -9.758  11.434   4.928  1.00  0.00     0.134 A 
ATOM      7  C   UNL     1     -10.955  12.088   4.612  1.00  0.00     0.093 A 
ATOM      8  C   UNL     1     -12.191  11.472   4.819  1.00  0.00     0.123 A 
ATOM      9  C   UNL     1     -12.243  10.188   5.357  1.00  0.00     0.094 A 
ATOM     10  C   UNL     1     -11.068   9.522   5.715  1.00  0.00     0.146 A 
ATOM     11  O   UNL     1     -11.164   8.306   6.242  1.00  0.00    -0.456 OA
ENDROOT
BRANCH   1  12
ATOM     12  C   UNL     1     -10.342   6.243   7.208  1.00  0.00     0.021 A 
ATOM     13  C   UNL     1     -10.093   6.011   8.572  1.00  0.00     0.016 A 
ATOM     14  C   UNL     1     -10.292   4.744   9.125  1.00  0.00     0.051 A 
ATOM     15  C   UNL     1     -10.733   3.684   8.323  1.00  0.00     0.157 A 
ATOM     16  C   UNL     1     -10.774   5.169   6.405  1.00  0.00     0.062 A 
ATOM     17  C   UNL     1     -10.971   3.896   6.961  1.00  0.00     0.158 A 
BRANCH  15  18
ATOM     18  O   UNL     1     -10.934   2.419   8.872  1.00  0.00    -0.504 OA
ATOM     19  H   UNL     1     -10.387   1.620   8.575  1.00  0.00     0.293 HD
ENDBRANCH  15  18
BRANCH  17  20
ATOM     20  O   UNL     1     -11.400   2.838   6.162  1.00  0.00    -0.504 OA
ATOM     21  H   UNL     1     -12.365   2.531   6.160  1.00  0.00     0.293 HD
ENDBRANCH  17  20
ENDBRANCH   1  12
BRANCH   6  22
ATOM     22  O   UNL     1      -8.576  12.108   4.604  1.00  0.00    -0.507 OA
ATOM     23  H   UNL     1      -8.528  13.000   4.137  1.00  0.00     0.293 HD
ENDBRANCH   6  22
BRANCH   8  24
ATOM     24  O   UNL     1     -13.376  12.125   4.486  1.00  0.00    -0.508 OA
ATOM     25  H   UNL     1     -13.376  12.971   3.927  1.00  0.00     0.293 HD
ENDBRANCH   8  24
TORSDOF 5
ENDMDL
MODEL 6
REMARK VINA RESULT:    -5.532     17.460     19.228
REMARK INTER + INTRA:          -6.793
REMARK INTER:                  -6.478
REMARK INTRA:                  -0.315
REMARK UNBOUND:                -0.292
REMARK SMILES O=c1cc(-c2ccc(O)c(O)c2)oc2cc(O)cc(O)c12
REMARK SMILES IDX 4 1 3 2 2 3 1 4 21 5 19 6 18 7 16 8 15 9 14 10 13 11 5 12
REMARK SMILES IDX 6 13 7 14 8 15 12 16 10 17 9 18 11 20 20 22 17 24
REMARK H PARENT 9 19 11 21 20 23 17 25
REMARK Flexibility Score: inf
ROOT
ATOM      1  C   UNL     1     -11.842  -0.283  -9.369  1.00  0.00     0.138 A 
ATOM      2  C   UNL     1     -12.726  -1.150 -10.026  1.00  0.00     0.100 A 
ATOM      3  C   UNL     1     -12.429  -2.511 -10.102  1.00  0.00     0.197 A 
ATOM      4  O   UNL     1     -13.270  -3.270 -10.648  1.00  0.00    -0.289 OA
ATOM      5  C   UNL     1     -11.221  -3.000  -9.550  1.00  0.00     0.107 A 
ATOM      6  C   UNL     1     -10.796  -4.363  -9.598  1.00  0.00     0.134 A 
ATOM      7  C   UNL     1      -9.627  -4.744  -8.929  1.00  0.00     0.093 A 
ATOM      8  C   UNL     1      -8.837  -3.805  -8.264  1.00  0.00     0.123 A 
ATOM      9  C   UNL     1      -9.216  -2.464  -8.254  1.00  0.00     0.094 A 
ATOM     10  C   UNL     1     -10.395  -2.057  -8.882  1.00  0.00     0.146 A 
ATOM     11  O   UNL     1     -10.729  -0.772  -8.831  1.00  0.00    -0.456 OA
ENDROOT
BRANCH   1  12
ATOM     12  C   UNL     1     -12.105   1.174  -9.261  1.00  0.00     0.021 A 
ATOM     13  C   UNL     1     -13.379   1.673  -9.583  1.00  0.00     0.016 A 
ATOM     14  C   UNL     1     -13.650   3.040  -9.497  1.00  0.00     0.051 A 
ATOM     15  C   UNL     1     -12.650   3.935  -9.098  1.00  0.00     0.157 A 
ATOM     16  C   UNL     1     -11.100   2.082  -8.872  1.00  0.00     0.062 A 
ATOM     17  C   UNL     1     -11.372   3.456  -8.788  1.00  0.00     0.158 A 
BRANCH  15  18
ATOM     18  O   UNL     1     -12.917   5.300  -9.009  1.00  0.00    -0.504 OA
ATOM     19  H   UNL     1     -13.214   5.726  -8.140  1.00  0.00     0.293 HD
ENDBRANCH  15  18
BRANCH  17  20
ATOM     20  O   UNL     1     -10.376   4.349  -8.401  1.00  0.00    -0.504 OA
ATOM     21  H   UNL     1      -9.837   4.212  -7.553  1.00  0.00     0.293 HD
ENDBRANCH  17  20
ENDBRANCH   1  12
BRANCH   6  22
ATOM     22  O   UNL     1     -11.468  -5.369 -10.301  1.00  0.00    -0.507 OA
ATOM     23  H   UNL     1     -11.500  -6.339 -10.032  1.00  0.00     0.293 HD
ENDBRANCH   6  22
BRANCH   8  24
ATOM     24  O   UNL     1      -7.666  -4.192  -7.615  1.00  0.00    -0.508 OA
ATOM     25  H   UNL     1      -7.408  -5.168  -7.526  1.00  0.00     0.293 HD
ENDBRANCH   8  24
TORSDOF 5
ENDMDL
MODEL 7
REMARK VINA RESULT:    -5.318      2.179      2.978
REMARK INTER + INTRA:          -6.542
REMARK INTER:                  -6.276
REMARK INTRA:                  -0.266
REMARK UNBOUND:                -0.292
REMARK SMILES O=c1cc(-c2ccc(O)c(O)c2)oc2cc(O)cc(O)c12
REMARK SMILES IDX 4 1 3 2 2 3 1 4 21 5 19 6 18 7 16 8 15 9 14 10 13 11 5 12
REMARK SMILES IDX 6 13 7 14 8 15 12 16 10 17 9 18 11 20 20 22 17 24
REMARK H PARENT 9 19 11 21 20 23 17 25
REMARK Flexibility Score: inf
ROOT
ATOM      1  C   UNL     1     -11.563   7.624   6.349  1.00  0.00     0.138 A 
ATOM      2  C   UNL     1     -12.793   8.093   5.866  1.00  0.00     0.100 A 
ATOM      3  C   UNL     1     -12.855   9.328   5.221  1.00  0.00     0.197 A 
ATOM      4  O   UNL     1     -13.962   9.695   4.750  1.00  0.00    -0.289 OA
ATOM      5  C   UNL     1     -11.685  10.115   5.092  1.00  0.00     0.107 A 
ATOM      6  C   UNL     1     -11.635  11.407   4.484  1.00  0.00     0.134 A 
ATOM      7  C   UNL     1     -10.400  12.047   4.327  1.00  0.00     0.093 A 
ATOM      8  C   UNL     1      -9.222  11.471   4.807  1.00  0.00     0.123 A 
ATOM      9  C   UNL     1      -9.267  10.234   5.446  1.00  0.00     0.094 A 
ATOM     10  C   UNL     1     -10.478   9.553   5.588  1.00  0.00     0.146 A 
ATOM     11  O   UNL     1     -10.473   8.368   6.188  1.00  0.00    -0.456 OA
ENDROOT
BRANCH   1  12
ATOM     12  C   UNL     1     -11.439   6.319   7.046  1.00  0.00     0.021 A 
ATOM     13  C   UNL     1     -11.310   6.292   8.445  1.00  0.00     0.016 A 
ATOM     14  C   UNL     1     -11.183   5.079   9.125  1.00  0.00     0.051 A 
ATOM     15  C   UNL     1     -11.173   3.871   8.417  1.00  0.00     0.157 A 
ATOM     16  C   UNL     1     -11.415   5.100   6.339  1.00  0.00     0.062 A 
ATOM     17  C   UNL     1     -11.286   3.882   7.022  1.00  0.00     0.158 A 
BRANCH  15  18
ATOM     18  O   UNL     1     -11.049   2.657   9.091  1.00  0.00    -0.504 OA
ATOM     19  H   UNL     1     -11.041   2.612  10.103  1.00  0.00     0.293 HD
ENDBRANCH  15  18
BRANCH  17  20
ATOM     20  O   UNL     1     -11.264   2.679   6.319  1.00  0.00    -0.504 OA
ATOM     21  H   UNL     1     -11.918   2.490   5.568  1.00  0.00     0.293 HD
ENDBRANCH  17  20
ENDBRANCH   1  12
BRANCH   6  22
ATOM     22  O   UNL     1     -12.761  12.109   4.041  1.00  0.00    -0.507 OA
ATOM     23  H   UNL     1     -12.863  13.111   4.063  1.00  0.00     0.293 HD
ENDBRANCH   6  22
BRANCH   8  24
ATOM     24  O   UNL     1      -8.000  12.123   4.659  1.00  0.00    -0.508 OA
ATOM     25  H   UNL     1      -7.466  12.436   5.462  1.00  0.00     0.293 HD
ENDBRANCH   8  24
TORSDOF 5
ENDMDL
MODEL 8
REMARK VINA RESULT:    -5.285     18.770     20.887
REMARK INTER + INTRA:          -6.503
REMARK INTER:                  -6.210
REMARK INTRA:                  -0.293
REMARK UNBOUND:                -0.292
REMARK SMILES O=c1cc(-c2ccc(O)c(O)c2)oc2cc(O)cc(O)c12
REMARK SMILES IDX 4 1 3 2 2 3 1 4 21 5 19 6 18 7 16 8 15 9 14 10 13 11 5 12
REMARK SMILES IDX 6 13 7 14 8 15 12 16 10 17 9 18 11 20 20 22 17 24
REMARK H PARENT 9 19 11 21 20 23 17 25
REMARK Flexibility Score: inf
ROOT
ATOM      1  C   UNL     1     -12.800  -2.491  -9.726  1.00  0.00     0.138 A 
ATOM      2  C   UNL     1     -13.966  -3.116 -10.190  1.00  0.00     0.100 A 
ATOM      3  C   UNL     1     -14.035  -4.508 -10.224  1.00  0.00     0.197 A 
ATOM      4  O   UNL     1     -15.115  -5.039 -10.592  1.00  0.00    -0.289 OA
ATOM      5  C   UNL     1     -12.917  -5.280  -9.827  1.00  0.00     0.107 A 
ATOM      6  C   UNL     1     -12.860  -6.707  -9.853  1.00  0.00     0.134 A 
ATOM      7  C   UNL     1     -11.733  -7.361  -9.341  1.00  0.00     0.093 A 
ATOM      8  C   UNL     1     -10.638  -6.642  -8.860  1.00  0.00     0.123 A 
ATOM      9  C   UNL     1     -10.662  -5.249  -8.877  1.00  0.00     0.094 A 
ATOM     10  C   UNL     1     -11.786  -4.566  -9.348  1.00  0.00     0.146 A 
ATOM     11  O   UNL     1     -11.774  -3.237  -9.329  1.00  0.00    -0.456 OA
ENDROOT
BRANCH   1  12
ATOM     12  C   UNL     1     -12.669  -1.013  -9.671  1.00  0.00     0.021 A 
ATOM     13  C   UNL     1     -11.391  -0.435  -9.583  1.00  0.00     0.016 A 
ATOM     14  C   UNL     1     -11.240   0.952  -9.522  1.00  0.00     0.051 A 
ATOM     15  C   UNL     1     -12.365   1.786  -9.538  1.00  0.00     0.157 A 
ATOM     16  C   UNL     1     -13.797  -0.168  -9.673  1.00  0.00     0.062 A 
ATOM     17  C   UNL     1     -13.645   1.225  -9.610  1.00  0.00     0.158 A 
BRANCH  15  18
ATOM     18  O   UNL     1     -12.219   3.171  -9.479  1.00  0.00    -0.504 OA
ATOM     19  H   UNL     1     -12.754   3.785 -10.080  1.00  0.00     0.293 HD
ENDBRANCH  15  18
BRANCH  17  20
ATOM     20  O   UNL     1     -14.764   2.056  -9.614  1.00  0.00    -0.504 OA
ATOM     21  H   UNL     1     -14.691   3.047  -9.413  1.00  0.00     0.293 HD
ENDBRANCH  17  20
ENDBRANCH   1  12
BRANCH   6  22
ATOM     22  O   UNL     1     -13.865  -7.521 -10.384  1.00  0.00    -0.507 OA
ATOM     23  H   UNL     1     -14.470  -8.120  -9.845  1.00  0.00     0.293 HD
ENDBRANCH   6  22
BRANCH   8  24
ATOM     24  O   UNL     1      -9.514  -7.302  -8.367  1.00  0.00    -0.508 OA
ATOM     25  H   UNL     1      -9.495  -7.691  -7.431  1.00  0.00     0.293 HD
ENDBRANCH   8  24
TORSDOF 5
ENDMDL
MODEL 9
REMARK VINA RESULT:    -5.137     17.932     19.075
REMARK INTER + INTRA:          -6.329
REMARK INTER:                  -6.016
REMARK INTRA:                  -0.313
REMARK UNBOUND:                -0.292
REMARK SMILES O=c1cc(-c2ccc(O)c(O)c2)oc2cc(O)cc(O)c12
REMARK SMILES IDX 4 1 3 2 2 3 1 4 21 5 19 6 18 7 16 8 15 9 14 10 13 11 5 12
REMARK SMILES IDX 6 13 7 14 8 15 12 16 10 17 9 18 11 20 20 22 17 24
REMARK H PARENT 9 19 11 21 20 23 17 25
REMARK Flexibility Score: inf
ROOT
ATOM      1  C   UNL     1     -11.846  -1.744  -9.593  1.00  0.00     0.138 A 
ATOM      2  C   UNL     1     -13.116  -1.606 -10.168  1.00  0.00     0.100 A 
ATOM      3  C   UNL     1     -13.683  -0.337 -10.291  1.00  0.00     0.197 A 
ATOM      4  O   UNL     1     -14.800  -0.241 -10.862  1.00  0.00    -0.289 OA
ATOM      5  C   UNL     1     -12.989   0.795  -9.802  1.00  0.00     0.107 A 
ATOM      6  C   UNL     1     -13.484   2.134  -9.842  1.00  0.00     0.134 A 
ATOM      7  C   UNL     1     -12.663   3.186  -9.417  1.00  0.00     0.093 A 
ATOM      8  C   UNL     1     -11.390   2.942  -8.898  1.00  0.00     0.123 A 
ATOM      9  C   UNL     1     -10.917   1.635  -8.808  1.00  0.00     0.094 A 
ATOM     10  C   UNL     1     -11.697   0.567  -9.257  1.00  0.00     0.146 A 
ATOM     11  O   UNL     1     -11.200  -0.662  -9.169  1.00  0.00    -0.456 OA
ENDROOT
BRANCH   1  12
ATOM     12  C   UNL     1     -11.196  -3.069  -9.433  1.00  0.00     0.021 A 
ATOM     13  C   UNL     1     -11.981  -4.234  -9.471  1.00  0.00     0.016 A 
ATOM     14  C   UNL     1     -11.395  -5.492  -9.315  1.00  0.00     0.051 A 
ATOM     15  C   UNL     1     -10.016  -5.608  -9.108  1.00  0.00     0.157 A 
ATOM     16  C   UNL     1      -9.809  -3.193  -9.210  1.00  0.00     0.062 A 
ATOM     17  C   UNL     1      -9.222  -4.457  -9.052  1.00  0.00     0.158 A 
BRANCH  15  18
ATOM     18  O   UNL     1      -9.427  -6.862  -8.953  1.00  0.00    -0.504 OA
ATOM     19  H   UNL     1      -9.693  -7.483  -8.198  1.00  0.00     0.293 HD
ENDBRANCH  15  18
BRANCH  17  20
ATOM     20  O   UNL     1      -7.851  -4.574  -8.834  1.00  0.00    -0.504 OA
ATOM     21  H   UNL     1      -7.316  -3.832  -8.398  1.00  0.00     0.293 HD
ENDBRANCH  17  20
ENDBRANCH   1  12
BRANCH   6  22
ATOM     22  O   UNL     1     -14.771   2.482 -10.266  1.00  0.00    -0.507 OA
ATOM     23  H   UNL     1     -15.442   2.996  -9.717  1.00  0.00     0.293 HD
ENDBRANCH   6  22
BRANCH   8  24
ATOM     24  O   UNL     1     -10.586   3.994  -8.463  1.00  0.00    -0.508 OA
ATOM     25  H   UNL     1     -10.967   4.765  -7.926  1.00  0.00     0.293 HD
ENDBRANCH   8  24
TORSDOF 5
ENDMDL
