MODEL 1
REMARK VINA RESULT:    -5.571      0.000      0.000
REMARK INTER + INTRA:          -5.775
REMARK INTER:                  -6.060
REMARK INTRA:                   0.284
REMARK UNBOUND:                 0.284
REMARK SMILES C[C@@H]1[C@H]2C3=CC[C@@H]4[C@]5(C)CC[C@H](O)C(C)(C)[C@H]5CC[C@]4(C)[C@@]3(C)CC[C@]2(C(=O)[O-])CC[C@@H]1C
REMARK SMILES IDX 26 1 30 2 25 3 3 4 31 5 24 6 4 7 2 8 32 9 22 10 5 11 1 12
REMARK SMILES IDX 33 13 23 14 20 15 6 16 7 17 19 18 21 19 8 20 18 21 17 22
REMARK SMILES IDX 10 23 9 24 14 25 11 26 12 27 15 28 16 29 27 30 28 31 29 32
REMARK SMILES IDX 13 33
REMARK H PARENT 13 34
REMARK Flexibility Score: inf
ROOT
ATOM      1  C   UNL     1      10.904 -22.131  -9.850  1.00  0.00     0.017 C 
ATOM      2  C   UNL     1      12.391 -21.938 -10.321  1.00  0.00     0.014 C 
ATOM      3  C   UNL     1      10.846 -23.358  -8.881  1.00  0.00     0.014 C 
ATOM      4  C   UNL     1      10.392 -20.886  -9.055  1.00  0.00     0.030 C 
ATOM      5  C   UNL     1      12.950 -20.521 -10.108  1.00  0.00     0.004 C 
ATOM      6  C   UNL     1       9.481 -23.564  -8.165  1.00  0.00     0.013 C 
ATOM      7  C   UNL     1       8.982 -21.187  -8.507  1.00  0.00    -0.063 C 
ATOM      8  C   UNL     1      10.610 -19.498  -9.764  1.00  0.00    -0.003 C 
ATOM      9  C   UNL     1      11.947 -19.463 -10.588  1.00  0.00    -0.011 C 
ATOM     10  C   UNL     1       8.888 -22.295  -7.447  1.00  0.00    -0.006 C 
ATOM     11  C   UNL     1       7.914 -20.862  -9.253  1.00  0.00    -0.027 C 
ATOM     12  C   UNL     1      10.489 -18.375  -8.712  1.00  0.00     0.008 C 
ATOM     13  C   UNL     1      12.621 -18.081 -10.671  1.00  0.00     0.008 C 
ATOM     14  C   UNL     1       9.815 -21.911  -6.240  1.00  0.00     0.017 C 
ATOM     15  C   UNL     1       7.378 -22.566  -6.905  1.00  0.00    -0.020 C 
ATOM     16  C   UNL     1       6.514 -21.248  -8.958  1.00  0.00     0.032 C 
ATOM     17  C   UNL     1       6.309 -22.513  -8.081  1.00  0.00     0.006 C 
ATOM     18  C   UNL     1       6.952 -21.500  -5.841  1.00  0.00     0.008 C 
ATOM     19  C   UNL     1       7.381 -23.973  -6.209  1.00  0.00     0.012 C 
ATOM     20  C   UNL     1       4.771 -22.642  -7.615  1.00  0.00    -0.025 C 
ATOM     21  C   UNL     1       5.495 -21.620  -5.342  1.00  0.00     0.005 C 
ATOM     22  C   UNL     1       4.472 -21.565  -6.497  1.00  0.00     0.003 C 
ATOM     23  C   UNL     1       3.790 -22.361  -8.808  1.00  0.00     0.010 C 
ATOM     24  C   UNL     1       4.500 -24.113  -7.153  1.00  0.00     0.012 C 
ATOM     25  C   UNL     1       2.957 -21.435  -6.047  1.00  0.00    -0.006 C 
ATOM     26  C   UNL     1       2.306 -22.286  -8.403  1.00  0.00     0.033 C 
ATOM     27  C   UNL     1       2.059 -21.228  -7.313  1.00  0.00     0.120 C 
ATOM     28  C   UNL     1       2.779 -20.188  -5.134  1.00  0.00     0.014 C 
ATOM     29  C   UNL     1       2.439 -22.646  -5.227  1.00  0.00     0.014 C 
ENDROOT
BRANCH   1  30
ATOM     30  C   UNL     1      10.034 -22.399 -11.080  1.00  0.00     0.048 C 
ATOM     31  O   UNL     1       9.770 -21.472 -11.890  1.00  0.00    -0.550 OA
ATOM     32  O   UNL     1       9.586 -23.683 -11.375  1.00  0.00    -0.550 OA
ENDBRANCH   1  30
BRANCH  27  33
ATOM     33  O   UNL     1       2.281 -19.950  -7.862  1.00  0.00    -0.393 OA
ATOM     34  H   UNL     1       2.752 -19.413  -7.172  1.00  0.00     0.210 HD
ENDBRANCH  27  33
TORSDOF 2
ENDMDL
MODEL 2
REMARK VINA RESULT:    -5.247      2.020      3.636
REMARK INTER + INTRA:          -5.422
REMARK INTER:                  -5.612
REMARK INTRA:                   0.189
REMARK UNBOUND:                 0.284
REMARK SMILES C[C@@H]1[C@H]2C3=CC[C@@H]4[C@]5(C)CC[C@H](O)C(C)(C)[C@H]5CC[C@]4(C)[C@@]3(C)CC[C@]2(C(=O)[O-])CC[C@@H]1C
REMARK SMILES IDX 26 1 30 2 25 3 3 4 31 5 24 6 4 7 2 8 32 9 22 10 5 11 1 12
REMARK SMILES IDX 33 13 23 14 20 15 6 16 7 17 19 18 21 19 8 20 18 21 17 22
REMARK SMILES IDX 10 23 9 24 14 25 11 26 12 27 15 28 16 29 27 30 28 31 29 32
REMARK SMILES IDX 13 33
REMARK H PARENT 13 34
REMARK Flexibility Score: inf
ROOT
ATOM      1  C   UNL     1      11.566 -21.002  -8.867  1.00  0.00     0.017 C 
ATOM      2  C   UNL     1      12.990 -20.984  -9.533  1.00  0.00     0.014 C 
ATOM      3  C   UNL     1      11.106 -19.523  -8.644  1.00  0.00     0.014 C 
ATOM      4  C   UNL     1      10.510 -21.681  -9.799  1.00  0.00     0.030 C 
ATOM      5  C   UNL     1      13.101 -21.812 -10.824  1.00  0.00     0.004 C 
ATOM      6  C   UNL     1       9.632 -19.358  -8.178  1.00  0.00     0.013 C 
ATOM      7  C   UNL     1       9.115 -21.549  -9.155  1.00  0.00    -0.063 C 
ATOM      8  C   UNL     1      10.916 -23.095 -10.357  1.00  0.00    -0.003 C 
ATOM      9  C   UNL     1      12.458 -23.194 -10.642  1.00  0.00    -0.011 C 
ATOM     10  C   UNL     1       8.556 -20.123  -9.035  1.00  0.00    -0.006 C 
ATOM     11  C   UNL     1       8.683 -22.523  -8.338  1.00  0.00    -0.027 C 
ATOM     12  C   UNL     1      10.028 -23.425 -11.577  1.00  0.00     0.008 C 
ATOM     13  C   UNL     1      12.843 -24.125 -11.807  1.00  0.00     0.008 C 
ATOM     14  C   UNL     1       8.499 -19.488 -10.469  1.00  0.00     0.017 C 
ATOM     15  C   UNL     1       7.082 -20.046  -8.350  1.00  0.00    -0.020 C 
ATOM     16  C   UNL     1       7.461 -22.462  -7.502  1.00  0.00     0.032 C 
ATOM     17  C   UNL     1       6.947 -21.046  -7.122  1.00  0.00     0.006 C 
ATOM     18  C   UNL     1       5.955 -20.412  -9.374  1.00  0.00     0.008 C 
ATOM     19  C   UNL     1       6.860 -18.561  -7.894  1.00  0.00     0.012 C 
ATOM     20  C   UNL     1       5.477 -21.131  -6.465  1.00  0.00    -0.025 C 
ATOM     21  C   UNL     1       4.528 -20.461  -8.785  1.00  0.00     0.005 C 
ATOM     22  C   UNL     1       4.416 -21.439  -7.595  1.00  0.00     0.003 C 
ATOM     23  C   UNL     1       5.390 -22.294  -5.414  1.00  0.00     0.010 C 
ATOM     24  C   UNL     1       5.190 -19.804  -5.685  1.00  0.00     0.012 C 
ATOM     25  C   UNL     1       2.938 -21.728  -7.099  1.00  0.00    -0.006 C 
ATOM     26  C   UNL     1       3.970 -22.555  -4.875  1.00  0.00     0.033 C 
ATOM     27  C   UNL     1       2.970 -22.850  -6.007  1.00  0.00     0.120 C 
ATOM     28  C   UNL     1       2.072 -22.247  -8.283  1.00  0.00     0.014 C 
ATOM     29  C   UNL     1       2.205 -20.477  -6.547  1.00  0.00     0.014 C 
ENDROOT
BRANCH   1  30
ATOM     30  C   UNL     1      11.665 -21.724  -7.523  1.00  0.00     0.048 C 
ATOM     31  O   UNL     1      12.210 -22.856  -7.444  1.00  0.00    -0.550 OA
ATOM     32  O   UNL     1      11.233 -21.115  -6.348  1.00  0.00    -0.550 OA
ENDBRANCH   1  30
BRANCH  27  33
ATOM     33  O   UNL     1       3.298 -24.088  -6.593  1.00  0.00    -0.393 OA
ATOM     34  H   UNL     1       3.611 -24.684  -5.863  1.00  0.00     0.210 HD
ENDBRANCH  27  33
TORSDOF 2
ENDMDL
MODEL 3
REMARK VINA RESULT:    -3.154      1.040      1.492
REMARK INTER + INTRA:          -3.146
REMARK INTER:                  -3.416
REMARK INTRA:                   0.270
REMARK UNBOUND:                 0.284
REMARK SMILES C[C@@H]1[C@H]2C3=CC[C@@H]4[C@]5(C)CC[C@H](O)C(C)(C)[C@H]5CC[C@]4(C)[C@@]3(C)CC[C@]2(C(=O)[O-])CC[C@@H]1C
REMARK SMILES IDX 26 1 30 2 25 3 3 4 31 5 24 6 4 7 2 8 32 9 22 10 5 11 1 12
REMARK SMILES IDX 33 13 23 14 20 15 6 16 7 17 19 18 21 19 8 20 18 21 17 22
REMARK SMILES IDX 10 23 9 24 14 25 11 26 12 27 15 28 16 29 27 30 28 31 29 32
REMARK SMILES IDX 13 33
REMARK H PARENT 13 34
REMARK Flexibility Score: inf
ROOT
ATOM      1  C   UNL     1      10.678 -20.296 -10.290  1.00  0.00     0.017 C 
ATOM      2  C   UNL     1      12.064 -19.733 -10.772  1.00  0.00     0.014 C 
ATOM      3  C   UNL     1      10.920 -21.666  -9.576  1.00  0.00     0.014 C 
ATOM      4  C   UNL     1      10.007 -19.342  -9.249  1.00  0.00     0.030 C 
ATOM      5  C   UNL     1      12.366 -18.298 -10.310  1.00  0.00     0.004 C 
ATOM      6  C   UNL     1       9.675 -22.263  -8.860  1.00  0.00     0.013 C 
ATOM      7  C   UNL     1       8.722 -20.007  -8.715  1.00  0.00    -0.063 C 
ATOM      8  C   UNL     1       9.910 -17.832  -9.684  1.00  0.00    -0.003 C 
ATOM      9  C   UNL     1      11.152 -17.386 -10.537  1.00  0.00    -0.011 C 
ATOM     10  C   UNL     1       8.914 -21.286  -7.888  1.00  0.00    -0.006 C 
ATOM     11  C   UNL     1       7.559 -19.767  -9.342  1.00  0.00    -0.027 C 
ATOM     12  C   UNL     1       9.664 -16.965  -8.430  1.00  0.00     0.008 C 
ATOM     13  C   UNL     1      11.551 -15.908 -10.376  1.00  0.00     0.008 C 
ATOM     14  C   UNL     1       9.843 -20.956  -6.666  1.00  0.00     0.017 C 
ATOM     15  C   UNL     1       7.526 -21.943  -7.350  1.00  0.00    -0.020 C 
ATOM     16  C   UNL     1       6.280 -20.466  -9.073  1.00  0.00     0.032 C 
ATOM     17  C   UNL     1       6.380 -21.886  -8.451  1.00  0.00     0.006 C 
ATOM     18  C   UNL     1       6.992 -21.193  -6.083  1.00  0.00     0.008 C 
ATOM     19  C   UNL     1       7.841 -23.425  -6.941  1.00  0.00     0.012 C 
ATOM     20  C   UNL     1       4.931 -22.395  -7.959  1.00  0.00    -0.025 C 
ATOM     21  C   UNL     1       5.624 -21.685  -5.561  1.00  0.00     0.005 C 
ATOM     22  C   UNL     1       4.523 -21.621  -6.642  1.00  0.00     0.003 C 
ATOM     23  C   UNL     1       3.828 -22.098  -9.036  1.00  0.00     0.010 C 
ATOM     24  C   UNL     1       4.972 -23.951  -7.781  1.00  0.00     0.012 C 
ATOM     25  C   UNL     1       3.049 -21.874  -6.117  1.00  0.00    -0.006 C 
ATOM     26  C   UNL     1       2.390 -22.391  -8.566  1.00  0.00     0.033 C 
ATOM     27  C   UNL     1       2.035 -21.618  -7.282  1.00  0.00     0.120 C 
ATOM     28  C   UNL     1       2.713 -20.874  -4.973  1.00  0.00     0.014 C 
ATOM     29  C   UNL     1       2.827 -23.291  -5.527  1.00  0.00     0.014 C 
ENDROOT
BRANCH   1  30
ATOM     30  C   UNL     1       9.781 -20.499 -11.514  1.00  0.00     0.048 C 
ATOM     31  O   UNL     1       9.276 -21.626 -11.755  1.00  0.00    -0.550 OA
ATOM     32  O   UNL     1       9.438 -19.429 -12.335  1.00  0.00    -0.550 OA
ENDBRANCH   1  30
BRANCH  27  33
ATOM     33  O   UNL     1       1.975 -20.243  -7.581  1.00  0.00    -0.393 OA
ATOM     34  H   UNL     1       2.275 -19.754  -6.771  1.00  0.00     0.210 HD
ENDBRANCH  27  33
TORSDOF 2
ENDMDL
