MODEL 1
REMARK VINA RESULT:    -5.527      0.000      0.000
REMARK INTER + INTRA:          -6.793
REMARK INTER:                  -6.497
REMARK INTRA:                  -0.296
REMARK UNBOUND:                -0.296
REMARK SMILES O=c1c(O)c(-c2ccc(O)cc2)oc2cc(O)cc(O)c12
REMARK SMILES IDX 5 1 3 2 2 3 1 4 21 5 19 6 18 7 16 8 15 9 14 10 13 11 6 12
REMARK SMILES IDX 7 13 8 14 9 15 12 16 11 17 10 18 4 20 20 22 17 24
REMARK H PARENT 10 19 4 21 20 23 17 25
REMARK Flexibility Score: inf
ROOT
ATOM      1  C   UNL     1      18.771  20.234  20.093  1.00  0.00     0.180 A 
ATOM      2  C   UNL     1      18.462  20.672  18.793  1.00  0.00     0.208 A 
ATOM      3  C   UNL     1      18.711  22.010  18.449  1.00  0.00     0.238 A 
ATOM      4  O   UNL     1      18.502  22.377  17.262  1.00  0.00    -0.285 OA
ATOM      5  C   UNL     1      19.211  22.909  19.423  1.00  0.00     0.111 A 
ATOM      6  C   UNL     1      19.458  24.297  19.197  1.00  0.00     0.134 A 
ATOM      7  C   UNL     1      20.054  25.065  20.204  1.00  0.00     0.093 A 
ATOM      8  C   UNL     1      20.354  24.512  21.449  1.00  0.00     0.123 A 
ATOM      9  C   UNL     1      20.067  23.170  21.699  1.00  0.00     0.094 A 
ATOM     10  C   UNL     1      19.508  22.368  20.702  1.00  0.00     0.146 A 
ATOM     11  O   UNL     1      19.270  21.091  20.975  1.00  0.00    -0.452 OA
ENDROOT
BRANCH   1  12
ATOM     12  C   UNL     1      18.552  18.835  20.526  1.00  0.00     0.021 A 
ATOM     13  C   UNL     1      19.523  17.840  20.312  1.00  0.00     0.016 A 
ATOM     14  C   UNL     1      19.303  16.531  20.753  1.00  0.00     0.047 A 
ATOM     15  C   UNL     1      18.118  16.204  21.425  1.00  0.00     0.115 A 
ATOM     16  C   UNL     1      17.376  18.503  21.219  1.00  0.00     0.016 A 
ATOM     17  C   UNL     1      17.158  17.195  21.658  1.00  0.00     0.047 A 
BRANCH  15  18
ATOM     18  O   UNL     1      17.888  14.904  21.868  1.00  0.00    -0.508 OA
ATOM     19  H   UNL     1      18.105  14.621  22.816  1.00  0.00     0.293 HD
ENDBRANCH  15  18
ENDBRANCH   1  12
BRANCH   2  20
ATOM     20  O   UNL     1      17.898  19.789  17.868  1.00  0.00    -0.502 OA
ATOM     21  H   UNL     1      16.994  19.953  17.441  1.00  0.00     0.293 HD
ENDBRANCH   2  20
BRANCH   6  22
ATOM     22  O   UNL     1      19.116  24.972  18.022  1.00  0.00    -0.507 OA
ATOM     23  H   UNL     1      19.405  25.910  17.789  1.00  0.00     0.293 HD
ENDBRANCH   6  22
BRANCH   8  24
ATOM     24  O   UNL     1      20.931  25.311  22.434  1.00  0.00    -0.508 OA
ATOM     25  H   UNL     1      21.832  25.756  22.296  1.00  0.00     0.293 HD
ENDBRANCH   8  24
TORSDOF 5
ENDMDL
MODEL 2
REMARK VINA RESULT:    -5.459      2.110      7.103
REMARK INTER + INTRA:          -6.713
REMARK INTER:                  -6.428
REMARK INTRA:                  -0.285
REMARK UNBOUND:                -0.296
REMARK SMILES O=c1c(O)c(-c2ccc(O)cc2)oc2cc(O)cc(O)c12
REMARK SMILES IDX 5 1 3 2 2 3 1 4 21 5 19 6 18 7 16 8 15 9 14 10 13 11 6 12
REMARK SMILES IDX 7 13 8 14 9 15 12 16 11 17 10 18 4 20 20 22 17 24
REMARK H PARENT 10 19 4 21 20 23 17 25
REMARK Flexibility Score: inf
ROOT
ATOM      1  C   UNL     1      19.929  19.875  20.877  1.00  0.00     0.180 A 
ATOM      2  C   UNL     1      21.264  19.458  21.018  1.00  0.00     0.208 A 
ATOM      3  C   UNL     1      21.527  18.176  21.524  1.00  0.00     0.238 A 
ATOM      4  O   UNL     1      22.722  17.781  21.577  1.00  0.00    -0.285 OA
ATOM      5  C   UNL     1      20.456  17.346  21.937  1.00  0.00     0.111 A 
ATOM      6  C   UNL     1      20.608  16.046  22.507  1.00  0.00     0.134 A 
ATOM      7  C   UNL     1      19.472  15.274  22.780  1.00  0.00     0.093 A 
ATOM      8  C   UNL     1      18.190  15.778  22.563  1.00  0.00     0.123 A 
ATOM      9  C   UNL     1      18.028  17.069  22.058  1.00  0.00     0.094 A 
ATOM     10  C   UNL     1      19.142  17.849  21.740  1.00  0.00     0.146 A 
ATOM     11  O   UNL     1      18.944  19.063  21.242  1.00  0.00    -0.452 OA
ENDROOT
BRANCH   1  12
ATOM     12  C   UNL     1      19.571  21.206  20.337  1.00  0.00     0.021 A 
ATOM     13  C   UNL     1      19.517  22.343  21.164  1.00  0.00     0.016 A 
ATOM     14  C   UNL     1      19.200  23.595  20.626  1.00  0.00     0.047 A 
ATOM     15  C   UNL     1      18.950  23.728  19.254  1.00  0.00     0.115 A 
ATOM     16  C   UNL     1      19.339  21.354  18.959  1.00  0.00     0.016 A 
ATOM     17  C   UNL     1      19.023  22.605  18.423  1.00  0.00     0.047 A 
BRANCH  15  18
ATOM     18  O   UNL     1      18.633  24.969  18.708  1.00  0.00    -0.508 OA
ATOM     19  H   UNL     1      19.195  25.384  17.974  1.00  0.00     0.293 HD
ENDBRANCH  15  18
ENDBRANCH   1  12
BRANCH   2  20
ATOM     20  O   UNL     1      22.310  20.320  20.675  1.00  0.00    -0.502 OA
ATOM     21  H   UNL     1      23.160  19.994  20.231  1.00  0.00     0.293 HD
ENDBRANCH   2  20
BRANCH   6  22
ATOM     22  O   UNL     1      21.839  15.479  22.847  1.00  0.00    -0.507 OA
ATOM     23  H   UNL     1      22.707  15.987  22.929  1.00  0.00     0.293 HD
ENDBRANCH   6  22
BRANCH   8  24
ATOM     24  O   UNL     1      17.082  14.989  22.862  1.00  0.00    -0.508 OA
ATOM     25  H   UNL     1      16.994  14.514  23.753  1.00  0.00     0.293 HD
ENDBRANCH   8  24
TORSDOF 5
ENDMDL
MODEL 3
REMARK VINA RESULT:    -5.455      5.524      6.719
REMARK INTER + INTRA:          -6.708
REMARK INTER:                  -6.423
REMARK INTRA:                  -0.285
REMARK UNBOUND:                -0.296
REMARK SMILES O=c1c(O)c(-c2ccc(O)cc2)oc2cc(O)cc(O)c12
REMARK SMILES IDX 5 1 3 2 2 3 1 4 21 5 19 6 18 7 16 8 15 9 14 10 13 11 6 12
REMARK SMILES IDX 7 13 8 14 9 15 12 16 11 17 10 18 4 20 20 22 17 24
REMARK H PARENT 10 19 4 21 20 23 17 25
REMARK Flexibility Score: inf
ROOT
ATOM      1  C   UNL     1      21.471  16.446  21.167  1.00  0.00     0.180 A 
ATOM      2  C   UNL     1      21.279  15.683  20.002  1.00  0.00     0.208 A 
ATOM      3  C   UNL     1      22.311  15.620  19.052  1.00  0.00     0.238 A 
ATOM      4  O   UNL     1      22.161  14.876  18.047  1.00  0.00    -0.285 OA
ATOM      5  C   UNL     1      23.499  16.366  19.250  1.00  0.00     0.111 A 
ATOM      6  C   UNL     1      24.591  16.412  18.331  1.00  0.00     0.134 A 
ATOM      7  C   UNL     1      25.760  17.099  18.682  1.00  0.00     0.093 A 
ATOM      8  C   UNL     1      25.853  17.793  19.888  1.00  0.00     0.123 A 
ATOM      9  C   UNL     1      24.771  17.800  20.770  1.00  0.00     0.094 A 
ATOM     10  C   UNL     1      23.606  17.092  20.465  1.00  0.00     0.146 A 
ATOM     11  O   UNL     1      22.609  17.107  21.341  1.00  0.00    -0.452 OA
ENDROOT
BRANCH   1  12
ATOM     12  C   UNL     1      20.436  16.549  22.222  1.00  0.00     0.021 A 
ATOM     13  C   UNL     1      19.405  17.503  22.146  1.00  0.00     0.016 A 
ATOM     14  C   UNL     1      18.425  17.564  23.142  1.00  0.00     0.047 A 
ATOM     15  C   UNL     1      18.455  16.665  24.216  1.00  0.00     0.115 A 
ATOM     16  C   UNL     1      20.446  15.637  23.290  1.00  0.00     0.016 A 
ATOM     17  C   UNL     1      19.466  15.701  24.285  1.00  0.00     0.047 A 
BRANCH  15  18
ATOM     18  O   UNL     1      17.485  16.717  25.214  1.00  0.00    -0.508 OA
ATOM     19  H   UNL     1      17.723  16.941  26.173  1.00  0.00     0.293 HD
ENDBRANCH  15  18
ENDBRANCH   1  12
BRANCH   2  20
ATOM     20  O   UNL     1      20.070  15.016  19.789  1.00  0.00    -0.502 OA
ATOM     21  H   UNL     1      19.354  15.373  19.168  1.00  0.00     0.293 HD
ENDBRANCH   2  20
BRANCH   6  22
ATOM     22  O   UNL     1      24.572  15.829  17.061  1.00  0.00    -0.507 OA
ATOM     23  H   UNL     1      25.367  15.405  16.608  1.00  0.00     0.293 HD
ENDBRANCH   6  22
BRANCH   8  24
ATOM     24  O   UNL     1      27.025  18.480  20.197  1.00  0.00    -0.508 OA
ATOM     25  H   UNL     1      27.677  18.131  20.890  1.00  0.00     0.293 HD
ENDBRANCH   8  24
TORSDOF 5
ENDMDL
MODEL 4
REMARK VINA RESULT:    -5.344      5.540      7.575
REMARK INTER + INTRA:          -6.578
REMARK INTER:                  -6.712
REMARK INTRA:                   0.134
REMARK UNBOUND:                -0.296
REMARK SMILES O=c1c(O)c(-c2ccc(O)cc2)oc2cc(O)cc(O)c12
REMARK SMILES IDX 5 1 3 2 2 3 1 4 21 5 19 6 18 7 16 8 15 9 14 10 13 11 6 12
REMARK SMILES IDX 7 13 8 14 9 15 12 16 11 17 10 18 4 20 20 22 17 24
REMARK H PARENT 10 19 4 21 20 23 17 25
REMARK Flexibility Score: inf
ROOT
ATOM      1  C   UNL     1      21.705  16.691  20.869  1.00  0.00     0.180 A 
ATOM      2  C   UNL     1      20.778  16.328  19.877  1.00  0.00     0.208 A 
ATOM      3  C   UNL     1      19.490  15.925  20.264  1.00  0.00     0.238 A 
ATOM      4  O   UNL     1      18.641  15.673  19.368  1.00  0.00    -0.285 OA
ATOM      5  C   UNL     1      19.162  15.834  21.639  1.00  0.00     0.111 A 
ATOM      6  C   UNL     1      17.902  15.393  22.147  1.00  0.00     0.134 A 
ATOM      7  C   UNL     1      17.656  15.447  23.524  1.00  0.00     0.093 A 
ATOM      8  C   UNL     1      18.643  15.862  24.417  1.00  0.00     0.123 A 
ATOM      9  C   UNL     1      19.897  16.243  23.937  1.00  0.00     0.094 A 
ATOM     10  C   UNL     1      20.160  16.238  22.565  1.00  0.00     0.146 A 
ATOM     11  O   UNL     1      21.359  16.627  22.149  1.00  0.00    -0.452 OA
ENDROOT
BRANCH   1  12
ATOM     12  C   UNL     1      23.077  17.141  20.539  1.00  0.00     0.021 A 
ATOM     13  C   UNL     1      23.663  18.242  21.189  1.00  0.00     0.016 A 
ATOM     14  C   UNL     1      24.970  18.633  20.877  1.00  0.00     0.047 A 
ATOM     15  C   UNL     1      25.710  17.920  19.925  1.00  0.00     0.115 A 
ATOM     16  C   UNL     1      23.834  16.418  19.602  1.00  0.00     0.016 A 
ATOM     17  C   UNL     1      25.139  16.811  19.292  1.00  0.00     0.047 A 
BRANCH  15  18
ATOM     18  O   UNL     1      27.011  18.300  19.606  1.00  0.00    -0.508 OA
ATOM     19  H   UNL     1      27.615  18.745  20.287  1.00  0.00     0.293 HD
ENDBRANCH  15  18
ENDBRANCH   1  12
BRANCH   2  20
ATOM     20  O   UNL     1      21.144  16.352  18.528  1.00  0.00    -0.502 OA
ATOM     21  H   UNL     1      20.787  17.042  17.880  1.00  0.00     0.293 HD
ENDBRANCH   2  20
BRANCH   6  22
ATOM     22  O   UNL     1      16.875  14.875  21.353  1.00  0.00    -0.507 OA
ATOM     23  H   UNL     1      16.397  15.382  20.624  1.00  0.00     0.293 HD
ENDBRANCH   6  22
BRANCH   8  24
ATOM     24  O   UNL     1      18.369  15.885  25.783  1.00  0.00    -0.508 OA
ATOM     25  H   UNL     1      17.815  15.161  26.225  1.00  0.00     0.293 HD
ENDBRANCH   8  24
TORSDOF 5
ENDMDL
MODEL 5
REMARK VINA RESULT:    -5.153      1.685      6.691
REMARK INTER + INTRA:          -6.353
REMARK INTER:                  -6.056
REMARK INTRA:                  -0.297
REMARK UNBOUND:                -0.296
REMARK SMILES O=c1c(O)c(-c2ccc(O)cc2)oc2cc(O)cc(O)c12
REMARK SMILES IDX 5 1 3 2 2 3 1 4 21 5 19 6 18 7 16 8 15 9 14 10 13 11 6 12
REMARK SMILES IDX 7 13 8 14 9 15 12 16 11 17 10 18 4 20 20 22 17 24
REMARK H PARENT 10 19 4 21 20 23 17 25
REMARK Flexibility Score: inf
ROOT
ATOM      1  C   UNL     1      19.440  20.505  20.173  1.00  0.00     0.180 A 
ATOM      2  C   UNL     1      18.254  19.961  19.652  1.00  0.00     0.208 A 
ATOM      3  C   UNL     1      17.974  18.603  19.874  1.00  0.00     0.238 A 
ATOM      4  O   UNL     1      16.875  18.139  19.469  1.00  0.00    -0.285 OA
ATOM      5  C   UNL     1      18.909  17.793  20.563  1.00  0.00     0.111 A 
ATOM      6  C   UNL     1      18.750  16.394  20.805  1.00  0.00     0.134 A 
ATOM      7  C   UNL     1      19.691  15.718  21.592  1.00  0.00     0.093 A 
ATOM      8  C   UNL     1      20.817  16.373  22.091  1.00  0.00     0.123 A 
ATOM      9  C   UNL     1      21.010  17.727  21.815  1.00  0.00     0.094 A 
ATOM     10  C   UNL     1      20.070  18.438  21.066  1.00  0.00     0.146 A 
ATOM     11  O   UNL     1      20.282  19.730  20.844  1.00  0.00    -0.452 OA
ENDROOT
BRANCH   1  12
ATOM     12  C   UNL     1      19.798  21.932  19.994  1.00  0.00     0.021 A 
ATOM     13  C   UNL     1      19.391  22.911  20.919  1.00  0.00     0.016 A 
ATOM     14  C   UNL     1      19.762  24.248  20.741  1.00  0.00     0.047 A 
ATOM     15  C   UNL     1      20.555  24.619  19.647  1.00  0.00     0.115 A 
ATOM     16  C   UNL     1      20.610  22.310  18.912  1.00  0.00     0.016 A 
ATOM     17  C   UNL     1      20.979  23.646  18.736  1.00  0.00     0.047 A 
BRANCH  15  18
ATOM     18  O   UNL     1      20.930  25.947  19.460  1.00  0.00    -0.508 OA
ATOM     19  H   UNL     1      21.156  26.310  18.541  1.00  0.00     0.293 HD
ENDBRANCH  15  18
ENDBRANCH   1  12
BRANCH   2  20
ATOM     20  O   UNL     1      17.380  20.759  18.909  1.00  0.00    -0.502 OA
ATOM     21  H   UNL     1      16.373  20.684  18.990  1.00  0.00     0.293 HD
ENDBRANCH   2  20
BRANCH   6  22
ATOM     22  O   UNL     1      17.710  15.622  20.281  1.00  0.00    -0.507 OA
ATOM     23  H   UNL     1      16.752  15.655  20.593  1.00  0.00     0.293 HD
ENDBRANCH   6  22
BRANCH   8  24
ATOM     24  O   UNL     1      21.741  15.665  22.855  1.00  0.00    -0.508 OA
ATOM     25  H   UNL     1      22.602  15.311  22.453  1.00  0.00     0.293 HD
ENDBRANCH   8  24
TORSDOF 5
ENDMDL
MODEL 6
REMARK VINA RESULT:    -5.135      3.724      6.610
REMARK INTER + INTRA:          -6.332
REMARK INTER:                  -6.093
REMARK INTRA:                  -0.239
REMARK UNBOUND:                -0.296
REMARK SMILES O=c1c(O)c(-c2ccc(O)cc2)oc2cc(O)cc(O)c12
REMARK SMILES IDX 5 1 3 2 2 3 1 4 21 5 19 6 18 7 16 8 15 9 14 10 13 11 6 12
REMARK SMILES IDX 7 13 8 14 9 15 12 16 11 17 10 18 4 20 20 22 17 24
REMARK H PARENT 10 19 4 21 20 23 17 25
REMARK Flexibility Score: inf
ROOT
ATOM      1  C   UNL     1      21.604  17.410  21.227  1.00  0.00     0.180 A 
ATOM      2  C   UNL     1      21.043  16.343  21.947  1.00  0.00     0.208 A 
ATOM      3  C   UNL     1      19.699  16.423  22.347  1.00  0.00     0.238 A 
ATOM      4  O   UNL     1      19.181  15.432  22.926  1.00  0.00    -0.285 OA
ATOM      5  C   UNL     1      18.950  17.592  22.070  1.00  0.00     0.111 A 
ATOM      6  C   UNL     1      17.594  17.801  22.467  1.00  0.00     0.134 A 
ATOM      7  C   UNL     1      16.921  18.954  22.045  1.00  0.00     0.093 A 
ATOM      8  C   UNL     1      17.571  19.935  21.297  1.00  0.00     0.123 A 
ATOM      9  C   UNL     1      18.912  19.767  20.950  1.00  0.00     0.094 A 
ATOM     10  C   UNL     1      19.600  18.609  21.322  1.00  0.00     0.146 A 
ATOM     11  O   UNL     1      20.868  18.480  20.954  1.00  0.00    -0.452 OA
ENDROOT
BRANCH   1  12
ATOM     12  C   UNL     1      23.010  17.393  20.759  1.00  0.00     0.021 A 
ATOM     13  C   UNL     1      23.408  16.603  19.665  1.00  0.00     0.016 A 
ATOM     14  C   UNL     1      24.737  16.622  19.226  1.00  0.00     0.047 A 
ATOM     15  C   UNL     1      25.677  17.441  19.865  1.00  0.00     0.115 A 
ATOM     16  C   UNL     1      23.955  18.227  21.379  1.00  0.00     0.016 A 
ATOM     17  C   UNL     1      25.281  18.244  20.939  1.00  0.00     0.047 A 
BRANCH  15  18
ATOM     18  O   UNL     1      27.002  17.468  19.437  1.00  0.00    -0.508 OA
ATOM     19  H   UNL     1      27.772  17.371  20.089  1.00  0.00     0.293 HD
ENDBRANCH  15  18
ENDBRANCH   1  12
BRANCH   2  20
ATOM     20  O   UNL     1      21.821  15.229  22.276  1.00  0.00    -0.502 OA
ATOM     21  H   UNL     1      21.488  14.279  22.161  1.00  0.00     0.293 HD
ENDBRANCH   2  20
BRANCH   6  22
ATOM     22  O   UNL     1      16.875  16.929  23.289  1.00  0.00    -0.507 OA
ATOM     23  H   UNL     1      16.123  16.332  22.981  1.00  0.00     0.293 HD
ENDBRANCH   6  22
BRANCH   8  24
ATOM     24  O   UNL     1      16.875  21.078  20.909  1.00  0.00    -0.508 OA
ATOM     25  H   UNL     1      16.735  21.308  19.932  1.00  0.00     0.293 HD
ENDBRANCH   8  24
TORSDOF 5
ENDMDL
MODEL 7
REMARK VINA RESULT:    -5.093      1.860      6.968
REMARK INTER + INTRA:          -6.283
REMARK INTER:                  -6.063
REMARK INTRA:                  -0.220
REMARK UNBOUND:                -0.296
REMARK SMILES O=c1c(O)c(-c2ccc(O)cc2)oc2cc(O)cc(O)c12
REMARK SMILES IDX 5 1 3 2 2 3 1 4 21 5 19 6 18 7 16 8 15 9 14 10 13 11 6 12
REMARK SMILES IDX 7 13 8 14 9 15 12 16 11 17 10 18 4 20 20 22 17 24
REMARK H PARENT 10 19 4 21 20 23 17 25
REMARK Flexibility Score: inf
ROOT
ATOM      1  C   UNL     1      19.033  19.816  20.785  1.00  0.00     0.180 A 
ATOM      2  C   UNL     1      17.968  19.391  21.598  1.00  0.00     0.208 A 
ATOM      3  C   UNL     1      18.011  18.105  22.160  1.00  0.00     0.238 A 
ATOM      4  O   UNL     1      17.091  17.759  22.947  1.00  0.00    -0.285 OA
ATOM      5  C   UNL     1      19.091  17.239  21.858  1.00  0.00     0.111 A 
ATOM      6  C   UNL     1      19.215  15.899  22.336  1.00  0.00     0.134 A 
ATOM      7  C   UNL     1      20.379  15.172  22.057  1.00  0.00     0.093 A 
ATOM      8  C   UNL     1      21.394  15.712  21.267  1.00  0.00     0.123 A 
ATOM      9  C   UNL     1      21.259  17.000  20.749  1.00  0.00     0.094 A 
ATOM     10  C   UNL     1      20.126  17.765  21.041  1.00  0.00     0.146 A 
ATOM     11  O   UNL     1      20.047  18.994  20.546  1.00  0.00    -0.452 OA
ENDROOT
BRANCH   1  12
ATOM     12  C   UNL     1      19.066  21.162  20.169  1.00  0.00     0.021 A 
ATOM     13  C   UNL     1      18.781  21.351  18.804  1.00  0.00     0.016 A 
ATOM     14  C   UNL     1      18.795  22.635  18.250  1.00  0.00     0.047 A 
ATOM     15  C   UNL     1      19.078  23.746  19.056  1.00  0.00     0.115 A 
ATOM     16  C   UNL     1      19.328  22.284  20.973  1.00  0.00     0.016 A 
ATOM     17  C   UNL     1      19.341  23.566  20.418  1.00  0.00     0.047 A 
BRANCH  15  18
ATOM     18  O   UNL     1      19.095  25.029  18.515  1.00  0.00    -0.508 OA
ATOM     19  H   UNL     1      18.911  25.847  19.085  1.00  0.00     0.293 HD
ENDBRANCH  15  18
ENDBRANCH   1  12
BRANCH   2  20
ATOM     20  O   UNL     1      16.875  20.233  21.823  1.00  0.00    -0.502 OA
ATOM     21  H   UNL     1      16.775  20.779  22.670  1.00  0.00     0.293 HD
ENDBRANCH   2  20
BRANCH   6  22
ATOM     22  O   UNL     1      18.224  15.230  23.059  1.00  0.00    -0.507 OA
ATOM     23  H   UNL     1      18.175  15.183  24.065  1.00  0.00     0.293 HD
ENDBRANCH   6  22
BRANCH   8  24
ATOM     24  O   UNL     1      22.531  14.953  20.996  1.00  0.00    -0.508 OA
ATOM     25  H   UNL     1      22.573  13.964  21.214  1.00  0.00     0.293 HD
ENDBRANCH   8  24
TORSDOF 5
ENDMDL
MODEL 8
REMARK VINA RESULT:    -5.069      1.637      2.822
REMARK INTER + INTRA:          -6.254
REMARK INTER:                  -5.958
REMARK INTRA:                  -0.296
REMARK UNBOUND:                -0.296
REMARK SMILES O=c1c(O)c(-c2ccc(O)cc2)oc2cc(O)cc(O)c12
REMARK SMILES IDX 5 1 3 2 2 3 1 4 21 5 19 6 18 7 16 8 15 9 14 10 13 11 6 12
REMARK SMILES IDX 7 13 8 14 9 15 12 16 11 17 10 18 4 20 20 22 17 24
REMARK H PARENT 10 19 4 21 20 23 17 25
REMARK Flexibility Score: inf
ROOT
ATOM      1  C   UNL     1      18.791  20.380  20.448  1.00  0.00     0.180 A 
ATOM      2  C   UNL     1      18.389  21.297  21.434  1.00  0.00     0.208 A 
ATOM      3  C   UNL     1      18.796  22.637  21.325  1.00  0.00     0.238 A 
ATOM      4  O   UNL     1      18.372  23.468  22.170  1.00  0.00    -0.285 OA
ATOM      5  C   UNL     1      19.647  23.031  20.263  1.00  0.00     0.111 A 
ATOM      6  C   UNL     1      20.158  24.352  20.079  1.00  0.00     0.134 A 
ATOM      7  C   UNL     1      20.904  24.650  18.932  1.00  0.00     0.093 A 
ATOM      8  C   UNL     1      21.211  23.663  17.996  1.00  0.00     0.123 A 
ATOM      9  C   UNL     1      20.763  22.357  18.193  1.00  0.00     0.094 A 
ATOM     10  C   UNL     1      19.984  22.036  19.307  1.00  0.00     0.146 A 
ATOM     11  O   UNL     1      19.561  20.786  19.446  1.00  0.00    -0.452 OA
ENDROOT
BRANCH   1  12
ATOM     12  C   UNL     1      18.390  18.955  20.487  1.00  0.00     0.021 A 
ATOM     13  C   UNL     1      17.220  18.505  19.847  1.00  0.00     0.016 A 
ATOM     14  C   UNL     1      16.875  17.150  19.876  1.00  0.00     0.047 A 
ATOM     15  C   UNL     1      17.701  16.227  20.532  1.00  0.00     0.115 A 
ATOM     16  C   UNL     1      19.222  18.020  21.123  1.00  0.00     0.016 A 
ATOM     17  C   UNL     1      18.876  16.667  21.152  1.00  0.00     0.047 A 
BRANCH  15  18
ATOM     18  O   UNL     1      17.367  14.876  20.569  1.00  0.00    -0.508 OA
ATOM     19  H   UNL     1      16.437  14.553  20.332  1.00  0.00     0.293 HD
ENDBRANCH  15  18
ENDBRANCH   1  12
BRANCH   2  20
ATOM     20  O   UNL     1      17.613  20.873  22.516  1.00  0.00    -0.502 OA
ATOM     21  H   UNL     1      17.873  21.056  23.478  1.00  0.00     0.293 HD
ENDBRANCH   2  20
BRANCH   6  22
ATOM     22  O   UNL     1      19.986  25.393  20.995  1.00  0.00    -0.507 OA
ATOM     23  H   UNL     1      19.709  25.276  21.958  1.00  0.00     0.293 HD
ENDBRANCH   6  22
BRANCH   8  24
ATOM     24  O   UNL     1      21.970  23.992  16.875  1.00  0.00    -0.508 OA
ATOM     25  H   UNL     1      21.796  23.566  15.972  1.00  0.00     0.293 HD
ENDBRANCH   8  24
TORSDOF 5
ENDMDL
MODEL 9
REMARK VINA RESULT:    -4.649      1.572      6.537
REMARK INTER + INTRA:          -5.760
REMARK INTER:                  -5.491
REMARK INTRA:                  -0.269
REMARK UNBOUND:                -0.296
REMARK SMILES O=c1c(O)c(-c2ccc(O)cc2)oc2cc(O)cc(O)c12
REMARK SMILES IDX 5 1 3 2 2 3 1 4 21 5 19 6 18 7 16 8 15 9 14 10 13 11 6 12
REMARK SMILES IDX 7 13 8 14 9 15 12 16 11 17 10 18 4 20 20 22 17 24
REMARK H PARENT 10 19 4 21 20 23 17 25
REMARK Flexibility Score: inf
ROOT
ATOM      1  C   UNL     1      19.166  20.605  19.566  1.00  0.00     0.180 A 
ATOM      2  C   UNL     1      18.302  20.121  18.568  1.00  0.00     0.208 A 
ATOM      3  C   UNL     1      17.859  18.791  18.638  1.00  0.00     0.238 A 
ATOM      4  O   UNL     1      17.027  18.386  17.784  1.00  0.00    -0.285 OA
ATOM      5  C   UNL     1      18.329  17.944  19.672  1.00  0.00     0.111 A 
ATOM      6  C   UNL     1      17.981  16.566  19.814  1.00  0.00     0.134 A 
ATOM      7  C   UNL     1      18.422  15.855  20.937  1.00  0.00     0.093 A 
ATOM      8  C   UNL     1      19.249  16.452  21.889  1.00  0.00     0.123 A 
ATOM      9  C   UNL     1      19.640  17.782  21.731  1.00  0.00     0.094 A 
ATOM     10  C   UNL     1      19.185  18.529  20.642  1.00  0.00     0.146 A 
ATOM     11  O   UNL     1      19.563  19.797  20.541  1.00  0.00    -0.452 OA
ENDROOT
BRANCH   1  12
ATOM     12  C   UNL     1      19.664  22.000  19.569  1.00  0.00     0.021 A 
ATOM     13  C   UNL     1      20.747  22.393  18.761  1.00  0.00     0.016 A 
ATOM     14  C   UNL     1      21.184  23.722  18.762  1.00  0.00     0.047 A 
ATOM     15  C   UNL     1      20.536  24.675  19.559  1.00  0.00     0.115 A 
ATOM     16  C   UNL     1      19.007  22.966  20.348  1.00  0.00     0.016 A 
ATOM     17  C   UNL     1      19.445  24.293  20.348  1.00  0.00     0.047 A 
BRANCH  15  18
ATOM     18  O   UNL     1      20.962  26.001  19.569  1.00  0.00    -0.508 OA
ATOM     19  H   UNL     1      20.669  26.657  18.856  1.00  0.00     0.293 HD
ENDBRANCH  15  18
ENDBRANCH   1  12
BRANCH   2  20
ATOM     20  O   UNL     1      17.910  20.951  17.514  1.00  0.00    -0.502 OA
ATOM     21  H   UNL     1      17.396  21.811  17.661  1.00  0.00     0.293 HD
ENDBRANCH   2  20
BRANCH   6  22
ATOM     22  O   UNL     1      17.234  15.846  18.878  1.00  0.00    -0.507 OA
ATOM     23  H   UNL     1      17.496  15.705  17.914  1.00  0.00     0.293 HD
ENDBRANCH   6  22
BRANCH   8  24
ATOM     24  O   UNL     1      19.683  15.709  22.984  1.00  0.00    -0.508 OA
ATOM     25  H   UNL     1      20.327  14.933  22.878  1.00  0.00     0.293 HD
ENDBRANCH   8  24
TORSDOF 5
ENDMDL
