MODEL 1
REMARK VINA RESULT:    -4.230      0.000      0.000
REMARK INTER + INTRA:         -12.268
REMARK INTER:                  -9.176
REMARK INTRA:                  -3.091
REMARK UNBOUND:                -3.091
REMARK SMILES CCCCCCCCCCCCCCCCCCCCCC(=O)[O-]
REMARK SMILES IDX 12 1 11 2 10 3 9 4 8 5 7 6 6 7 5 8 4 9 3 10 2 11 1 12 13 13
REMARK SMILES IDX 14 14 15 15 16 16 17 17 18 18 19 19 20 20 21 21 22 22 23 23
REMARK SMILES IDX 24 24
REMARK H PARENT
REMARK Flexibility Score: inf
ROOT
ATOM      1  C   UNL     1      -6.363 -35.103 -10.464  1.00  0.00     0.000 C 
ENDROOT
BRANCH   1   2
ATOM      2  C   UNL     1      -5.400 -35.057  -9.269  1.00  0.00     0.000 C 
BRANCH   2   3
ATOM      3  C   UNL     1      -4.777 -36.436  -9.014  1.00  0.00     0.000 C 
BRANCH   3   4
ATOM      4  C   UNL     1      -5.742 -37.558  -9.413  1.00  0.00    -0.000 C 
BRANCH   4   5
ATOM      5  C   UNL     1      -5.027 -38.630 -10.245  1.00  0.00    -0.000 C 
BRANCH   5   6
ATOM      6  C   UNL     1      -5.953 -39.825 -10.515  1.00  0.00    -0.000 C 
BRANCH   6   7
ATOM      7  C   UNL     1      -6.761 -40.237  -9.274  1.00  0.00    -0.000 C 
BRANCH   7   8
ATOM      8  C   UNL     1      -7.469 -41.591  -9.452  1.00  0.00    -0.000 C 
BRANCH   8   9
ATOM      9  C   UNL     1      -7.086 -42.294 -10.767  1.00  0.00    -0.000 C 
BRANCH   9  10
ATOM     10  C   UNL     1      -7.980 -43.492 -11.148  1.00  0.00    -0.000 C 
BRANCH  10  11
ATOM     11  C   UNL     1      -7.652 -44.806 -10.419  1.00  0.00    -0.003 C 
ATOM     12  C   UNL     1      -6.157 -45.121 -10.403  1.00  0.00     0.004 C 
ENDBRANCH  10  11
ENDBRANCH   9  10
ENDBRANCH   8   9
ENDBRANCH   7   8
ENDBRANCH   6   7
ENDBRANCH   5   6
ENDBRANCH   4   5
ENDBRANCH   3   4
ENDBRANCH   2   3
ENDBRANCH   1   2
BRANCH   1  13
ATOM     13  C   UNL     1      -7.742 -34.500 -10.143  1.00  0.00     0.000 C 
BRANCH  13  14
ATOM     14  C   UNL     1      -8.945 -35.392 -10.517  1.00  0.00     0.000 C 
BRANCH  14  15
ATOM     15  C   UNL     1      -9.332 -36.446  -9.463  1.00  0.00     0.000 C 
BRANCH  15  16
ATOM     16  C   UNL     1      -9.457 -37.883  -9.999  1.00  0.00     0.000 C 
BRANCH  16  17
ATOM     17  C   UNL     1      -8.953 -38.025 -11.445  1.00  0.00     0.000 C 
BRANCH  17  18
ATOM     18  C   UNL     1      -9.695 -39.121 -12.230  1.00  0.00     0.000 C 
BRANCH  18  19
ATOM     19  C   UNL     1      -8.786 -40.092 -13.009  1.00  0.00     0.000 C 
BRANCH  19  20
ATOM     20  C   UNL     1      -7.668 -39.423 -13.836  1.00  0.00     0.006 C 
BRANCH  20  21
ATOM     21  C   UNL     1      -7.807 -39.605 -15.355  1.00  0.00     0.053 C 
BRANCH  21  22
ATOM     22  C   UNL     1      -8.420 -38.404 -16.010  1.00  0.00     0.041 C 
ATOM     23  O   UNL     1      -9.493 -37.920 -15.564  1.00  0.00    -0.550 OA
ATOM     24  O   UNL     1      -7.790 -37.802 -17.091  1.00  0.00    -0.550 OA
ENDBRANCH  21  22
ENDBRANCH  20  21
ENDBRANCH  19  20
ENDBRANCH  18  19
ENDBRANCH  17  18
ENDBRANCH  16  17
ENDBRANCH  15  16
ENDBRANCH  14  15
ENDBRANCH  13  14
ENDBRANCH   1  13
TORSDOF 20
ENDMDL
MODEL 2
REMARK VINA RESULT:    -4.108      1.736      2.046
REMARK INTER + INTRA:         -12.002
REMARK INTER:                  -8.672
REMARK INTRA:                  -3.330
REMARK UNBOUND:                -3.091
REMARK SMILES CCCCCCCCCCCCCCCCCCCCCC(=O)[O-]
REMARK SMILES IDX 12 1 11 2 10 3 9 4 8 5 7 6 6 7 5 8 4 9 3 10 2 11 1 12 13 13
REMARK SMILES IDX 14 14 15 15 16 16 17 17 18 18 19 19 20 20 21 21 22 22 23 23
REMARK SMILES IDX 24 24
REMARK H PARENT
REMARK Flexibility Score: inf
ROOT
ATOM      1  C   UNL     1      -5.967 -34.458  -9.830  1.00  0.00     0.000 C 
ENDROOT
BRANCH   1   2
ATOM      2  C   UNL     1      -5.458 -35.252  -8.618  1.00  0.00     0.000 C 
BRANCH   2   3
ATOM      3  C   UNL     1      -4.473 -36.345  -9.053  1.00  0.00     0.000 C 
BRANCH   3   4
ATOM      4  C   UNL     1      -5.199 -37.478  -9.787  1.00  0.00    -0.000 C 
BRANCH   4   5
ATOM      5  C   UNL     1      -6.471 -37.895  -9.039  1.00  0.00    -0.000 C 
BRANCH   5   6
ATOM      6  C   UNL     1      -6.657 -39.419  -9.078  1.00  0.00    -0.000 C 
BRANCH   6   7
ATOM      7  C   UNL     1      -7.999 -39.864  -8.475  1.00  0.00    -0.000 C 
BRANCH   7   8
ATOM      8  C   UNL     1      -8.311 -41.344  -8.755  1.00  0.00    -0.000 C 
BRANCH   8   9
ATOM      9  C   UNL     1      -7.064 -42.148  -9.165  1.00  0.00    -0.000 C 
BRANCH   9  10
ATOM     10  C   UNL     1      -7.335 -43.325 -10.123  1.00  0.00    -0.000 C 
BRANCH  10  11
ATOM     11  C   UNL     1      -6.393 -44.531  -9.955  1.00  0.00    -0.003 C 
ATOM     12  C   UNL     1      -6.193 -45.316 -11.250  1.00  0.00     0.004 C 
ENDBRANCH  10  11
ENDBRANCH   9  10
ENDBRANCH   8   9
ENDBRANCH   7   8
ENDBRANCH   6   7
ENDBRANCH   5   6
ENDBRANCH   4   5
ENDBRANCH   3   4
ENDBRANCH   2   3
ENDBRANCH   1   2
BRANCH   1  13
ATOM     13  C   UNL     1      -7.470 -34.134  -9.743  1.00  0.00     0.000 C 
BRANCH  13  14
ATOM     14  C   UNL     1      -8.398 -35.164 -10.418  1.00  0.00     0.000 C 
BRANCH  14  15
ATOM     15  C   UNL     1      -9.445 -35.811  -9.490  1.00  0.00     0.000 C 
BRANCH  15  16
ATOM     16  C   UNL     1     -10.072 -37.110 -10.027  1.00  0.00     0.000 C 
BRANCH  16  17
ATOM     17  C   UNL     1      -9.471 -37.550 -11.372  1.00  0.00     0.000 C 
BRANCH  17  18
ATOM     18  C   UNL     1     -10.017 -38.905 -11.854  1.00  0.00     0.000 C 
BRANCH  18  19
ATOM     19  C   UNL     1      -8.948 -39.989 -12.098  1.00  0.00     0.000 C 
BRANCH  19  20
ATOM     20  C   UNL     1      -7.557 -39.458 -12.502  1.00  0.00     0.006 C 
BRANCH  20  21
ATOM     21  C   UNL     1      -6.458 -40.530 -12.553  1.00  0.00     0.053 C 
BRANCH  21  22
ATOM     22  C   UNL     1      -6.316 -41.123 -13.922  1.00  0.00     0.041 C 
ATOM     23  O   UNL     1      -6.668 -40.466 -14.936  1.00  0.00    -0.550 OA
ATOM     24  O   UNL     1      -5.764 -42.388 -14.079  1.00  0.00    -0.550 OA
ENDBRANCH  21  22
ENDBRANCH  20  21
ENDBRANCH  19  20
ENDBRANCH  18  19
ENDBRANCH  17  18
ENDBRANCH  16  17
ENDBRANCH  15  16
ENDBRANCH  14  15
ENDBRANCH  13  14
ENDBRANCH   1  13
TORSDOF 20
ENDMDL
MODEL 3
REMARK VINA RESULT:    -4.024      3.385      6.542
REMARK INTER + INTRA:         -11.820
REMARK INTER:                  -9.371
REMARK INTRA:                  -2.449
REMARK UNBOUND:                -3.091
REMARK SMILES CCCCCCCCCCCCCCCCCCCCCC(=O)[O-]
REMARK SMILES IDX 12 1 11 2 10 3 9 4 8 5 7 6 6 7 5 8 4 9 3 10 2 11 1 12 13 13
REMARK SMILES IDX 14 14 15 15 16 16 17 17 18 18 19 19 20 20 21 21 22 22 23 23
REMARK SMILES IDX 24 24
REMARK H PARENT
REMARK Flexibility Score: inf
ROOT
ATOM      1  C   UNL     1      -6.713 -40.879 -11.009  1.00  0.00     0.000 C 
ENDROOT
BRANCH   1   2
ATOM      2  C   UNL     1      -6.315 -40.005  -9.811  1.00  0.00     0.000 C 
BRANCH   2   3
ATOM      3  C   UNL     1      -5.476 -38.803 -10.263  1.00  0.00     0.000 C 
BRANCH   3   4
ATOM      4  C   UNL     1      -5.667 -37.612  -9.317  1.00  0.00    -0.000 C 
BRANCH   4   5
ATOM      5  C   UNL     1      -4.410 -36.733  -9.276  1.00  0.00    -0.000 C 
BRANCH   5   6
ATOM      6  C   UNL     1      -4.670 -35.437  -8.494  1.00  0.00    -0.000 C 
BRANCH   6   7
ATOM      7  C   UNL     1      -5.704 -34.532  -9.180  1.00  0.00    -0.000 C 
BRANCH   7   8
ATOM      8  C   UNL     1      -6.939 -34.273  -8.301  1.00  0.00    -0.000 C 
BRANCH   8   9
ATOM      9  C   UNL     1      -8.191 -35.016  -8.801  1.00  0.00    -0.000 C 
BRANCH   9  10
ATOM     10  C   UNL     1      -8.322 -35.113 -10.334  1.00  0.00    -0.000 C 
BRANCH  10  11
ATOM     11  C   UNL     1      -9.465 -36.013 -10.834  1.00  0.00    -0.003 C 
ATOM     12  C   UNL     1      -9.082 -37.492 -10.882  1.00  0.00     0.004 C 
ENDBRANCH  10  11
ENDBRANCH   9  10
ENDBRANCH   8   9
ENDBRANCH   7   8
ENDBRANCH   6   7
ENDBRANCH   5   6
ENDBRANCH   4   5
ENDBRANCH   3   4
ENDBRANCH   2   3
ENDBRANCH   1   2
BRANCH   1  13
ATOM     13  C   UNL     1      -6.712 -40.104 -12.339  1.00  0.00     0.000 C 
BRANCH  13  14
ATOM     14  C   UNL     1      -7.927 -40.373 -13.250  1.00  0.00     0.000 C 
BRANCH  14  15
ATOM     15  C   UNL     1      -7.985 -39.522 -14.534  1.00  0.00     0.000 C 
BRANCH  15  16
ATOM     16  C   UNL     1      -6.978 -39.926 -15.625  1.00  0.00     0.000 C 
BRANCH  16  17
ATOM     17  C   UNL     1      -7.002 -41.433 -15.930  1.00  0.00     0.000 C 
BRANCH  17  18
ATOM     18  C   UNL     1      -5.600 -42.010 -16.196  1.00  0.00     0.000 C 
BRANCH  18  19
ATOM     19  C   UNL     1      -4.826 -42.445 -14.937  1.00  0.00     0.000 C 
BRANCH  19  20
ATOM     20  C   UNL     1      -5.635 -43.285 -13.927  1.00  0.00     0.006 C 
BRANCH  20  21
ATOM     21  C   UNL     1      -5.733 -44.778 -14.277  1.00  0.00     0.053 C 
BRANCH  21  22
ATOM     22  C   UNL     1      -5.370 -45.652 -13.115  1.00  0.00     0.041 C 
ATOM     23  O   UNL     1      -5.040 -46.852 -13.305  1.00  0.00    -0.550 OA
ATOM     24  O   UNL     1      -5.366 -45.132 -11.827  1.00  0.00    -0.550 OA
ENDBRANCH  21  22
ENDBRANCH  20  21
ENDBRANCH  19  20
ENDBRANCH  18  19
ENDBRANCH  17  18
ENDBRANCH  16  17
ENDBRANCH  15  16
ENDBRANCH  14  15
ENDBRANCH  13  14
ENDBRANCH   1  13
TORSDOF 20
ENDMDL
MODEL 4
REMARK VINA RESULT:    -4.016      2.736      6.295
REMARK INTER + INTRA:         -11.803
REMARK INTER:                  -9.706
REMARK INTRA:                  -2.096
REMARK UNBOUND:                -3.091
REMARK SMILES CCCCCCCCCCCCCCCCCCCCCC(=O)[O-]
REMARK SMILES IDX 12 1 11 2 10 3 9 4 8 5 7 6 6 7 5 8 4 9 3 10 2 11 1 12 13 13
REMARK SMILES IDX 14 14 15 15 16 16 17 17 18 18 19 19 20 20 21 21 22 22 23 23
REMARK SMILES IDX 24 24
REMARK H PARENT
REMARK Flexibility Score: inf
ROOT
ATOM      1  C   UNL     1      -7.752 -39.359 -12.439  1.00  0.00     0.000 C 
ENDROOT
BRANCH   1   2
ATOM      2  C   UNL     1      -7.129 -39.946 -11.164  1.00  0.00     0.000 C 
BRANCH   2   3
ATOM      3  C   UNL     1      -5.760 -39.313 -10.882  1.00  0.00     0.000 C 
BRANCH   3   4
ATOM      4  C   UNL     1      -5.856 -38.273  -9.760  1.00  0.00    -0.000 C 
BRANCH   4   5
ATOM      5  C   UNL     1      -7.144 -38.456  -8.947  1.00  0.00    -0.000 C 
BRANCH   5   6
ATOM      6  C   UNL     1      -7.854 -37.111  -8.730  1.00  0.00    -0.000 C 
BRANCH   6   7
ATOM      7  C   UNL     1      -8.359 -36.493 -10.043  1.00  0.00    -0.000 C 
BRANCH   7   8
ATOM      8  C   UNL     1      -7.769 -35.097 -10.305  1.00  0.00    -0.000 C 
BRANCH   8   9
ATOM      9  C   UNL     1      -7.080 -34.500  -9.065  1.00  0.00    -0.000 C 
BRANCH   9  10
ATOM     10  C   UNL     1      -5.541 -34.438  -9.142  1.00  0.00    -0.000 C 
BRANCH  10  11
ATOM     11  C   UNL     1      -4.803 -35.230  -8.048  1.00  0.00    -0.003 C 
ATOM     12  C   UNL     1      -3.405 -35.675  -8.475  1.00  0.00     0.004 C 
ENDBRANCH  10  11
ENDBRANCH   9  10
ENDBRANCH   8   9
ENDBRANCH   7   8
ENDBRANCH   6   7
ENDBRANCH   5   6
ENDBRANCH   4   5
ENDBRANCH   3   4
ENDBRANCH   2   3
ENDBRANCH   1   2
BRANCH   1  13
ATOM     13  C   UNL     1      -7.221 -40.022 -13.723  1.00  0.00     0.000 C 
BRANCH  13  14
ATOM     14  C   UNL     1      -7.714 -39.381 -15.037  1.00  0.00     0.000 C 
BRANCH  14  15
ATOM     15  C   UNL     1      -9.177 -38.898 -15.023  1.00  0.00     0.000 C 
BRANCH  15  16
ATOM     16  C   UNL     1      -9.634 -38.175 -16.303  1.00  0.00     0.000 C 
BRANCH  16  17
ATOM     17  C   UNL     1      -8.468 -37.526 -17.068  1.00  0.00     0.000 C 
BRANCH  17  18
ATOM     18  C   UNL     1      -8.751 -37.382 -18.574  1.00  0.00     0.000 C 
BRANCH  18  19
ATOM     19  C   UNL     1      -8.176 -38.510 -19.454  1.00  0.00     0.000 C 
BRANCH  19  20
ATOM     20  C   UNL     1      -7.052 -39.342 -18.803  1.00  0.00     0.006 C 
BRANCH  20  21
ATOM     21  C   UNL     1      -5.715 -39.304 -19.559  1.00  0.00     0.053 C 
BRANCH  21  22
ATOM     22  C   UNL     1      -5.598 -40.423 -20.549  1.00  0.00     0.041 C 
ATOM     23  O   UNL     1      -6.255 -41.484 -20.385  1.00  0.00    -0.550 OA
ATOM     24  O   UNL     1      -4.787 -40.281 -21.668  1.00  0.00    -0.550 OA
ENDBRANCH  21  22
ENDBRANCH  20  21
ENDBRANCH  19  20
ENDBRANCH  18  19
ENDBRANCH  17  18
ENDBRANCH  16  17
ENDBRANCH  15  16
ENDBRANCH  14  15
ENDBRANCH  13  14
ENDBRANCH   1  13
TORSDOF 20
ENDMDL
MODEL 5
REMARK VINA RESULT:    -3.990      3.624      7.004
REMARK INTER + INTRA:         -11.746
REMARK INTER:                  -9.036
REMARK INTRA:                  -2.711
REMARK UNBOUND:                -3.091
REMARK SMILES CCCCCCCCCCCCCCCCCCCCCC(=O)[O-]
REMARK SMILES IDX 12 1 11 2 10 3 9 4 8 5 7 6 6 7 5 8 4 9 3 10 2 11 1 12 13 13
REMARK SMILES IDX 14 14 15 15 16 16 17 17 18 18 19 19 20 20 21 21 22 22 23 23
REMARK SMILES IDX 24 24
REMARK H PARENT
REMARK Flexibility Score: inf
ROOT
ATOM      1  C   UNL     1      -8.460 -37.429 -17.129  1.00  0.00     0.000 C 
ENDROOT
BRANCH   1   2
ATOM      2  C   UNL     1      -8.426 -38.477 -18.251  1.00  0.00     0.000 C 
BRANCH   2   3
ATOM      3  C   UNL     1      -6.985 -38.747 -18.705  1.00  0.00     0.000 C 
BRANCH   3   4
ATOM      4  C   UNL     1      -6.598 -40.211 -18.464  1.00  0.00    -0.000 C 
BRANCH   4   5
ATOM      5  C   UNL     1      -6.533 -40.525 -16.964  1.00  0.00    -0.000 C 
BRANCH   5   6
ATOM      6  C   UNL     1      -7.373 -41.765 -16.625  1.00  0.00    -0.000 C 
BRANCH   6   7
ATOM      7  C   UNL     1      -6.906 -42.459 -15.337  1.00  0.00    -0.000 C 
BRANCH   7   8
ATOM      8  C   UNL     1      -5.483 -42.045 -14.925  1.00  0.00    -0.000 C 
BRANCH   8   9
ATOM      9  C   UNL     1      -4.417 -43.068 -15.357  1.00  0.00    -0.000 C 
BRANCH   9  10
ATOM     10  C   UNL     1      -3.716 -42.752 -16.694  1.00  0.00    -0.000 C 
BRANCH  10  11
ATOM     11  C   UNL     1      -4.359 -43.397 -17.933  1.00  0.00    -0.003 C 
ATOM     12  C   UNL     1      -3.977 -42.696 -19.236  1.00  0.00     0.004 C 
ENDBRANCH  10  11
ENDBRANCH   9  10
ENDBRANCH   8   9
ENDBRANCH   7   8
ENDBRANCH   6   7
ENDBRANCH   5   6
ENDBRANCH   4   5
ENDBRANCH   3   4
ENDBRANCH   2   3
ENDBRANCH   1   2
BRANCH   1  13
ATOM     13  C   UNL     1      -9.577 -37.690 -16.103  1.00  0.00     0.000 C 
BRANCH  13  14
ATOM     14  C   UNL     1      -9.622 -39.126 -15.540  1.00  0.00     0.000 C 
BRANCH  14  15
ATOM     15  C   UNL     1      -9.347 -39.246 -14.029  1.00  0.00     0.000 C 
BRANCH  15  16
ATOM     16  C   UNL     1      -7.858 -39.318 -13.645  1.00  0.00     0.000 C 
BRANCH  16  17
ATOM     17  C   UNL     1      -7.641 -39.447 -12.128  1.00  0.00     0.000 C 
BRANCH  17  18
ATOM     18  C   UNL     1      -6.279 -40.071 -11.772  1.00  0.00     0.000 C 
BRANCH  18  19
ATOM     19  C   UNL     1      -5.511 -39.357 -10.643  1.00  0.00     0.000 C 
BRANCH  19  20
ATOM     20  C   UNL     1      -6.140 -38.035 -10.156  1.00  0.00     0.006 C 
BRANCH  20  21
ATOM     21  C   UNL     1      -5.190 -37.140  -9.347  1.00  0.00     0.053 C 
BRANCH  21  22
ATOM     22  C   UNL     1      -5.493 -35.684  -9.536  1.00  0.00     0.041 C 
ATOM     23  O   UNL     1      -4.856 -34.816  -8.885  1.00  0.00    -0.550 OA
ATOM     24  O   UNL     1      -6.457 -35.287 -10.454  1.00  0.00    -0.550 OA
ENDBRANCH  21  22
ENDBRANCH  20  21
ENDBRANCH  19  20
ENDBRANCH  18  19
ENDBRANCH  17  18
ENDBRANCH  16  17
ENDBRANCH  15  16
ENDBRANCH  14  15
ENDBRANCH  13  14
ENDBRANCH   1  13
TORSDOF 20
ENDMDL
MODEL 6
REMARK VINA RESULT:    -3.959      3.437      6.238
REMARK INTER + INTRA:         -11.680
REMARK INTER:                  -8.432
REMARK INTRA:                  -3.248
REMARK UNBOUND:                -3.091
REMARK SMILES CCCCCCCCCCCCCCCCCCCCCC(=O)[O-]
REMARK SMILES IDX 12 1 11 2 10 3 9 4 8 5 7 6 6 7 5 8 4 9 3 10 2 11 1 12 13 13
REMARK SMILES IDX 14 14 15 15 16 16 17 17 18 18 19 19 20 20 21 21 22 22 23 23
REMARK SMILES IDX 24 24
REMARK H PARENT
REMARK Flexibility Score: inf
ROOT
ATOM      1  C   UNL     1      -8.890 -39.775 -12.926  1.00  0.00     0.000 C 
ENDROOT
BRANCH   1   2
ATOM      2  C   UNL     1      -9.286 -39.653 -14.405  1.00  0.00     0.000 C 
BRANCH   2   3
ATOM      3  C   UNL     1      -8.189 -38.946 -15.210  1.00  0.00     0.000 C 
BRANCH   3   4
ATOM      4  C   UNL     1      -7.660 -39.848 -16.331  1.00  0.00    -0.000 C 
BRANCH   4   5
ATOM      5  C   UNL     1      -6.390 -40.588 -15.891  1.00  0.00    -0.000 C 
BRANCH   5   6
ATOM      6  C   UNL     1      -5.849 -41.474 -17.023  1.00  0.00    -0.000 C 
BRANCH   6   7
ATOM      7  C   UNL     1      -4.811 -42.493 -16.529  1.00  0.00    -0.000 C 
BRANCH   7   8
ATOM      8  C   UNL     1      -4.711 -42.539 -14.995  1.00  0.00    -0.000 C 
BRANCH   8   9
ATOM      9  C   UNL     1      -5.194 -43.877 -14.408  1.00  0.00    -0.000 C 
BRANCH   9  10
ATOM     10  C   UNL     1      -6.312 -43.758 -13.351  1.00  0.00    -0.000 C 
BRANCH  10  11
ATOM     11  C   UNL     1      -7.650 -43.213 -13.879  1.00  0.00    -0.003 C 
ATOM     12  C   UNL     1      -8.603 -44.314 -14.340  1.00  0.00     0.004 C 
ENDBRANCH  10  11
ENDBRANCH   9  10
ENDBRANCH   8   9
ENDBRANCH   7   8
ENDBRANCH   6   7
ENDBRANCH   5   6
ENDBRANCH   4   5
ENDBRANCH   3   4
ENDBRANCH   2   3
ENDBRANCH   1   2
BRANCH   1  13
ATOM     13  C   UNL     1      -7.469 -39.255 -12.644  1.00  0.00     0.000 C 
BRANCH  13  14
ATOM     14  C   UNL     1      -6.516 -40.282 -11.999  1.00  0.00     0.000 C 
BRANCH  14  15
ATOM     15  C   UNL     1      -7.103 -41.059 -10.804  1.00  0.00     0.000 C 
BRANCH  15  16
ATOM     16  C   UNL     1      -6.461 -40.736  -9.443  1.00  0.00     0.000 C 
BRANCH  16  17
ATOM     17  C   UNL     1      -7.460 -40.134  -8.441  1.00  0.00     0.000 C 
BRANCH  17  18
ATOM     18  C   UNL     1      -8.197 -38.904  -9.001  1.00  0.00     0.000 C 
BRANCH  18  19
ATOM     19  C   UNL     1      -7.532 -37.549  -8.688  1.00  0.00     0.000 C 
BRANCH  19  20
ATOM     20  C   UNL     1      -6.612 -36.998  -9.796  1.00  0.00     0.006 C 
BRANCH  20  21
ATOM     21  C   UNL     1      -5.110 -37.158  -9.513  1.00  0.00     0.053 C 
BRANCH  21  22
ATOM     22  C   UNL     1      -4.514 -35.914  -8.926  1.00  0.00     0.041 C 
ATOM     23  O   UNL     1      -5.161 -34.834  -8.943  1.00  0.00    -0.550 OA
ATOM     24  O   UNL     1      -3.259 -35.955  -8.334  1.00  0.00    -0.550 OA
ENDBRANCH  21  22
ENDBRANCH  20  21
ENDBRANCH  19  20
ENDBRANCH  18  19
ENDBRANCH  17  18
ENDBRANCH  16  17
ENDBRANCH  15  16
ENDBRANCH  14  15
ENDBRANCH  13  14
ENDBRANCH   1  13
TORSDOF 20
ENDMDL
MODEL 7
REMARK VINA RESULT:    -3.959      3.417      6.855
REMARK INTER + INTRA:         -11.679
REMARK INTER:                  -9.010
REMARK INTRA:                  -2.669
REMARK UNBOUND:                -3.091
REMARK SMILES CCCCCCCCCCCCCCCCCCCCCC(=O)[O-]
REMARK SMILES IDX 12 1 11 2 10 3 9 4 8 5 7 6 6 7 5 8 4 9 3 10 2 11 1 12 13 13
REMARK SMILES IDX 14 14 15 15 16 16 17 17 18 18 19 19 20 20 21 21 22 22 23 23
REMARK SMILES IDX 24 24
REMARK H PARENT
REMARK Flexibility Score: inf
ROOT
ATOM      1  C   UNL     1      -6.768 -39.743 -12.350  1.00  0.00     0.000 C 
ENDROOT
BRANCH   1   2
ATOM      2  C   UNL     1      -6.760 -40.654 -11.114  1.00  0.00     0.000 C 
BRANCH   2   3
ATOM      3  C   UNL     1      -6.111 -39.947  -9.917  1.00  0.00     0.000 C 
BRANCH   3   4
ATOM      4  C   UNL     1      -7.136 -39.693  -8.806  1.00  0.00    -0.000 C 
BRANCH   4   5
ATOM      5  C   UNL     1      -7.442 -38.196  -8.670  1.00  0.00    -0.000 C 
BRANCH   5   6
ATOM      6  C   UNL     1      -8.731 -37.827  -9.420  1.00  0.00    -0.000 C 
BRANCH   6   7
ATOM      7  C   UNL     1      -8.532 -36.654 -10.392  1.00  0.00    -0.000 C 
BRANCH   7   8
ATOM      8  C   UNL     1      -7.090 -36.117 -10.384  1.00  0.00    -0.000 C 
BRANCH   8   9
ATOM      9  C   UNL     1      -7.022 -34.597 -10.152  1.00  0.00    -0.000 C 
BRANCH   9  10
ATOM     10  C   UNL     1      -5.879 -34.130  -9.229  1.00  0.00    -0.000 C 
BRANCH  10  11
ATOM     11  C   UNL     1      -5.364 -35.193  -8.243  1.00  0.00    -0.003 C 
ATOM     12  C   UNL     1      -3.943 -35.658  -8.556  1.00  0.00     0.004 C 
ENDBRANCH  10  11
ENDBRANCH   9  10
ENDBRANCH   8   9
ENDBRANCH   7   8
ENDBRANCH   6   7
ENDBRANCH   5   6
ENDBRANCH   4   5
ENDBRANCH   3   4
ENDBRANCH   2   3
ENDBRANCH   1   2
BRANCH   1  13
ATOM     13  C   UNL     1      -8.190 -39.407 -12.835  1.00  0.00     0.000 C 
BRANCH  13  14
ATOM     14  C   UNL     1      -8.536 -39.926 -14.246  1.00  0.00     0.000 C 
BRANCH  14  15
ATOM     15  C   UNL     1      -7.624 -39.410 -15.376  1.00  0.00     0.000 C 
BRANCH  15  16
ATOM     16  C   UNL     1      -6.630 -40.446 -15.931  1.00  0.00     0.000 C 
BRANCH  16  17
ATOM     17  C   UNL     1      -6.874 -41.860 -15.377  1.00  0.00     0.000 C 
BRANCH  17  18
ATOM     18  C   UNL     1      -5.600 -42.500 -14.797  1.00  0.00     0.000 C 
BRANCH  18  19
ATOM     19  C   UNL     1      -5.816 -43.335 -13.519  1.00  0.00     0.000 C 
BRANCH  19  20
ATOM     20  C   UNL     1      -6.804 -44.510 -13.663  1.00  0.00     0.006 C 
BRANCH  20  21
ATOM     21  C   UNL     1      -6.886 -45.426 -12.432  1.00  0.00     0.053 C 
BRANCH  21  22
ATOM     22  C   UNL     1      -5.567 -46.064 -12.120  1.00  0.00     0.041 C 
ATOM     23  O   UNL     1      -5.098 -46.952 -12.879  1.00  0.00    -0.550 OA
ATOM     24  O   UNL     1      -4.841 -45.657 -11.007  1.00  0.00    -0.550 OA
ENDBRANCH  21  22
ENDBRANCH  20  21
ENDBRANCH  19  20
ENDBRANCH  18  19
ENDBRANCH  17  18
ENDBRANCH  16  17
ENDBRANCH  15  16
ENDBRANCH  14  15
ENDBRANCH  13  14
ENDBRANCH   1  13
TORSDOF 20
ENDMDL
MODEL 8
REMARK VINA RESULT:    -3.949      2.712      6.218
REMARK INTER + INTRA:         -11.658
REMARK INTER:                  -9.408
REMARK INTRA:                  -2.250
REMARK UNBOUND:                -3.091
REMARK SMILES CCCCCCCCCCCCCCCCCCCCCC(=O)[O-]
REMARK SMILES IDX 12 1 11 2 10 3 9 4 8 5 7 6 6 7 5 8 4 9 3 10 2 11 1 12 13 13
REMARK SMILES IDX 14 14 15 15 16 16 17 17 18 18 19 19 20 20 21 21 22 22 23 23
REMARK SMILES IDX 24 24
REMARK H PARENT
REMARK Flexibility Score: inf
ROOT
ATOM      1  C   UNL     1      -6.688 -38.726 -11.054  1.00  0.00     0.000 C 
ENDROOT
BRANCH   1   2
ATOM      2  C   UNL     1      -6.199 -38.467  -9.621  1.00  0.00     0.000 C 
BRANCH   2   3
ATOM      3  C   UNL     1      -7.369 -38.499  -8.629  1.00  0.00     0.000 C 
BRANCH   3   4
ATOM      4  C   UNL     1      -8.603 -37.798  -9.211  1.00  0.00    -0.000 C 
BRANCH   4   5
ATOM      5  C   UNL     1      -9.140 -36.736  -8.244  1.00  0.00    -0.000 C 
BRANCH   5   6
ATOM      6  C   UNL     1      -9.147 -35.347  -8.901  1.00  0.00    -0.000 C 
BRANCH   6   7
ATOM      7  C   UNL     1      -8.381 -35.322 -10.233  1.00  0.00    -0.000 C 
BRANCH   7   8
ATOM      8  C   UNL     1      -7.084 -34.497 -10.154  1.00  0.00    -0.000 C 
BRANCH   8   9
ATOM      9  C   UNL     1      -6.742 -34.064  -8.717  1.00  0.00    -0.000 C 
BRANCH   9  10
ATOM     10  C   UNL     1      -5.612 -34.871  -8.045  1.00  0.00    -0.000 C 
BRANCH  10  11
ATOM     11  C   UNL     1      -4.530 -35.397  -9.005  1.00  0.00    -0.003 C 
ATOM     12  C   UNL     1      -3.282 -35.897  -8.279  1.00  0.00     0.004 C 
ENDBRANCH  10  11
ENDBRANCH   9  10
ENDBRANCH   8   9
ENDBRANCH   7   8
ENDBRANCH   6   7
ENDBRANCH   5   6
ENDBRANCH   4   5
ENDBRANCH   3   4
ENDBRANCH   2   3
ENDBRANCH   1   2
BRANCH   1  13
ATOM     13  C   UNL     1      -6.335 -40.137 -11.559  1.00  0.00     0.000 C 
BRANCH  13  14
ATOM     14  C   UNL     1      -7.545 -41.064 -11.797  1.00  0.00     0.000 C 
BRANCH  14  15
ATOM     15  C   UNL     1      -8.094 -41.067 -13.237  1.00  0.00     0.000 C 
BRANCH  15  16
ATOM     16  C   UNL     1      -7.048 -40.786 -14.330  1.00  0.00     0.000 C 
BRANCH  16  17
ATOM     17  C   UNL     1      -7.388 -39.548 -15.176  1.00  0.00     0.000 C 
BRANCH  17  18
ATOM     18  C   UNL     1      -7.173 -39.778 -16.683  1.00  0.00     0.000 C 
BRANCH  18  19
ATOM     19  C   UNL     1      -6.674 -41.187 -17.061  1.00  0.00     0.000 C 
BRANCH  19  20
ATOM     20  C   UNL     1      -5.652 -41.233 -18.215  1.00  0.00     0.006 C 
BRANCH  20  21
ATOM     21  C   UNL     1      -6.027 -40.370 -19.430  1.00  0.00     0.053 C 
BRANCH  21  22
ATOM     22  C   UNL     1      -4.961 -40.392 -20.483  1.00  0.00     0.041 C 
ATOM     23  O   UNL     1      -3.939 -41.112 -20.334  1.00  0.00    -0.550 OA
ATOM     24  O   UNL     1      -5.112 -39.642 -21.642  1.00  0.00    -0.550 OA
ENDBRANCH  21  22
ENDBRANCH  20  21
ENDBRANCH  19  20
ENDBRANCH  18  19
ENDBRANCH  17  18
ENDBRANCH  16  17
ENDBRANCH  15  16
ENDBRANCH  14  15
ENDBRANCH  13  14
ENDBRANCH   1  13
TORSDOF 20
ENDMDL
MODEL 9
REMARK VINA RESULT:    -3.903      2.976      6.748
REMARK INTER + INTRA:         -11.557
REMARK INTER:                  -8.872
REMARK INTRA:                  -2.685
REMARK UNBOUND:                -3.091
REMARK SMILES CCCCCCCCCCCCCCCCCCCCCC(=O)[O-]
REMARK SMILES IDX 12 1 11 2 10 3 9 4 8 5 7 6 6 7 5 8 4 9 3 10 2 11 1 12 13 13
REMARK SMILES IDX 14 14 15 15 16 16 17 17 18 18 19 19 20 20 21 21 22 22 23 23
REMARK SMILES IDX 24 24
REMARK H PARENT
REMARK Flexibility Score: inf
ROOT
ATOM      1  C   UNL     1      -6.949 -38.739 -10.929  1.00  0.00     0.000 C 
ENDROOT
BRANCH   1   2
ATOM      2  C   UNL     1      -7.020 -39.435  -9.562  1.00  0.00     0.000 C 
BRANCH   2   3
ATOM      3  C   UNL     1      -7.876 -38.625  -8.579  1.00  0.00     0.000 C 
BRANCH   3   4
ATOM      4  C   UNL     1      -8.971 -37.846  -9.315  1.00  0.00    -0.000 C 
BRANCH   4   5
ATOM      5  C   UNL     1      -9.164 -36.453  -8.703  1.00  0.00    -0.000 C 
BRANCH   5   6
ATOM      6  C   UNL     1      -9.016 -35.358  -9.769  1.00  0.00    -0.000 C 
BRANCH   6   7
ATOM      7  C   UNL     1      -7.623 -35.348 -10.416  1.00  0.00    -0.000 C 
BRANCH   7   8
ATOM      8  C   UNL     1      -6.791 -34.119 -10.011  1.00  0.00    -0.000 C 
BRANCH   8   9
ATOM      9  C   UNL     1      -6.010 -34.335  -8.702  1.00  0.00    -0.000 C 
BRANCH   9  10
ATOM     10  C   UNL     1      -5.615 -35.797  -8.413  1.00  0.00    -0.000 C 
BRANCH  10  11
ATOM     11  C   UNL     1      -4.250 -36.226  -8.978  1.00  0.00    -0.003 C 
ATOM     12  C   UNL     1      -3.073 -35.657  -8.187  1.00  0.00     0.004 C 
ENDBRANCH  10  11
ENDBRANCH   9  10
ENDBRANCH   8   9
ENDBRANCH   7   8
ENDBRANCH   6   7
ENDBRANCH   5   6
ENDBRANCH   4   5
ENDBRANCH   3   4
ENDBRANCH   2   3
ENDBRANCH   1   2
BRANCH   1  13
ATOM     13  C   UNL     1      -7.463 -39.627 -12.077  1.00  0.00     0.000 C 
BRANCH  13  14
ATOM     14  C   UNL     1      -6.440 -40.644 -12.621  1.00  0.00     0.000 C 
BRANCH  14  15
ATOM     15  C   UNL     1      -6.840 -42.124 -12.464  1.00  0.00     0.000 C 
BRANCH  15  16
ATOM     16  C   UNL     1      -8.229 -42.357 -11.844  1.00  0.00     0.000 C 
BRANCH  16  17
ATOM     17  C   UNL     1      -8.157 -42.912 -10.412  1.00  0.00     0.000 C 
BRANCH  17  18
ATOM     18  C   UNL     1      -6.760 -43.448 -10.050  1.00  0.00     0.000 C 
BRANCH  18  19
ATOM     19  C   UNL     1      -6.612 -44.980 -10.124  1.00  0.00     0.000 C 
BRANCH  19  20
ATOM     20  C   UNL     1      -5.642 -45.495 -11.207  1.00  0.00     0.006 C 
BRANCH  20  21
ATOM     21  C   UNL     1      -6.282 -45.696 -12.589  1.00  0.00     0.053 C 
BRANCH  21  22
ATOM     22  C   UNL     1      -5.268 -45.632 -13.691  1.00  0.00     0.041 C 
ATOM     23  O   UNL     1      -5.268 -44.662 -14.494  1.00  0.00    -0.550 OA
ATOM     24  O   UNL     1      -4.306 -46.626 -13.811  1.00  0.00    -0.550 OA
ENDBRANCH  21  22
ENDBRANCH  20  21
ENDBRANCH  19  20
ENDBRANCH  18  19
ENDBRANCH  17  18
ENDBRANCH  16  17
ENDBRANCH  15  16
ENDBRANCH  14  15
ENDBRANCH  13  14
ENDBRANCH   1  13
TORSDOF 20
ENDMDL
