MODEL 1
REMARK VINA RESULT:    -7.330      0.000      0.000
REMARK INTER + INTRA:          -9.143
REMARK INTER:                  -8.829
REMARK INTRA:                  -0.314
REMARK UNBOUND:                -0.314
REMARK SMILES O=c1c(O)c(-c2ccc(O)c(O)c2)oc2cc(O)cc(O)c12
REMARK SMILES IDX 5 1 3 2 2 3 1 4 22 5 20 6 19 7 17 8 16 9 15 10 14 11 6 12
REMARK SMILES IDX 7 13 8 14 9 15 13 16 11 17 10 18 12 20 4 22 21 24 18 26
REMARK H PARENT 10 19 12 21 4 23 21 25 18 27
REMARK Flexibility Score: inf
ROOT
ATOM      1  C   UNL     1      17.568  -1.420  10.185  1.00  0.00     0.180 A 
ATOM      2  C   UNL     1      16.383  -1.442  10.940  1.00  0.00     0.208 A 
ATOM      3  C   UNL     1      15.181  -1.802  10.310  1.00  0.00     0.238 A 
ATOM      4  O   UNL     1      14.138  -1.892  11.008  1.00  0.00    -0.285 OA
ATOM      5  C   UNL     1      15.168  -2.081   8.922  1.00  0.00     0.111 A 
ATOM      6  C   UNL     1      14.001  -2.414   8.170  1.00  0.00     0.134 A 
ATOM      7  C   UNL     1      14.125  -2.774   6.823  1.00  0.00     0.093 A 
ATOM      8  C   UNL     1      15.364  -2.754   6.183  1.00  0.00     0.123 A 
ATOM      9  C   UNL     1      16.504  -2.377   6.894  1.00  0.00     0.094 A 
ATOM     10  C   UNL     1      16.418  -2.049   8.249  1.00  0.00     0.146 A 
ATOM     11  O   UNL     1      17.531  -1.718   8.892  1.00  0.00    -0.452 OA
ENDROOT
BRANCH   1  12
ATOM     12  C   UNL     1      18.876  -1.063  10.781  1.00  0.00     0.025 A 
ATOM     13  C   UNL     1      19.247   0.284  10.875  1.00  0.00     0.016 A 
ATOM     14  C   UNL     1      20.485   0.641  11.414  1.00  0.00     0.051 A 
ATOM     15  C   UNL     1      21.380  -0.338  11.855  1.00  0.00     0.157 A 
ATOM     16  C   UNL     1      19.783  -2.052  11.202  1.00  0.00     0.062 A 
ATOM     17  C   UNL     1      21.028  -1.704  11.741  1.00  0.00     0.158 A 
BRANCH  15  18
ATOM     18  O   UNL     1      22.598   0.085  12.392  1.00  0.00    -0.504 OA
ATOM     19  H   UNL     1      23.339  -0.540  12.674  1.00  0.00     0.293 HD
ENDBRANCH  15  18
BRANCH  17  20
ATOM     20  O   UNL     1      21.877  -2.737  12.141  1.00  0.00    -0.504 OA
ATOM     21  H   UNL     1      21.635  -3.430  12.835  1.00  0.00     0.293 HD
ENDBRANCH  17  20
ENDBRANCH   1  12
BRANCH   2  22
ATOM     22  O   UNL     1      16.404  -1.088  12.292  1.00  0.00    -0.502 OA
ATOM     23  H   UNL     1      17.251  -0.796  12.764  1.00  0.00     0.293 HD
ENDBRANCH   2  22
BRANCH   6  24
ATOM     24  O   UNL     1      12.702  -2.380   8.686  1.00  0.00    -0.507 OA
ATOM     25  H   UNL     1      12.243  -1.556   9.043  1.00  0.00     0.293 HD
ENDBRANCH   6  24
BRANCH   8  26
ATOM     26  O   UNL     1      15.448  -3.102   4.837  1.00  0.00    -0.508 OA
ATOM     27  H   UNL     1      15.863  -3.978   4.541  1.00  0.00     0.293 HD
ENDBRANCH   8  26
TORSDOF 6
ENDMDL
MODEL 2
REMARK VINA RESULT:    -6.767      3.252      5.774
REMARK INTER + INTRA:          -8.466
REMARK INTER:                  -8.271
REMARK INTRA:                  -0.195
REMARK UNBOUND:                -0.314
REMARK SMILES O=c1c(O)c(-c2ccc(O)c(O)c2)oc2cc(O)cc(O)c12
REMARK SMILES IDX 5 1 3 2 2 3 1 4 22 5 20 6 19 7 17 8 16 9 15 10 14 11 6 12
REMARK SMILES IDX 7 13 8 14 9 15 13 16 11 17 10 18 12 20 4 22 21 24 18 26
REMARK H PARENT 10 19 12 21 4 23 21 25 18 27
REMARK Flexibility Score: inf
ROOT
ATOM      1  C   UNL     1      14.240  -1.988  11.352  1.00  0.00     0.180 A 
ATOM      2  C   UNL     1      15.557  -1.641  11.003  1.00  0.00     0.208 A 
ATOM      3  C   UNL     1      15.930  -1.658   9.650  1.00  0.00     0.238 A 
ATOM      4  O   UNL     1      17.087  -1.274   9.339  1.00  0.00    -0.285 OA
ATOM      5  C   UNL     1      15.001  -2.077   8.667  1.00  0.00     0.111 A 
ATOM      6  C   UNL     1      15.284  -2.176   7.271  1.00  0.00     0.134 A 
ATOM      7  C   UNL     1      14.254  -2.500   6.379  1.00  0.00     0.093 A 
ATOM      8  C   UNL     1      12.969  -2.790   6.835  1.00  0.00     0.123 A 
ATOM      9  C   UNL     1      12.695  -2.750   8.203  1.00  0.00     0.094 A 
ATOM     10  C   UNL     1      13.691  -2.393   9.115  1.00  0.00     0.146 A 
ATOM     11  O   UNL     1      13.381  -2.346  10.405  1.00  0.00    -0.452 OA
ENDROOT
BRANCH   1  12
ATOM     12  C   UNL     1      13.768  -1.981  12.755  1.00  0.00     0.025 A 
ATOM     13  C   UNL     1      14.252  -2.943  13.651  1.00  0.00     0.016 A 
ATOM     14  C   UNL     1      13.804  -2.967  14.973  1.00  0.00     0.051 A 
ATOM     15  C   UNL     1      12.855  -2.044  15.422  1.00  0.00     0.157 A 
ATOM     16  C   UNL     1      12.797  -1.065  13.196  1.00  0.00     0.062 A 
ATOM     17  C   UNL     1      12.338  -1.083  14.519  1.00  0.00     0.158 A 
BRANCH  15  18
ATOM     18  O   UNL     1      12.454  -2.116  16.757  1.00  0.00    -0.504 OA
ATOM     19  H   UNL     1      11.966  -1.376  17.242  1.00  0.00     0.293 HD
ENDBRANCH  15  18
BRANCH  17  20
ATOM     20  O   UNL     1      11.375  -0.143  14.889  1.00  0.00    -0.504 OA
ATOM     21  H   UNL     1      11.518   0.565  15.595  1.00  0.00     0.293 HD
ENDBRANCH  17  20
ENDBRANCH   1  12
BRANCH   2  22
ATOM     22  O   UNL     1      16.481  -1.304  11.996  1.00  0.00    -0.502 OA
ATOM     23  H   UNL     1      17.383  -0.893  11.783  1.00  0.00     0.293 HD
ENDBRANCH   2  22
BRANCH   6  24
ATOM     24  O   UNL     1      16.553  -1.994   6.715  1.00  0.00    -0.507 OA
ATOM     25  H   UNL     1      16.735  -1.592   5.808  1.00  0.00     0.293 HD
ENDBRANCH   6  24
BRANCH   8  26
ATOM     26  O   UNL     1      11.974  -3.125   5.921  1.00  0.00    -0.508 OA
ATOM     27  H   UNL     1      11.898  -2.658   5.024  1.00  0.00     0.293 HD
ENDBRANCH   8  26
TORSDOF 6
ENDMDL
MODEL 3
REMARK VINA RESULT:    -6.531      4.743      7.757
REMARK INTER + INTRA:          -8.182
REMARK INTER:                  -7.850
REMARK INTRA:                  -0.331
REMARK UNBOUND:                -0.314
REMARK SMILES O=c1c(O)c(-c2ccc(O)c(O)c2)oc2cc(O)cc(O)c12
REMARK SMILES IDX 5 1 3 2 2 3 1 4 22 5 20 6 19 7 17 8 16 9 15 10 14 11 6 12
REMARK SMILES IDX 7 13 8 14 9 15 13 16 11 17 10 18 12 20 4 22 21 24 18 26
REMARK H PARENT 10 19 12 21 4 23 21 25 18 27
REMARK Flexibility Score: inf
ROOT
ATOM      1  C   UNL     1      17.712  -0.608  14.524  1.00  0.00     0.180 A 
ATOM      2  C   UNL     1      18.264   0.610  14.956  1.00  0.00     0.208 A 
ATOM      3  C   UNL     1      19.557   0.959  14.538  1.00  0.00     0.238 A 
ATOM      4  O   UNL     1      20.014   2.084  14.868  1.00  0.00    -0.285 OA
ATOM      5  C   UNL     1      20.306   0.062  13.738  1.00  0.00     0.111 A 
ATOM      6  C   UNL     1      21.642   0.293  13.292  1.00  0.00     0.134 A 
ATOM      7  C   UNL     1      22.245  -0.619  12.416  1.00  0.00     0.093 A 
ATOM      8  C   UNL     1      21.587  -1.782  12.020  1.00  0.00     0.123 A 
ATOM      9  C   UNL     1      20.301  -2.045  12.494  1.00  0.00     0.094 A 
ATOM     10  C   UNL     1      19.658  -1.136  13.338  1.00  0.00     0.146 A 
ATOM     11  O   UNL     1      18.426  -1.415  13.748  1.00  0.00    -0.452 OA
ENDROOT
BRANCH   1  12
ATOM     12  C   UNL     1      16.350  -1.040  14.912  1.00  0.00     0.025 A 
ATOM     13  C   UNL     1      16.179  -1.853  16.040  1.00  0.00     0.016 A 
ATOM     14  C   UNL     1      14.906  -2.288  16.412  1.00  0.00     0.051 A 
ATOM     15  C   UNL     1      13.782  -1.935  15.658  1.00  0.00     0.157 A 
ATOM     16  C   UNL     1      15.226  -0.701  14.139  1.00  0.00     0.062 A 
ATOM     17  C   UNL     1      13.945  -1.135  14.501  1.00  0.00     0.158 A 
BRANCH  15  18
ATOM     18  O   UNL     1      12.536  -2.395  16.087  1.00  0.00    -0.504 OA
ATOM     19  H   UNL     1      12.294  -2.551  17.055  1.00  0.00     0.293 HD
ENDBRANCH  15  18
BRANCH  17  20
ATOM     20  O   UNL     1      12.874  -0.759  13.688  1.00  0.00    -0.504 OA
ATOM     21  H   UNL     1      12.956  -0.133  12.901  1.00  0.00     0.293 HD
ENDBRANCH  17  20
ENDBRANCH   1  12
BRANCH   2  22
ATOM     22  O   UNL     1      17.537   1.447  15.808  1.00  0.00    -0.502 OA
ATOM     23  H   UNL     1      17.916   2.313  16.173  1.00  0.00     0.293 HD
ENDBRANCH   2  22
BRANCH   6  24
ATOM     24  O   UNL     1      22.426   1.377  13.696  1.00  0.00    -0.507 OA
ATOM     25  H   UNL     1      23.434   1.404  13.671  1.00  0.00     0.293 HD
ENDBRANCH   6  24
BRANCH   8  26
ATOM     26  O   UNL     1      22.224  -2.674  11.162  1.00  0.00    -0.508 OA
ATOM     27  H   UNL     1      22.845  -3.395  11.512  1.00  0.00     0.293 HD
ENDBRANCH   8  26
TORSDOF 6
ENDMDL
MODEL 4
REMARK VINA RESULT:    -6.342      3.543      6.920
REMARK INTER + INTRA:          -7.954
REMARK INTER:                  -8.288
REMARK INTRA:                   0.334
REMARK UNBOUND:                -0.314
REMARK SMILES O=c1c(O)c(-c2ccc(O)c(O)c2)oc2cc(O)cc(O)c12
REMARK SMILES IDX 5 1 3 2 2 3 1 4 22 5 20 6 19 7 17 8 16 9 15 10 14 11 6 12
REMARK SMILES IDX 7 13 8 14 9 15 13 16 11 17 10 18 12 20 4 22 21 24 18 26
REMARK H PARENT 10 19 12 21 4 23 21 25 18 27
REMARK Flexibility Score: inf
ROOT
ATOM      1  C   UNL     1      14.146  -2.186  10.206  1.00  0.00     0.180 A 
ATOM      2  C   UNL     1      15.051  -1.587  11.099  1.00  0.00     0.208 A 
ATOM      3  C   UNL     1      14.665  -1.395  12.434  1.00  0.00     0.238 A 
ATOM      4  O   UNL     1      15.506  -0.927  13.245  1.00  0.00    -0.285 OA
ATOM      5  C   UNL     1      13.359  -1.752  12.850  1.00  0.00     0.111 A 
ATOM      6  C   UNL     1      12.844  -1.561  14.168  1.00  0.00     0.134 A 
ATOM      7  C   UNL     1      11.572  -2.051  14.490  1.00  0.00     0.093 A 
ATOM      8  C   UNL     1      10.771  -2.666  13.529  1.00  0.00     0.123 A 
ATOM      9  C   UNL     1      11.243  -2.808  12.223  1.00  0.00     0.094 A 
ATOM     10  C   UNL     1      12.522  -2.364  11.880  1.00  0.00     0.146 A 
ATOM     11  O   UNL     1      12.939  -2.540  10.631  1.00  0.00    -0.452 OA
ENDROOT
BRANCH   1  12
ATOM     12  C   UNL     1      14.486  -2.434   8.787  1.00  0.00     0.025 A 
ATOM     13  C   UNL     1      15.822  -2.646   8.424  1.00  0.00     0.016 A 
ATOM     14  C   UNL     1      16.166  -2.861   7.088  1.00  0.00     0.051 A 
ATOM     15  C   UNL     1      15.189  -2.852   6.088  1.00  0.00     0.157 A 
ATOM     16  C   UNL     1      13.503  -2.401   7.782  1.00  0.00     0.062 A 
ATOM     17  C   UNL     1      13.838  -2.612   6.439  1.00  0.00     0.158 A 
BRANCH  15  18
ATOM     18  O   UNL     1      15.597  -3.081   4.773  1.00  0.00    -0.504 OA
ATOM     19  H   UNL     1      16.105  -2.411   4.214  1.00  0.00     0.293 HD
ENDBRANCH  15  18
BRANCH  17  20
ATOM     20  O   UNL     1      12.811  -2.569   5.495  1.00  0.00    -0.504 OA
ATOM     21  H   UNL     1      12.551  -1.740   4.981  1.00  0.00     0.293 HD
ENDBRANCH  17  20
ENDBRANCH   1  12
BRANCH   2  22
ATOM     22  O   UNL     1      16.309  -1.172  10.652  1.00  0.00    -0.502 OA
ATOM     23  H   UNL     1      16.427  -0.560   9.852  1.00  0.00     0.293 HD
ENDBRANCH   2  22
BRANCH   6  24
ATOM     24  O   UNL     1      13.523  -0.880  15.182  1.00  0.00    -0.507 OA
ATOM     25  H   UNL     1      14.180  -1.300  15.821  1.00  0.00     0.293 HD
ENDBRANCH   6  24
BRANCH   8  26
ATOM     26  O   UNL     1       9.505  -3.125  13.881  1.00  0.00    -0.508 OA
ATOM     27  H   UNL     1       8.797  -3.318  13.181  1.00  0.00     0.293 HD
ENDBRANCH   8  26
TORSDOF 6
ENDMDL
MODEL 5
REMARK VINA RESULT:    -6.197      4.172      7.726
REMARK INTER + INTRA:          -7.779
REMARK INTER:                  -7.510
REMARK INTRA:                  -0.269
REMARK UNBOUND:                -0.314
REMARK SMILES O=c1c(O)c(-c2ccc(O)c(O)c2)oc2cc(O)cc(O)c12
REMARK SMILES IDX 5 1 3 2 2 3 1 4 22 5 20 6 19 7 17 8 16 9 15 10 14 11 6 12
REMARK SMILES IDX 7 13 8 14 9 15 13 16 11 17 10 18 12 20 4 22 21 24 18 26
REMARK H PARENT 10 19 12 21 4 23 21 25 18 27
REMARK Flexibility Score: inf
ROOT
ATOM      1  C   UNL     1      16.738  -1.704  14.143  1.00  0.00     0.180 A 
ATOM      2  C   UNL     1      17.432  -1.993  15.330  1.00  0.00     0.208 A 
ATOM      3  C   UNL     1      18.820  -1.791  15.375  1.00  0.00     0.238 A 
ATOM      4  O   UNL     1      19.422  -1.981  16.464  1.00  0.00    -0.285 OA
ATOM      5  C   UNL     1      19.508  -1.356  14.216  1.00  0.00     0.111 A 
ATOM      6  C   UNL     1      20.920  -1.161  14.134  1.00  0.00     0.134 A 
ATOM      7  C   UNL     1      21.476  -0.626  12.966  1.00  0.00     0.093 A 
ATOM      8  C   UNL     1      20.684  -0.339  11.855  1.00  0.00     0.123 A 
ATOM      9  C   UNL     1      19.310  -0.578  11.905  1.00  0.00     0.094 A 
ATOM     10  C   UNL     1      18.719  -1.075  13.069  1.00  0.00     0.146 A 
ATOM     11  O   UNL     1      17.405  -1.267  13.081  1.00  0.00    -0.452 OA
ENDROOT
BRANCH   1  12
ATOM     12  C   UNL     1      15.273  -1.878  14.022  1.00  0.00     0.025 A 
ATOM     13  C   UNL     1      14.765  -2.923  13.238  1.00  0.00     0.016 A 
ATOM     14  C   UNL     1      13.386  -3.092  13.094  1.00  0.00     0.051 A 
ATOM     15  C   UNL     1      12.491  -2.216  13.715  1.00  0.00     0.157 A 
ATOM     16  C   UNL     1      14.377  -0.982  14.629  1.00  0.00     0.062 A 
ATOM     17  C   UNL     1      12.992  -1.141  14.488  1.00  0.00     0.158 A 
BRANCH  15  18
ATOM     18  O   UNL     1      11.125  -2.445  13.538  1.00  0.00    -0.504 OA
ATOM     19  H   UNL     1      10.522  -2.842  14.244  1.00  0.00     0.293 HD
ENDBRANCH  15  18
BRANCH  17  20
ATOM     20  O   UNL     1      12.161  -0.215  15.120  1.00  0.00    -0.504 OA
ATOM     21  H   UNL     1      12.183   0.778  14.942  1.00  0.00     0.293 HD
ENDBRANCH  17  20
ENDBRANCH   1  12
BRANCH   2  22
ATOM     22  O   UNL     1      16.746  -2.494  16.440  1.00  0.00    -0.502 OA
ATOM     23  H   UNL     1      16.633  -1.962  17.295  1.00  0.00     0.293 HD
ENDBRANCH   2  22
BRANCH   6  24
ATOM     24  O   UNL     1      21.817  -1.497  15.152  1.00  0.00    -0.507 OA
ATOM     25  H   UNL     1      21.871  -1.041  16.049  1.00  0.00     0.293 HD
ENDBRANCH   6  24
BRANCH   8  26
ATOM     26  O   UNL     1      21.274   0.176  10.704  1.00  0.00    -0.508 OA
ATOM     27  H   UNL     1      20.955   1.044  10.287  1.00  0.00     0.293 HD
ENDBRANCH   8  26
TORSDOF 6
ENDMDL
MODEL 6
REMARK VINA RESULT:    -6.007      3.856      5.058
REMARK INTER + INTRA:          -7.550
REMARK INTER:                  -7.237
REMARK INTRA:                  -0.313
REMARK UNBOUND:                -0.314
REMARK SMILES O=c1c(O)c(-c2ccc(O)c(O)c2)oc2cc(O)cc(O)c12
REMARK SMILES IDX 5 1 3 2 2 3 1 4 22 5 20 6 19 7 17 8 16 9 15 10 14 11 6 12
REMARK SMILES IDX 7 13 8 14 9 15 13 16 11 17 10 18 12 20 4 22 21 24 18 26
REMARK H PARENT 10 19 12 21 4 23 21 25 18 27
REMARK Flexibility Score: inf
ROOT
ATOM      1  C   UNL     1      17.512  -1.073  14.207  1.00  0.00     0.180 A 
ATOM      2  C   UNL     1      17.199  -1.350  15.549  1.00  0.00     0.208 A 
ATOM      3  C   UNL     1      15.864  -1.606  15.898  1.00  0.00     0.238 A 
ATOM      4  O   UNL     1      15.602  -1.927  17.087  1.00  0.00    -0.285 OA
ATOM      5  C   UNL     1      14.850  -1.529  14.913  1.00  0.00     0.111 A 
ATOM      6  C   UNL     1      13.458  -1.726  15.162  1.00  0.00     0.134 A 
ATOM      7  C   UNL     1      12.558  -1.729  14.090  1.00  0.00     0.093 A 
ATOM      8  C   UNL     1      12.987  -1.479  12.787  1.00  0.00     0.123 A 
ATOM      9  C   UNL     1      14.338  -1.230  12.539  1.00  0.00     0.094 A 
ATOM     10  C   UNL     1      15.266  -1.258  13.583  1.00  0.00     0.146 A 
ATOM     11  O   UNL     1      16.544  -1.038  13.299  1.00  0.00    -0.452 OA
ENDROOT
BRANCH   1  12
ATOM     12  C   UNL     1      18.898  -0.806  13.759  1.00  0.00     0.025 A 
ATOM     13  C   UNL     1      19.414   0.493  13.853  1.00  0.00     0.016 A 
ATOM     14  C   UNL     1      20.711   0.772  13.417  1.00  0.00     0.051 A 
ATOM     15  C   UNL     1      21.511  -0.235  12.866  1.00  0.00     0.157 A 
ATOM     16  C   UNL     1      19.690  -1.815  13.185  1.00  0.00     0.062 A 
ATOM     17  C   UNL     1      20.990  -1.545  12.741  1.00  0.00     0.158 A 
BRANCH  15  18
ATOM     18  O   UNL     1      22.801   0.107  12.457  1.00  0.00    -0.504 OA
ATOM     19  H   UNL     1      23.237  -0.238  11.613  1.00  0.00     0.293 HD
ENDBRANCH  15  18
BRANCH  17  20
ATOM     20  O   UNL     1      21.721  -2.596  12.184  1.00  0.00    -0.504 OA
ATOM     21  H   UNL     1      21.896  -3.473  12.652  1.00  0.00     0.293 HD
ENDBRANCH  17  20
ENDBRANCH   1  12
BRANCH   2  22
ATOM     22  O   UNL     1      18.204  -1.347  16.520  1.00  0.00    -0.502 OA
ATOM     23  H   UNL     1      18.053  -0.997  17.459  1.00  0.00     0.293 HD
ENDBRANCH   2  22
BRANCH   6  24
ATOM     24  O   UNL     1      12.907  -1.895  16.436  1.00  0.00    -0.507 OA
ATOM     25  H   UNL     1      11.947  -1.707  16.680  1.00  0.00     0.293 HD
ENDBRANCH   6  24
BRANCH   8  26
ATOM     26  O   UNL     1      12.061  -1.473  11.747  1.00  0.00    -0.508 OA
ATOM     27  H   UNL     1      12.294  -1.103  10.832  1.00  0.00     0.293 HD
ENDBRANCH   8  26
TORSDOF 6
ENDMDL
MODEL 7
REMARK VINA RESULT:    -5.997      3.800      5.545
REMARK INTER + INTRA:          -7.538
REMARK INTER:                  -7.223
REMARK INTRA:                  -0.315
REMARK UNBOUND:                -0.314
REMARK SMILES O=c1c(O)c(-c2ccc(O)c(O)c2)oc2cc(O)cc(O)c12
REMARK SMILES IDX 5 1 3 2 2 3 1 4 22 5 20 6 19 7 17 8 16 9 15 10 14 11 6 12
REMARK SMILES IDX 7 13 8 14 9 15 13 16 11 17 10 18 12 20 4 22 21 24 18 26
REMARK H PARENT 10 19 12 21 4 23 21 25 18 27
REMARK Flexibility Score: inf
ROOT
ATOM      1  C   UNL     1      16.621  -0.928  13.831  1.00  0.00     0.180 A 
ATOM      2  C   UNL     1      16.411  -1.158  12.460  1.00  0.00     0.208 A 
ATOM      3  C   UNL     1      15.114  -1.441  12.008  1.00  0.00     0.238 A 
ATOM      4  O   UNL     1      14.921  -1.572  10.771  1.00  0.00    -0.285 OA
ATOM      5  C   UNL     1      14.049  -1.546  12.936  1.00  0.00     0.111 A 
ATOM      6  C   UNL     1      12.702  -1.871  12.595  1.00  0.00     0.134 A 
ATOM      7  C   UNL     1      11.712  -1.842  13.586  1.00  0.00     0.093 A 
ATOM      8  C   UNL     1      12.030  -1.562  14.914  1.00  0.00     0.123 A 
ATOM      9  C   UNL     1      13.353  -1.297  15.268  1.00  0.00     0.094 A 
ATOM     10  C   UNL     1      14.357  -1.281  14.297  1.00  0.00     0.146 A 
ATOM     11  O   UNL     1      15.598  -1.001  14.675  1.00  0.00    -0.452 OA
ENDROOT
BRANCH   1  12
ATOM     12  C   UNL     1      17.958  -0.611  14.382  1.00  0.00     0.025 A 
ATOM     13  C   UNL     1      18.830  -1.654  14.720  1.00  0.00     0.016 A 
ATOM     14  C   UNL     1      20.087  -1.378  15.262  1.00  0.00     0.051 A 
ATOM     15  C   UNL     1      20.492  -0.059  15.489  1.00  0.00     0.157 A 
ATOM     16  C   UNL     1      18.352   0.715  14.631  1.00  0.00     0.062 A 
ATOM     17  C   UNL     1      19.610   1.003  15.176  1.00  0.00     0.158 A 
BRANCH  15  18
ATOM     18  O   UNL     1      21.764   0.150  16.024  1.00  0.00    -0.504 OA
ATOM     19  H   UNL     1      22.284   1.011  15.927  1.00  0.00     0.293 HD
ENDBRANCH  15  18
BRANCH  17  20
ATOM     20  O   UNL     1      19.936   2.343  15.394  1.00  0.00    -0.504 OA
ATOM     21  H   UNL     1      19.726   3.087  14.745  1.00  0.00     0.293 HD
ENDBRANCH  17  20
ENDBRANCH   1  12
BRANCH   2  22
ATOM     22  O   UNL     1      17.488  -1.125  11.570  1.00  0.00    -0.502 OA
ATOM     23  H   UNL     1      17.632  -1.838  10.864  1.00  0.00     0.293 HD
ENDBRANCH   2  22
BRANCH   6  24
ATOM     24  O   UNL     1      12.289  -2.253  11.316  1.00  0.00    -0.507 OA
ATOM     25  H   UNL     1      11.693  -3.041  11.111  1.00  0.00     0.293 HD
ENDBRANCH   6  24
BRANCH   8  26
ATOM     26  O   UNL     1      11.022  -1.559  15.875  1.00  0.00    -0.508 OA
ATOM     27  H   UNL     1      10.056  -1.373  15.631  1.00  0.00     0.293 HD
ENDBRANCH   8  26
TORSDOF 6
ENDMDL
MODEL 8
REMARK VINA RESULT:    -5.935      3.354      4.042
REMARK INTER + INTRA:          -7.464
REMARK INTER:                  -7.305
REMARK INTRA:                  -0.159
REMARK UNBOUND:                -0.314
REMARK SMILES O=c1c(O)c(-c2ccc(O)c(O)c2)oc2cc(O)cc(O)c12
REMARK SMILES IDX 5 1 3 2 2 3 1 4 22 5 20 6 19 7 17 8 16 9 15 10 14 11 6 12
REMARK SMILES IDX 7 13 8 14 9 15 13 16 11 17 10 18 12 20 4 22 21 24 18 26
REMARK H PARENT 10 19 12 21 4 23 21 25 18 27
REMARK Flexibility Score: inf
ROOT
ATOM      1  C   UNL     1      14.972  -1.791  12.035  1.00  0.00     0.180 A 
ATOM      2  C   UNL     1      13.608  -2.096  11.896  1.00  0.00     0.208 A 
ATOM      3  C   UNL     1      13.089  -2.334  10.614  1.00  0.00     0.238 A 
ATOM      4  O   UNL     1      11.884  -2.680  10.504  1.00  0.00    -0.285 OA
ATOM      5  C   UNL     1      13.928  -2.210   9.479  1.00  0.00     0.111 A 
ATOM      6  C   UNL     1      13.500  -2.385   8.129  1.00  0.00     0.134 A 
ATOM      7  C   UNL     1      14.443  -2.342   7.094  1.00  0.00     0.093 A 
ATOM      8  C   UNL     1      15.785  -2.068   7.353  1.00  0.00     0.123 A 
ATOM      9  C   UNL     1      16.205  -1.840   8.664  1.00  0.00     0.094 A 
ATOM     10  C   UNL     1      15.296  -1.914   9.722  1.00  0.00     0.146 A 
ATOM     11  O   UNL     1      15.742  -1.713  10.956  1.00  0.00    -0.452 OA
ENDROOT
BRANCH   1  12
ATOM     12  C   UNL     1      15.595  -1.541  13.355  1.00  0.00     0.025 A 
ATOM     13  C   UNL     1      15.647  -2.574  14.300  1.00  0.00     0.016 A 
ATOM     14  C   UNL     1      16.210  -2.353  15.558  1.00  0.00     0.051 A 
ATOM     15  C   UNL     1      16.717  -1.096  15.903  1.00  0.00     0.157 A 
ATOM     16  C   UNL     1      16.082  -0.270  13.705  1.00  0.00     0.062 A 
ATOM     17  C   UNL     1      16.646  -0.037  14.966  1.00  0.00     0.158 A 
BRANCH  15  18
ATOM     18  O   UNL     1      17.275  -0.943  17.173  1.00  0.00    -0.504 OA
ATOM     19  H   UNL     1      16.756  -1.041  18.034  1.00  0.00     0.293 HD
ENDBRANCH  15  18
BRANCH  17  20
ATOM     20  O   UNL     1      17.113   1.248  15.245  1.00  0.00    -0.504 OA
ATOM     21  H   UNL     1      16.631   2.094  14.979  1.00  0.00     0.293 HD
ENDBRANCH  17  20
ENDBRANCH   1  12
BRANCH   2  22
ATOM     22  O   UNL     1      12.779  -2.139  13.021  1.00  0.00    -0.502 OA
ATOM     23  H   UNL     1      12.385  -1.303  13.439  1.00  0.00     0.293 HD
ENDBRANCH   2  22
BRANCH   6  24
ATOM     24  O   UNL     1      12.169  -2.576   7.748  1.00  0.00    -0.507 OA
ATOM     25  H   UNL     1      11.475  -3.061   8.295  1.00  0.00     0.293 HD
ENDBRANCH   6  24
BRANCH   8  26
ATOM     26  O   UNL     1      16.692  -2.016   6.297  1.00  0.00    -0.508 OA
ATOM     27  H   UNL     1      16.923  -1.141   5.839  1.00  0.00     0.293 HD
ENDBRANCH   8  26
TORSDOF 6
ENDMDL
MODEL 9
REMARK VINA RESULT:    -5.935      3.037      4.148
REMARK INTER + INTRA:          -7.463
REMARK INTER:                  -7.142
REMARK INTRA:                  -0.321
REMARK UNBOUND:                -0.314
REMARK SMILES O=c1c(O)c(-c2ccc(O)c(O)c2)oc2cc(O)cc(O)c12
REMARK SMILES IDX 5 1 3 2 2 3 1 4 22 5 20 6 19 7 17 8 16 9 15 10 14 11 6 12
REMARK SMILES IDX 7 13 8 14 9 15 13 16 11 17 10 18 12 20 4 22 21 24 18 26
REMARK H PARENT 10 19 12 21 4 23 21 25 18 27
REMARK Flexibility Score: inf
ROOT
ATOM      1  C   UNL     1      17.053  -1.247  13.824  1.00  0.00     0.180 A 
ATOM      2  C   UNL     1      16.155  -1.748  14.782  1.00  0.00     0.208 A 
ATOM      3  C   UNL     1      14.899  -2.212  14.362  1.00  0.00     0.238 A 
ATOM      4  O   UNL     1      14.130  -2.727  15.214  1.00  0.00    -0.285 OA
ATOM      5  C   UNL     1      14.533  -2.119  12.997  1.00  0.00     0.111 A 
ATOM      6  C   UNL     1      13.270  -2.518  12.465  1.00  0.00     0.134 A 
ATOM      7  C   UNL     1      13.059  -2.478  11.081  1.00  0.00     0.093 A 
ATOM      8  C   UNL     1      14.040  -1.995  10.217  1.00  0.00     0.123 A 
ATOM      9  C   UNL     1      15.259  -1.551  10.731  1.00  0.00     0.094 A 
ATOM     10  C   UNL     1      15.514  -1.614  12.103  1.00  0.00     0.146 A 
ATOM     11  O   UNL     1      16.695  -1.202  12.547  1.00  0.00    -0.452 OA
ENDROOT
BRANCH   1  12
ATOM     12  C   UNL     1      18.400  -0.752  14.189  1.00  0.00     0.025 A 
ATOM     13  C   UNL     1      19.485  -1.640  14.189  1.00  0.00     0.016 A 
ATOM     14  C   UNL     1      20.759  -1.198  14.550  1.00  0.00     0.051 A 
ATOM     15  C   UNL     1      20.974   0.130  14.931  1.00  0.00     0.157 A 
ATOM     16  C   UNL     1      18.607   0.578  14.593  1.00  0.00     0.062 A 
ATOM     17  C   UNL     1      19.881   1.030  14.960  1.00  0.00     0.158 A 
BRANCH  15  18
ATOM     18  O   UNL     1      22.273   0.510  15.272  1.00  0.00    -0.504 OA
ATOM     19  H   UNL     1      22.538   0.867  16.179  1.00  0.00     0.293 HD
ENDBRANCH  15  18
BRANCH  17  20
ATOM     20  O   UNL     1      20.014   2.364  15.349  1.00  0.00    -0.504 OA
ATOM     21  H   UNL     1      19.447   2.804  16.058  1.00  0.00     0.293 HD
ENDBRANCH  17  20
ENDBRANCH   1  12
BRANCH   2  22
ATOM     22  O   UNL     1      16.506  -1.760  16.135  1.00  0.00    -0.502 OA
ATOM     23  H   UNL     1      17.236  -2.361  16.502  1.00  0.00     0.293 HD
ENDBRANCH   2  22
BRANCH   6  24
ATOM     24  O   UNL     1      12.187  -2.932  13.247  1.00  0.00    -0.507 OA
ATOM     25  H   UNL     1      11.868  -2.470  14.084  1.00  0.00     0.293 HD
ENDBRANCH   6  24
BRANCH   8  26
ATOM     26  O   UNL     1      13.790  -1.954   8.847  1.00  0.00    -0.508 OA
ATOM     27  H   UNL     1      13.540  -1.090   8.379  1.00  0.00     0.293 HD
ENDBRANCH   8  26
TORSDOF 6
ENDMDL
