MODEL 1
REMARK VINA RESULT:    -7.597      0.000      0.000
REMARK INTER + INTRA:          -9.410
REMARK INTER:                  -9.152
REMARK INTRA:                  -0.258
REMARK UNBOUND:                -0.258
REMARK SMILES O=c1c(O)c(-c2ccc(O)c(O)c2)oc2cc(O)cc(O)c12
REMARK SMILES IDX 5 1 3 2 2 3 1 4 22 5 20 6 19 7 17 8 16 9 15 10 14 11 6 12
REMARK SMILES IDX 7 13 8 14 9 15 13 16 11 17 10 18 12 20 4 22 21 24 18 26
REMARK H PARENT 10 19 12 21 4 23 21 25 18 27
REMARK Flexibility Score: inf
ROOT
ATOM      1  C   UNL     1       0.050 -10.494 -40.694  1.00  0.00     0.180 A 
ATOM      2  C   UNL     1      -0.978 -10.491 -41.652  1.00  0.00     0.208 A 
ATOM      3  C   UNL     1      -1.345  -9.276 -42.253  1.00  0.00     0.238 A 
ATOM      4  O   UNL     1      -2.302  -9.271 -43.070  1.00  0.00    -0.285 OA
ATOM      5  C   UNL     1      -0.670  -8.083 -41.900  1.00  0.00     0.111 A 
ATOM      6  C   UNL     1      -0.931  -6.803 -42.475  1.00  0.00     0.134 A 
ATOM      7  C   UNL     1      -0.293  -5.670 -41.956  1.00  0.00     0.093 A 
ATOM      8  C   UNL     1       0.647  -5.780 -40.927  1.00  0.00     0.123 A 
ATOM      9  C   UNL     1       0.953  -7.032 -40.402  1.00  0.00     0.094 A 
ATOM     10  C   UNL     1       0.306  -8.177 -40.874  1.00  0.00     0.146 A 
ATOM     11  O   UNL     1       0.620  -9.350 -40.336  1.00  0.00    -0.452 OA
ENDROOT
BRANCH   1  12
ATOM     12  C   UNL     1       0.510 -11.739 -40.037  1.00  0.00     0.025 A 
ATOM     13  C   UNL     1      -0.267 -12.308 -39.016  1.00  0.00     0.016 A 
ATOM     14  C   UNL     1       0.157 -13.472 -38.367  1.00  0.00     0.051 A 
ATOM     15  C   UNL     1       1.372 -14.073 -38.720  1.00  0.00     0.157 A 
ATOM     16  C   UNL     1       1.740 -12.335 -40.373  1.00  0.00     0.062 A 
ATOM     17  C   UNL     1       2.167 -13.501 -39.722  1.00  0.00     0.158 A 
BRANCH  15  18
ATOM     18  O   UNL     1       1.799 -15.233 -38.077  1.00  0.00    -0.504 OA
ATOM     19  H   UNL     1       1.637 -16.150 -38.475  1.00  0.00     0.293 HD
ENDBRANCH  15  18
BRANCH  17  20
ATOM     20  O   UNL     1       3.381 -14.093 -40.060  1.00  0.00    -0.504 OA
ATOM     21  H   UNL     1       3.618 -15.030 -39.753  1.00  0.00     0.293 HD
ENDBRANCH  17  20
ENDBRANCH   1  12
BRANCH   2  22
ATOM     22  O   UNL     1      -1.647 -11.676 -41.970  1.00  0.00    -0.502 OA
ATOM     23  H   UNL     1      -1.955 -12.334 -41.264  1.00  0.00     0.293 HD
ENDBRANCH   2  22
BRANCH   6  24
ATOM     24  O   UNL     1      -1.782  -6.596 -43.565  1.00  0.00    -0.507 OA
ATOM     25  H   UNL     1      -2.431  -7.279 -43.925  1.00  0.00     0.293 HD
ENDBRANCH   6  24
BRANCH   8  26
ATOM     26  O   UNL     1       1.289  -4.649 -40.428  1.00  0.00    -0.508 OA
ATOM     27  H   UNL     1       1.625  -4.607 -39.473  1.00  0.00     0.293 HD
ENDBRANCH   8  26
TORSDOF 6
ENDMDL
MODEL 2
REMARK VINA RESULT:    -7.281      2.286      7.236
REMARK INTER + INTRA:          -9.029
REMARK INTER:                  -8.705
REMARK INTRA:                  -0.323
REMARK UNBOUND:                -0.258
REMARK SMILES O=c1c(O)c(-c2ccc(O)c(O)c2)oc2cc(O)cc(O)c12
REMARK SMILES IDX 5 1 3 2 2 3 1 4 22 5 20 6 19 7 17 8 16 9 15 10 14 11 6 12
REMARK SMILES IDX 7 13 8 14 9 15 13 16 11 17 10 18 12 20 4 22 21 24 18 26
REMARK H PARENT 10 19 12 21 4 23 21 25 18 27
REMARK Flexibility Score: inf
ROOT
ATOM      1  C   UNL     1       2.166  -9.387 -40.970  1.00  0.00     0.180 A 
ATOM      2  C   UNL     1       3.323 -10.140 -40.709  1.00  0.00     0.208 A 
ATOM      3  C   UNL     1       3.186 -11.457 -40.240  1.00  0.00     0.238 A 
ATOM      4  O   UNL     1       4.226 -12.108 -39.955  1.00  0.00    -0.285 OA
ATOM      5  C   UNL     1       1.896 -12.008 -40.053  1.00  0.00     0.111 A 
ATOM      6  C   UNL     1       1.640 -13.344 -39.621  1.00  0.00     0.134 A 
ATOM      7  C   UNL     1       0.325 -13.741 -39.346  1.00  0.00     0.093 A 
ATOM      8  C   UNL     1      -0.748 -12.869 -39.550  1.00  0.00     0.123 A 
ATOM      9  C   UNL     1      -0.513 -11.584 -40.029  1.00  0.00     0.094 A 
ATOM     10  C   UNL     1       0.791 -11.147 -40.278  1.00  0.00     0.146 A 
ATOM     11  O   UNL     1       0.970  -9.909 -40.724  1.00  0.00    -0.452 OA
ENDROOT
BRANCH   1  12
ATOM     12  C   UNL     1       2.229  -8.002 -41.491  1.00  0.00     0.025 A 
ATOM     13  C   UNL     1       2.285  -7.787 -42.877  1.00  0.00     0.016 A 
ATOM     14  C   UNL     1       2.366  -6.489 -43.390  1.00  0.00     0.051 A 
ATOM     15  C   UNL     1       2.407  -5.389 -42.523  1.00  0.00     0.157 A 
ATOM     16  C   UNL     1       2.292  -6.895 -40.624  1.00  0.00     0.062 A 
ATOM     17  C   UNL     1       2.375  -5.593 -41.138  1.00  0.00     0.158 A 
BRANCH  15  18
ATOM     18  O   UNL     1       2.487  -4.094 -43.030  1.00  0.00    -0.504 OA
ATOM     19  H   UNL     1       3.327  -3.535 -42.927  1.00  0.00     0.293 HD
ENDBRANCH  15  18
BRANCH  17  20
ATOM     20  O   UNL     1       2.432  -4.498 -40.278  1.00  0.00    -0.504 OA
ATOM     21  H   UNL     1       3.305  -4.021 -40.083  1.00  0.00     0.293 HD
ENDBRANCH  17  20
ENDBRANCH   1  12
BRANCH   2  22
ATOM     22  O   UNL     1       4.588  -9.570 -40.878  1.00  0.00    -0.502 OA
ATOM     23  H   UNL     1       4.795  -8.616 -40.609  1.00  0.00     0.293 HD
ENDBRANCH   2  22
BRANCH   6  24
ATOM     24  O   UNL     1       2.630 -14.320 -39.474  1.00  0.00    -0.507 OA
ATOM     25  H   UNL     1       2.716 -14.936 -38.680  1.00  0.00     0.293 HD
ENDBRANCH   6  24
BRANCH   8  26
ATOM     26  O   UNL     1      -2.054 -13.278 -39.289  1.00  0.00    -0.508 OA
ATOM     27  H   UNL     1      -2.839 -12.644 -39.388  1.00  0.00     0.293 HD
ENDBRANCH   8  26
TORSDOF 6
ENDMDL
MODEL 3
REMARK VINA RESULT:    -7.239      1.566      6.676
REMARK INTER + INTRA:          -8.979
REMARK INTER:                  -8.687
REMARK INTRA:                  -0.292
REMARK UNBOUND:                -0.258
REMARK SMILES O=c1c(O)c(-c2ccc(O)c(O)c2)oc2cc(O)cc(O)c12
REMARK SMILES IDX 5 1 3 2 2 3 1 4 22 5 20 6 19 7 17 8 16 9 15 10 14 11 6 12
REMARK SMILES IDX 7 13 8 14 9 15 13 16 11 17 10 18 12 20 4 22 21 24 18 26
REMARK H PARENT 10 19 12 21 4 23 21 25 18 27
REMARK Flexibility Score: inf
ROOT
ATOM      1  C   UNL     1       0.602  -8.937 -41.267  1.00  0.00     0.180 A 
ATOM      2  C   UNL     1      -0.769  -9.223 -41.374  1.00  0.00     0.208 A 
ATOM      3  C   UNL     1      -1.231 -10.493 -40.993  1.00  0.00     0.238 A 
ATOM      4  O   UNL     1      -2.452 -10.762 -41.143  1.00  0.00    -0.285 OA
ATOM      5  C   UNL     1      -0.319 -11.455 -40.496  1.00  0.00     0.111 A 
ATOM      6  C   UNL     1      -0.682 -12.758 -40.042  1.00  0.00     0.134 A 
ATOM      7  C   UNL     1       0.319 -13.672 -39.692  1.00  0.00     0.093 A 
ATOM      8  C   UNL     1       1.668 -13.307 -39.717  1.00  0.00     0.123 A 
ATOM      9  C   UNL     1       2.028 -12.018 -40.100  1.00  0.00     0.094 A 
ATOM     10  C   UNL     1       1.053 -11.095 -40.490  1.00  0.00     0.146 A 
ATOM     11  O   UNL     1       1.442  -9.880 -40.858  1.00  0.00    -0.452 OA
ENDROOT
BRANCH   1  12
ATOM     12  C   UNL     1       1.160  -7.613 -41.625  1.00  0.00     0.025 A 
ATOM     13  C   UNL     1       1.419  -7.313 -42.972  1.00  0.00     0.016 A 
ATOM     14  C   UNL     1       1.965  -6.077 -43.331  1.00  0.00     0.051 A 
ATOM     15  C   UNL     1       2.273  -5.130 -42.346  1.00  0.00     0.157 A 
ATOM     16  C   UNL     1       1.491  -6.665 -40.638  1.00  0.00     0.062 A 
ATOM     17  C   UNL     1       2.040  -5.426 -40.997  1.00  0.00     0.158 A 
BRANCH  15  18
ATOM     18  O   UNL     1       2.817  -3.896 -42.699  1.00  0.00    -0.504 OA
ATOM     19  H   UNL     1       2.233  -3.078 -42.833  1.00  0.00     0.293 HD
ENDBRANCH  15  18
BRANCH  17  20
ATOM     20  O   UNL     1       2.361  -4.486 -40.020  1.00  0.00    -0.504 OA
ATOM     21  H   UNL     1       2.731  -3.574 -40.262  1.00  0.00     0.293 HD
ENDBRANCH  17  20
ENDBRANCH   1  12
BRANCH   2  22
ATOM     22  O   UNL     1      -1.650  -8.268 -41.890  1.00  0.00    -0.502 OA
ATOM     23  H   UNL     1      -2.526  -8.517 -42.331  1.00  0.00     0.293 HD
ENDBRANCH   2  22
BRANCH   6  24
ATOM     24  O   UNL     1      -2.003 -13.193 -39.893  1.00  0.00    -0.507 OA
ATOM     25  H   UNL     1      -2.625 -12.899 -39.156  1.00  0.00     0.293 HD
ENDBRANCH   6  24
BRANCH   8  26
ATOM     26  O   UNL     1       2.657 -14.217 -39.353  1.00  0.00    -0.508 OA
ATOM     27  H   UNL     1       2.673 -15.161 -39.723  1.00  0.00     0.293 HD
ENDBRANCH   8  26
TORSDOF 6
ENDMDL
MODEL 4
REMARK VINA RESULT:    -7.116      3.953      6.197
REMARK INTER + INTRA:          -8.830
REMARK INTER:                  -8.519
REMARK INTRA:                  -0.311
REMARK UNBOUND:                -0.258
REMARK SMILES O=c1c(O)c(-c2ccc(O)c(O)c2)oc2cc(O)cc(O)c12
REMARK SMILES IDX 5 1 3 2 2 3 1 4 22 5 20 6 19 7 17 8 16 9 15 10 14 11 6 12
REMARK SMILES IDX 7 13 8 14 9 15 13 16 11 17 10 18 12 20 4 22 21 24 18 26
REMARK H PARENT 10 19 12 21 4 23 21 25 18 27
REMARK Flexibility Score: inf
ROOT
ATOM      1  C   UNL     1       3.154 -11.770 -40.240  1.00  0.00     0.180 A 
ATOM      2  C   UNL     1       2.938 -11.314 -41.552  1.00  0.00     0.208 A 
ATOM      3  C   UNL     1       4.028 -11.234 -42.433  1.00  0.00     0.238 A 
ATOM      4  O   UNL     1       3.839 -10.774 -43.589  1.00  0.00    -0.285 OA
ATOM      5  C   UNL     1       5.317 -11.625 -41.996  1.00  0.00     0.111 A 
ATOM      6  C   UNL     1       6.485 -11.624 -42.816  1.00  0.00     0.134 A 
ATOM      7  C   UNL     1       7.731 -11.907 -42.243  1.00  0.00     0.093 A 
ATOM      8  C   UNL     1       7.841 -12.256 -40.894  1.00  0.00     0.123 A 
ATOM      9  C   UNL     1       6.699 -12.318 -40.101  1.00  0.00     0.094 A 
ATOM     10  C   UNL     1       5.446 -12.006 -40.635  1.00  0.00     0.146 A 
ATOM     11  O   UNL     1       4.384 -12.068 -39.840  1.00  0.00    -0.452 OA
ENDROOT
BRANCH   1  12
ATOM     12  C   UNL     1       2.050 -11.905 -39.262  1.00  0.00     0.025 A 
ATOM     13  C   UNL     1       1.659 -10.791 -38.503  1.00  0.00     0.016 A 
ATOM     14  C   UNL     1       0.633 -10.901 -37.559  1.00  0.00     0.051 A 
ATOM     15  C   UNL     1      -0.005 -12.131 -37.351  1.00  0.00     0.157 A 
ATOM     16  C   UNL     1       1.420 -13.143 -39.034  1.00  0.00     0.062 A 
ATOM     17  C   UNL     1       0.392 -13.254 -38.087  1.00  0.00     0.158 A 
BRANCH  15  18
ATOM     18  O   UNL     1      -1.028 -12.245 -36.412  1.00  0.00    -0.504 OA
ATOM     19  H   UNL     1      -0.831 -12.387 -35.428  1.00  0.00     0.293 HD
ENDBRANCH  15  18
BRANCH  17  20
ATOM     20  O   UNL     1      -0.235 -14.479 -37.867  1.00  0.00    -0.504 OA
ATOM     21  H   UNL     1       0.292 -15.344 -37.824  1.00  0.00     0.293 HD
ENDBRANCH  17  20
ENDBRANCH   1  12
BRANCH   2  22
ATOM     22  O   UNL     1       1.662 -10.910 -41.956  1.00  0.00    -0.502 OA
ATOM     23  H   UNL     1       1.368 -10.925 -42.924  1.00  0.00     0.293 HD
ENDBRANCH   2  22
BRANCH   6  24
ATOM     24  O   UNL     1       6.473 -11.380 -44.192  1.00  0.00    -0.507 OA
ATOM     25  H   UNL     1       6.528 -12.093 -44.903  1.00  0.00     0.293 HD
ENDBRANCH   6  24
BRANCH   8  26
ATOM     26  O   UNL     1       9.083 -12.551 -40.336  1.00  0.00    -0.508 OA
ATOM     27  H   UNL     1       9.292 -12.344 -39.365  1.00  0.00     0.293 HD
ENDBRANCH   8  26
TORSDOF 6
ENDMDL
MODEL 5
REMARK VINA RESULT:    -6.983      7.862      9.523
REMARK INTER + INTRA:          -8.670
REMARK INTER:                  -8.340
REMARK INTRA:                  -0.329
REMARK UNBOUND:                -0.258
REMARK SMILES O=c1c(O)c(-c2ccc(O)c(O)c2)oc2cc(O)cc(O)c12
REMARK SMILES IDX 5 1 3 2 2 3 1 4 22 5 20 6 19 7 17 8 16 9 15 10 14 11 6 12
REMARK SMILES IDX 7 13 8 14 9 15 13 16 11 17 10 18 12 20 4 22 21 24 18 26
REMARK H PARENT 10 19 12 21 4 23 21 25 18 27
REMARK Flexibility Score: inf
ROOT
ATOM      1  C   UNL     1       8.993  -8.735 -40.938  1.00  0.00     0.180 A 
ATOM      2  C   UNL     1      10.385  -8.550 -40.978  1.00  0.00     0.208 A 
ATOM      3  C   UNL     1      10.907  -7.264 -40.763  1.00  0.00     0.238 A 
ATOM      4  O   UNL     1      12.151  -7.094 -40.856  1.00  0.00    -0.285 OA
ATOM      5  C   UNL     1      10.032  -6.184 -40.496  1.00  0.00     0.111 A 
ATOM      6  C   UNL     1      10.454  -4.848 -40.223  1.00  0.00     0.134 A 
ATOM      7  C   UNL     1       9.497  -3.833 -40.100  1.00  0.00     0.093 A 
ATOM      8  C   UNL     1       8.131  -4.119 -40.175  1.00  0.00     0.123 A 
ATOM      9  C   UNL     1       7.709  -5.429 -40.381  1.00  0.00     0.094 A 
ATOM     10  C   UNL     1       8.641  -6.458 -40.543  1.00  0.00     0.146 A 
ATOM     11  O   UNL     1       8.195  -7.691 -40.749  1.00  0.00    -0.452 OA
ENDROOT
BRANCH   1  12
ATOM     12  C   UNL     1       8.369 -10.065 -41.129  1.00  0.00     0.025 A 
ATOM     13  C   UNL     1       7.874 -10.420 -42.393  1.00  0.00     0.016 A 
ATOM     14  C   UNL     1       7.263 -11.662 -42.592  1.00  0.00     0.051 A 
ATOM     15  C   UNL     1       7.126 -12.559 -41.525  1.00  0.00     0.157 A 
ATOM     16  C   UNL     1       8.211 -10.962 -40.056  1.00  0.00     0.062 A 
ATOM     17  C   UNL     1       7.597 -12.207 -40.254  1.00  0.00     0.158 A 
BRANCH  15  18
ATOM     18  O   UNL     1       6.519 -13.798 -41.719  1.00  0.00    -0.504 OA
ATOM     19  H   UNL     1       6.104 -14.052 -42.608  1.00  0.00     0.293 HD
ENDBRANCH  15  18
BRANCH  17  20
ATOM     20  O   UNL     1       7.446 -13.096 -39.192  1.00  0.00    -0.504 OA
ATOM     21  H   UNL     1       7.893 -12.933 -38.297  1.00  0.00     0.293 HD
ENDBRANCH  17  20
ENDBRANCH   1  12
BRANCH   2  22
ATOM     22  O   UNL     1      11.230  -9.625 -41.268  1.00  0.00    -0.502 OA
ATOM     23  H   UNL     1      12.213  -9.625 -41.026  1.00  0.00     0.293 HD
ENDBRANCH   2  22
BRANCH   6  24
ATOM     24  O   UNL     1      11.788  -4.473 -40.038  1.00  0.00    -0.507 OA
ATOM     25  H   UNL     1      12.101  -3.760 -39.397  1.00  0.00     0.293 HD
ENDBRANCH   6  24
BRANCH   8  26
ATOM     26  O   UNL     1       7.185  -3.106 -40.037  1.00  0.00    -0.508 OA
ATOM     27  H   UNL     1       6.460  -3.149 -39.329  1.00  0.00     0.293 HD
ENDBRANCH   8  26
TORSDOF 6
ENDMDL
MODEL 6
REMARK VINA RESULT:    -6.974      2.665      3.141
REMARK INTER + INTRA:          -8.659
REMARK INTER:                  -8.382
REMARK INTRA:                  -0.278
REMARK UNBOUND:                -0.258
REMARK SMILES O=c1c(O)c(-c2ccc(O)c(O)c2)oc2cc(O)cc(O)c12
REMARK SMILES IDX 5 1 3 2 2 3 1 4 22 5 20 6 19 7 17 8 16 9 15 10 14 11 6 12
REMARK SMILES IDX 7 13 8 14 9 15 13 16 11 17 10 18 12 20 4 22 21 24 18 26
REMARK H PARENT 10 19 12 21 4 23 21 25 18 27
REMARK Flexibility Score: inf
ROOT
ATOM      1  C   UNL     1       1.620 -10.313 -40.288  1.00  0.00     0.180 A 
ATOM      2  C   UNL     1       0.963 -10.125 -41.516  1.00  0.00     0.208 A 
ATOM      3  C   UNL     1       1.389  -9.091 -42.365  1.00  0.00     0.238 A 
ATOM      4  O   UNL     1       0.762  -8.893 -43.439  1.00  0.00    -0.285 OA
ATOM      5  C   UNL     1       2.475  -8.267 -41.982  1.00  0.00     0.111 A 
ATOM      6  C   UNL     1       3.017  -7.216 -42.781  1.00  0.00     0.134 A 
ATOM      7  C   UNL     1       4.007  -6.382 -42.248  1.00  0.00     0.093 A 
ATOM      8  C   UNL     1       4.521  -6.604 -40.967  1.00  0.00     0.123 A 
ATOM      9  C   UNL     1       4.041  -7.664 -40.203  1.00  0.00     0.094 A 
ATOM     10  C   UNL     1       3.028  -8.491 -40.695  1.00  0.00     0.146 A 
ATOM     11  O   UNL     1       2.592  -9.484 -39.928  1.00  0.00    -0.452 OA
ENDROOT
BRANCH   1  12
ATOM     12  C   UNL     1       1.245 -11.397 -39.352  1.00  0.00     0.025 A 
ATOM     13  C   UNL     1       1.634 -12.717 -39.633  1.00  0.00     0.016 A 
ATOM     14  C   UNL     1       1.273 -13.759 -38.774  1.00  0.00     0.051 A 
ATOM     15  C   UNL     1       0.506 -13.499 -37.631  1.00  0.00     0.157 A 
ATOM     16  C   UNL     1       0.456 -11.144 -38.214  1.00  0.00     0.062 A 
ATOM     17  C   UNL     1       0.093 -12.190 -37.354  1.00  0.00     0.158 A 
BRANCH  15  18
ATOM     18  O   UNL     1       0.145 -14.535 -36.772  1.00  0.00    -0.504 OA
ATOM     19  H   UNL     1       0.284 -15.506 -37.025  1.00  0.00     0.293 HD
ENDBRANCH  15  18
BRANCH  17  20
ATOM     20  O   UNL     1      -0.682 -11.936 -36.224  1.00  0.00    -0.504 OA
ATOM     21  H   UNL     1      -1.547 -12.436 -36.051  1.00  0.00     0.293 HD
ENDBRANCH  17  20
ENDBRANCH   1  12
BRANCH   2  22
ATOM     22  O   UNL     1      -0.122 -10.934 -41.865  1.00  0.00    -0.502 OA
ATOM     23  H   UNL     1      -0.971 -10.561 -42.272  1.00  0.00     0.293 HD
ENDBRANCH   2  22
BRANCH   6  24
ATOM     24  O   UNL     1       2.638  -6.968 -44.104  1.00  0.00    -0.507 OA
ATOM     25  H   UNL     1       1.686  -6.872 -44.421  1.00  0.00     0.293 HD
ENDBRANCH   6  24
BRANCH   8  26
ATOM     26  O   UNL     1       5.517  -5.778 -40.449  1.00  0.00    -0.508 OA
ATOM     27  H   UNL     1       5.303  -5.034 -39.796  1.00  0.00     0.293 HD
ENDBRANCH   8  26
TORSDOF 6
ENDMDL
MODEL 7
REMARK VINA RESULT:    -6.968      6.259      7.745
REMARK INTER + INTRA:          -8.652
REMARK INTER:                  -8.329
REMARK INTRA:                  -0.322
REMARK UNBOUND:                -0.258
REMARK SMILES O=c1c(O)c(-c2ccc(O)c(O)c2)oc2cc(O)cc(O)c12
REMARK SMILES IDX 5 1 3 2 2 3 1 4 22 5 20 6 19 7 17 8 16 9 15 10 14 11 6 12
REMARK SMILES IDX 7 13 8 14 9 15 13 16 11 17 10 18 12 20 4 22 21 24 18 26
REMARK H PARENT 10 19 12 21 4 23 21 25 18 27
REMARK Flexibility Score: inf
ROOT
ATOM      1  C   UNL     1       6.979  -8.619 -40.784  1.00  0.00     0.180 A 
ATOM      2  C   UNL     1       6.197  -7.678 -41.475  1.00  0.00     0.208 A 
ATOM      3  C   UNL     1       6.359  -6.313 -41.186  1.00  0.00     0.238 A 
ATOM      4  O   UNL     1       5.618  -5.479 -41.769  1.00  0.00    -0.285 OA
ATOM      5  C   UNL     1       7.311  -5.906 -40.221  1.00  0.00     0.111 A 
ATOM      6  C   UNL     1       7.589  -4.549 -39.878  1.00  0.00     0.134 A 
ATOM      7  C   UNL     1       8.458  -4.268 -38.816  1.00  0.00     0.093 A 
ATOM      8  C   UNL     1       9.110  -5.296 -38.129  1.00  0.00     0.123 A 
ATOM      9  C   UNL     1       8.892  -6.620 -38.497  1.00  0.00     0.094 A 
ATOM     10  C   UNL     1       8.003  -6.933 -39.528  1.00  0.00     0.146 A 
ATOM     11  O   UNL     1       7.816  -8.211 -39.838  1.00  0.00    -0.452 OA
ENDROOT
BRANCH   1  12
ATOM     12  C   UNL     1       6.882 -10.072 -41.052  1.00  0.00     0.025 A 
ATOM     13  C   UNL     1       7.650 -10.636 -42.083  1.00  0.00     0.016 A 
ATOM     14  C   UNL     1       7.559 -12.002 -42.368  1.00  0.00     0.051 A 
ATOM     15  C   UNL     1       6.689 -12.819 -41.634  1.00  0.00     0.157 A 
ATOM     16  C   UNL     1       5.995 -10.893 -40.332  1.00  0.00     0.062 A 
ATOM     17  C   UNL     1       5.902 -12.263 -40.618  1.00  0.00     0.158 A 
BRANCH  15  18
ATOM     18  O   UNL     1       6.596 -14.181 -41.914  1.00  0.00    -0.504 OA
ATOM     19  H   UNL     1       6.095 -14.523 -42.726  1.00  0.00     0.293 HD
ENDBRANCH  15  18
BRANCH  17  20
ATOM     20  O   UNL     1       5.028 -13.076 -39.900  1.00  0.00    -0.504 OA
ATOM     21  H   UNL     1       4.449 -12.704 -39.156  1.00  0.00     0.293 HD
ENDBRANCH  17  20
ENDBRANCH   1  12
BRANCH   2  22
ATOM     22  O   UNL     1       5.246  -8.102 -42.408  1.00  0.00    -0.502 OA
ATOM     23  H   UNL     1       5.336  -7.918 -43.399  1.00  0.00     0.293 HD
ENDBRANCH   2  22
BRANCH   6  24
ATOM     24  O   UNL     1       7.061  -3.448 -40.560  1.00  0.00    -0.507 OA
ATOM     25  H   UNL     1       6.740  -3.464 -41.516  1.00  0.00     0.293 HD
ENDBRANCH   6  24
BRANCH   8  26
ATOM     26  O   UNL     1       9.985  -5.007 -37.084  1.00  0.00    -0.508 OA
ATOM     27  H   UNL     1       9.794  -4.264 -36.422  1.00  0.00     0.293 HD
ENDBRANCH   8  26
TORSDOF 6
ENDMDL
MODEL 8
REMARK VINA RESULT:    -6.955      3.622      5.264
REMARK INTER + INTRA:          -8.636
REMARK INTER:                  -8.335
REMARK INTRA:                  -0.301
REMARK UNBOUND:                -0.258
REMARK SMILES O=c1c(O)c(-c2ccc(O)c(O)c2)oc2cc(O)cc(O)c12
REMARK SMILES IDX 5 1 3 2 2 3 1 4 22 5 20 6 19 7 17 8 16 9 15 10 14 11 6 12
REMARK SMILES IDX 7 13 8 14 9 15 13 16 11 17 10 18 12 20 4 22 21 24 18 26
REMARK H PARENT 10 19 12 21 4 23 21 25 18 27
REMARK Flexibility Score: inf
ROOT
ATOM      1  C   UNL     1       2.495 -11.680 -40.842  1.00  0.00     0.180 A 
ATOM      2  C   UNL     1       3.725 -12.348 -40.971  1.00  0.00     0.208 A 
ATOM      3  C   UNL     1       4.516 -12.105 -42.105  1.00  0.00     0.238 A 
ATOM      4  O   UNL     1       5.590 -12.748 -42.242  1.00  0.00    -0.285 OA
ATOM      5  C   UNL     1       4.075 -11.187 -43.088  1.00  0.00     0.111 A 
ATOM      6  C   UNL     1       4.814 -10.835 -44.258  1.00  0.00     0.134 A 
ATOM      7  C   UNL     1       4.223 -10.014 -45.227  1.00  0.00     0.093 A 
ATOM      8  C   UNL     1       2.945  -9.480 -45.036  1.00  0.00     0.123 A 
ATOM      9  C   UNL     1       2.242  -9.770 -43.871  1.00  0.00     0.094 A 
ATOM     10  C   UNL     1       2.790 -10.615 -42.903  1.00  0.00     0.146 A 
ATOM     11  O   UNL     1       2.079 -10.874 -41.811  1.00  0.00    -0.452 OA
ENDROOT
BRANCH   1  12
ATOM     12  C   UNL     1       1.619 -11.864 -39.662  1.00  0.00     0.025 A 
ATOM     13  C   UNL     1       1.692 -10.951 -38.598  1.00  0.00     0.016 A 
ATOM     14  C   UNL     1       0.889 -11.117 -37.466  1.00  0.00     0.051 A 
ATOM     15  C   UNL     1       0.013 -12.207 -37.376  1.00  0.00     0.157 A 
ATOM     16  C   UNL     1       0.752 -12.968 -39.558  1.00  0.00     0.062 A 
ATOM     17  C   UNL     1      -0.052 -13.136 -38.422  1.00  0.00     0.158 A 
BRANCH  15  18
ATOM     18  O   UNL     1      -0.790 -12.375 -36.250  1.00  0.00    -0.504 OA
ATOM     19  H   UNL     1      -0.702 -13.190 -35.653  1.00  0.00     0.293 HD
ENDBRANCH  15  18
BRANCH  17  20
ATOM     20  O   UNL     1      -0.915 -14.225 -38.323  1.00  0.00    -0.504 OA
ATOM     21  H   UNL     1      -0.732 -14.989 -37.682  1.00  0.00     0.293 HD
ENDBRANCH  17  20
ENDBRANCH   1  12
BRANCH   2  22
ATOM     22  O   UNL     1       4.131 -13.268 -40.000  1.00  0.00    -0.502 OA
ATOM     23  H   UNL     1       5.015 -13.759 -40.051  1.00  0.00     0.293 HD
ENDBRANCH   2  22
BRANCH   6  24
ATOM     24  O   UNL     1       6.130 -11.239 -44.501  1.00  0.00    -0.507 OA
ATOM     25  H   UNL     1       6.905 -11.077 -43.876  1.00  0.00     0.293 HD
ENDBRANCH   6  24
BRANCH   8  26
ATOM     26  O   UNL     1       2.371  -8.652 -45.999  1.00  0.00    -0.508 OA
ATOM     27  H   UNL     1       1.676  -8.998 -46.650  1.00  0.00     0.293 HD
ENDBRANCH   8  26
TORSDOF 6
ENDMDL
MODEL 9
REMARK VINA RESULT:    -6.916      2.072      3.732
REMARK INTER + INTRA:          -8.589
REMARK INTER:                  -8.297
REMARK INTRA:                  -0.292
REMARK UNBOUND:                -0.258
REMARK SMILES O=c1c(O)c(-c2ccc(O)c(O)c2)oc2cc(O)cc(O)c12
REMARK SMILES IDX 5 1 3 2 2 3 1 4 22 5 20 6 19 7 17 8 16 9 15 10 14 11 6 12
REMARK SMILES IDX 7 13 8 14 9 15 13 16 11 17 10 18 12 20 4 22 21 24 18 26
REMARK H PARENT 10 19 12 21 4 23 21 25 18 27
REMARK Flexibility Score: inf
ROOT
ATOM      1  C   UNL     1       1.495  -9.167 -39.708  1.00  0.00     0.180 A 
ATOM      2  C   UNL     1       2.731  -8.506 -39.610  1.00  0.00     0.208 A 
ATOM      3  C   UNL     1       2.895  -7.270 -40.255  1.00  0.00     0.238 A 
ATOM      4  O   UNL     1       4.021  -6.709 -40.210  1.00  0.00    -0.285 OA
ATOM      5  C   UNL     1       1.817  -6.704 -40.977  1.00  0.00     0.111 A 
ATOM      6  C   UNL     1       1.858  -5.438 -41.636  1.00  0.00     0.134 A 
ATOM      7  C   UNL     1       0.776  -5.036 -42.429  1.00  0.00     0.093 A 
ATOM      8  C   UNL     1      -0.372  -5.826 -42.533  1.00  0.00     0.123 A 
ATOM      9  C   UNL     1      -0.445  -7.034 -41.846  1.00  0.00     0.094 A 
ATOM     10  C   UNL     1       0.633  -7.478 -41.076  1.00  0.00     0.146 A 
ATOM     11  O   UNL     1       0.524  -8.642 -40.445  1.00  0.00    -0.452 OA
ENDROOT
BRANCH   1  12
ATOM     12  C   UNL     1       1.239 -10.460 -39.034  1.00  0.00     0.025 A 
ATOM     13  C   UNL     1       1.685 -11.650 -39.630  1.00  0.00     0.016 A 
ATOM     14  C   UNL     1       1.436 -12.884 -39.021  1.00  0.00     0.051 A 
ATOM     15  C   UNL     1       0.724 -12.946 -37.817  1.00  0.00     0.157 A 
ATOM     16  C   UNL     1       0.506 -10.530 -37.834  1.00  0.00     0.062 A 
ATOM     17  C   UNL     1       0.254 -11.767 -37.225  1.00  0.00     0.158 A 
BRANCH  15  18
ATOM     18  O   UNL     1       0.474 -14.174 -37.207  1.00  0.00    -0.504 OA
ATOM     19  H   UNL     1       0.127 -14.967 -37.734  1.00  0.00     0.293 HD
ENDBRANCH  15  18
BRANCH  17  20
ATOM     20  O   UNL     1      -0.466 -11.833 -36.034  1.00  0.00    -0.504 OA
ATOM     21  H   UNL     1      -0.374 -12.620 -35.401  1.00  0.00     0.293 HD
ENDBRANCH  17  20
ENDBRANCH   1  12
BRANCH   2  22
ATOM     22  O   UNL     1       3.790  -9.093 -38.912  1.00  0.00    -0.502 OA
ATOM     23  H   UNL     1       4.536  -8.549 -38.495  1.00  0.00     0.293 HD
ENDBRANCH   2  22
BRANCH   6  24
ATOM     24  O   UNL     1       2.919  -4.533 -41.523  1.00  0.00    -0.507 OA
ATOM     25  H   UNL     1       3.495  -4.423 -40.702  1.00  0.00     0.293 HD
ENDBRANCH   6  24
BRANCH   8  26
ATOM     26  O   UNL     1      -1.450  -5.411 -43.312  1.00  0.00    -0.508 OA
ATOM     27  H   UNL     1      -1.823  -5.991 -44.055  1.00  0.00     0.293 HD
ENDBRANCH   8  26
TORSDOF 6
ENDMDL
