MODEL 1
REMARK VINA RESULT:     1.866      0.000      0.000
REMARK INTER + INTRA:           2.580
REMARK INTER:                   2.247
REMARK INTRA:                   0.332
REMARK UNBOUND:                 0.332
REMARK SMILES O=c1c(O)c(-c2ccc(O)c(O)c2)oc2cc(O)cc(O)c12
REMARK SMILES IDX 5 1 3 2 2 3 1 4 22 5 20 6 19 7 17 8 16 9 15 10 14 11 6 12
REMARK SMILES IDX 7 13 8 14 9 15 13 16 11 17 10 18 12 20 4 22 21 24 18 26
REMARK H PARENT 10 19 12 21 4 23 21 25 18 27
REMARK Flexibility Score: inf
ROOT
ATOM      1  C   UNL     1      -3.245  13.191   8.027  1.00  0.00     0.180 A 
ATOM      2  C   UNL     1      -3.621  13.816   9.232  1.00  0.00     0.208 A 
ATOM      3  C   UNL     1      -3.798  13.026  10.379  1.00  0.00     0.238 A 
ATOM      4  O   UNL     1      -4.125  13.576  11.466  1.00  0.00    -0.285 OA
ATOM      5  C   UNL     1      -3.616  11.630  10.299  1.00  0.00     0.111 A 
ATOM      6  C   UNL     1      -3.777  10.764  11.406  1.00  0.00     0.134 A 
ATOM      7  C   UNL     1      -3.586   9.384  11.243  1.00  0.00     0.093 A 
ATOM      8  C   UNL     1      -3.238   8.855   9.995  1.00  0.00     0.123 A 
ATOM      9  C   UNL     1      -3.077   9.706   8.900  1.00  0.00     0.094 A 
ATOM     10  C   UNL     1      -3.261  11.085   9.043  1.00  0.00     0.146 A 
ATOM     11  O   UNL     1      -3.096  11.871   7.986  1.00  0.00    -0.452 OA
ENDROOT
BRANCH   1  12
ATOM     12  C   UNL     1      -3.022  13.958   6.780  1.00  0.00     0.025 A 
ATOM     13  C   UNL     1      -3.630  15.208   6.570  1.00  0.00     0.016 A 
ATOM     14  C   UNL     1      -3.384  15.923   5.395  1.00  0.00     0.051 A 
ATOM     15  C   UNL     1      -2.520  15.409   4.420  1.00  0.00     0.157 A 
ATOM     16  C   UNL     1      -2.139  13.456   5.809  1.00  0.00     0.062 A 
ATOM     17  C   UNL     1      -1.892  14.170   4.631  1.00  0.00     0.158 A 
BRANCH  15  18
ATOM     18  O   UNL     1      -2.279  16.124   3.248  1.00  0.00    -0.504 OA
ATOM     19  H   UNL     1      -1.698  16.955   3.244  1.00  0.00     0.293 HD
ENDBRANCH  15  18
BRANCH  17  20
ATOM     20  O   UNL     1      -1.020  13.634   3.685  1.00  0.00    -0.504 OA
ATOM     21  H   UNL     1      -1.038  13.919   2.713  1.00  0.00     0.293 HD
ENDBRANCH  17  20
ENDBRANCH   1  12
BRANCH   2  22
ATOM     22  O   UNL     1      -3.845  15.195   9.273  1.00  0.00    -0.502 OA
ATOM     23  H   UNL     1      -4.042  15.687  10.136  1.00  0.00     0.293 HD
ENDBRANCH   2  22
BRANCH   6  24
ATOM     24  O   UNL     1      -4.125  11.261  12.663  1.00  0.00    -0.507 OA
ATOM     25  H   UNL     1      -3.625  10.990  13.502  1.00  0.00     0.293 HD
ENDBRANCH   6  24
BRANCH   8  26
ATOM     26  O   UNL     1      -3.050   7.484   9.833  1.00  0.00    -0.508 OA
ATOM     27  H   UNL     1      -3.725   6.811  10.178  1.00  0.00     0.293 HD
ENDBRANCH   8  26
TORSDOF 6
ENDMDL
