MODEL 1
REMARK VINA RESULT:    -3.009      0.000      0.000
REMARK INTER + INTRA:          -9.815
REMARK INTER:                  -6.527
REMARK INTRA:                  -3.288
REMARK UNBOUND:                -3.288
REMARK SMILES CCCCCCCCCCCCCCCCCCCCCC(=O)[O-]
REMARK SMILES IDX 12 1 11 2 10 3 9 4 8 5 7 6 6 7 5 8 4 9 3 10 2 11 1 12 13 13
REMARK SMILES IDX 14 14 15 15 16 16 17 17 18 18 19 19 20 20 21 21 22 22 23 23
REMARK SMILES IDX 24 24
REMARK H PARENT
REMARK Flexibility Score: inf
ROOT
ATOM      1  C   UNL     1       0.011   1.309   6.348  1.00  0.00     0.000 C 
ENDROOT
BRANCH   1   2
ATOM      2  C   UNL     1       1.127   0.418   6.922  1.00  0.00     0.000 C 
BRANCH   2   3
ATOM      3  C   UNL     1       1.073   0.322   8.456  1.00  0.00     0.000 C 
BRANCH   3   4
ATOM      4  C   UNL     1       1.009  -1.135   8.950  1.00  0.00    -0.000 C 
BRANCH   4   5
ATOM      5  C   UNL     1      -0.258  -1.425   9.769  1.00  0.00    -0.000 C 
BRANCH   5   6
ATOM      6  C   UNL     1      -1.509  -0.749   9.182  1.00  0.00    -0.000 C 
BRANCH   6   7
ATOM      7  C   UNL     1      -2.386  -1.719   8.370  1.00  0.00    -0.000 C 
BRANCH   7   8
ATOM      8  C   UNL     1      -1.985  -1.871   6.892  1.00  0.00    -0.000 C 
BRANCH   8   9
ATOM      9  C   UNL     1      -1.181  -3.150   6.619  1.00  0.00    -0.000 C 
BRANCH   9  10
ATOM     10  C   UNL     1      -1.577  -4.268   7.596  1.00  0.00    -0.000 C 
BRANCH  10  11
ATOM     11  C   UNL     1      -0.399  -5.191   7.944  1.00  0.00    -0.003 C 
ATOM     12  C   UNL     1       0.957  -4.581   7.590  1.00  0.00     0.004 C 
ENDBRANCH  10  11
ENDBRANCH   9  10
ENDBRANCH   8   9
ENDBRANCH   7   8
ENDBRANCH   6   7
ENDBRANCH   5   6
ENDBRANCH   4   5
ENDBRANCH   3   4
ENDBRANCH   2   3
ENDBRANCH   1   2
BRANCH   1  13
ATOM     13  C   UNL     1      -0.467   2.375   7.348  1.00  0.00     0.000 C 
BRANCH  13  14
ATOM     14  C   UNL     1      -1.983   2.619   7.267  1.00  0.00     0.000 C 
BRANCH  14  15
ATOM     15  C   UNL     1      -2.668   1.563   6.386  1.00  0.00     0.000 C 
BRANCH  15  16
ATOM     16  C   UNL     1      -4.194   1.518   6.584  1.00  0.00     0.000 C 
BRANCH  16  17
ATOM     17  C   UNL     1      -4.901   0.299   5.957  1.00  0.00     0.000 C 
BRANCH  17  18
ATOM     18  C   UNL     1      -6.193   0.624   5.185  1.00  0.00     0.000 C 
BRANCH  18  19
ATOM     19  C   UNL     1      -5.925   1.006   3.718  1.00  0.00     0.000 C 
BRANCH  19  20
ATOM     20  C   UNL     1      -6.814   0.223   2.738  1.00  0.00     0.006 C 
BRANCH  20  21
ATOM     21  C   UNL     1      -6.018  -0.794   1.910  1.00  0.00     0.053 C 
BRANCH  21  22
ATOM     22  C   UNL     1      -5.867  -2.078   2.663  1.00  0.00     0.041 C 
ATOM     23  O   UNL     1      -4.720  -2.548   2.894  1.00  0.00    -0.550 OA
ATOM     24  O   UNL     1      -6.991  -2.735   3.150  1.00  0.00    -0.550 OA
ENDBRANCH  21  22
ENDBRANCH  20  21
ENDBRANCH  19  20
ENDBRANCH  18  19
ENDBRANCH  17  18
ENDBRANCH  16  17
ENDBRANCH  15  16
ENDBRANCH  14  15
ENDBRANCH  13  14
ENDBRANCH   1  13
TORSDOF 20
ENDMDL
MODEL 2
REMARK VINA RESULT:    -2.963      1.539      3.301
REMARK INTER + INTRA:          -9.716
REMARK INTER:                  -6.378
REMARK INTRA:                  -3.338
REMARK UNBOUND:                -3.288
REMARK SMILES CCCCCCCCCCCCCCCCCCCCCC(=O)[O-]
REMARK SMILES IDX 12 1 11 2 10 3 9 4 8 5 7 6 6 7 5 8 4 9 3 10 2 11 1 12 13 13
REMARK SMILES IDX 14 14 15 15 16 16 17 17 18 18 19 19 20 20 21 21 22 22 23 23
REMARK SMILES IDX 24 24
REMARK H PARENT
REMARK Flexibility Score: inf
ROOT
ATOM      1  C   UNL     1      -2.703   2.786   6.822  1.00  0.00     0.000 C 
ENDROOT
BRANCH   1   2
ATOM      2  C   UNL     1      -1.678   2.758   7.971  1.00  0.00     0.000 C 
BRANCH   2   3
ATOM      3  C   UNL     1      -0.272   2.355   7.496  1.00  0.00     0.000 C 
BRANCH   3   4
ATOM      4  C   UNL     1      -0.311   1.445   6.256  1.00  0.00    -0.000 C 
BRANCH   4   5
ATOM      5  C   UNL     1       0.729   0.315   6.320  1.00  0.00    -0.000 C 
BRANCH   5   6
ATOM      6  C   UNL     1       0.845  -0.301   7.725  1.00  0.00    -0.000 C 
BRANCH   6   7
ATOM      7  C   UNL     1       0.505  -1.802   7.748  1.00  0.00    -0.000 C 
BRANCH   7   8
ATOM      8  C   UNL     1      -0.862  -2.146   8.365  1.00  0.00    -0.000 C 
BRANCH   8   9
ATOM      9  C   UNL     1      -1.642  -0.904   8.821  1.00  0.00    -0.000 C 
BRANCH   9  10
ATOM     10  C   UNL     1      -2.968  -0.777   8.058  1.00  0.00    -0.000 C 
BRANCH  10  11
ATOM     11  C   UNL     1      -2.910  -1.417   6.662  1.00  0.00    -0.003 C 
ATOM     12  C   UNL     1      -4.295  -1.652   6.060  1.00  0.00     0.004 C 
ENDBRANCH  10  11
ENDBRANCH   9  10
ENDBRANCH   8   9
ENDBRANCH   7   8
ENDBRANCH   6   7
ENDBRANCH   5   6
ENDBRANCH   4   5
ENDBRANCH   3   4
ENDBRANCH   2   3
ENDBRANCH   1   2
BRANCH   1  13
ATOM     13  C   UNL     1      -4.153   2.863   7.327  1.00  0.00     0.000 C 
BRANCH  13  14
ATOM     14  C   UNL     1      -5.097   1.936   6.545  1.00  0.00     0.000 C 
BRANCH  14  15
ATOM     15  C   UNL     1      -4.680   1.837   5.070  1.00  0.00     0.000 C 
BRANCH  15  16
ATOM     16  C   UNL     1      -5.883   1.794   4.110  1.00  0.00     0.000 C 
BRANCH  16  17
ATOM     17  C   UNL     1      -6.689   0.478   4.128  1.00  0.00     0.000 C 
BRANCH  17  18
ATOM     18  C   UNL     1      -7.001  -0.111   2.740  1.00  0.00     0.000 C 
BRANCH  18  19
ATOM     19  C   UNL     1      -5.741  -0.611   2.012  1.00  0.00     0.000 C 
BRANCH  19  20
ATOM     20  C   UNL     1      -5.223  -1.940   2.585  1.00  0.00     0.006 C 
BRANCH  20  21
ATOM     21  C   UNL     1      -6.259  -3.067   2.481  1.00  0.00     0.053 C 
BRANCH  21  22
ATOM     22  C   UNL     1      -6.222  -3.925   3.705  1.00  0.00     0.041 C 
ATOM     23  O   UNL     1      -6.912  -3.621   4.715  1.00  0.00    -0.550 OA
ATOM     24  O   UNL     1      -5.457  -5.086   3.718  1.00  0.00    -0.550 OA
ENDBRANCH  21  22
ENDBRANCH  20  21
ENDBRANCH  19  20
ENDBRANCH  18  19
ENDBRANCH  17  18
ENDBRANCH  16  17
ENDBRANCH  15  16
ENDBRANCH  14  15
ENDBRANCH  13  14
ENDBRANCH   1  13
TORSDOF 20
ENDMDL
MODEL 3
REMARK VINA RESULT:    -2.961      4.122      7.218
REMARK INTER + INTRA:          -9.711
REMARK INTER:                  -6.465
REMARK INTRA:                  -3.247
REMARK UNBOUND:                -3.288
REMARK SMILES CCCCCCCCCCCCCCCCCCCCCC(=O)[O-]
REMARK SMILES IDX 12 1 11 2 10 3 9 4 8 5 7 6 6 7 5 8 4 9 3 10 2 11 1 12 13 13
REMARK SMILES IDX 14 14 15 15 16 16 17 17 18 18 19 19 20 20 21 21 22 22 23 23
REMARK SMILES IDX 24 24
REMARK H PARENT
REMARK Flexibility Score: inf
ROOT
ATOM      1  C   UNL     1       1.448  -4.357   8.260  1.00  0.00     0.000 C 
ENDROOT
BRANCH   1   2
ATOM      2  C   UNL     1       2.798  -5.045   7.987  1.00  0.00     0.000 C 
BRANCH   2   3
ATOM      3  C   UNL     1       3.335  -5.795   9.217  1.00  0.00     0.000 C 
BRANCH   3   4
ATOM      4  C   UNL     1       2.562  -7.097   9.494  1.00  0.00    -0.000 C 
BRANCH   4   5
ATOM      5  C   UNL     1       3.104  -8.288   8.690  1.00  0.00    -0.000 C 
BRANCH   5   6
ATOM      6  C   UNL     1       2.012  -8.991   7.865  1.00  0.00    -0.000 C 
BRANCH   6   7
ATOM      7  C   UNL     1       1.730  -8.288   6.525  1.00  0.00    -0.000 C 
BRANCH   7   8
ATOM      8  C   UNL     1       2.883  -8.349   5.508  1.00  0.00    -0.000 C 
BRANCH   8   9
ATOM      9  C   UNL     1       3.210  -6.980   4.892  1.00  0.00    -0.000 C 
BRANCH   9  10
ATOM     10  C   UNL     1       4.697  -6.640   5.066  1.00  0.00    -0.000 C 
BRANCH  10  11
ATOM     11  C   UNL     1       5.376  -7.496   6.147  1.00  0.00    -0.003 C 
ATOM     12  C   UNL     1       6.422  -6.719   6.947  1.00  0.00     0.004 C 
ENDBRANCH  10  11
ENDBRANCH   9  10
ENDBRANCH   8   9
ENDBRANCH   7   8
ENDBRANCH   6   7
ENDBRANCH   5   6
ENDBRANCH   4   5
ENDBRANCH   3   4
ENDBRANCH   2   3
ENDBRANCH   1   2
BRANCH   1  13
ATOM     13  C   UNL     1       0.336  -4.846   7.318  1.00  0.00     0.000 C 
BRANCH  13  14
ATOM     14  C   UNL     1      -0.588  -5.878   7.985  1.00  0.00     0.000 C 
BRANCH  14  15
ATOM     15  C   UNL     1      -1.981  -5.285   8.249  1.00  0.00     0.000 C 
BRANCH  15  16
ATOM     16  C   UNL     1      -2.344  -4.155   7.269  1.00  0.00     0.000 C 
BRANCH  16  17
ATOM     17  C   UNL     1      -2.788  -2.833   7.928  1.00  0.00     0.000 C 
BRANCH  17  18
ATOM     18  C   UNL     1      -1.639  -1.935   8.422  1.00  0.00     0.000 C 
BRANCH  18  19
ATOM     19  C   UNL     1      -1.053  -1.055   7.303  1.00  0.00     0.000 C 
BRANCH  19  20
ATOM     20  C   UNL     1       0.448  -0.786   7.496  1.00  0.00     0.006 C 
BRANCH  20  21
ATOM     21  C   UNL     1       0.759   0.707   7.665  1.00  0.00     0.053 C 
BRANCH  21  22
ATOM     22  C   UNL     1       0.172   1.494   6.536  1.00  0.00     0.041 C 
ATOM     23  O   UNL     1       0.546   1.281   5.352  1.00  0.00    -0.550 OA
ATOM     24  O   UNL     1      -0.820   2.435   6.786  1.00  0.00    -0.550 OA
ENDBRANCH  21  22
ENDBRANCH  20  21
ENDBRANCH  19  20
ENDBRANCH  18  19
ENDBRANCH  17  18
ENDBRANCH  16  17
ENDBRANCH  15  16
ENDBRANCH  14  15
ENDBRANCH  13  14
ENDBRANCH   1  13
TORSDOF 20
ENDMDL
MODEL 4
REMARK VINA RESULT:    -2.958      2.240      3.651
REMARK INTER + INTRA:          -9.706
REMARK INTER:                  -7.369
REMARK INTRA:                  -2.336
REMARK UNBOUND:                -3.288
REMARK SMILES CCCCCCCCCCCCCCCCCCCCCC(=O)[O-]
REMARK SMILES IDX 12 1 11 2 10 3 9 4 8 5 7 6 6 7 5 8 4 9 3 10 2 11 1 12 13 13
REMARK SMILES IDX 14 14 15 15 16 16 17 17 18 18 19 19 20 20 21 21 22 22 23 23
REMARK SMILES IDX 24 24
REMARK H PARENT
REMARK Flexibility Score: inf
ROOT
ATOM      1  C   UNL     1      -0.026   1.340   6.091  1.00  0.00     0.000 C 
ENDROOT
BRANCH   1   2
ATOM      2  C   UNL     1       1.040   0.308   6.503  1.00  0.00     0.000 C 
BRANCH   2   3
ATOM      3  C   UNL     1       0.422  -1.009   7.000  1.00  0.00     0.000 C 
BRANCH   3   4
ATOM      4  C   UNL     1       0.851  -1.352   8.439  1.00  0.00    -0.000 C 
BRANCH   4   5
ATOM      5  C   UNL     1       0.769  -2.857   8.736  1.00  0.00    -0.000 C 
BRANCH   5   6
ATOM      6  C   UNL     1       0.246  -3.668   7.538  1.00  0.00    -0.000 C 
BRANCH   6   7
ATOM      7  C   UNL     1       0.672  -5.147   7.586  1.00  0.00    -0.000 C 
BRANCH   7   8
ATOM      8  C   UNL     1       2.186  -5.388   7.457  1.00  0.00    -0.000 C 
BRANCH   8   9
ATOM      9  C   UNL     1       2.525  -6.608   6.587  1.00  0.00    -0.000 C 
BRANCH   9  10
ATOM     10  C   UNL     1       3.807  -6.366   5.777  1.00  0.00    -0.000 C 
BRANCH  10  11
ATOM     11  C   UNL     1       3.717  -6.927   4.349  1.00  0.00    -0.003 C 
ATOM     12  C   UNL     1       2.982  -8.266   4.283  1.00  0.00     0.004 C 
ENDBRANCH  10  11
ENDBRANCH   9  10
ENDBRANCH   8   9
ENDBRANCH   7   8
ENDBRANCH   6   7
ENDBRANCH   5   6
ENDBRANCH   4   5
ENDBRANCH   3   4
ENDBRANCH   2   3
ENDBRANCH   1   2
BRANCH   1  13
ATOM     13  C   UNL     1      -0.527   2.178   7.279  1.00  0.00     0.000 C 
BRANCH  13  14
ATOM     14  C   UNL     1      -2.015   2.541   7.156  1.00  0.00     0.000 C 
BRANCH  14  15
ATOM     15  C   UNL     1      -2.818   2.005   8.352  1.00  0.00     0.000 C 
BRANCH  15  16
ATOM     16  C   UNL     1      -2.416   0.573   8.746  1.00  0.00     0.000 C 
BRANCH  16  17
ATOM     17  C   UNL     1      -3.349  -0.538   8.221  1.00  0.00     0.000 C 
BRANCH  17  18
ATOM     18  C   UNL     1      -3.254  -0.805   6.707  1.00  0.00     0.000 C 
BRANCH  18  19
ATOM     19  C   UNL     1      -2.988  -2.286   6.383  1.00  0.00     0.000 C 
BRANCH  19  20
ATOM     20  C   UNL     1      -4.258  -3.145   6.488  1.00  0.00     0.006 C 
BRANCH  20  21
ATOM     21  C   UNL     1      -4.609  -3.837   5.164  1.00  0.00     0.053 C 
BRANCH  21  22
ATOM     22  C   UNL     1      -5.115  -2.839   4.171  1.00  0.00     0.041 C 
ATOM     23  O   UNL     1      -4.573  -2.740   3.038  1.00  0.00    -0.550 OA
ATOM     24  O   UNL     1      -6.215  -2.047   4.480  1.00  0.00    -0.550 OA
ENDBRANCH  21  22
ENDBRANCH  20  21
ENDBRANCH  19  20
ENDBRANCH  18  19
ENDBRANCH  17  18
ENDBRANCH  16  17
ENDBRANCH  15  16
ENDBRANCH  14  15
ENDBRANCH  13  14
ENDBRANCH   1  13
TORSDOF 20
ENDMDL
MODEL 5
REMARK VINA RESULT:    -2.903      2.895      4.747
REMARK INTER + INTRA:          -9.585
REMARK INTER:                  -7.195
REMARK INTRA:                  -2.390
REMARK UNBOUND:                -3.288
REMARK SMILES CCCCCCCCCCCCCCCCCCCCCC(=O)[O-]
REMARK SMILES IDX 12 1 11 2 10 3 9 4 8 5 7 6 6 7 5 8 4 9 3 10 2 11 1 12 13 13
REMARK SMILES IDX 14 14 15 15 16 16 17 17 18 18 19 19 20 20 21 21 22 22 23 23
REMARK SMILES IDX 24 24
REMARK H PARENT
REMARK Flexibility Score: inf
ROOT
ATOM      1  C   UNL     1       1.052  -0.092   8.022  1.00  0.00     0.000 C 
ENDROOT
BRANCH   1   2
ATOM      2  C   UNL     1       0.420  -1.417   8.487  1.00  0.00     0.000 C 
BRANCH   2   3
ATOM      3  C   UNL     1      -0.002  -2.313   7.311  1.00  0.00     0.000 C 
BRANCH   3   4
ATOM      4  C   UNL     1       0.424  -3.779   7.508  1.00  0.00    -0.000 C 
BRANCH   4   5
ATOM      5  C   UNL     1       1.611  -3.924   8.472  1.00  0.00    -0.000 C 
BRANCH   5   6
ATOM      6  C   UNL     1       2.629  -4.977   8.001  1.00  0.00    -0.000 C 
BRANCH   6   7
ATOM      7  C   UNL     1       2.027  -5.989   7.010  1.00  0.00    -0.000 C 
BRANCH   7   8
ATOM      8  C   UNL     1       3.047  -6.664   6.075  1.00  0.00    -0.000 C 
BRANCH   8   9
ATOM      9  C   UNL     1       2.560  -8.017   5.537  1.00  0.00    -0.000 C 
BRANCH   9  10
ATOM     10  C   UNL     1       3.227  -8.347   4.194  1.00  0.00    -0.000 C 
BRANCH  10  11
ATOM     11  C   UNL     1       4.750  -8.144   4.225  1.00  0.00    -0.003 C 
ATOM     12  C   UNL     1       5.295  -7.547   2.928  1.00  0.00     0.004 C 
ENDBRANCH  10  11
ENDBRANCH   9  10
ENDBRANCH   8   9
ENDBRANCH   7   8
ENDBRANCH   6   7
ENDBRANCH   5   6
ENDBRANCH   4   5
ENDBRANCH   3   4
ENDBRANCH   2   3
ENDBRANCH   1   2
BRANCH   1  13
ATOM     13  C   UNL     1       0.818   0.180   6.527  1.00  0.00     0.000 C 
BRANCH  13  14
ATOM     14  C   UNL     1       0.041   1.483   6.281  1.00  0.00     0.000 C 
BRANCH  14  15
ATOM     15  C   UNL     1      -0.090   2.302   7.575  1.00  0.00     0.000 C 
BRANCH  15  16
ATOM     16  C   UNL     1      -1.553   2.492   8.016  1.00  0.00     0.000 C 
BRANCH  16  17
ATOM     17  C   UNL     1      -1.973   1.684   9.261  1.00  0.00     0.000 C 
BRANCH  17  18
ATOM     18  C   UNL     1      -2.905   0.492   8.977  1.00  0.00     0.000 C 
BRANCH  18  19
ATOM     19  C   UNL     1      -3.469   0.509   7.546  1.00  0.00     0.000 C 
BRANCH  19  20
ATOM     20  C   UNL     1      -3.031  -0.717   6.729  1.00  0.00     0.006 C 
BRANCH  20  21
ATOM     21  C   UNL     1      -4.173  -1.296   5.883  1.00  0.00     0.053 C 
BRANCH  21  22
ATOM     22  C   UNL     1      -3.838  -2.683   5.431  1.00  0.00     0.041 C 
ATOM     23  O   UNL     1      -3.169  -3.449   6.176  1.00  0.00    -0.550 OA
ATOM     24  O   UNL     1      -4.300  -3.145   4.204  1.00  0.00    -0.550 OA
ENDBRANCH  21  22
ENDBRANCH  20  21
ENDBRANCH  19  20
ENDBRANCH  18  19
ENDBRANCH  17  18
ENDBRANCH  16  17
ENDBRANCH  15  16
ENDBRANCH  14  15
ENDBRANCH  13  14
ENDBRANCH   1  13
TORSDOF 20
ENDMDL
MODEL 6
REMARK VINA RESULT:    -2.902      1.751      3.041
REMARK INTER + INTRA:          -9.582
REMARK INTER:                  -6.241
REMARK INTRA:                  -3.341
REMARK UNBOUND:                -3.288
REMARK SMILES CCCCCCCCCCCCCCCCCCCCCC(=O)[O-]
REMARK SMILES IDX 12 1 11 2 10 3 9 4 8 5 7 6 6 7 5 8 4 9 3 10 2 11 1 12 13 13
REMARK SMILES IDX 14 14 15 15 16 16 17 17 18 18 19 19 20 20 21 21 22 22 23 23
REMARK SMILES IDX 24 24
REMARK H PARENT
REMARK Flexibility Score: inf
ROOT
ATOM      1  C   UNL     1       0.555   1.173   6.673  1.00  0.00     0.000 C 
ENDROOT
BRANCH   1   2
ATOM      2  C   UNL     1       0.682  -0.310   7.065  1.00  0.00     0.000 C 
BRANCH   2   3
ATOM      3  C   UNL     1       0.488  -0.539   8.573  1.00  0.00     0.000 C 
BRANCH   3   4
ATOM      4  C   UNL     1       0.199  -2.013   8.911  1.00  0.00    -0.000 C 
BRANCH   4   5
ATOM      5  C   UNL     1       1.471  -2.875   8.926  1.00  0.00    -0.000 C 
BRANCH   5   6
ATOM      6  C   UNL     1       1.363  -4.102   8.005  1.00  0.00    -0.000 C 
BRANCH   6   7
ATOM      7  C   UNL     1      -0.042  -4.275   7.401  1.00  0.00    -0.000 C 
BRANCH   7   8
ATOM      8  C   UNL     1      -0.865  -5.431   7.999  1.00  0.00    -0.000 C 
BRANCH   8   9
ATOM      9  C   UNL     1      -2.148  -4.954   8.693  1.00  0.00    -0.000 C 
BRANCH   9  10
ATOM     10  C   UNL     1      -3.327  -5.883   8.368  1.00  0.00    -0.000 C 
BRANCH  10  11
ATOM     11  C   UNL     1      -3.453  -6.173   6.863  1.00  0.00    -0.003 C 
ATOM     12  C   UNL     1      -3.654  -7.658   6.561  1.00  0.00     0.004 C 
ENDBRANCH  10  11
ENDBRANCH   9  10
ENDBRANCH   8   9
ENDBRANCH   7   8
ENDBRANCH   6   7
ENDBRANCH   5   6
ENDBRANCH   4   5
ENDBRANCH   3   4
ENDBRANCH   2   3
ENDBRANCH   1   2
BRANCH   1  13
ATOM     13  C   UNL     1       0.050   2.049   7.831  1.00  0.00     0.000 C 
BRANCH  13  14
ATOM     14  C   UNL     1      -1.363   2.599   7.579  1.00  0.00     0.000 C 
BRANCH  14  15
ATOM     15  C   UNL     1      -1.999   1.947   6.342  1.00  0.00     0.000 C 
BRANCH  15  16
ATOM     16  C   UNL     1      -3.272   1.148   6.675  1.00  0.00     0.000 C 
BRANCH  16  17
ATOM     17  C   UNL     1      -3.169   0.237   7.916  1.00  0.00     0.000 C 
BRANCH  17  18
ATOM     18  C   UNL     1      -3.541  -1.237   7.672  1.00  0.00     0.000 C 
BRANCH  18  19
ATOM     19  C   UNL     1      -2.628  -1.914   6.635  1.00  0.00     0.000 C 
BRANCH  19  20
ATOM     20  C   UNL     1      -3.417  -2.766   5.628  1.00  0.00     0.006 C 
BRANCH  20  21
ATOM     21  C   UNL     1      -4.716  -2.086   5.175  1.00  0.00     0.053 C 
BRANCH  21  22
ATOM     22  C   UNL     1      -5.205  -2.692   3.897  1.00  0.00     0.041 C 
ATOM     23  O   UNL     1      -5.372  -3.938   3.809  1.00  0.00    -0.550 OA
ATOM     24  O   UNL     1      -5.518  -1.876   2.816  1.00  0.00    -0.550 OA
ENDBRANCH  21  22
ENDBRANCH  20  21
ENDBRANCH  19  20
ENDBRANCH  18  19
ENDBRANCH  17  18
ENDBRANCH  16  17
ENDBRANCH  15  16
ENDBRANCH  14  15
ENDBRANCH  13  14
ENDBRANCH   1  13
TORSDOF 20
ENDMDL
MODEL 7
REMARK VINA RESULT:    -2.896      1.415      2.300
REMARK INTER + INTRA:          -9.571
REMARK INTER:                  -5.603
REMARK INTRA:                  -3.968
REMARK UNBOUND:                -3.288
REMARK SMILES CCCCCCCCCCCCCCCCCCCCCC(=O)[O-]
REMARK SMILES IDX 12 1 11 2 10 3 9 4 8 5 7 6 6 7 5 8 4 9 3 10 2 11 1 12 13 13
REMARK SMILES IDX 14 14 15 15 16 16 17 17 18 18 19 19 20 20 21 21 22 22 23 23
REMARK SMILES IDX 24 24
REMARK H PARENT
REMARK Flexibility Score: inf
ROOT
ATOM      1  C   UNL     1      -1.560   2.703   7.428  1.00  0.00     0.000 C 
ENDROOT
BRANCH   1   2
ATOM      2  C   UNL     1      -0.080   2.304   7.279  1.00  0.00     0.000 C 
BRANCH   2   3
ATOM      3  C   UNL     1       0.131   1.207   6.223  1.00  0.00     0.000 C 
BRANCH   3   4
ATOM      4  C   UNL     1       0.703  -0.088   6.829  1.00  0.00    -0.000 C 
BRANCH   4   5
ATOM      5  C   UNL     1       0.949   0.027   8.342  1.00  0.00    -0.000 C 
BRANCH   5   6
ATOM      6  C   UNL     1       0.143  -1.004   9.151  1.00  0.00    -0.000 C 
BRANCH   6   7
ATOM      7  C   UNL     1      -1.351  -0.649   9.252  1.00  0.00    -0.000 C 
BRANCH   7   8
ATOM      8  C   UNL     1      -2.313  -1.776   8.836  1.00  0.00    -0.000 C 
BRANCH   8   9
ATOM      9  C   UNL     1      -2.349  -2.002   7.318  1.00  0.00    -0.000 C 
BRANCH   9  10
ATOM     10  C   UNL     1      -2.012  -3.459   6.970  1.00  0.00    -0.000 C 
BRANCH  10  11
ATOM     11  C   UNL     1      -0.498  -3.717   6.912  1.00  0.00    -0.003 C 
ATOM     12  C   UNL     1      -0.024  -4.707   7.976  1.00  0.00     0.004 C 
ENDBRANCH  10  11
ENDBRANCH   9  10
ENDBRANCH   8   9
ENDBRANCH   7   8
ENDBRANCH   6   7
ENDBRANCH   5   6
ENDBRANCH   4   5
ENDBRANCH   3   4
ENDBRANCH   2   3
ENDBRANCH   1   2
BRANCH   1  13
ATOM     13  C   UNL     1      -2.456   2.049   6.363  1.00  0.00     0.000 C 
BRANCH  13  14
ATOM     14  C   UNL     1      -3.606   1.237   6.982  1.00  0.00     0.000 C 
BRANCH  14  15
ATOM     15  C   UNL     1      -4.036   1.827   8.334  1.00  0.00     0.000 C 
BRANCH  15  16
ATOM     16  C   UNL     1      -4.959   0.886   9.129  1.00  0.00     0.000 C 
BRANCH  16  17
ATOM     17  C   UNL     1      -5.605  -0.248   8.308  1.00  0.00     0.000 C 
BRANCH  17  18
ATOM     18  C   UNL     1      -6.909   0.137   7.584  1.00  0.00     0.000 C 
BRANCH  18  19
ATOM     19  C   UNL     1      -6.985  -0.434   6.157  1.00  0.00     0.000 C 
BRANCH  19  20
ATOM     20  C   UNL     1      -6.054  -1.642   5.959  1.00  0.00     0.006 C 
BRANCH  20  21
ATOM     21  C   UNL     1      -5.005  -1.400   4.866  1.00  0.00     0.053 C 
BRANCH  21  22
ATOM     22  C   UNL     1      -4.868  -2.611   3.997  1.00  0.00     0.041 C 
ATOM     23  O   UNL     1      -4.468  -3.702   4.487  1.00  0.00    -0.550 OA
ATOM     24  O   UNL     1      -5.223  -2.548   2.655  1.00  0.00    -0.550 OA
ENDBRANCH  21  22
ENDBRANCH  20  21
ENDBRANCH  19  20
ENDBRANCH  18  19
ENDBRANCH  17  18
ENDBRANCH  16  17
ENDBRANCH  15  16
ENDBRANCH  14  15
ENDBRANCH  13  14
ENDBRANCH   1  13
TORSDOF 20
ENDMDL
MODEL 8
REMARK VINA RESULT:    -2.880      1.604      5.061
REMARK INTER + INTRA:          -9.535
REMARK INTER:                  -5.928
REMARK INTRA:                  -3.607
REMARK UNBOUND:                -3.288
REMARK SMILES CCCCCCCCCCCCCCCCCCCCCC(=O)[O-]
REMARK SMILES IDX 12 1 11 2 10 3 9 4 8 5 7 6 6 7 5 8 4 9 3 10 2 11 1 12 13 13
REMARK SMILES IDX 14 14 15 15 16 16 17 17 18 18 19 19 20 20 21 21 22 22 23 23
REMARK SMILES IDX 24 24
REMARK H PARENT
REMARK Flexibility Score: inf
ROOT
ATOM      1  C   UNL     1       0.149  -1.770   8.406  1.00  0.00     0.000 C 
ENDROOT
BRANCH   1   2
ATOM      2  C   UNL     1       0.765  -0.392   8.104  1.00  0.00     0.000 C 
BRANCH   2   3
ATOM      3  C   UNL     1       0.733  -0.048   6.606  1.00  0.00     0.000 C 
BRANCH   3   4
ATOM      4  C   UNL     1       0.511   1.454   6.353  1.00  0.00    -0.000 C 
BRANCH   4   5
ATOM      5  C   UNL     1      -0.001   2.192   7.600  1.00  0.00    -0.000 C 
BRANCH   5   6
ATOM      6  C   UNL     1      -1.476   2.610   7.475  1.00  0.00    -0.000 C 
BRANCH   6   7
ATOM      7  C   UNL     1      -2.361   2.017   8.587  1.00  0.00    -0.000 C 
BRANCH   7   8
ATOM      8  C   UNL     1      -2.786   0.555   8.365  1.00  0.00    -0.000 C 
BRANCH   8   9
ATOM      9  C   UNL     1      -3.027   0.221   6.886  1.00  0.00    -0.000 C 
BRANCH   9  10
ATOM     10  C   UNL     1      -4.528   0.201   6.564  1.00  0.00    -0.000 C 
BRANCH  10  11
ATOM     11  C   UNL     1      -4.892   1.126   5.391  1.00  0.00    -0.003 C 
ATOM     12  C   UNL     1      -4.708   2.607   5.726  1.00  0.00     0.004 C 
ENDBRANCH  10  11
ENDBRANCH   9  10
ENDBRANCH   8   9
ENDBRANCH   7   8
ENDBRANCH   6   7
ENDBRANCH   5   6
ENDBRANCH   4   5
ENDBRANCH   3   4
ENDBRANCH   2   3
ENDBRANCH   1   2
BRANCH   1  13
ATOM     13  C   UNL     1      -0.121  -2.587   7.132  1.00  0.00     0.000 C 
BRANCH  13  14
ATOM     14  C   UNL     1      -0.025  -4.103   7.374  1.00  0.00     0.000 C 
BRANCH  14  15
ATOM     15  C   UNL     1      -0.449  -4.463   8.806  1.00  0.00     0.000 C 
BRANCH  15  16
ATOM     16  C   UNL     1      -1.907  -4.946   8.894  1.00  0.00     0.000 C 
BRANCH  16  17
ATOM     17  C   UNL     1      -2.953  -3.837   9.131  1.00  0.00     0.000 C 
BRANCH  17  18
ATOM     18  C   UNL     1      -3.689  -3.358   7.866  1.00  0.00     0.000 C 
BRANCH  18  19
ATOM     19  C   UNL     1      -3.638  -4.389   6.725  1.00  0.00     0.000 C 
BRANCH  19  20
ATOM     20  C   UNL     1      -4.622  -4.058   5.592  1.00  0.00     0.006 C 
BRANCH  20  21
ATOM     21  C   UNL     1      -4.173  -2.849   4.760  1.00  0.00     0.053 C 
BRANCH  21  22
ATOM     22  C   UNL     1      -5.222  -2.487   3.755  1.00  0.00     0.041 C 
ATOM     23  O   UNL     1      -5.078  -2.805   2.544  1.00  0.00    -0.550 OA
ATOM     24  O   UNL     1      -6.381  -1.837   4.164  1.00  0.00    -0.550 OA
ENDBRANCH  21  22
ENDBRANCH  20  21
ENDBRANCH  19  20
ENDBRANCH  18  19
ENDBRANCH  17  18
ENDBRANCH  16  17
ENDBRANCH  15  16
ENDBRANCH  14  15
ENDBRANCH  13  14
ENDBRANCH   1  13
TORSDOF 20
ENDMDL
MODEL 9
REMARK VINA RESULT:    -2.877     10.951     12.925
REMARK INTER + INTRA:          -9.529
REMARK INTER:                  -5.989
REMARK INTRA:                  -3.539
REMARK UNBOUND:                -3.288
REMARK SMILES CCCCCCCCCCCCCCCCCCCCCC(=O)[O-]
REMARK SMILES IDX 12 1 11 2 10 3 9 4 8 5 7 6 6 7 5 8 4 9 3 10 2 11 1 12 13 13
REMARK SMILES IDX 14 14 15 15 16 16 17 17 18 18 19 19 20 20 21 21 22 22 23 23
REMARK SMILES IDX 24 24
REMARK H PARENT
REMARK Flexibility Score: inf
ROOT
ATOM      1  C   UNL     1       2.655   8.542  -1.109  1.00  0.00     0.000 C 
ENDROOT
BRANCH   1   2
ATOM      2  C   UNL     1       3.913   8.587  -1.995  1.00  0.00     0.000 C 
BRANCH   2   3
ATOM      3  C   UNL     1       5.204   8.338  -1.198  1.00  0.00     0.000 C 
BRANCH   3   4
ATOM      4  C   UNL     1       4.923   7.866   0.240  1.00  0.00    -0.000 C 
BRANCH   4   5
ATOM      5  C   UNL     1       5.169   6.360   0.425  1.00  0.00    -0.000 C 
BRANCH   5   6
ATOM      6  C   UNL     1       6.532   5.912  -0.131  1.00  0.00    -0.000 C 
BRANCH   6   7
ATOM      7  C   UNL     1       7.375   5.142   0.902  1.00  0.00    -0.000 C 
BRANCH   7   8
ATOM      8  C   UNL     1       7.042   5.456   2.372  1.00  0.00    -0.000 C 
BRANCH   8   9
ATOM      9  C   UNL     1       7.975   6.511   2.983  1.00  0.00    -0.000 C 
BRANCH   9  10
ATOM     10  C   UNL     1       7.228   7.380   4.006  1.00  0.00    -0.000 C 
BRANCH  10  11
ATOM     11  C   UNL     1       5.803   6.874   4.280  1.00  0.00    -0.003 C 
ATOM     12  C   UNL     1       4.734   7.928   3.990  1.00  0.00     0.004 C 
ENDBRANCH  10  11
ENDBRANCH   9  10
ENDBRANCH   8   9
ENDBRANCH   7   8
ENDBRANCH   6   7
ENDBRANCH   5   6
ENDBRANCH   4   5
ENDBRANCH   3   4
ENDBRANCH   2   3
ENDBRANCH   1   2
BRANCH   1  13
ATOM     13  C   UNL     1       1.386   8.192  -1.903  1.00  0.00     0.000 C 
BRANCH  13  14
ATOM     14  C   UNL     1       0.797   6.831  -1.499  1.00  0.00     0.000 C 
BRANCH  14  15
ATOM     15  C   UNL     1       1.569   6.221  -0.319  1.00  0.00     0.000 C 
BRANCH  15  16
ATOM     16  C   UNL     1       2.250   4.888  -0.676  1.00  0.00     0.000 C 
BRANCH  16  17
ATOM     17  C   UNL     1       2.419   4.621  -2.186  1.00  0.00     0.000 C 
BRANCH  17  18
ATOM     18  C   UNL     1       3.773   5.056  -2.775  1.00  0.00     0.000 C 
BRANCH  18  19
ATOM     19  C   UNL     1       3.927   4.667  -4.256  1.00  0.00     0.000 C 
BRANCH  19  20
ATOM     20  C   UNL     1       3.859   5.884  -5.192  1.00  0.00     0.006 C 
BRANCH  20  21
ATOM     21  C   UNL     1       2.569   6.694  -5.008  1.00  0.00     0.053 C 
BRANCH  21  22
ATOM     22  C   UNL     1       1.408   5.971  -5.617  1.00  0.00     0.041 C 
ATOM     23  O   UNL     1       1.501   5.482  -6.775  1.00  0.00    -0.550 OA
ATOM     24  O   UNL     1       0.236   5.800  -4.889  1.00  0.00    -0.550 OA
ENDBRANCH  21  22
ENDBRANCH  20  21
ENDBRANCH  19  20
ENDBRANCH  18  19
ENDBRANCH  17  18
ENDBRANCH  16  17
ENDBRANCH  15  16
ENDBRANCH  14  15
ENDBRANCH  13  14
ENDBRANCH   1  13
TORSDOF 20
ENDMDL
