MODEL 1
REMARK VINA RESULT:    -5.668      0.000      0.000
REMARK INTER + INTRA:          -6.508
REMARK INTER:                  -6.663
REMARK INTRA:                   0.155
REMARK UNBOUND:                 0.155
REMARK SMILES O=c1c(O)c(-c2ccc(O)cc2)oc2cc(O)cc(O)c12
REMARK SMILES IDX 5 1 3 2 2 3 1 4 21 5 19 6 18 7 16 8 15 9 14 10 13 11 6 12
REMARK SMILES IDX 7 13 8 14 9 15 12 16 11 17 10 18 4 20 20 22 17 24
REMARK H PARENT 10 19 4 21 20 23 17 25
REMARK Flexibility Score: inf
ROOT
ATOM      1  C   UNL     1       3.863   9.084  -2.015  1.00  0.00     0.180 A 
ATOM      2  C   UNL     1       2.607   9.480  -1.526  1.00  0.00     0.208 A 
ATOM      3  C   UNL     1       2.270   9.183  -0.195  1.00  0.00     0.238 A 
ATOM      4  O   UNL     1       1.122   9.491   0.221  1.00  0.00    -0.285 OA
ATOM      5  C   UNL     1       3.200   8.509   0.633  1.00  0.00     0.111 A 
ATOM      6  C   UNL     1       2.980   8.194   2.008  1.00  0.00     0.134 A 
ATOM      7  C   UNL     1       3.916   7.411   2.695  1.00  0.00     0.093 A 
ATOM      8  C   UNL     1       5.094   6.987   2.075  1.00  0.00     0.123 A 
ATOM      9  C   UNL     1       5.345   7.340   0.752  1.00  0.00     0.094 A 
ATOM     10  C   UNL     1       4.413   8.091   0.030  1.00  0.00     0.146 A 
ATOM     11  O   UNL     1       4.687   8.395  -1.233  1.00  0.00    -0.452 OA
ENDROOT
BRANCH   1  12
ATOM     12  C   UNL     1       4.299   9.382  -3.398  1.00  0.00     0.021 A 
ATOM     13  C   UNL     1       3.415   9.157  -4.467  1.00  0.00     0.016 A 
ATOM     14  C   UNL     1       3.815   9.410  -5.783  1.00  0.00     0.047 A 
ATOM     15  C   UNL     1       5.106   9.876  -6.048  1.00  0.00     0.115 A 
ATOM     16  C   UNL     1       5.604   9.831  -3.674  1.00  0.00     0.016 A 
ATOM     17  C   UNL     1       6.002  10.083  -4.991  1.00  0.00     0.047 A 
BRANCH  15  18
ATOM     18  O   UNL     1       5.490  10.125  -7.364  1.00  0.00    -0.508 OA
ATOM     19  H   UNL     1       6.338   9.727  -7.752  1.00  0.00     0.293 HD
ENDBRANCH  15  18
ENDBRANCH   1  12
BRANCH   2  20
ATOM     20  O   UNL     1       1.695  10.123  -2.367  1.00  0.00    -0.502 OA
ATOM     21  H   UNL     1       0.714   9.874  -2.398  1.00  0.00     0.293 HD
ENDBRANCH   2  20
BRANCH   6  22
ATOM     22  O   UNL     1       1.882   8.646   2.747  1.00  0.00    -0.507 OA
ATOM     23  H   UNL     1       1.606   9.612   2.833  1.00  0.00     0.293 HD
ENDBRANCH   6  22
BRANCH   8  24
ATOM     24  O   UNL     1       6.026   6.221   2.770  1.00  0.00    -0.508 OA
ATOM     25  H   UNL     1       6.871   5.881   2.325  1.00  0.00     0.293 HD
ENDBRANCH   8  24
TORSDOF 5
ENDMDL
MODEL 2
REMARK VINA RESULT:    -5.152      1.800      7.111
REMARK INTER + INTRA:          -5.901
REMARK INTER:                  -5.637
REMARK INTRA:                  -0.264
REMARK UNBOUND:                 0.155
REMARK SMILES O=c1c(O)c(-c2ccc(O)cc2)oc2cc(O)cc(O)c12
REMARK SMILES IDX 5 1 3 2 2 3 1 4 21 5 19 6 18 7 16 8 15 9 14 10 13 11 6 12
REMARK SMILES IDX 7 13 8 14 9 15 12 16 11 17 10 18 4 20 20 22 17 24
REMARK H PARENT 10 19 4 21 20 23 17 25
REMARK Flexibility Score: inf
ROOT
ATOM      1  C   UNL     1       3.562   9.127  -0.190  1.00  0.00     0.180 A 
ATOM      2  C   UNL     1       4.845   8.997  -0.748  1.00  0.00     0.208 A 
ATOM      3  C   UNL     1       5.006   9.174  -2.132  1.00  0.00     0.238 A 
ATOM      4  O   UNL     1       6.148   9.002  -2.634  1.00  0.00    -0.285 OA
ATOM      5  C   UNL     1       3.886   9.494  -2.936  1.00  0.00     0.111 A 
ATOM      6  C   UNL     1       3.941   9.735  -4.343  1.00  0.00     0.134 A 
ATOM      7  C   UNL     1       2.752   9.916  -5.059  1.00  0.00     0.093 A 
ATOM      8  C   UNL     1       1.515   9.930  -4.410  1.00  0.00     0.123 A 
ATOM      9  C   UNL     1       1.456   9.755  -3.030  1.00  0.00     0.094 A 
ATOM     10  C   UNL     1       2.623   9.536  -2.293  1.00  0.00     0.146 A 
ATOM     11  O   UNL     1       2.520   9.363  -0.980  1.00  0.00    -0.452 OA
ENDROOT
BRANCH   1  12
ATOM     12  C   UNL     1       3.316   8.980   1.263  1.00  0.00     0.021 A 
ATOM     13  C   UNL     1       3.261  10.125   2.076  1.00  0.00     0.016 A 
ATOM     14  C   UNL     1       3.052  10.006   3.453  1.00  0.00     0.047 A 
ATOM     15  C   UNL     1       2.911   8.744   4.037  1.00  0.00     0.115 A 
ATOM     16  C   UNL     1       3.193   7.712   1.860  1.00  0.00     0.016 A 
ATOM     17  C   UNL     1       2.985   7.596   3.238  1.00  0.00     0.047 A 
BRANCH  15  18
ATOM     18  O   UNL     1       2.703   8.642   5.411  1.00  0.00    -0.508 OA
ATOM     19  H   UNL     1       1.851   8.242   5.789  1.00  0.00     0.293 HD
ENDBRANCH  15  18
ENDBRANCH   1  12
BRANCH   2  20
ATOM     20  O   UNL     1       5.932   8.658   0.060  1.00  0.00    -0.502 OA
ATOM     21  H   UNL     1       6.779   8.244  -0.311  1.00  0.00     0.293 HD
ENDBRANCH   2  20
BRANCH   6  22
ATOM     22  O   UNL     1       5.131   9.833  -5.072  1.00  0.00    -0.507 OA
ATOM     23  H   UNL     1       5.950   9.268  -4.913  1.00  0.00     0.293 HD
ENDBRANCH   6  22
BRANCH   8  24
ATOM     24  O   UNL     1       0.338  10.125  -5.128  1.00  0.00    -0.508 OA
ATOM     25  H   UNL     1      -0.374   9.406  -5.186  1.00  0.00     0.293 HD
ENDBRANCH   8  24
TORSDOF 5
ENDMDL
MODEL 3
REMARK VINA RESULT:    -4.321      1.587      6.588
REMARK INTER + INTRA:          -4.924
REMARK INTER:                  -4.757
REMARK INTRA:                  -0.168
REMARK UNBOUND:                 0.155
REMARK SMILES O=c1c(O)c(-c2ccc(O)cc2)oc2cc(O)cc(O)c12
REMARK SMILES IDX 5 1 3 2 2 3 1 4 21 5 19 6 18 7 16 8 15 9 14 10 13 11 6 12
REMARK SMILES IDX 7 13 8 14 9 15 12 16 11 17 10 18 4 20 20 22 17 24
REMARK H PARENT 10 19 4 21 20 23 17 25
REMARK Flexibility Score: inf
ROOT
ATOM      1  C   UNL     1       2.858   9.384  -0.541  1.00  0.00     0.180 A 
ATOM      2  C   UNL     1       1.602   9.620  -1.125  1.00  0.00     0.208 A 
ATOM      3  C   UNL     1       1.527   9.858  -2.508  1.00  0.00     0.238 A 
ATOM      4  O   UNL     1       0.406  10.122  -3.016  1.00  0.00    -0.285 OA
ATOM      5  C   UNL     1       2.707   9.841  -3.289  1.00  0.00     0.111 A 
ATOM      6  C   UNL     1       2.744  10.029  -4.704  1.00  0.00     0.134 A 
ATOM      7  C   UNL     1       3.980  10.122  -5.356  1.00  0.00     0.093 A 
ATOM      8  C   UNL     1       5.178   9.968  -4.654  1.00  0.00     0.123 A 
ATOM      9  C   UNL     1       5.151   9.725  -3.284  1.00  0.00     0.094 A 
ATOM     10  C   UNL     1       3.934   9.663  -2.599  1.00  0.00     0.146 A 
ATOM     11  O   UNL     1       3.954   9.440  -1.291  1.00  0.00    -0.452 OA
ENDROOT
BRANCH   1  12
ATOM     12  C   UNL     1       3.015   9.102   0.904  1.00  0.00     0.021 A 
ATOM     13  C   UNL     1       3.356   7.805   1.323  1.00  0.00     0.016 A 
ATOM     14  C   UNL     1       3.487   7.511   2.684  1.00  0.00     0.047 A 
ATOM     15  C   UNL     1       3.263   8.504   3.642  1.00  0.00     0.115 A 
ATOM     16  C   UNL     1       2.771  10.091   1.874  1.00  0.00     0.016 A 
ATOM     17  C   UNL     1       2.902   9.795   3.235  1.00  0.00     0.047 A 
BRANCH  15  18
ATOM     18  O   UNL     1       3.398   8.197   4.994  1.00  0.00    -0.508 OA
ATOM     19  H   UNL     1       4.158   8.574   5.549  1.00  0.00     0.293 HD
ENDBRANCH  15  18
ENDBRANCH   1  12
BRANCH   2  20
ATOM     20  O   UNL     1       0.453   9.655  -0.332  1.00  0.00    -0.502 OA
ATOM     21  H   UNL     1       0.335   9.064   0.483  1.00  0.00     0.293 HD
ENDBRANCH   2  20
BRANCH   6  22
ATOM     22  O   UNL     1       1.605  10.102  -5.513  1.00  0.00    -0.507 OA
ATOM     23  H   UNL     1       0.796   9.507  -5.419  1.00  0.00     0.293 HD
ENDBRANCH   6  22
BRANCH   8  24
ATOM     24  O   UNL     1       6.403  10.047  -5.313  1.00  0.00    -0.508 OA
ATOM     25  H   UNL     1       6.489  10.489  -6.221  1.00  0.00     0.293 HD
ENDBRANCH   8  24
TORSDOF 5
ENDMDL
MODEL 4
REMARK VINA RESULT:    -3.877      1.630      3.013
REMARK INTER + INTRA:          -4.402
REMARK INTER:                  -4.785
REMARK INTRA:                   0.383
REMARK UNBOUND:                 0.155
REMARK SMILES O=c1c(O)c(-c2ccc(O)cc2)oc2cc(O)cc(O)c12
REMARK SMILES IDX 5 1 3 2 2 3 1 4 21 5 19 6 18 7 16 8 15 9 14 10 13 11 6 12
REMARK SMILES IDX 7 13 8 14 9 15 12 16 11 17 10 18 4 20 20 22 17 24
REMARK H PARENT 10 19 4 21 20 23 17 25
REMARK Flexibility Score: inf
ROOT
ATOM      1  C   UNL     1       4.322   9.441  -1.991  1.00  0.00     0.180 A 
ATOM      2  C   UNL     1       5.629   9.674  -1.528  1.00  0.00     0.208 A 
ATOM      3  C   UNL     1       5.914   9.483  -0.166  1.00  0.00     0.238 A 
ATOM      4  O   UNL     1       7.072   9.746   0.252  1.00  0.00    -0.285 OA
ATOM      5  C   UNL     1       4.892   9.048   0.712  1.00  0.00     0.111 A 
ATOM      6  C   UNL     1       5.078   8.784   2.103  1.00  0.00     0.134 A 
ATOM      7  C   UNL     1       3.968   8.484   2.903  1.00  0.00     0.093 A 
ATOM      8  C   UNL     1       2.690   8.373   2.350  1.00  0.00     0.123 A 
ATOM      9  C   UNL     1       2.508   8.570   0.983  1.00  0.00     0.094 A 
ATOM     10  C   UNL     1       3.591   8.907   0.166  1.00  0.00     0.146 A 
ATOM     11  O   UNL     1       3.371   9.098  -1.130  1.00  0.00    -0.452 OA
ENDROOT
BRANCH   1  12
ATOM     12  C   UNL     1       3.951   9.596  -3.415  1.00  0.00     0.021 A 
ATOM     13  C   UNL     1       4.933   9.435  -4.408  1.00  0.00     0.016 A 
ATOM     14  C   UNL     1       4.608   9.599  -5.758  1.00  0.00     0.047 A 
ATOM     15  C   UNL     1       3.306   9.941  -6.132  1.00  0.00     0.115 A 
ATOM     16  C   UNL     1       2.647   9.960  -3.798  1.00  0.00     0.016 A 
ATOM     17  C   UNL     1       2.326  10.125  -5.148  1.00  0.00     0.047 A 
BRANCH  15  18
ATOM     18  O   UNL     1       2.997  10.101  -7.482  1.00  0.00    -0.508 OA
ATOM     19  H   UNL     1       2.873   9.302  -8.094  1.00  0.00     0.293 HD
ENDBRANCH  15  18
ENDBRANCH   1  12
BRANCH   2  20
ATOM     20  O   UNL     1       6.616  10.124  -2.408  1.00  0.00    -0.502 OA
ATOM     21  H   UNL     1       7.521   9.676  -2.488  1.00  0.00     0.293 HD
ENDBRANCH   2  20
BRANCH   6  22
ATOM     22  O   UNL     1       6.325   8.777   2.737  1.00  0.00    -0.507 OA
ATOM     23  H   UNL     1       6.650   8.049   3.355  1.00  0.00     0.293 HD
ENDBRANCH   6  22
BRANCH   8  24
ATOM     24  O   UNL     1       1.595   8.059   3.150  1.00  0.00    -0.508 OA
ATOM     25  H   UNL     1       0.800   7.547   2.785  1.00  0.00     0.293 HD
ENDBRANCH   8  24
TORSDOF 5
ENDMDL
MODEL 5
REMARK VINA RESULT:    -3.792      1.475      6.658
REMARK INTER + INTRA:          -4.302
REMARK INTER:                  -4.203
REMARK INTRA:                  -0.100
REMARK UNBOUND:                 0.155
REMARK SMILES O=c1c(O)c(-c2ccc(O)cc2)oc2cc(O)cc(O)c12
REMARK SMILES IDX 5 1 3 2 2 3 1 4 21 5 19 6 18 7 16 8 15 9 14 10 13 11 6 12
REMARK SMILES IDX 7 13 8 14 9 15 12 16 11 17 10 18 4 20 20 22 17 24
REMARK H PARENT 10 19 4 21 20 23 17 25
REMARK Flexibility Score: inf
ROOT
ATOM      1  C   UNL     1       3.498   9.381  -2.038  1.00  0.00     0.180 A 
ATOM      2  C   UNL     1       2.245   9.618  -2.628  1.00  0.00     0.208 A 
ATOM      3  C   UNL     1       2.177   9.858  -4.010  1.00  0.00     0.238 A 
ATOM      4  O   UNL     1       1.058  10.124  -4.523  1.00  0.00    -0.285 OA
ATOM      5  C   UNL     1       3.361   9.842  -4.786  1.00  0.00     0.111 A 
ATOM      6  C   UNL     1       3.404  10.032  -6.201  1.00  0.00     0.134 A 
ATOM      7  C   UNL     1       4.644  10.125  -6.846  1.00  0.00     0.093 A 
ATOM      8  C   UNL     1       5.838   9.969  -6.139  1.00  0.00     0.123 A 
ATOM      9  C   UNL     1       5.804   9.724  -4.769  1.00  0.00     0.094 A 
ATOM     10  C   UNL     1       4.584   9.662  -4.091  1.00  0.00     0.146 A 
ATOM     11  O   UNL     1       4.597   9.438  -2.782  1.00  0.00    -0.452 OA
ENDROOT
BRANCH   1  12
ATOM     12  C   UNL     1       3.647   9.096  -0.593  1.00  0.00     0.021 A 
ATOM     13  C   UNL     1       3.305  10.084   0.346  1.00  0.00     0.016 A 
ATOM     14  C   UNL     1       3.460   9.844   1.715  1.00  0.00     0.047 A 
ATOM     15  C   UNL     1       3.972   8.622   2.162  1.00  0.00     0.115 A 
ATOM     16  C   UNL     1       4.181   7.877  -0.137  1.00  0.00     0.016 A 
ATOM     17  C   UNL     1       4.336   7.640   1.232  1.00  0.00     0.047 A 
BRANCH  15  18
ATOM     18  O   UNL     1       4.120   8.397   3.529  1.00  0.00    -0.508 OA
ATOM     19  H   UNL     1       4.420   7.498   3.887  1.00  0.00     0.293 HD
ENDBRANCH  15  18
ENDBRANCH   1  12
BRANCH   2  20
ATOM     20  O   UNL     1       1.092   9.652  -1.840  1.00  0.00    -0.502 OA
ATOM     21  H   UNL     1       0.175   9.423  -2.205  1.00  0.00     0.293 HD
ENDBRANCH   2  20
BRANCH   6  22
ATOM     22  O   UNL     1       2.269  10.106  -7.014  1.00  0.00    -0.507 OA
ATOM     23  H   UNL     1       2.224   9.778  -7.966  1.00  0.00     0.293 HD
ENDBRANCH   6  22
BRANCH   8  24
ATOM     24  O   UNL     1       7.066  10.049  -6.792  1.00  0.00    -0.508 OA
ATOM     25  H   UNL     1       7.394   9.305  -7.397  1.00  0.00     0.293 HD
ENDBRANCH   8  24
TORSDOF 5
ENDMDL
MODEL 6
REMARK VINA RESULT:    -2.875      2.380      7.521
REMARK INTER + INTRA:          -3.225
REMARK INTER:                  -3.441
REMARK INTRA:                   0.216
REMARK UNBOUND:                 0.155
REMARK SMILES O=c1c(O)c(-c2ccc(O)cc2)oc2cc(O)cc(O)c12
REMARK SMILES IDX 5 1 3 2 2 3 1 4 21 5 19 6 18 7 16 8 15 9 14 10 13 11 6 12
REMARK SMILES IDX 7 13 8 14 9 15 12 16 11 17 10 18 4 20 20 22 17 24
REMARK H PARENT 10 19 4 21 20 23 17 25
REMARK Flexibility Score: inf
ROOT
ATOM      1  C   UNL     1       3.936   9.322   1.876  1.00  0.00     0.180 A 
ATOM      2  C   UNL     1       5.143   8.775   1.410  1.00  0.00     0.208 A 
ATOM      3  C   UNL     1       5.338   8.636   0.026  1.00  0.00     0.238 A 
ATOM      4  O   UNL     1       6.398   8.095  -0.384  1.00  0.00    -0.285 OA
ATOM      5  C   UNL     1       4.330   9.060  -0.873  1.00  0.00     0.111 A 
ATOM      6  C   UNL     1       4.437   9.004  -2.296  1.00  0.00     0.134 A 
ATOM      7  C   UNL     1       3.327   9.330  -3.085  1.00  0.00     0.093 A 
ATOM      8  C   UNL     1       2.136   9.773  -2.505  1.00  0.00     0.123 A 
ATOM      9  C   UNL     1       2.041   9.888  -1.121  1.00  0.00     0.094 A 
ATOM     10  C   UNL     1       3.120   9.536  -0.305  1.00  0.00     0.146 A 
ATOM     11  O   UNL     1       2.983   9.650   1.010  1.00  0.00    -0.452 OA
ENDROOT
BRANCH   1  12
ATOM     12  C   UNL     1       3.667   9.523   3.318  1.00  0.00     0.021 A 
ATOM     13  C   UNL     1       4.707   9.943   4.165  1.00  0.00     0.016 A 
ATOM     14  C   UNL     1       4.480  10.117   5.534  1.00  0.00     0.047 A 
ATOM     15  C   UNL     1       3.218   9.858   6.076  1.00  0.00     0.115 A 
ATOM     16  C   UNL     1       2.405   9.245   3.874  1.00  0.00     0.016 A 
ATOM     17  C   UNL     1       2.181   9.419   5.244  1.00  0.00     0.047 A 
BRANCH  15  18
ATOM     18  O   UNL     1       3.007  10.037   7.441  1.00  0.00    -0.508 OA
ATOM     19  H   UNL     1       2.193  10.529   7.791  1.00  0.00     0.293 HD
ENDBRANCH  15  18
ENDBRANCH   1  12
BRANCH   2  20
ATOM     20  O   UNL     1       6.115   8.341   2.315  1.00  0.00    -0.502 OA
ATOM     21  H   UNL     1       6.987   7.920   2.017  1.00  0.00     0.293 HD
ENDBRANCH   2  20
BRANCH   6  22
ATOM     22  O   UNL     1       5.610   8.664  -2.978  1.00  0.00    -0.507 OA
ATOM     23  H   UNL     1       5.646   8.098  -3.811  1.00  0.00     0.293 HD
ENDBRANCH   6  22
BRANCH   8  24
ATOM     24  O   UNL     1       1.042  10.110  -3.299  1.00  0.00    -0.508 OA
ATOM     25  H   UNL     1       0.296   9.449  -3.482  1.00  0.00     0.293 HD
ENDBRANCH   8  24
TORSDOF 5
ENDMDL
