MODEL 1
REMARK VINA RESULT:     9.925      0.000      0.000
REMARK INTER + INTRA:          18.040
REMARK INTER:                  18.629
REMARK INTRA:                  -0.589
REMARK UNBOUND:                -0.589
REMARK SMILES CCCCCCCCC=CCCCCCCCC(=O)[O-]
REMARK SMILES IDX 10 1 9 2 11 3 12 4 13 5 14 6 15 7 16 8 17 9 18 10 19 11
REMARK SMILES IDX 20 12 8 13 7 14 6 15 5 16 4 17 3 18 2 19 1 20
REMARK H PARENT
REMARK Flexibility Score: inf
ROOT
ATOM      1  C   UNL     1     -12.264  18.651 -15.402  1.00  0.00    -0.031 C 
ATOM      2  C   UNL     1     -12.616  19.140 -14.198  1.00  0.00    -0.031 C 
ENDROOT
BRANCH   1   3
ATOM      3  C   UNL     1     -10.986  18.996 -16.127  1.00  0.00     0.027 C 
BRANCH   3   4
ATOM      4  C   UNL     1     -11.247  19.852 -17.376  1.00  0.00     0.004 C 
BRANCH   4   5
ATOM      5  C   UNL     1     -11.537  18.990 -18.616  1.00  0.00     0.000 C 
BRANCH   5   6
ATOM      6  C   UNL     1     -12.012  19.822 -19.822  1.00  0.00     0.000 C 
BRANCH   6   7
ATOM      7  C   UNL     1     -13.514  19.698 -20.151  1.00  0.00     0.000 C 
BRANCH   7   8
ATOM      8  C   UNL     1     -14.150  20.953 -20.785  1.00  0.00     0.006 C 
BRANCH   8   9
ATOM      9  C   UNL     1     -14.129  20.967 -22.321  1.00  0.00     0.053 C 
BRANCH   9  10
ATOM     10  C   UNL     1     -13.377  19.798 -22.880  1.00  0.00     0.041 C 
ATOM     11  O   UNL     1     -12.141  19.886 -23.102  1.00  0.00    -0.550 OA
ATOM     12  O   UNL     1     -14.037  18.600 -23.123  1.00  0.00    -0.550 OA
ENDBRANCH   9  10
ENDBRANCH   8   9
ENDBRANCH   7   8
ENDBRANCH   6   7
ENDBRANCH   5   6
ENDBRANCH   4   5
ENDBRANCH   3   4
ENDBRANCH   1   3
BRANCH   2  13
ATOM     13  C   UNL     1     -11.746  20.034 -13.351  1.00  0.00     0.027 C 
BRANCH  13  14
ATOM     14  C   UNL     1     -12.158  19.949 -11.875  1.00  0.00     0.004 C 
BRANCH  14  15
ATOM     15  C   UNL     1     -13.226  18.875 -11.620  1.00  0.00     0.000 C 
BRANCH  15  16
ATOM     16  C   UNL     1     -12.732  17.756 -10.685  1.00  0.00     0.000 C 
BRANCH  16  17
ATOM     17  C   UNL     1     -12.504  18.260  -9.244  1.00  0.00    -0.000 C 
BRANCH  17  18
ATOM     18  C   UNL     1     -13.705  19.028  -8.659  1.00  0.00    -0.000 C 
BRANCH  18  19
ATOM     19  C   UNL     1     -13.335  20.113  -7.635  1.00  0.00    -0.003 C 
ATOM     20  C   UNL     1     -12.121  20.939  -8.059  1.00  0.00     0.004 C 
ENDBRANCH  18  19
ENDBRANCH  17  18
ENDBRANCH  16  17
ENDBRANCH  15  16
ENDBRANCH  14  15
ENDBRANCH  13  14
ENDBRANCH   2  13
TORSDOF 15
ENDMDL
MODEL 2
REMARK VINA RESULT:    10.394      1.330      2.120
REMARK INTER + INTRA:          18.918
REMARK INTER:                  19.837
REMARK INTRA:                  -0.919
REMARK UNBOUND:                -0.589
REMARK SMILES CCCCCCCCC=CCCCCCCCC(=O)[O-]
REMARK SMILES IDX 10 1 9 2 11 3 12 4 13 5 14 6 15 7 16 8 17 9 18 10 19 11
REMARK SMILES IDX 20 12 8 13 7 14 6 15 5 16 4 17 3 18 2 19 1 20
REMARK H PARENT
REMARK Flexibility Score: inf
ROOT
ATOM      1  C   UNL     1     -12.594  19.407 -14.406  1.00  0.00    -0.031 C 
ATOM      2  C   UNL     1     -12.291  19.423 -13.095  1.00  0.00    -0.031 C 
ENDROOT
BRANCH   1   3
ATOM      3  C   UNL     1     -13.800  18.721 -14.999  1.00  0.00     0.027 C 
BRANCH   3   4
ATOM      4  C   UNL     1     -13.468  18.021 -16.326  1.00  0.00     0.004 C 
BRANCH   4   5
ATOM      5  C   UNL     1     -14.673  17.993 -17.281  1.00  0.00     0.000 C 
BRANCH   5   6
ATOM      6  C   UNL     1     -14.260  18.018 -18.764  1.00  0.00     0.000 C 
BRANCH   6   7
ATOM      7  C   UNL     1     -13.839  19.400 -19.302  1.00  0.00     0.000 C 
BRANCH   7   8
ATOM      8  C   UNL     1     -14.765  19.991 -20.386  1.00  0.00     0.006 C 
BRANCH   8   9
ATOM      9  C   UNL     1     -14.048  20.869 -21.423  1.00  0.00     0.053 C 
BRANCH   9  10
ATOM     10  C   UNL     1     -13.444  20.053 -22.524  1.00  0.00     0.041 C 
ATOM     11  O   UNL     1     -14.134  19.188 -23.124  1.00  0.00    -0.550 OA
ATOM     12  O   UNL     1     -12.127  20.272 -22.909  1.00  0.00    -0.550 OA
ENDBRANCH   9  10
ENDBRANCH   8   9
ENDBRANCH   7   8
ENDBRANCH   6   7
ENDBRANCH   5   6
ENDBRANCH   4   5
ENDBRANCH   3   4
ENDBRANCH   1   3
BRANCH   2  13
ATOM     13  C   UNL     1     -13.158  18.836 -12.009  1.00  0.00     0.027 C 
BRANCH  13  14
ATOM     14  C   UNL     1     -12.623  19.219 -10.623  1.00  0.00     0.004 C 
BRANCH  14  15
ATOM     15  C   UNL     1     -12.455  18.004  -9.697  1.00  0.00     0.000 C 
BRANCH  15  16
ATOM     16  C   UNL     1     -13.349  18.083  -8.447  1.00  0.00     0.000 C 
BRANCH  16  17
ATOM     17  C   UNL     1     -13.803  19.527  -8.145  1.00  0.00    -0.000 C 
BRANCH  17  18
ATOM     18  C   UNL     1     -12.988  20.212  -7.031  1.00  0.00    -0.000 C 
BRANCH  18  19
ATOM     19  C   UNL     1     -12.342  21.546  -7.438  1.00  0.00    -0.003 C 
ATOM     20  C   UNL     1     -10.948  21.370  -8.040  1.00  0.00     0.004 C 
ENDBRANCH  18  19
ENDBRANCH  17  18
ENDBRANCH  16  17
ENDBRANCH  15  16
ENDBRANCH  14  15
ENDBRANCH  13  14
ENDBRANCH   2  13
TORSDOF 15
ENDMDL
MODEL 3
REMARK VINA RESULT:    10.479      1.121      1.423
REMARK INTER + INTRA:          19.079
REMARK INTER:                  19.386
REMARK INTRA:                  -0.307
REMARK UNBOUND:                -0.589
REMARK SMILES CCCCCCCCC=CCCCCCCCC(=O)[O-]
REMARK SMILES IDX 10 1 9 2 11 3 12 4 13 5 14 6 15 7 16 8 17 9 18 10 19 11
REMARK SMILES IDX 20 12 8 13 7 14 6 15 5 16 4 17 3 18 2 19 1 20
REMARK H PARENT
REMARK Flexibility Score: inf
ROOT
ATOM      1  C   UNL     1     -10.929  19.859 -15.547  1.00  0.00    -0.031 C 
ATOM      2  C   UNL     1     -11.502  19.742 -14.335  1.00  0.00    -0.031 C 
ENDROOT
BRANCH   1   3
ATOM      3  C   UNL     1     -11.279  19.011 -16.746  1.00  0.00     0.027 C 
BRANCH   3   4
ATOM      4  C   UNL     1     -11.144  19.793 -18.062  1.00  0.00     0.004 C 
BRANCH   4   5
ATOM      5  C   UNL     1     -12.131  19.297 -19.132  1.00  0.00     0.000 C 
BRANCH   5   6
ATOM      6  C   UNL     1     -12.810  20.448 -19.896  1.00  0.00     0.000 C 
BRANCH   6   7
ATOM      7  C   UNL     1     -14.277  20.193 -20.295  1.00  0.00     0.000 C 
BRANCH   7   8
ATOM      8  C   UNL     1     -14.554  20.204 -21.813  1.00  0.00     0.006 C 
BRANCH   8   9
ATOM      9  C   UNL     1     -13.557  19.384 -22.646  1.00  0.00     0.053 C 
BRANCH   9  10
ATOM     10  C   UNL     1     -12.321  20.168 -22.967  1.00  0.00     0.041 C 
ATOM     11  O   UNL     1     -11.220  19.579 -23.124  1.00  0.00    -0.550 OA
ATOM     12  O   UNL     1     -12.394  21.546 -23.125  1.00  0.00    -0.550 OA
ENDBRANCH   9  10
ENDBRANCH   8   9
ENDBRANCH   7   8
ENDBRANCH   6   7
ENDBRANCH   5   6
ENDBRANCH   4   5
ENDBRANCH   3   4
ENDBRANCH   1   3
BRANCH   2  13
ATOM     13  C   UNL     1     -12.643  18.810 -14.014  1.00  0.00     0.027 C 
BRANCH  13  14
ATOM     14  C   UNL     1     -13.472  19.353 -12.843  1.00  0.00     0.004 C 
BRANCH  14  15
ATOM     15  C   UNL     1     -12.719  19.291 -11.505  1.00  0.00     0.000 C 
BRANCH  15  16
ATOM     16  C   UNL     1     -13.636  19.541 -10.295  1.00  0.00     0.000 C 
BRANCH  16  17
ATOM     17  C   UNL     1     -13.454  18.472  -9.196  1.00  0.00    -0.000 C 
BRANCH  17  18
ATOM     18  C   UNL     1     -12.500  18.903  -8.066  1.00  0.00    -0.000 C 
BRANCH  18  19
ATOM     19  C   UNL     1     -12.795  20.290  -7.472  1.00  0.00    -0.003 C 
ATOM     20  C   UNL     1     -11.872  21.378  -8.019  1.00  0.00     0.004 C 
ENDBRANCH  18  19
ENDBRANCH  17  18
ENDBRANCH  16  17
ENDBRANCH  15  16
ENDBRANCH  14  15
ENDBRANCH  13  14
ENDBRANCH   2  13
TORSDOF 15
ENDMDL
MODEL 4
REMARK VINA RESULT:    10.680      5.032     10.954
REMARK INTER + INTRA:          19.457
REMARK INTER:                  20.163
REMARK INTRA:                  -0.706
REMARK UNBOUND:                -0.589
REMARK SMILES CCCCCCCCC=CCCCCCCCC(=O)[O-]
REMARK SMILES IDX 10 1 9 2 11 3 12 4 13 5 14 6 15 7 16 8 17 9 18 10 19 11
REMARK SMILES IDX 20 12 8 13 7 14 6 15 5 16 4 17 3 18 2 19 1 20
REMARK H PARENT
REMARK Flexibility Score: inf
ROOT
ATOM      1  C   UNL     1     -10.687  19.688 -15.914  1.00  0.00    -0.031 C 
ATOM      2  C   UNL     1     -10.637  19.722 -17.259  1.00  0.00    -0.031 C 
ENDROOT
BRANCH   1   3
ATOM      3  C   UNL     1     -11.795  19.047 -15.114  1.00  0.00     0.027 C 
BRANCH   3   4
ATOM      4  C   UNL     1     -12.001  19.741 -13.759  1.00  0.00     0.004 C 
BRANCH   4   5
ATOM      5  C   UNL     1     -12.961  18.956 -12.848  1.00  0.00     0.000 C 
BRANCH   5   6
ATOM      6  C   UNL     1     -12.730  19.241 -11.353  1.00  0.00     0.000 C 
BRANCH   6   7
ATOM      7  C   UNL     1     -12.820  18.009 -10.431  1.00  0.00     0.000 C 
BRANCH   7   8
ATOM      8  C   UNL     1     -12.656  18.304  -8.925  1.00  0.00     0.006 C 
BRANCH   8   9
ATOM      9  C   UNL     1     -13.505  19.477  -8.413  1.00  0.00     0.053 C 
BRANCH   9  10
ATOM     10  C   UNL     1     -12.664  20.530  -7.757  1.00  0.00     0.041 C 
ATOM     11  O   UNL     1     -12.826  20.804  -6.539  1.00  0.00    -0.550 OA
ATOM     12  O   UNL     1     -11.679  21.186  -8.485  1.00  0.00    -0.550 OA
ENDBRANCH   9  10
ENDBRANCH   8   9
ENDBRANCH   7   8
ENDBRANCH   6   7
ENDBRANCH   5   6
ENDBRANCH   4   5
ENDBRANCH   3   4
ENDBRANCH   1   3
BRANCH   2  13
ATOM     13  C   UNL     1     -11.631  19.047 -18.170  1.00  0.00     0.027 C 
BRANCH  13  14
ATOM     14  C   UNL     1     -11.810  19.849 -19.466  1.00  0.00     0.004 C 
BRANCH  14  15
ATOM     15  C   UNL     1     -11.622  18.989 -20.725  1.00  0.00     0.000 C 
BRANCH  15  16
ATOM     16  C   UNL     1     -11.169  19.812 -21.943  1.00  0.00     0.000 C 
BRANCH  16  17
ATOM     17  C   UNL     1     -12.234  19.836 -23.060  1.00  0.00    -0.000 C 
BRANCH  17  18
ATOM     18  C   UNL     1     -13.268  20.967 -22.905  1.00  0.00    -0.000 C 
BRANCH  18  19
ATOM     19  C   UNL     1     -14.581  20.547 -22.223  1.00  0.00    -0.003 C 
ATOM     20  C   UNL     1     -14.662  20.997 -20.765  1.00  0.00     0.004 C 
ENDBRANCH  18  19
ENDBRANCH  17  18
ENDBRANCH  16  17
ENDBRANCH  15  16
ENDBRANCH  14  15
ENDBRANCH  13  14
ENDBRANCH   2  13
TORSDOF 15
ENDMDL
MODEL 5
REMARK VINA RESULT:    11.064      1.420      2.107
REMARK INTER + INTRA:          20.178
REMARK INTER:                  20.452
REMARK INTRA:                  -0.274
REMARK UNBOUND:                -0.589
REMARK SMILES CCCCCCCCC=CCCCCCCCC(=O)[O-]
REMARK SMILES IDX 10 1 9 2 11 3 12 4 13 5 14 6 15 7 16 8 17 9 18 10 19 11
REMARK SMILES IDX 20 12 8 13 7 14 6 15 5 16 4 17 3 18 2 19 1 20
REMARK H PARENT
REMARK Flexibility Score: inf
ROOT
ATOM      1  C   UNL     1     -10.592  19.549 -16.526  1.00  0.00    -0.031 C 
ATOM      2  C   UNL     1     -10.894  19.440 -15.219  1.00  0.00    -0.031 C 
ENDROOT
BRANCH   1   3
ATOM      3  C   UNL     1     -11.444  19.011 -17.651  1.00  0.00     0.027 C 
BRANCH   3   4
ATOM      4  C   UNL     1     -11.347  19.883 -18.912  1.00  0.00     0.004 C 
BRANCH   4   5
ATOM      5  C   UNL     1     -12.066  19.245 -20.112  1.00  0.00     0.000 C 
BRANCH   5   6
ATOM      6  C   UNL     1     -11.262  19.360 -21.419  1.00  0.00     0.000 C 
BRANCH   6   7
ATOM      7  C   UNL     1     -11.996  20.061 -22.580  1.00  0.00     0.000 C 
BRANCH   7   8
ATOM      8  C   UNL     1     -13.453  19.604 -22.805  1.00  0.00     0.006 C 
BRANCH   8   9
ATOM      9  C   UNL     1     -14.510  20.666 -22.471  1.00  0.00     0.053 C 
BRANCH   9  10
ATOM     10  C   UNL     1     -14.645  20.874 -20.993  1.00  0.00     0.041 C 
ATOM     11  O   UNL     1     -15.379  20.113 -20.310  1.00  0.00    -0.550 OA
ATOM     12  O   UNL     1     -13.933  21.889 -20.367  1.00  0.00    -0.550 OA
ENDBRANCH   9  10
ENDBRANCH   8   9
ENDBRANCH   7   8
ENDBRANCH   6   7
ENDBRANCH   5   6
ENDBRANCH   4   5
ENDBRANCH   3   4
ENDBRANCH   1   3
BRANCH   2  13
ATOM     13  C   UNL     1     -12.173  18.847 -14.683  1.00  0.00     0.027 C 
BRANCH  13  14
ATOM     14  C   UNL     1     -12.651  19.619 -13.446  1.00  0.00     0.004 C 
BRANCH  14  15
ATOM     15  C   UNL     1     -12.859  18.711 -12.225  1.00  0.00     0.000 C 
BRANCH  15  16
ATOM     16  C   UNL     1     -13.268  19.494 -10.965  1.00  0.00     0.000 C 
BRANCH  16  17
ATOM     17  C   UNL     1     -12.641  18.905  -9.684  1.00  0.00    -0.000 C 
BRANCH  17  18
ATOM     18  C   UNL     1     -13.528  19.060  -8.433  1.00  0.00    -0.000 C 
BRANCH  18  19
ATOM     19  C   UNL     1     -13.109  20.198  -7.488  1.00  0.00    -0.003 C 
ATOM     20  C   UNL     1     -12.013  21.085  -8.078  1.00  0.00     0.004 C 
ENDBRANCH  18  19
ENDBRANCH  17  18
ENDBRANCH  16  17
ENDBRANCH  15  16
ENDBRANCH  14  15
ENDBRANCH  13  14
ENDBRANCH   2  13
TORSDOF 15
ENDMDL
MODEL 6
REMARK VINA RESULT:    11.172      5.195     10.858
REMARK INTER + INTRA:          20.379
REMARK INTER:                  21.189
REMARK INTRA:                  -0.811
REMARK UNBOUND:                -0.589
REMARK SMILES CCCCCCCCC=CCCCCCCCC(=O)[O-]
REMARK SMILES IDX 10 1 9 2 11 3 12 4 13 5 14 6 15 7 16 8 17 9 18 10 19 11
REMARK SMILES IDX 20 12 8 13 7 14 6 15 5 16 4 17 3 18 2 19 1 20
REMARK H PARENT
REMARK Flexibility Score: inf
ROOT
ATOM      1  C   UNL     1     -11.026  19.176 -14.744  1.00  0.00    -0.031 C 
ATOM      2  C   UNL     1     -10.792  18.997 -16.058  1.00  0.00    -0.031 C 
ENDROOT
BRANCH   1   3
ATOM      3  C   UNL     1     -11.836  20.311 -14.165  1.00  0.00     0.027 C 
BRANCH   3   4
ATOM      4  C   UNL     1     -13.051  19.804 -13.373  1.00  0.00     0.004 C 
BRANCH   4   5
ATOM      5  C   UNL     1     -12.736  18.516 -12.594  1.00  0.00     0.000 C 
BRANCH   5   6
ATOM      6  C   UNL     1     -13.518  18.413 -11.272  1.00  0.00     0.000 C 
BRANCH   6   7
ATOM      7  C   UNL     1     -12.741  17.781 -10.099  1.00  0.00     0.000 C 
BRANCH   7   8
ATOM      8  C   UNL     1     -12.846  18.540  -8.760  1.00  0.00     0.006 C 
BRANCH   8   9
ATOM      9  C   UNL     1     -12.796  20.070  -8.892  1.00  0.00     0.053 C 
BRANCH   9  10
ATOM     10  C   UNL     1     -12.538  20.736  -7.575  1.00  0.00     0.041 C 
ATOM     11  O   UNL     1     -11.755  21.719  -7.504  1.00  0.00    -0.550 OA
ATOM     12  O   UNL     1     -13.190  20.290  -6.431  1.00  0.00    -0.550 OA
ENDBRANCH   9  10
ENDBRANCH   8   9
ENDBRANCH   7   8
ENDBRANCH   6   7
ENDBRANCH   5   6
ENDBRANCH   4   5
ENDBRANCH   3   4
ENDBRANCH   1   3
BRANCH   2  13
ATOM     13  C   UNL     1     -11.378  19.849 -17.155  1.00  0.00     0.027 C 
BRANCH  13  14
ATOM     14  C   UNL     1     -11.444  19.065 -18.473  1.00  0.00     0.004 C 
BRANCH  14  15
ATOM     15  C   UNL     1     -12.033  19.893 -19.625  1.00  0.00     0.000 C 
BRANCH  15  16
ATOM     16  C   UNL     1     -13.572  19.894 -19.629  1.00  0.00     0.000 C 
BRANCH  16  17
ATOM     17  C   UNL     1     -14.152  20.803 -20.734  1.00  0.00    -0.000 C 
BRANCH  17  18
ATOM     18  C   UNL     1     -14.126  20.166 -22.136  1.00  0.00    -0.000 C 
BRANCH  18  19
ATOM     19  C   UNL     1     -13.102  20.785 -23.102  1.00  0.00    -0.003 C 
ATOM     20  C   UNL     1     -11.771  20.033 -23.116  1.00  0.00     0.004 C 
ENDBRANCH  18  19
ENDBRANCH  17  18
ENDBRANCH  16  17
ENDBRANCH  15  16
ENDBRANCH  14  15
ENDBRANCH  13  14
ENDBRANCH   2  13
TORSDOF 15
ENDMDL
MODEL 7
REMARK VINA RESULT:    11.217      5.291     10.828
REMARK INTER + INTRA:          20.464
REMARK INTER:                  21.047
REMARK INTRA:                  -0.583
REMARK UNBOUND:                -0.589
REMARK SMILES CCCCCCCCC=CCCCCCCCC(=O)[O-]
REMARK SMILES IDX 10 1 9 2 11 3 12 4 13 5 14 6 15 7 16 8 17 9 18 10 19 11
REMARK SMILES IDX 20 12 8 13 7 14 6 15 5 16 4 17 3 18 2 19 1 20
REMARK H PARENT
REMARK Flexibility Score: inf
ROOT
ATOM      1  C   UNL     1     -14.499  19.042 -15.253  1.00  0.00    -0.031 C 
ATOM      2  C   UNL     1     -15.219  18.456 -16.228  1.00  0.00    -0.031 C 
ENDROOT
BRANCH   1   3
ATOM      3  C   UNL     1     -13.099  18.636 -14.859  1.00  0.00     0.027 C 
BRANCH   3   4
ATOM      4  C   UNL     1     -12.437  19.675 -13.942  1.00  0.00     0.004 C 
BRANCH   4   5
ATOM      5  C   UNL     1     -11.963  19.056 -12.616  1.00  0.00     0.000 C 
BRANCH   5   6
ATOM      6  C   UNL     1     -13.123  18.751 -11.652  1.00  0.00     0.000 C 
BRANCH   6   7
ATOM      7  C   UNL     1     -12.761  17.846 -10.457  1.00  0.00     0.000 C 
BRANCH   7   8
ATOM      8  C   UNL     1     -13.070  18.441  -9.067  1.00  0.00     0.006 C 
BRANCH   8   9
ATOM      9  C   UNL     1     -13.076  19.976  -9.022  1.00  0.00     0.053 C 
BRANCH   9  10
ATOM     10  C   UNL     1     -12.639  20.497  -7.687  1.00  0.00     0.041 C 
ATOM     11  O   UNL     1     -11.955  21.551  -7.610  1.00  0.00    -0.550 OA
ATOM     12  O   UNL     1     -13.016  19.835  -6.525  1.00  0.00    -0.550 OA
ENDBRANCH   9  10
ENDBRANCH   8   9
ENDBRANCH   7   8
ENDBRANCH   6   7
ENDBRANCH   5   6
ENDBRANCH   4   5
ENDBRANCH   3   4
ENDBRANCH   1   3
BRANCH   2  13
ATOM     13  C   UNL     1     -14.704  17.366 -17.134  1.00  0.00     0.027 C 
BRANCH  13  14
ATOM     14  C   UNL     1     -13.844  17.959 -18.258  1.00  0.00     0.004 C 
BRANCH  14  15
ATOM     15  C   UNL     1     -14.460  19.226 -18.869  1.00  0.00     0.000 C 
BRANCH  15  16
ATOM     16  C   UNL     1     -14.089  19.412 -20.351  1.00  0.00     0.000 C 
BRANCH  16  17
ATOM     17  C   UNL     1     -14.332  20.857 -20.837  1.00  0.00    -0.000 C 
BRANCH  17  18
ATOM     18  C   UNL     1     -14.347  21.001 -22.370  1.00  0.00    -0.000 C 
BRANCH  18  19
ATOM     19  C   UNL     1     -13.593  19.893 -23.125  1.00  0.00    -0.003 C 
ATOM     20  C   UNL     1     -12.079  19.973 -22.938  1.00  0.00     0.004 C 
ENDBRANCH  18  19
ENDBRANCH  17  18
ENDBRANCH  16  17
ENDBRANCH  15  16
ENDBRANCH  14  15
ENDBRANCH  13  14
ENDBRANCH   2  13
TORSDOF 15
ENDMDL
