MODEL 1
REMARK VINA RESULT:    -5.262      0.000      0.000
REMARK INTER + INTRA:         -14.207
REMARK INTER:                 -11.414
REMARK INTRA:                  -2.793
REMARK UNBOUND:                -2.793
REMARK SMILES CCCCCCCCCCCCCCCCCCCCCC(=O)[O-]
REMARK SMILES IDX 12 1 11 2 10 3 9 4 8 5 7 6 6 7 5 8 4 9 3 10 2 11 1 12 13 13
REMARK SMILES IDX 14 14 15 15 16 16 17 17 18 18 19 19 20 20 21 21 22 22 23 23
REMARK SMILES IDX 24 24
REMARK H PARENT
REMARK Flexibility Score: inf
ROOT
ATOM      1  C   UNL     1      14.773 -32.638  23.521  1.00  0.00     0.000 C 
ENDROOT
BRANCH   1   2
ATOM      2  C   UNL     1      15.541 -33.955  23.276  1.00  0.00     0.000 C 
BRANCH   2   3
ATOM      3  C   UNL     1      16.425 -34.384  24.462  1.00  0.00     0.000 C 
BRANCH   3   4
ATOM      4  C   UNL     1      17.456 -35.480  24.136  1.00  0.00    -0.000 C 
BRANCH   4   5
ATOM      5  C   UNL     1      17.935 -35.513  22.670  1.00  0.00    -0.000 C 
BRANCH   5   6
ATOM      6  C   UNL     1      19.100 -34.562  22.340  1.00  0.00    -0.000 C 
BRANCH   6   7
ATOM      7  C   UNL     1      18.648 -33.296  21.600  1.00  0.00    -0.000 C 
BRANCH   7   8
ATOM      8  C   UNL     1      19.125 -33.309  20.142  1.00  0.00    -0.000 C 
BRANCH   8   9
ATOM      9  C   UNL     1      18.076 -33.959  19.228  1.00  0.00    -0.000 C 
BRANCH   9  10
ATOM     10  C   UNL     1      16.637 -33.728  19.718  1.00  0.00    -0.000 C 
BRANCH  10  11
ATOM     11  C   UNL     1      15.778 -34.999  19.649  1.00  0.00    -0.003 C 
ATOM     12  C   UNL     1      16.645 -36.234  19.415  1.00  0.00     0.004 C 
ENDBRANCH  10  11
ENDBRANCH   9  10
ENDBRANCH   8   9
ENDBRANCH   7   8
ENDBRANCH   6   7
ENDBRANCH   5   6
ENDBRANCH   4   5
ENDBRANCH   3   4
ENDBRANCH   2   3
ENDBRANCH   1   2
BRANCH   1  13
ATOM     13  C   UNL     1      15.679 -31.401  23.411  1.00  0.00     0.000 C 
BRANCH  13  14
ATOM     14  C   UNL     1      15.807 -30.889  21.968  1.00  0.00     0.000 C 
BRANCH  14  15
ATOM     15  C   UNL     1      14.643 -29.966  21.563  1.00  0.00     0.000 C 
BRANCH  15  16
ATOM     16  C   UNL     1      13.483 -30.739  20.914  1.00  0.00     0.000 C 
BRANCH  16  17
ATOM     17  C   UNL     1      12.190 -30.659  21.742  1.00  0.00     0.000 C 
BRANCH  17  18
ATOM     18  C   UNL     1      12.274 -29.628  22.884  1.00  0.00     0.000 C 
BRANCH  18  19
ATOM     19  C   UNL     1      11.070 -28.673  22.982  1.00  0.00     0.000 C 
BRANCH  19  20
ATOM     20  C   UNL     1      11.441 -27.299  23.565  1.00  0.00     0.006 C 
BRANCH  20  21
ATOM     21  C   UNL     1      12.673 -27.369  24.476  1.00  0.00     0.053 C 
BRANCH  21  22
ATOM     22  C   UNL     1      13.451 -26.089  24.455  1.00  0.00     0.041 C 
ATOM     23  O   UNL     1      14.107 -25.731  25.468  1.00  0.00    -0.550 OA
ATOM     24  O   UNL     1      13.431 -25.278  23.326  1.00  0.00    -0.550 OA
ENDBRANCH  21  22
ENDBRANCH  20  21
ENDBRANCH  19  20
ENDBRANCH  18  19
ENDBRANCH  17  18
ENDBRANCH  16  17
ENDBRANCH  15  16
ENDBRANCH  14  15
ENDBRANCH  13  14
ENDBRANCH   1  13
TORSDOF 20
ENDMDL
MODEL 2
REMARK VINA RESULT:    -5.233      1.972      4.195
REMARK INTER + INTRA:         -14.146
REMARK INTER:                 -10.823
REMARK INTRA:                  -3.322
REMARK UNBOUND:                -2.793
REMARK SMILES CCCCCCCCCCCCCCCCCCCCCC(=O)[O-]
REMARK SMILES IDX 12 1 11 2 10 3 9 4 8 5 7 6 6 7 5 8 4 9 3 10 2 11 1 12 13 13
REMARK SMILES IDX 14 14 15 15 16 16 17 17 18 18 19 19 20 20 21 21 22 22 23 23
REMARK SMILES IDX 24 24
REMARK H PARENT
REMARK Flexibility Score: inf
ROOT
ATOM      1  C   UNL     1      18.115 -34.022  18.823  1.00  0.00     0.000 C 
ENDROOT
BRANCH   1   2
ATOM      2  C   UNL     1      18.674 -33.307  20.073  1.00  0.00     0.000 C 
BRANCH   2   3
ATOM      3  C   UNL     1      18.997 -34.263  21.238  1.00  0.00     0.000 C 
BRANCH   3   4
ATOM      4  C   UNL     1      18.977 -33.611  22.632  1.00  0.00    -0.000 C 
BRANCH   4   5
ATOM      5  C   UNL     1      17.725 -33.917  23.480  1.00  0.00    -0.000 C 
BRANCH   5   6
ATOM      6  C   UNL     1      17.195 -32.736  24.315  1.00  0.00    -0.000 C 
BRANCH   6   7
ATOM      7  C   UNL     1      17.705 -31.376  23.817  1.00  0.00    -0.000 C 
BRANCH   7   8
ATOM      8  C   UNL     1      16.631 -30.652  22.997  1.00  0.00    -0.000 C 
BRANCH   8   9
ATOM      9  C   UNL     1      17.167 -30.266  21.610  1.00  0.00    -0.000 C 
BRANCH   9  10
ATOM     10  C   UNL     1      18.679 -29.988  21.616  1.00  0.00    -0.000 C 
BRANCH  10  11
ATOM     11  C   UNL     1      19.028 -28.608  21.039  1.00  0.00    -0.003 C 
ATOM     12  C   UNL     1      20.514 -28.512  20.708  1.00  0.00     0.004 C 
ENDBRANCH  10  11
ENDBRANCH   9  10
ENDBRANCH   8   9
ENDBRANCH   7   8
ENDBRANCH   6   7
ENDBRANCH   5   6
ENDBRANCH   4   5
ENDBRANCH   3   4
ENDBRANCH   2   3
ENDBRANCH   1   2
BRANCH   1  13
ATOM     13  C   UNL     1      16.897 -34.904  19.147  1.00  0.00     0.000 C 
BRANCH  13  14
ATOM     14  C   UNL     1      15.661 -34.081  19.542  1.00  0.00     0.000 C 
BRANCH  14  15
ATOM     15  C   UNL     1      15.239 -34.313  21.005  1.00  0.00     0.000 C 
BRANCH  15  16
ATOM     16  C   UNL     1      14.458 -33.123  21.585  1.00  0.00     0.000 C 
BRANCH  16  17
ATOM     17  C   UNL     1      13.805 -32.262  20.490  1.00  0.00     0.000 C 
BRANCH  17  18
ATOM     18  C   UNL     1      13.514 -30.823  20.956  1.00  0.00     0.000 C 
BRANCH  18  19
ATOM     19  C   UNL     1      12.481 -30.707  22.092  1.00  0.00     0.000 C 
BRANCH  19  20
ATOM     20  C   UNL     1      13.074 -30.125  23.386  1.00  0.00     0.006 C 
BRANCH  20  21
ATOM     21  C   UNL     1      12.378 -28.825  23.810  1.00  0.00     0.053 C 
BRANCH  21  22
ATOM     22  C   UNL     1      13.182 -27.618  23.438  1.00  0.00     0.041 C 
ATOM     23  O   UNL     1      12.724 -26.464  23.644  1.00  0.00    -0.550 OA
ATOM     24  O   UNL     1      14.427 -27.767  22.839  1.00  0.00    -0.550 OA
ENDBRANCH  21  22
ENDBRANCH  20  21
ENDBRANCH  19  20
ENDBRANCH  18  19
ENDBRANCH  17  18
ENDBRANCH  16  17
ENDBRANCH  15  16
ENDBRANCH  14  15
ENDBRANCH  13  14
ENDBRANCH   1  13
TORSDOF 20
ENDMDL
MODEL 3
REMARK VINA RESULT:    -5.196      4.615      7.359
REMARK INTER + INTRA:         -14.065
REMARK INTER:                 -11.929
REMARK INTRA:                  -2.137
REMARK UNBOUND:                -2.793
REMARK SMILES CCCCCCCCCCCCCCCCCCCCCC(=O)[O-]
REMARK SMILES IDX 12 1 11 2 10 3 9 4 8 5 7 6 6 7 5 8 4 9 3 10 2 11 1 12 13 13
REMARK SMILES IDX 14 14 15 15 16 16 17 17 18 18 19 19 20 20 21 21 22 22 23 23
REMARK SMILES IDX 24 24
REMARK H PARENT
REMARK Flexibility Score: inf
ROOT
ATOM      1  C   UNL     1      18.573 -34.021  19.763  1.00  0.00     0.000 C 
ENDROOT
BRANCH   1   2
ATOM      2  C   UNL     1      17.137 -33.930  19.202  1.00  0.00     0.000 C 
BRANCH   2   3
ATOM      3  C   UNL     1      16.177 -34.982  19.790  1.00  0.00     0.000 C 
BRANCH   3   4
ATOM      4  C   UNL     1      15.118 -34.421  20.756  1.00  0.00    -0.000 C 
BRANCH   4   5
ATOM      5  C   UNL     1      14.943 -32.888  20.717  1.00  0.00    -0.000 C 
BRANCH   5   6
ATOM      6  C   UNL     1      13.613 -32.396  20.117  1.00  0.00    -0.000 C 
BRANCH   6   7
ATOM      7  C   UNL     1      13.012 -31.211  20.887  1.00  0.00    -0.000 C 
BRANCH   7   8
ATOM      8  C   UNL     1      14.114 -30.306  21.452  1.00  0.00    -0.000 C 
BRANCH   8   9
ATOM      9  C   UNL     1      13.974 -30.155  22.973  1.00  0.00    -0.000 C 
BRANCH   9  10
ATOM     10  C   UNL     1      12.657 -29.476  23.383  1.00  0.00    -0.000 C 
BRANCH  10  11
ATOM     11  C   UNL     1      12.810 -27.960  23.581  1.00  0.00    -0.003 C 
ATOM     12  C   UNL     1      11.465 -27.251  23.450  1.00  0.00     0.004 C 
ENDBRANCH  10  11
ENDBRANCH   9  10
ENDBRANCH   8   9
ENDBRANCH   7   8
ENDBRANCH   6   7
ENDBRANCH   5   6
ENDBRANCH   4   5
ENDBRANCH   3   4
ENDBRANCH   2   3
ENDBRANCH   1   2
BRANCH   1  13
ATOM     13  C   UNL     1      19.071 -32.678  20.322  1.00  0.00     0.000 C 
BRANCH  13  14
ATOM     14  C   UNL     1      18.749 -32.504  21.815  1.00  0.00     0.000 C 
BRANCH  14  15
ATOM     15  C   UNL     1      17.964 -31.211  22.103  1.00  0.00     0.000 C 
BRANCH  15  16
ATOM     16  C   UNL     1      17.712 -30.384  20.832  1.00  0.00     0.000 C 
BRANCH  16  17
ATOM     17  C   UNL     1      18.025 -28.892  21.032  1.00  0.00     0.000 C 
BRANCH  17  18
ATOM     18  C   UNL     1      19.527 -28.574  20.911  1.00  0.00     0.000 C 
BRANCH  18  19
ATOM     19  C   UNL     1      19.849 -27.188  20.323  1.00  0.00     0.000 C 
BRANCH  19  20
ATOM     20  C   UNL     1      21.085 -26.536  20.965  1.00  0.00     0.006 C 
BRANCH  20  21
ATOM     21  C   UNL     1      21.356 -25.132  20.408  1.00  0.00     0.053 C 
BRANCH  21  22
ATOM     22  C   UNL     1      22.649 -25.075  19.654  1.00  0.00     0.041 C 
ATOM     23  O   UNL     1      23.319 -24.011  19.626  1.00  0.00    -0.550 OA
ATOM     24  O   UNL     1      23.101 -26.191  18.959  1.00  0.00    -0.550 OA
ENDBRANCH  21  22
ENDBRANCH  20  21
ENDBRANCH  19  20
ENDBRANCH  18  19
ENDBRANCH  17  18
ENDBRANCH  16  17
ENDBRANCH  15  16
ENDBRANCH  14  15
ENDBRANCH  13  14
ENDBRANCH   1  13
TORSDOF 20
ENDMDL
MODEL 4
REMARK VINA RESULT:    -5.147      3.409      7.281
REMARK INTER + INTRA:         -13.957
REMARK INTER:                 -10.155
REMARK INTRA:                  -3.802
REMARK UNBOUND:                -2.793
REMARK SMILES CCCCCCCCCCCCCCCCCCCCCC(=O)[O-]
REMARK SMILES IDX 12 1 11 2 10 3 9 4 8 5 7 6 6 7 5 8 4 9 3 10 2 11 1 12 13 13
REMARK SMILES IDX 14 14 15 15 16 16 17 17 18 18 19 19 20 20 21 21 22 22 23 23
REMARK SMILES IDX 24 24
REMARK H PARENT
REMARK Flexibility Score: inf
ROOT
ATOM      1  C   UNL     1      14.844 -33.569  20.932  1.00  0.00     0.000 C 
ENDROOT
BRANCH   1   2
ATOM      2  C   UNL     1      15.368 -34.121  22.276  1.00  0.00     0.000 C 
BRANCH   2   3
ATOM      3  C   UNL     1      15.092 -33.192  23.473  1.00  0.00     0.000 C 
BRANCH   3   4
ATOM      4  C   UNL     1      13.881 -32.258  23.301  1.00  0.00    -0.000 C 
BRANCH   4   5
ATOM      5  C   UNL     1      14.187 -30.754  23.461  1.00  0.00    -0.000 C 
BRANCH   5   6
ATOM      6  C   UNL     1      13.833 -29.881  22.242  1.00  0.00    -0.000 C 
BRANCH   6   7
ATOM      7  C   UNL     1      14.924 -29.892  21.162  1.00  0.00    -0.000 C 
BRANCH   7   8
ATOM      8  C   UNL     1      16.311 -30.106  21.782  1.00  0.00    -0.000 C 
BRANCH   8   9
ATOM      9  C   UNL     1      17.244 -30.833  20.802  1.00  0.00    -0.000 C 
BRANCH   9  10
ATOM     10  C   UNL     1      18.579 -31.240  21.446  1.00  0.00    -0.000 C 
BRANCH  10  11
ATOM     11  C   UNL     1      18.622 -32.727  21.827  1.00  0.00    -0.003 C 
ATOM     12  C   UNL     1      20.059 -33.203  22.018  1.00  0.00     0.004 C 
ENDBRANCH  10  11
ENDBRANCH   9  10
ENDBRANCH   8   9
ENDBRANCH   7   8
ENDBRANCH   6   7
ENDBRANCH   5   6
ENDBRANCH   4   5
ENDBRANCH   3   4
ENDBRANCH   2   3
ENDBRANCH   1   2
BRANCH   1  13
ATOM     13  C   UNL     1      15.199 -34.479  19.744  1.00  0.00     0.000 C 
BRANCH  13  14
ATOM     14  C   UNL     1      16.486 -34.040  19.029  1.00  0.00     0.000 C 
BRANCH  14  15
ATOM     15  C   UNL     1      17.638 -35.044  19.213  1.00  0.00     0.000 C 
BRANCH  15  16
ATOM     16  C   UNL     1      17.162 -36.503  19.118  1.00  0.00     0.000 C 
BRANCH  16  17
ATOM     17  C   UNL     1      17.506 -37.315  20.378  1.00  0.00     0.000 C 
BRANCH  17  18
ATOM     18  C   UNL     1      18.211 -36.472  21.458  1.00  0.00     0.000 C 
BRANCH  18  19
ATOM     19  C   UNL     1      19.171 -37.260  22.368  1.00  0.00     0.000 C 
BRANCH  19  20
ATOM     20  C   UNL     1      18.889 -37.046  23.865  1.00  0.00     0.006 C 
BRANCH  20  21
ATOM     21  C   UNL     1      18.172 -35.718  24.137  1.00  0.00     0.053 C 
BRANCH  21  22
ATOM     22  C   UNL     1      17.293 -35.798  25.347  1.00  0.00     0.041 C 
ATOM     23  O   UNL     1      16.954 -36.918  25.810  1.00  0.00    -0.550 OA
ATOM     24  O   UNL     1      16.828 -34.635  25.949  1.00  0.00    -0.550 OA
ENDBRANCH  21  22
ENDBRANCH  20  21
ENDBRANCH  19  20
ENDBRANCH  18  19
ENDBRANCH  17  18
ENDBRANCH  16  17
ENDBRANCH  15  16
ENDBRANCH  14  15
ENDBRANCH  13  14
ENDBRANCH   1  13
TORSDOF 20
ENDMDL
MODEL 5
REMARK VINA RESULT:    -5.115      1.013      2.451
REMARK INTER + INTRA:         -13.889
REMARK INTER:                 -10.664
REMARK INTRA:                  -3.225
REMARK UNBOUND:                -2.793
REMARK SMILES CCCCCCCCCCCCCCCCCCCCCC(=O)[O-]
REMARK SMILES IDX 12 1 11 2 10 3 9 4 8 5 7 6 6 7 5 8 4 9 3 10 2 11 1 12 13 13
REMARK SMILES IDX 14 14 15 15 16 16 17 17 18 18 19 19 20 20 21 21 22 22 23 23
REMARK SMILES IDX 24 24
REMARK H PARENT
REMARK Flexibility Score: inf
ROOT
ATOM      1  C   UNL     1      16.353 -32.295  23.492  1.00  0.00     0.000 C 
ENDROOT
BRANCH   1   2
ATOM      2  C   UNL     1      15.142 -33.247  23.388  1.00  0.00     0.000 C 
BRANCH   2   3
ATOM      3  C   UNL     1      15.034 -33.962  22.027  1.00  0.00     0.000 C 
BRANCH   3   4
ATOM      4  C   UNL     1      16.282 -34.767  21.620  1.00  0.00    -0.000 C 
BRANCH   4   5
ATOM      5  C   UNL     1      16.771 -34.529  20.177  1.00  0.00    -0.000 C 
BRANCH   5   6
ATOM      6  C   UNL     1      17.386 -33.142  19.913  1.00  0.00    -0.000 C 
BRANCH   6   7
ATOM      7  C   UNL     1      18.917 -33.135  20.025  1.00  0.00    -0.000 C 
BRANCH   7   8
ATOM      8  C   UNL     1      19.398 -31.997  20.934  1.00  0.00    -0.000 C 
BRANCH   8   9
ATOM      9  C   UNL     1      19.827 -32.536  22.306  1.00  0.00    -0.000 C 
BRANCH   9  10
ATOM     10  C   UNL     1      20.050 -34.057  22.304  1.00  0.00    -0.000 C 
BRANCH  10  11
ATOM     11  C   UNL     1      19.233 -34.775  23.388  1.00  0.00    -0.003 C 
ATOM     12  C   UNL     1      19.317 -34.033  24.719  1.00  0.00     0.004 C 
ENDBRANCH  10  11
ENDBRANCH   9  10
ENDBRANCH   8   9
ENDBRANCH   7   8
ENDBRANCH   6   7
ENDBRANCH   5   6
ENDBRANCH   4   5
ENDBRANCH   3   4
ENDBRANCH   2   3
ENDBRANCH   1   2
BRANCH   1  13
ATOM     13  C   UNL     1      15.959 -30.821  23.292  1.00  0.00     0.000 C 
BRANCH  13  14
ATOM     14  C   UNL     1      16.014 -30.390  21.819  1.00  0.00     0.000 C 
BRANCH  14  15
ATOM     15  C   UNL     1      14.680 -29.802  21.324  1.00  0.00     0.000 C 
BRANCH  15  16
ATOM     16  C   UNL     1      13.634 -30.891  21.032  1.00  0.00     0.000 C 
BRANCH  16  17
ATOM     17  C   UNL     1      12.279 -30.594  21.697  1.00  0.00     0.000 C 
BRANCH  17  18
ATOM     18  C   UNL     1      12.402 -29.656  22.912  1.00  0.00     0.000 C 
BRANCH  18  19
ATOM     19  C   UNL     1      11.227 -28.677  23.094  1.00  0.00     0.000 C 
BRANCH  19  20
ATOM     20  C   UNL     1      11.681 -27.259  23.479  1.00  0.00     0.006 C 
BRANCH  20  21
ATOM     21  C   UNL     1      12.705 -27.268  24.622  1.00  0.00     0.053 C 
BRANCH  21  22
ATOM     22  C   UNL     1      13.580 -26.052  24.592  1.00  0.00     0.041 C 
ATOM     23  O   UNL     1      14.227 -25.714  25.617  1.00  0.00    -0.550 OA
ATOM     24  O   UNL     1      13.660 -25.279  23.441  1.00  0.00    -0.550 OA
ENDBRANCH  21  22
ENDBRANCH  20  21
ENDBRANCH  19  20
ENDBRANCH  18  19
ENDBRANCH  17  18
ENDBRANCH  16  17
ENDBRANCH  15  16
ENDBRANCH  14  15
ENDBRANCH  13  14
ENDBRANCH   1  13
TORSDOF 20
ENDMDL
MODEL 6
REMARK VINA RESULT:    -5.109      1.795      4.542
REMARK INTER + INTRA:         -13.875
REMARK INTER:                 -10.496
REMARK INTRA:                  -3.380
REMARK UNBOUND:                -2.793
REMARK SMILES CCCCCCCCCCCCCCCCCCCCCC(=O)[O-]
REMARK SMILES IDX 12 1 11 2 10 3 9 4 8 5 7 6 6 7 5 8 4 9 3 10 2 11 1 12 13 13
REMARK SMILES IDX 14 14 15 15 16 16 17 17 18 18 19 19 20 20 21 21 22 22 23 23
REMARK SMILES IDX 24 24
REMARK H PARENT
REMARK Flexibility Score: inf
ROOT
ATOM      1  C   UNL     1      14.668 -33.427  20.662  1.00  0.00     0.000 C 
ENDROOT
BRANCH   1   2
ATOM      2  C   UNL     1      15.356 -33.937  19.377  1.00  0.00     0.000 C 
BRANCH   2   3
ATOM      3  C   UNL     1      16.853 -33.583  19.296  1.00  0.00     0.000 C 
BRANCH   3   4
ATOM      4  C   UNL     1      17.798 -34.794  19.193  1.00  0.00    -0.000 C 
BRANCH   4   5
ATOM      5  C   UNL     1      17.133 -36.166  19.433  1.00  0.00    -0.000 C 
BRANCH   5   6
ATOM      6  C   UNL     1      17.728 -36.988  20.591  1.00  0.00    -0.000 C 
BRANCH   6   7
ATOM      7  C   UNL     1      18.488 -36.125  21.608  1.00  0.00    -0.000 C 
BRANCH   7   8
ATOM      8  C   UNL     1      17.855 -36.229  23.001  1.00  0.00    -0.000 C 
BRANCH   8   9
ATOM      9  C   UNL     1      18.910 -36.031  24.099  1.00  0.00    -0.000 C 
BRANCH   9  10
ATOM     10  C   UNL     1      18.489 -36.645  25.444  1.00  0.00    -0.000 C 
BRANCH  10  11
ATOM     11  C   UNL     1      16.988 -36.478  25.725  1.00  0.00    -0.003 C 
ATOM     12  C   UNL     1      16.490 -37.543  26.699  1.00  0.00     0.004 C 
ENDBRANCH  10  11
ENDBRANCH   9  10
ENDBRANCH   8   9
ENDBRANCH   7   8
ENDBRANCH   6   7
ENDBRANCH   5   6
ENDBRANCH   4   5
ENDBRANCH   3   4
ENDBRANCH   2   3
ENDBRANCH   1   2
BRANCH   1  13
ATOM     13  C   UNL     1      15.158 -34.162  21.921  1.00  0.00     0.000 C 
BRANCH  13  14
ATOM     14  C   UNL     1      14.913 -33.358  23.207  1.00  0.00     0.000 C 
BRANCH  14  15
ATOM     15  C   UNL     1      16.220 -32.993  23.935  1.00  0.00     0.000 C 
BRANCH  15  16
ATOM     16  C   UNL     1      17.356 -32.647  22.958  1.00  0.00     0.000 C 
BRANCH  16  17
ATOM     17  C   UNL     1      17.656 -31.139  22.919  1.00  0.00     0.000 C 
BRANCH  17  18
ATOM     18  C   UNL     1      16.383 -30.275  22.980  1.00  0.00     0.000 C 
BRANCH  18  19
ATOM     19  C   UNL     1      15.764 -29.939  21.611  1.00  0.00     0.000 C 
BRANCH  19  20
ATOM     20  C   UNL     1      14.226 -29.940  21.631  1.00  0.00     0.006 C 
BRANCH  20  21
ATOM     21  C   UNL     1      13.665 -29.941  23.059  1.00  0.00     0.053 C 
BRANCH  21  22
ATOM     22  C   UNL     1      12.669 -28.841  23.265  1.00  0.00     0.041 C 
ATOM     23  O   UNL     1      11.484 -28.978  22.865  1.00  0.00    -0.550 OA
ATOM     24  O   UNL     1      13.056 -27.655  23.876  1.00  0.00    -0.550 OA
ENDBRANCH  21  22
ENDBRANCH  20  21
ENDBRANCH  19  20
ENDBRANCH  18  19
ENDBRANCH  17  18
ENDBRANCH  16  17
ENDBRANCH  15  16
ENDBRANCH  14  15
ENDBRANCH  13  14
ENDBRANCH   1  13
TORSDOF 20
ENDMDL
MODEL 7
REMARK VINA RESULT:    -5.098      3.945      8.257
REMARK INTER + INTRA:         -13.853
REMARK INTER:                 -10.952
REMARK INTRA:                  -2.901
REMARK UNBOUND:                -2.793
REMARK SMILES CCCCCCCCCCCCCCCCCCCCCC(=O)[O-]
REMARK SMILES IDX 12 1 11 2 10 3 9 4 8 5 7 6 6 7 5 8 4 9 3 10 2 11 1 12 13 13
REMARK SMILES IDX 14 14 15 15 16 16 17 17 18 18 19 19 20 20 21 21 22 22 23 23
REMARK SMILES IDX 24 24
REMARK H PARENT
REMARK Flexibility Score: inf
ROOT
ATOM      1  C   UNL     1      16.591 -34.625  24.158  1.00  0.00     0.000 C 
ENDROOT
BRANCH   1   2
ATOM      2  C   UNL     1      16.284 -33.397  23.274  1.00  0.00     0.000 C 
BRANCH   2   3
ATOM      3  C   UNL     1      16.906 -32.088  23.798  1.00  0.00     0.000 C 
BRANCH   3   4
ATOM      4  C   UNL     1      16.495 -30.822  23.023  1.00  0.00    -0.000 C 
BRANCH   4   5
ATOM      5  C   UNL     1      15.979 -31.071  21.591  1.00  0.00    -0.000 C 
BRANCH   5   6
ATOM      6  C   UNL     1      14.638 -30.395  21.251  1.00  0.00    -0.000 C 
BRANCH   6   7
ATOM      7  C   UNL     1      13.427 -31.296  21.533  1.00  0.00    -0.000 C 
BRANCH   7   8
ATOM      8  C   UNL     1      12.288 -30.500  22.182  1.00  0.00    -0.000 C 
BRANCH   8   9
ATOM      9  C   UNL     1      12.837 -29.484  23.195  1.00  0.00    -0.000 C 
BRANCH   9  10
ATOM     10  C   UNL     1      11.842 -28.352  23.498  1.00  0.00    -0.000 C 
BRANCH  10  11
ATOM     11  C   UNL     1      12.377 -27.359  24.541  1.00  0.00    -0.003 C 
ATOM     12  C   UNL     1      13.404 -26.415  23.922  1.00  0.00     0.004 C 
ENDBRANCH  10  11
ENDBRANCH   9  10
ENDBRANCH   8   9
ENDBRANCH   7   8
ENDBRANCH   6   7
ENDBRANCH   5   6
ENDBRANCH   4   5
ENDBRANCH   3   4
ENDBRANCH   2   3
ENDBRANCH   1   2
BRANCH   1  13
ATOM     13  C   UNL     1      17.732 -35.486  23.591  1.00  0.00     0.000 C 
BRANCH  13  14
ATOM     14  C   UNL     1      19.084 -35.185  24.254  1.00  0.00     0.000 C 
BRANCH  14  15
ATOM     15  C   UNL     1      20.033 -34.397  23.332  1.00  0.00     0.000 C 
BRANCH  15  16
ATOM     16  C   UNL     1      19.581 -34.431  21.863  1.00  0.00     0.000 C 
BRANCH  16  17
ATOM     17  C   UNL     1      19.671 -33.050  21.191  1.00  0.00     0.000 C 
BRANCH  17  18
ATOM     18  C   UNL     1      18.572 -32.827  20.134  1.00  0.00     0.000 C 
BRANCH  18  19
ATOM     19  C   UNL     1      18.363 -34.002  19.162  1.00  0.00     0.000 C 
BRANCH  19  20
ATOM     20  C   UNL     1      16.891 -34.435  19.052  1.00  0.00     0.006 C 
BRANCH  20  21
ATOM     21  C   UNL     1      16.532 -35.532  20.064  1.00  0.00     0.053 C 
BRANCH  21  22
ATOM     22  C   UNL     1      17.250 -36.813  19.771  1.00  0.00     0.041 C 
ATOM     23  O   UNL     1      17.266 -37.277  18.602  1.00  0.00    -0.550 OA
ATOM     24  O   UNL     1      17.880 -37.509  20.796  1.00  0.00    -0.550 OA
ENDBRANCH  21  22
ENDBRANCH  20  21
ENDBRANCH  19  20
ENDBRANCH  18  19
ENDBRANCH  17  18
ENDBRANCH  16  17
ENDBRANCH  15  16
ENDBRANCH  14  15
ENDBRANCH  13  14
ENDBRANCH   1  13
TORSDOF 20
ENDMDL
MODEL 8
REMARK VINA RESULT:    -5.058      1.805      4.328
REMARK INTER + INTRA:         -13.766
REMARK INTER:                 -10.797
REMARK INTRA:                  -2.969
REMARK UNBOUND:                -2.793
REMARK SMILES CCCCCCCCCCCCCCCCCCCCCC(=O)[O-]
REMARK SMILES IDX 12 1 11 2 10 3 9 4 8 5 7 6 6 7 5 8 4 9 3 10 2 11 1 12 13 13
REMARK SMILES IDX 14 14 15 15 16 16 17 17 18 18 19 19 20 20 21 21 22 22 23 23
REMARK SMILES IDX 24 24
REMARK H PARENT
REMARK Flexibility Score: inf
ROOT
ATOM      1  C   UNL     1      18.364 -32.369  20.513  1.00  0.00     0.000 C 
ENDROOT
BRANCH   1   2
ATOM      2  C   UNL     1      17.565 -31.058  20.677  1.00  0.00     0.000 C 
BRANCH   2   3
ATOM      3  C   UNL     1      17.775 -30.373  22.041  1.00  0.00     0.000 C 
BRANCH   3   4
ATOM      4  C   UNL     1      16.650 -30.613  23.064  1.00  0.00    -0.000 C 
BRANCH   4   5
ATOM      5  C   UNL     1      16.811 -31.882  23.928  1.00  0.00    -0.000 C 
BRANCH   5   6
ATOM      6  C   UNL     1      18.144 -31.989  24.692  1.00  0.00    -0.000 C 
BRANCH   6   7
ATOM      7  C   UNL     1      18.356 -33.368  25.332  1.00  0.00    -0.000 C 
BRANCH   7   8
ATOM      8  C   UNL     1      17.401 -34.407  24.732  1.00  0.00    -0.000 C 
BRANCH   8   9
ATOM      9  C   UNL     1      18.165 -35.664  24.290  1.00  0.00    -0.000 C 
BRANCH   9  10
ATOM     10  C   UNL     1      17.907 -36.868  25.211  1.00  0.00    -0.000 C 
BRANCH  10  11
ATOM     11  C   UNL     1      16.895 -36.555  26.323  1.00  0.00    -0.003 C 
ATOM     12  C   UNL     1      16.244 -37.832  26.847  1.00  0.00     0.004 C 
ENDBRANCH  10  11
ENDBRANCH   9  10
ENDBRANCH   8   9
ENDBRANCH   7   8
ENDBRANCH   6   7
ENDBRANCH   5   6
ENDBRANCH   4   5
ENDBRANCH   3   4
ENDBRANCH   2   3
ENDBRANCH   1   2
BRANCH   1  13
ATOM     13  C   UNL     1      17.518 -33.501  19.908  1.00  0.00     0.000 C 
BRANCH  13  14
ATOM     14  C   UNL     1      16.908 -34.419  20.979  1.00  0.00     0.000 C 
BRANCH  14  15
ATOM     15  C   UNL     1      15.375 -34.516  20.872  1.00  0.00     0.000 C 
BRANCH  15  16
ATOM     16  C   UNL     1      14.666 -33.315  21.520  1.00  0.00     0.000 C 
BRANCH  16  17
ATOM     17  C   UNL     1      13.874 -32.481  20.499  1.00  0.00     0.000 C 
BRANCH  17  18
ATOM     18  C   UNL     1      13.557 -31.061  21.004  1.00  0.00     0.000 C 
BRANCH  18  19
ATOM     19  C   UNL     1      12.971 -30.997  22.426  1.00  0.00     0.000 C 
BRANCH  19  20
ATOM     20  C   UNL     1      12.415 -29.608  22.783  1.00  0.00     0.006 C 
BRANCH  20  21
ATOM     21  C   UNL     1      13.523 -28.623  23.179  1.00  0.00     0.053 C 
BRANCH  21  22
ATOM     22  C   UNL     1      12.966 -27.290  23.574  1.00  0.00     0.041 C 
ATOM     23  O   UNL     1      11.723 -27.136  23.699  1.00  0.00    -0.550 OA
ATOM     24  O   UNL     1      13.817 -26.211  23.780  1.00  0.00    -0.550 OA
ENDBRANCH  21  22
ENDBRANCH  20  21
ENDBRANCH  19  20
ENDBRANCH  18  19
ENDBRANCH  17  18
ENDBRANCH  16  17
ENDBRANCH  15  16
ENDBRANCH  14  15
ENDBRANCH  13  14
ENDBRANCH   1  13
TORSDOF 20
ENDMDL
MODEL 9
REMARK VINA RESULT:    -5.049      4.336      6.684
REMARK INTER + INTRA:         -13.745
REMARK INTER:                 -10.798
REMARK INTRA:                  -2.946
REMARK UNBOUND:                -2.793
REMARK SMILES CCCCCCCCCCCCCCCCCCCCCC(=O)[O-]
REMARK SMILES IDX 12 1 11 2 10 3 9 4 8 5 7 6 6 7 5 8 4 9 3 10 2 11 1 12 13 13
REMARK SMILES IDX 14 14 15 15 16 16 17 17 18 18 19 19 20 20 21 21 22 22 23 23
REMARK SMILES IDX 24 24
REMARK H PARENT
REMARK Flexibility Score: inf
ROOT
ATOM      1  C   UNL     1      17.326 -34.752  19.403  1.00  0.00     0.000 C 
ENDROOT
BRANCH   1   2
ATOM      2  C   UNL     1      16.143 -33.813  19.727  1.00  0.00     0.000 C 
BRANCH   2   3
ATOM      3  C   UNL     1      15.335 -34.242  20.966  1.00  0.00     0.000 C 
BRANCH   3   4
ATOM      4  C   UNL     1      16.164 -34.403  22.253  1.00  0.00    -0.000 C 
BRANCH   4   5
ATOM      5  C   UNL     1      15.887 -33.349  23.345  1.00  0.00    -0.000 C 
BRANCH   5   6
ATOM      6  C   UNL     1      17.035 -32.354  23.601  1.00  0.00    -0.000 C 
BRANCH   6   7
ATOM      7  C   UNL     1      16.626 -30.895  23.357  1.00  0.00    -0.000 C 
BRANCH   7   8
ATOM      8  C   UNL     1      16.183 -30.683  21.904  1.00  0.00    -0.000 C 
BRANCH   8   9
ATOM      9  C   UNL     1      14.972 -29.740  21.831  1.00  0.00    -0.000 C 
BRANCH   9  10
ATOM     10  C   UNL     1      13.799 -30.214  22.704  1.00  0.00    -0.000 C 
BRANCH  10  11
ATOM     11  C   UNL     1      12.596 -30.683  21.872  1.00  0.00    -0.003 C 
ATOM     12  C   UNL     1      13.052 -31.393  20.600  1.00  0.00     0.004 C 
ENDBRANCH  10  11
ENDBRANCH   9  10
ENDBRANCH   8   9
ENDBRANCH   7   8
ENDBRANCH   6   7
ENDBRANCH   5   6
ENDBRANCH   4   5
ENDBRANCH   3   4
ENDBRANCH   2   3
ENDBRANCH   1   2
BRANCH   1  13
ATOM     13  C   UNL     1      18.664 -34.000  19.310  1.00  0.00     0.000 C 
BRANCH  13  14
ATOM     14  C   UNL     1      18.711 -32.764  20.221  1.00  0.00     0.000 C 
BRANCH  14  15
ATOM     15  C   UNL     1      19.844 -32.839  21.262  1.00  0.00     0.000 C 
BRANCH  15  16
ATOM     16  C   UNL     1      20.255 -31.451  21.780  1.00  0.00     0.000 C 
BRANCH  16  17
ATOM     17  C   UNL     1      19.796 -30.318  20.847  1.00  0.00     0.000 C 
BRANCH  17  18
ATOM     18  C   UNL     1      20.698 -29.072  20.933  1.00  0.00     0.000 C 
BRANCH  18  19
ATOM     19  C   UNL     1      19.961 -27.765  21.278  1.00  0.00     0.000 C 
BRANCH  19  20
ATOM     20  C   UNL     1      20.054 -26.711  20.161  1.00  0.00     0.006 C 
BRANCH  20  21
ATOM     21  C   UNL     1      20.813 -25.455  20.609  1.00  0.00     0.053 C 
BRANCH  21  22
ATOM     22  C   UNL     1      22.213 -25.433  20.076  1.00  0.00     0.041 C 
ATOM     23  O   UNL     1      22.888 -24.372  20.118  1.00  0.00    -0.550 OA
ATOM     24  O   UNL     1      22.762 -26.577  19.509  1.00  0.00    -0.550 OA
ENDBRANCH  21  22
ENDBRANCH  20  21
ENDBRANCH  19  20
ENDBRANCH  18  19
ENDBRANCH  17  18
ENDBRANCH  16  17
ENDBRANCH  15  16
ENDBRANCH  14  15
ENDBRANCH  13  14
ENDBRANCH   1  13
TORSDOF 20
ENDMDL
