MODEL 1
REMARK VINA RESULT:    37.795      0.000      0.000
REMARK INTER + INTRA:          54.440
REMARK INTER:                  55.471
REMARK INTRA:                  -1.031
REMARK UNBOUND:                -1.031
REMARK SMILES O=c1c(O[C@@H]2O[C@H](CO)[C@@H](O)[C@H](O)[C@H]2O)c(-c2ccc(O)c(O)c2)oc2cc(O)cc(O)c12
REMARK SMILES IDX 4 1 3 2 16 3 25 4 2 5 26 6 1 7 33 8 27 9 31 10 28 11 30 12
REMARK SMILES IDX 17 13 18 14 19 15 20 16 24 17 22 18 21 19 23 21 32 23 29 25
REMARK SMILES IDX 5 27 14 28 6 29 12 30 7 31 10 32 15 33 13 35 8 37 9 38 11 40
REMARK H PARENT 21 20 23 22 32 24 29 26 15 34 13 36 9 39 11 41
REMARK Flexibility Score: inf
ROOT
ATOM      1  O   UNL     1       8.594  23.107  35.099  1.00  0.00    -0.454 OA
ENDROOT
BRANCH   1   2
ATOM      2  C   UNL     1       9.631  22.439  35.760  1.00  0.00     0.214 A 
ATOM      3  C   UNL     1      10.092  22.971  36.973  1.00  0.00     0.180 A 
ATOM      4  O   UNL     1      11.084  22.382  37.632  1.00  0.00    -0.452 OA
ATOM      5  C   UNL     1      10.240  21.283  35.254  1.00  0.00     0.239 A 
ATOM      6  C   UNL     1      11.692  21.286  37.189  1.00  0.00     0.146 A 
ATOM      7  O   UNL     1       9.850  20.800  34.152  1.00  0.00    -0.285 OA
ATOM      8  C   UNL     1      11.291  20.681  35.973  1.00  0.00     0.111 A 
ATOM      9  C   UNL     1      12.734  20.741  37.941  1.00  0.00     0.094 A 
ATOM     10  C   UNL     1      11.957  19.505  35.536  1.00  0.00     0.134 A 
ATOM     11  C   UNL     1      13.386  19.579  37.502  1.00  0.00     0.123 A 
ATOM     12  C   UNL     1      12.999  18.972  36.310  1.00  0.00     0.093 A 
BRANCH   3  13
ATOM     13  C   UNL     1       9.449  24.158  37.546  1.00  0.00     0.025 A 
ATOM     14  C   UNL     1      10.080  25.404  37.455  1.00  0.00     0.016 A 
ATOM     15  C   UNL     1       9.509  26.527  38.060  1.00  0.00     0.051 A 
ATOM     16  C   UNL     1       8.318  26.406  38.780  1.00  0.00     0.157 A 
ATOM     17  C   UNL     1       8.251  24.038  38.263  1.00  0.00     0.062 A 
ATOM     18  C   UNL     1       7.688  25.160  38.893  1.00  0.00     0.158 A 
BRANCH  16  19
ATOM     19  O   UNL     1       7.751  27.551  39.350  1.00  0.00    -0.504 OA
ATOM     20  H   UNL     1       6.978  27.495  39.996  1.00  0.00     0.293 HD
ENDBRANCH  16  19
BRANCH  18  21
ATOM     21  O   UNL     1       6.535  25.023  39.669  1.00  0.00    -0.504 OA
ATOM     22  H   UNL     1       5.769  24.423  39.388  1.00  0.00     0.293 HD
ENDBRANCH  18  21
ENDBRANCH   3  13
BRANCH  10  23
ATOM     23  O   UNL     1      11.592  18.876  34.348  1.00  0.00    -0.507 OA
ATOM     24  H   UNL     1      12.206  18.861  33.541  1.00  0.00     0.293 HD
ENDBRANCH  10  23
BRANCH  11  25
ATOM     25  O   UNL     1      14.424  19.029  38.253  1.00  0.00    -0.508 OA
ATOM     26  H   UNL     1      15.321  19.493  38.332  1.00  0.00     0.293 HD
ENDBRANCH  11  25
ENDBRANCH   1   2
BRANCH   1  27
ATOM     27  C   UNL     1       7.494  22.472  34.451  1.00  0.00     0.339 C 
ATOM     28  C   UNL     1       6.771  21.556  35.471  1.00  0.00     0.214 C 
ATOM     29  O   UNL     1       6.652  23.425  33.817  1.00  0.00    -0.332 OA
ATOM     30  C   UNL     1       5.241  21.634  35.293  1.00  0.00     0.180 C 
ATOM     31  C   UNL     1       5.718  24.075  34.668  1.00  0.00     0.179 C 
ATOM     32  C   UNL     1       4.802  23.094  35.466  1.00  0.00     0.177 C 
BRANCH  28  33
ATOM     33  O   UNL     1       7.257  20.237  35.357  1.00  0.00    -0.384 OA
ATOM     34  H   UNL     1       6.876  19.831  34.530  1.00  0.00     0.211 HD
ENDBRANCH  28  33
BRANCH  30  35
ATOM     35  O   UNL     1       4.569  20.837  36.239  1.00  0.00    -0.387 OA
ATOM     36  H   UNL     1       4.773  21.195  37.138  1.00  0.00     0.211 HD
ENDBRANCH  30  35
BRANCH  31  37
ATOM     37  C   UNL     1       6.364  25.166  35.549  1.00  0.00     0.191 C 
BRANCH  37  38
ATOM     38  O   UNL     1       7.560  25.648  34.990  1.00  0.00    -0.394 OA
ATOM     39  H   UNL     1       7.429  26.622  34.852  1.00  0.00     0.210 HD
ENDBRANCH  37  38
ENDBRANCH  31  37
BRANCH  32  40
ATOM     40  O   UNL     1       3.467  23.221  35.045  1.00  0.00    -0.387 OA
ATOM     41  H   UNL     1       3.099  22.297  34.975  1.00  0.00     0.211 HD
ENDBRANCH  32  40
ENDBRANCH   1  27
TORSDOF 12
ENDMDL
