MODEL 1
REMARK VINA RESULT:    -7.377      0.000      0.000
REMARK INTER + INTRA:          -9.246
REMARK INTER:                  -9.102
REMARK INTRA:                  -0.144
REMARK UNBOUND:                -0.144
REMARK SMILES Oc1cc(O)c2cc(O)c(-c3cc(O)c(O)c(O)c3)[o+]c2c1
REMARK SMILES IDX 10 1 20 2 21 3 22 4 2 5 3 6 4 7 6 8 7 9 8 10 11 11 12 12
REMARK SMILES IDX 13 13 19 14 15 15 17 16 14 17 16 19 18 21 9 23 1 25 5 27
REMARK H PARENT 14 18 16 20 18 22 9 24 1 26 5 28
REMARK Flexibility Score: inf
ROOT
ATOM      1  C   UNL     1       7.319  28.934 -13.672  1.00  0.00     0.402 A 
ATOM      2  O   UNL     1       7.683  29.886 -12.817  1.00  0.00    -0.202 OA
ATOM      3  C   UNL     1       7.505  31.182 -13.047  1.00  0.00     0.368 A 
ATOM      4  C   UNL     1       7.922  32.107 -12.088  1.00  0.00     0.162 A 
ATOM      5  C   UNL     1       7.750  33.478 -12.306  1.00  0.00     0.128 A 
ATOM      6  C   UNL     1       7.157  33.924 -13.489  1.00  0.00     0.093 A 
ATOM      7  C   UNL     1       6.730  33.016 -14.467  1.00  0.00     0.136 A 
ATOM      8  C   UNL     1       6.901  31.625 -14.249  1.00  0.00     0.125 A 
ATOM      9  C   UNL     1       6.491  30.643 -15.166  1.00  0.00     0.078 A 
ATOM     10  C   UNL     1       6.689  29.289 -14.879  1.00  0.00     0.223 A 
ENDROOT
BRANCH   1  11
ATOM     11  C   UNL     1       7.582  27.523 -13.305  1.00  0.00     0.091 A 
ATOM     12  C   UNL     1       6.542  26.581 -13.227  1.00  0.00     0.068 A 
ATOM     13  C   UNL     1       6.813  25.248 -12.902  1.00  0.00     0.162 A 
ATOM     14  C   UNL     1       8.902  27.103 -13.085  1.00  0.00     0.068 A 
ATOM     15  C   UNL     1       8.134  24.838 -12.660  1.00  0.00     0.200 A 
ATOM     16  C   UNL     1       9.182  25.770 -12.756  1.00  0.00     0.162 A 
BRANCH  13  17
ATOM     17  O   UNL     1       5.753  24.344 -12.829  1.00  0.00    -0.504 OA
ATOM     18  H   UNL     1       5.590  23.645 -13.544  1.00  0.00     0.293 HD
ENDBRANCH  13  17
BRANCH  15  19
ATOM     19  O   UNL     1       8.393  23.506 -12.331  1.00  0.00    -0.502 OA
ATOM     20  H   UNL     1       8.545  23.206 -11.375  1.00  0.00     0.293 HD
ENDBRANCH  15  19
BRANCH  16  21
ATOM     21  O   UNL     1      10.496  25.368 -12.525  1.00  0.00    -0.504 OA
ATOM     22  H   UNL     1      10.951  25.527 -11.633  1.00  0.00     0.293 HD
ENDBRANCH  16  21
ENDBRANCH   1  11
BRANCH  10  23
ATOM     23  O   UNL     1       6.238  28.312 -15.767  1.00  0.00    -0.500 OA
ATOM     24  H   UNL     1       5.983  28.537 -16.722  1.00  0.00     0.294 HD
ENDBRANCH  10  23
BRANCH   5  25
ATOM     25  O   UNL     1       8.164  34.406 -11.353  1.00  0.00    -0.507 OA
ATOM     26  H   UNL     1       8.882  35.091 -11.558  1.00  0.00     0.293 HD
ENDBRANCH   5  25
BRANCH   7  27
ATOM     27  O   UNL     1       6.150  33.544 -15.624  1.00  0.00    -0.507 OA
ATOM     28  H   UNL     1       5.373  34.189 -15.629  1.00  0.00     0.293 HD
ENDBRANCH   7  27
TORSDOF 7
ENDMDL
MODEL 2
REMARK VINA RESULT:    -7.373      0.157      1.800
REMARK INTER + INTRA:          -9.241
REMARK INTER:                  -9.101
REMARK INTRA:                  -0.140
REMARK UNBOUND:                -0.144
REMARK SMILES Oc1cc(O)c2cc(O)c(-c3cc(O)c(O)c(O)c3)[o+]c2c1
REMARK SMILES IDX 10 1 20 2 21 3 22 4 2 5 3 6 4 7 6 8 7 9 8 10 11 11 12 12
REMARK SMILES IDX 13 13 19 14 15 15 17 16 14 17 16 19 18 21 9 23 1 25 5 27
REMARK H PARENT 14 18 16 20 18 22 9 24 1 26 5 28
REMARK Flexibility Score: inf
ROOT
ATOM      1  C   UNL     1       7.298  28.916 -13.687  1.00  0.00     0.402 A 
ATOM      2  O   UNL     1       7.606  29.869 -12.812  1.00  0.00    -0.202 OA
ATOM      3  C   UNL     1       7.366  31.159 -13.021  1.00  0.00     0.368 A 
ATOM      4  C   UNL     1       7.729  32.086 -12.041  1.00  0.00     0.162 A 
ATOM      5  C   UNL     1       7.491  33.450 -12.237  1.00  0.00     0.128 A 
ATOM      6  C   UNL     1       6.887  33.888 -13.418  1.00  0.00     0.093 A 
ATOM      7  C   UNL     1       6.514  32.978 -14.415  1.00  0.00     0.136 A 
ATOM      8  C   UNL     1       6.751  31.593 -14.220  1.00  0.00     0.125 A 
ATOM      9  C   UNL     1       6.399  30.610 -15.159  1.00  0.00     0.078 A 
ATOM     10  C   UNL     1       6.661  29.262 -14.894  1.00  0.00     0.223 A 
ENDROOT
BRANCH   1  11
ATOM     11  C   UNL     1       7.626  27.514 -13.343  1.00  0.00     0.091 A 
ATOM     12  C   UNL     1       8.943  27.121 -13.050  1.00  0.00     0.068 A 
ATOM     13  C   UNL     1       9.230  25.796 -12.704  1.00  0.00     0.162 A 
ATOM     14  C   UNL     1       6.595  26.567 -13.253  1.00  0.00     0.068 A 
ATOM     15  C   UNL     1       8.196  24.847 -12.638  1.00  0.00     0.200 A 
ATOM     16  C   UNL     1       6.874  25.237 -12.910  1.00  0.00     0.162 A 
BRANCH  13  17
ATOM     17  O   UNL     1      10.551  25.444 -12.425  1.00  0.00    -0.504 OA
ATOM     18  H   UNL     1      11.331  25.823 -12.948  1.00  0.00     0.293 HD
ENDBRANCH  13  17
BRANCH  15  19
ATOM     19  O   UNL     1       8.494  23.526 -12.297  1.00  0.00    -0.502 OA
ATOM     20  H   UNL     1       8.965  23.286 -11.433  1.00  0.00     0.293 HD
ENDBRANCH  15  19
BRANCH  16  21
ATOM     21  O   UNL     1       5.842  24.303 -12.839  1.00  0.00    -0.504 OA
ATOM     22  H   UNL     1       5.863  23.446 -13.380  1.00  0.00     0.293 HD
ENDBRANCH  16  21
ENDBRANCH   1  11
BRANCH  10  23
ATOM     23  O   UNL     1       6.266  28.280 -15.804  1.00  0.00    -0.500 OA
ATOM     24  H   UNL     1       5.316  28.229 -16.152  1.00  0.00     0.294 HD
ENDBRANCH  10  23
BRANCH   5  25
ATOM     25  O   UNL     1       7.850  34.380 -11.264  1.00  0.00    -0.507 OA
ATOM     26  H   UNL     1       7.235  35.145 -11.009  1.00  0.00     0.293 HD
ENDBRANCH   5  25
BRANCH   7  27
ATOM     27  O   UNL     1       5.918  33.498 -15.568  1.00  0.00    -0.507 OA
ATOM     28  H   UNL     1       5.445  32.941 -16.266  1.00  0.00     0.293 HD
ENDBRANCH   7  27
TORSDOF 7
ENDMDL
MODEL 3
REMARK VINA RESULT:    -7.154      1.948      7.151
REMARK INTER + INTRA:          -8.970
REMARK INTER:                  -8.622
REMARK INTRA:                  -0.348
REMARK UNBOUND:                -0.144
REMARK SMILES Oc1cc(O)c2cc(O)c(-c3cc(O)c(O)c(O)c3)[o+]c2c1
REMARK SMILES IDX 10 1 20 2 21 3 22 4 2 5 3 6 4 7 6 8 7 9 8 10 11 11 12 12
REMARK SMILES IDX 13 13 19 14 15 15 17 16 14 17 16 19 18 21 9 23 1 25 5 27
REMARK H PARENT 14 18 16 20 18 22 9 24 1 26 5 28
REMARK Flexibility Score: inf
ROOT
ATOM      1  C   UNL     1       7.485  29.305 -14.186  1.00  0.00     0.402 A 
ATOM      2  O   UNL     1       6.879  28.180 -13.817  1.00  0.00    -0.202 OA
ATOM      3  C   UNL     1       7.522  27.142 -13.293  1.00  0.00     0.368 A 
ATOM      4  C   UNL     1       6.798  26.002 -12.938  1.00  0.00     0.162 A 
ATOM      5  C   UNL     1       7.450  24.894 -12.388  1.00  0.00     0.128 A 
ATOM      6  C   UNL     1       8.833  24.927 -12.193  1.00  0.00     0.093 A 
ATOM      7  C   UNL     1       9.582  26.058 -12.542  1.00  0.00     0.136 A 
ATOM      8  C   UNL     1       8.924  27.186 -13.097  1.00  0.00     0.125 A 
ATOM      9  C   UNL     1       9.591  28.366 -13.463  1.00  0.00     0.078 A 
ATOM     10  C   UNL     1       8.874  29.439 -14.002  1.00  0.00     0.223 A 
ENDROOT
BRANCH   1  11
ATOM     11  C   UNL     1       6.659  30.388 -14.768  1.00  0.00     0.091 A 
ATOM     12  C   UNL     1       6.653  30.643 -16.149  1.00  0.00     0.068 A 
ATOM     13  C   UNL     1       5.849  31.656 -16.683  1.00  0.00     0.162 A 
ATOM     14  C   UNL     1       5.822  31.141 -13.930  1.00  0.00     0.068 A 
ATOM     15  C   UNL     1       5.030  32.422 -15.837  1.00  0.00     0.200 A 
ATOM     16  C   UNL     1       5.015  32.159 -14.456  1.00  0.00     0.162 A 
BRANCH  13  17
ATOM     17  O   UNL     1       5.875  31.882 -18.059  1.00  0.00    -0.504 OA
ATOM     18  H   UNL     1       5.940  31.125 -18.729  1.00  0.00     0.293 HD
ENDBRANCH  13  17
BRANCH  15  19
ATOM     19  O   UNL     1       4.235  33.434 -16.378  1.00  0.00    -0.502 OA
ATOM     20  H   UNL     1       3.950  34.243 -15.839  1.00  0.00     0.293 HD
ENDBRANCH  15  19
BRANCH  16  21
ATOM     21  O   UNL     1       4.199  32.910 -13.612  1.00  0.00    -0.504 OA
ATOM     22  H   UNL     1       4.551  33.719 -13.113  1.00  0.00     0.293 HD
ENDBRANCH  16  21
ENDBRANCH   1  11
BRANCH  10  23
ATOM     23  O   UNL     1       9.528  30.630 -14.319  1.00  0.00    -0.500 OA
ATOM     24  H   UNL     1       9.534  30.998 -15.263  1.00  0.00     0.294 HD
ENDBRANCH  10  23
BRANCH   5  25
ATOM     25  O   UNL     1       6.734  23.754 -12.031  1.00  0.00    -0.507 OA
ATOM     26  H   UNL     1       5.721  23.730 -12.069  1.00  0.00     0.293 HD
ENDBRANCH   5  25
BRANCH   7  27
ATOM     27  O   UNL     1      10.961  26.010 -12.319  1.00  0.00    -0.507 OA
ATOM     28  H   UNL     1      11.625  25.575 -12.943  1.00  0.00     0.293 HD
ENDBRANCH   7  27
TORSDOF 7
ENDMDL
MODEL 4
REMARK VINA RESULT:    -7.078      1.893      7.108
REMARK INTER + INTRA:          -8.877
REMARK INTER:                  -8.540
REMARK INTRA:                  -0.337
REMARK UNBOUND:                -0.144
REMARK SMILES Oc1cc(O)c2cc(O)c(-c3cc(O)c(O)c(O)c3)[o+]c2c1
REMARK SMILES IDX 10 1 20 2 21 3 22 4 2 5 3 6 4 7 6 8 7 9 8 10 11 11 12 12
REMARK SMILES IDX 13 13 19 14 15 15 17 16 14 17 16 19 18 21 9 23 1 25 5 27
REMARK H PARENT 14 18 16 20 18 22 9 24 1 26 5 28
REMARK Flexibility Score: inf
ROOT
ATOM      1  C   UNL     1       7.439  29.277 -14.150  1.00  0.00     0.402 A 
ATOM      2  O   UNL     1       6.827  28.166 -13.748  1.00  0.00    -0.202 OA
ATOM      3  C   UNL     1       7.468  27.126 -13.225  1.00  0.00     0.368 A 
ATOM      4  C   UNL     1       6.737  26.002 -12.834  1.00  0.00     0.162 A 
ATOM      5  C   UNL     1       7.387  24.893 -12.284  1.00  0.00     0.128 A 
ATOM      6  C   UNL     1       8.775  24.909 -12.125  1.00  0.00     0.093 A 
ATOM      7  C   UNL     1       9.530  26.024 -12.509  1.00  0.00     0.136 A 
ATOM      8  C   UNL     1       8.875  27.153 -13.065  1.00  0.00     0.125 A 
ATOM      9  C   UNL     1       9.550  28.318 -13.465  1.00  0.00     0.078 A 
ATOM     10  C   UNL     1       8.834  29.393 -14.002  1.00  0.00     0.223 A 
ENDROOT
BRANCH   1  11
ATOM     11  C   UNL     1       6.614  30.363 -14.727  1.00  0.00     0.091 A 
ATOM     12  C   UNL     1       5.876  31.235 -13.910  1.00  0.00     0.068 A 
ATOM     13  C   UNL     1       5.121  32.270 -14.472  1.00  0.00     0.162 A 
ATOM     14  C   UNL     1       6.613  30.563 -16.115  1.00  0.00     0.068 A 
ATOM     15  C   UNL     1       5.105  32.451 -15.865  1.00  0.00     0.200 A 
ATOM     16  C   UNL     1       5.858  31.596 -16.687  1.00  0.00     0.162 A 
BRANCH  13  17
ATOM     17  O   UNL     1       4.397  33.111 -13.628  1.00  0.00    -0.504 OA
ATOM     18  H   UNL     1       3.758  33.812 -13.984  1.00  0.00     0.293 HD
ENDBRANCH  13  17
BRANCH  15  19
ATOM     19  O   UNL     1       4.345  33.483 -16.417  1.00  0.00    -0.502 OA
ATOM     20  H   UNL     1       4.753  34.198 -17.008  1.00  0.00     0.293 HD
ENDBRANCH  15  19
BRANCH  16  21
ATOM     21  O   UNL     1       5.853  31.774 -18.070  1.00  0.00    -0.504 OA
ATOM     22  H   UNL     1       4.989  31.891 -18.588  1.00  0.00     0.293 HD
ENDBRANCH  16  21
ENDBRANCH   1  11
BRANCH  10  23
ATOM     23  O   UNL     1       9.497  30.569 -14.354  1.00  0.00    -0.500 OA
ATOM     24  H   UNL     1      10.491  30.687 -14.197  1.00  0.00     0.294 HD
ENDBRANCH  10  23
BRANCH   5  25
ATOM     25  O   UNL     1       6.664  23.769 -11.892  1.00  0.00    -0.507 OA
ATOM     26  H   UNL     1       7.105  22.999 -11.402  1.00  0.00     0.293 HD
ENDBRANCH   5  25
BRANCH   7  27
ATOM     27  O   UNL     1      10.914  25.959 -12.319  1.00  0.00    -0.507 OA
ATOM     28  H   UNL     1      11.447  25.101 -12.299  1.00  0.00     0.293 HD
ENDBRANCH   7  27
TORSDOF 7
ENDMDL
MODEL 5
REMARK VINA RESULT:    -6.984     10.043     12.867
REMARK INTER + INTRA:          -8.761
REMARK INTER:                  -8.386
REMARK INTRA:                  -0.375
REMARK UNBOUND:                -0.144
REMARK SMILES Oc1cc(O)c2cc(O)c(-c3cc(O)c(O)c(O)c3)[o+]c2c1
REMARK SMILES IDX 10 1 20 2 21 3 22 4 2 5 3 6 4 7 6 8 7 9 8 10 11 11 12 12
REMARK SMILES IDX 13 13 19 14 15 15 17 16 14 17 16 19 18 21 9 23 1 25 5 27
REMARK H PARENT 14 18 16 20 18 22 9 24 1 26 5 28
REMARK Flexibility Score: inf
ROOT
ATOM      1  C   UNL     1      -1.537  33.880 -18.107  1.00  0.00     0.402 A 
ATOM      2  O   UNL     1      -2.554  34.641 -17.713  1.00  0.00    -0.202 OA
ATOM      3  C   UNL     1      -3.718  34.150 -17.303  1.00  0.00     0.368 A 
ATOM      4  C   UNL     1      -4.728  35.031 -16.911  1.00  0.00     0.162 A 
ATOM      5  C   UNL     1      -5.964  34.542 -16.478  1.00  0.00     0.128 A 
ATOM      6  C   UNL     1      -6.190  33.164 -16.437  1.00  0.00     0.093 A 
ATOM      7  C   UNL     1      -5.194  32.259 -16.825  1.00  0.00     0.136 A 
ATOM      8  C   UNL     1      -3.938  32.752 -17.263  1.00  0.00     0.125 A 
ATOM      9  C   UNL     1      -2.877  31.919 -17.657  1.00  0.00     0.078 A 
ATOM     10  C   UNL     1      -1.665  32.478 -18.073  1.00  0.00     0.223 A 
ENDROOT
BRANCH   1  11
ATOM     11  C   UNL     1      -0.292  34.547 -18.553  1.00  0.00     0.091 A 
ATOM     12  C   UNL     1       0.711  34.913 -17.640  1.00  0.00     0.068 A 
ATOM     13  C   UNL     1       1.890  35.521 -18.083  1.00  0.00     0.162 A 
ATOM     14  C   UNL     1      -0.083  34.769 -19.922  1.00  0.00     0.068 A 
ATOM     15  C   UNL     1       2.084  35.762 -19.454  1.00  0.00     0.200 A 
ATOM     16  C   UNL     1       1.094  35.380 -20.375  1.00  0.00     0.162 A 
BRANCH  13  17
ATOM     17  O   UNL     1       2.859  35.875 -17.145  1.00  0.00    -0.504 OA
ATOM     18  H   UNL     1       3.616  35.252 -16.891  1.00  0.00     0.293 HD
ENDBRANCH  13  17
BRANCH  15  19
ATOM     19  O   UNL     1       3.262  36.374 -19.886  1.00  0.00    -0.502 OA
ATOM     20  H   UNL     1       3.266  37.087 -20.605  1.00  0.00     0.293 HD
ENDBRANCH  15  19
BRANCH  16  21
ATOM     21  O   UNL     1       1.284  35.609 -21.737  1.00  0.00    -0.504 OA
ATOM     22  H   UNL     1       1.573  36.514 -22.089  1.00  0.00     0.293 HD
ENDBRANCH  16  21
ENDBRANCH   1  11
BRANCH  10  23
ATOM     23  O   UNL     1      -0.594  31.652 -18.418  1.00  0.00    -0.500 OA
ATOM     24  H   UNL     1      -0.119  31.742 -19.308  1.00  0.00     0.294 HD
ENDBRANCH  10  23
BRANCH   5  25
ATOM     25  O   UNL     1      -6.976  35.415 -16.085  1.00  0.00    -0.507 OA
ATOM     26  H   UNL     1      -6.935  36.405 -16.301  1.00  0.00     0.293 HD
ENDBRANCH   5  25
BRANCH   7  27
ATOM     27  O   UNL     1      -5.501  30.897 -16.758  1.00  0.00    -0.507 OA
ATOM     28  H   UNL     1      -6.437  30.521 -16.802  1.00  0.00     0.293 HD
ENDBRANCH   7  27
TORSDOF 7
ENDMDL
MODEL 6
REMARK VINA RESULT:    -6.890      1.625      2.756
REMARK INTER + INTRA:          -8.645
REMARK INTER:                  -8.399
REMARK INTRA:                  -0.247
REMARK UNBOUND:                -0.144
REMARK SMILES Oc1cc(O)c2cc(O)c(-c3cc(O)c(O)c(O)c3)[o+]c2c1
REMARK SMILES IDX 10 1 20 2 21 3 22 4 2 5 3 6 4 7 6 8 7 9 8 10 11 11 12 12
REMARK SMILES IDX 13 13 19 14 15 15 17 16 14 17 16 19 18 21 9 23 1 25 5 27
REMARK H PARENT 14 18 16 20 18 22 9 24 1 26 5 28
REMARK Flexibility Score: inf
ROOT
ATOM      1  C   UNL     1       8.411  28.446 -13.566  1.00  0.00     0.402 A 
ATOM      2  O   UNL     1       7.332  28.919 -14.185  1.00  0.00    -0.202 OA
ATOM      3  C   UNL     1       7.027  30.211 -14.237  1.00  0.00     0.368 A 
ATOM      4  C   UNL     1       5.870  30.611 -14.909  1.00  0.00     0.162 A 
ATOM      5  C   UNL     1       5.523  31.964 -14.975  1.00  0.00     0.128 A 
ATOM      6  C   UNL     1       6.338  32.921 -14.367  1.00  0.00     0.093 A 
ATOM      7  C   UNL     1       7.503  32.546 -13.686  1.00  0.00     0.136 A 
ATOM      8  C   UNL     1       7.860  31.175 -13.618  1.00  0.00     0.125 A 
ATOM      9  C   UNL     1       9.016  30.709 -12.970  1.00  0.00     0.078 A 
ATOM     10  C   UNL     1       9.305  29.341 -12.948  1.00  0.00     0.223 A 
ENDROOT
BRANCH   1  11
ATOM     11  C   UNL     1       8.637  26.983 -13.569  1.00  0.00     0.091 A 
ATOM     12  C   UNL     1       7.775  26.107 -12.888  1.00  0.00     0.068 A 
ATOM     13  C   UNL     1       7.991  24.726 -12.921  1.00  0.00     0.162 A 
ATOM     14  C   UNL     1       9.701  26.452 -14.314  1.00  0.00     0.068 A 
ATOM     15  C   UNL     1       9.072  24.201 -13.649  1.00  0.00     0.200 A 
ATOM     16  C   UNL     1       9.926  25.069 -14.351  1.00  0.00     0.162 A 
BRANCH  13  17
ATOM     17  O   UNL     1       7.117  23.890 -12.227  1.00  0.00    -0.504 OA
ATOM     18  H   UNL     1       7.189  23.746 -11.227  1.00  0.00     0.293 HD
ENDBRANCH  13  17
BRANCH  15  19
ATOM     19  O   UNL     1       9.282  22.821 -13.672  1.00  0.00    -0.502 OA
ATOM     20  H   UNL     1       8.552  22.169 -13.930  1.00  0.00     0.293 HD
ENDBRANCH  15  19
BRANCH  16  21
ATOM     21  O   UNL     1      10.996  24.555 -15.082  1.00  0.00    -0.504 OA
ATOM     22  H   UNL     1      11.917  24.975 -15.042  1.00  0.00     0.293 HD
ENDBRANCH  16  21
ENDBRANCH   1  11
BRANCH  10  23
ATOM     23  O   UNL     1      10.478  28.882 -12.348  1.00  0.00    -0.500 OA
ATOM     24  H   UNL     1      10.744  27.905 -12.380  1.00  0.00     0.294 HD
ENDBRANCH  10  23
BRANCH   5  25
ATOM     25  O   UNL     1       4.370  32.369 -15.645  1.00  0.00    -0.507 OA
ATOM     26  H   UNL     1       4.417  32.910 -16.501  1.00  0.00     0.293 HD
ENDBRANCH   5  25
BRANCH   7  27
ATOM     27  O   UNL     1       8.262  33.564 -13.102  1.00  0.00    -0.507 OA
ATOM     28  H   UNL     1       9.267  33.633 -13.162  1.00  0.00     0.293 HD
ENDBRANCH   7  27
TORSDOF 7
ENDMDL
MODEL 7
REMARK VINA RESULT:    -6.882     11.180     13.696
REMARK INTER + INTRA:          -8.636
REMARK INTER:                  -8.469
REMARK INTRA:                  -0.167
REMARK UNBOUND:                -0.144
REMARK SMILES Oc1cc(O)c2cc(O)c(-c3cc(O)c(O)c(O)c3)[o+]c2c1
REMARK SMILES IDX 10 1 20 2 21 3 22 4 2 5 3 6 4 7 6 8 7 9 8 10 11 11 12 12
REMARK SMILES IDX 13 13 19 14 15 15 17 16 14 17 16 19 18 21 9 23 1 25 5 27
REMARK H PARENT 14 18 16 20 18 22 9 24 1 26 5 28
REMARK Flexibility Score: inf
ROOT
ATOM      1  C   UNL     1      -3.769  33.494 -17.801  1.00  0.00     0.402 A 
ATOM      2  O   UNL     1      -3.017  34.529 -17.433  1.00  0.00    -0.202 OA
ATOM      3  C   UNL     1      -1.751  34.680 -17.806  1.00  0.00     0.368 A 
ATOM      4  C   UNL     1      -1.042  35.800 -17.367  1.00  0.00     0.162 A 
ATOM      5  C   UNL     1       0.293  35.982 -17.741  1.00  0.00     0.128 A 
ATOM      6  C   UNL     1       0.921  35.040 -18.558  1.00  0.00     0.093 A 
ATOM      7  C   UNL     1       0.232  33.908 -19.011  1.00  0.00     0.136 A 
ATOM      8  C   UNL     1      -1.123  33.720 -18.636  1.00  0.00     0.125 A 
ATOM      9  C   UNL     1      -1.895  32.623 -19.055  1.00  0.00     0.078 A 
ATOM     10  C   UNL     1      -3.228  32.509 -18.647  1.00  0.00     0.223 A 
ENDROOT
BRANCH   1  11
ATOM     11  C   UNL     1      -5.165  33.433 -17.311  1.00  0.00     0.091 A 
ATOM     12  C   UNL     1      -5.643  32.321 -16.598  1.00  0.00     0.068 A 
ATOM     13  C   UNL     1      -6.958  32.291 -16.123  1.00  0.00     0.162 A 
ATOM     14  C   UNL     1      -6.015  34.531 -17.514  1.00  0.00     0.068 A 
ATOM     15  C   UNL     1      -7.813  33.383 -16.349  1.00  0.00     0.200 A 
ATOM     16  C   UNL     1      -7.335  34.508 -17.043  1.00  0.00     0.162 A 
BRANCH  13  17
ATOM     17  O   UNL     1      -7.397  31.166 -15.425  1.00  0.00    -0.504 OA
ATOM     18  H   UNL     1      -7.672  31.209 -14.451  1.00  0.00     0.293 HD
ENDBRANCH  13  17
BRANCH  15  19
ATOM     19  O   UNL     1      -9.125  33.341 -15.876  1.00  0.00    -0.502 OA
ATOM     20  H   UNL     1      -9.924  33.436 -16.492  1.00  0.00     0.293 HD
ENDBRANCH  15  19
BRANCH  16  21
ATOM     21  O   UNL     1      -8.174  35.599 -17.264  1.00  0.00    -0.504 OA
ATOM     22  H   UNL     1      -9.092  35.488 -17.681  1.00  0.00     0.293 HD
ENDBRANCH  16  21
ENDBRANCH   1  11
BRANCH  10  23
ATOM     23  O   UNL     1      -4.010  31.446 -19.102  1.00  0.00    -0.500 OA
ATOM     24  H   UNL     1      -4.041  31.190 -20.082  1.00  0.00     0.294 HD
ENDBRANCH  10  23
BRANCH   5  25
ATOM     25  O   UNL     1       1.006  37.098 -17.306  1.00  0.00    -0.507 OA
ATOM     26  H   UNL     1       1.797  37.458 -17.828  1.00  0.00     0.293 HD
ENDBRANCH   5  25
BRANCH   7  27
ATOM     27  O   UNL     1       0.933  33.011 -19.822  1.00  0.00    -0.507 OA
ATOM     28  H   UNL     1       0.678  32.043 -19.955  1.00  0.00     0.293 HD
ENDBRANCH   7  27
TORSDOF 7
ENDMDL
MODEL 8
REMARK VINA RESULT:    -6.845      1.623      3.175
REMARK INTER + INTRA:          -8.590
REMARK INTER:                  -8.342
REMARK INTRA:                  -0.247
REMARK UNBOUND:                -0.144
REMARK SMILES Oc1cc(O)c2cc(O)c(-c3cc(O)c(O)c(O)c3)[o+]c2c1
REMARK SMILES IDX 10 1 20 2 21 3 22 4 2 5 3 6 4 7 6 8 7 9 8 10 11 11 12 12
REMARK SMILES IDX 13 13 19 14 15 15 17 16 14 17 16 19 18 21 9 23 1 25 5 27
REMARK H PARENT 14 18 16 20 18 22 9 24 1 26 5 28
REMARK Flexibility Score: inf
ROOT
ATOM      1  C   UNL     1       8.382  28.421 -13.606  1.00  0.00     0.402 A 
ATOM      2  O   UNL     1       7.306  28.904 -14.222  1.00  0.00    -0.202 OA
ATOM      3  C   UNL     1       6.993  30.196 -14.241  1.00  0.00     0.368 A 
ATOM      4  C   UNL     1       5.840  30.606 -14.913  1.00  0.00     0.162 A 
ATOM      5  C   UNL     1       5.485  31.959 -14.946  1.00  0.00     0.128 A 
ATOM      6  C   UNL     1       6.288  32.903 -14.303  1.00  0.00     0.093 A 
ATOM      7  C   UNL     1       7.449  32.517 -13.622  1.00  0.00     0.136 A 
ATOM      8  C   UNL     1       7.814  31.147 -13.588  1.00  0.00     0.125 A 
ATOM      9  C   UNL     1       8.967  30.671 -12.942  1.00  0.00     0.078 A 
ATOM     10  C   UNL     1       9.264  29.304 -12.955  1.00  0.00     0.223 A 
ENDROOT
BRANCH   1  11
ATOM     11  C   UNL     1       8.617  26.960 -13.647  1.00  0.00     0.091 A 
ATOM     12  C   UNL     1       9.707  26.413 -14.344  1.00  0.00     0.068 A 
ATOM     13  C   UNL     1       9.926  25.032 -14.352  1.00  0.00     0.162 A 
ATOM     14  C   UNL     1       7.767  26.106 -12.929  1.00  0.00     0.068 A 
ATOM     15  C   UNL     1       9.058  24.178 -13.651  1.00  0.00     0.200 A 
ATOM     16  C   UNL     1       7.978  24.720 -12.934  1.00  0.00     0.162 A 
BRANCH  13  17
ATOM     17  O   UNL     1      11.016  24.526 -15.061  1.00  0.00    -0.504 OA
ATOM     18  H   UNL     1      11.968  24.627 -14.730  1.00  0.00     0.293 HD
ENDBRANCH  13  17
BRANCH  15  19
ATOM     19  O   UNL     1       9.282  22.800 -13.669  1.00  0.00    -0.502 OA
ATOM     20  H   UNL     1       9.692  22.331 -14.468  1.00  0.00     0.293 HD
ENDBRANCH  15  19
BRANCH  16  21
ATOM     21  O   UNL     1       7.117  23.880 -12.229  1.00  0.00    -0.504 OA
ATOM     22  H   UNL     1       6.852  24.074 -11.270  1.00  0.00     0.293 HD
ENDBRANCH  16  21
ENDBRANCH   1  11
BRANCH  10  23
ATOM     23  O   UNL     1      10.434  28.836 -12.356  1.00  0.00    -0.500 OA
ATOM     24  H   UNL     1      10.487  27.912 -11.943  1.00  0.00     0.294 HD
ENDBRANCH  10  23
BRANCH   5  25
ATOM     25  O   UNL     1       4.336  32.375 -15.615  1.00  0.00    -0.507 OA
ATOM     26  H   UNL     1       4.273  32.347 -16.627  1.00  0.00     0.293 HD
ENDBRANCH   5  25
BRANCH   7  27
ATOM     27  O   UNL     1       8.195  33.524 -13.002  1.00  0.00    -0.507 OA
ATOM     28  H   UNL     1       9.043  33.364 -12.477  1.00  0.00     0.293 HD
ENDBRANCH   7  27
TORSDOF 7
ENDMDL
MODEL 9
REMARK VINA RESULT:    -6.452     10.177     13.173
REMARK INTER + INTRA:          -8.104
REMARK INTER:                  -7.771
REMARK INTRA:                  -0.333
REMARK UNBOUND:                -0.144
REMARK SMILES Oc1cc(O)c2cc(O)c(-c3cc(O)c(O)c(O)c3)[o+]c2c1
REMARK SMILES IDX 10 1 20 2 21 3 22 4 2 5 3 6 4 7 6 8 7 9 8 10 11 11 12 12
REMARK SMILES IDX 13 13 19 14 15 15 17 16 14 17 16 19 18 21 9 23 1 25 5 27
REMARK H PARENT 14 18 16 20 18 22 9 24 1 26 5 28
REMARK Flexibility Score: inf
ROOT
ATOM      1  C   UNL     1      -2.318  34.577 -18.039  1.00  0.00     0.402 A 
ATOM      2  O   UNL     1      -2.868  33.459 -17.573  1.00  0.00    -0.202 OA
ATOM      3  C   UNL     1      -4.179  33.288 -17.444  1.00  0.00     0.368 A 
ATOM      4  C   UNL     1      -4.662  32.077 -16.942  1.00  0.00     0.162 A 
ATOM      5  C   UNL     1      -6.037  31.873 -16.792  1.00  0.00     0.128 A 
ATOM      6  C   UNL     1      -6.933  32.884 -17.145  1.00  0.00     0.093 A 
ATOM      7  C   UNL     1      -6.474  34.107 -17.650  1.00  0.00     0.136 A 
ATOM      8  C   UNL     1      -5.080  34.319 -17.807  1.00  0.00     0.125 A 
ATOM      9  C   UNL     1      -4.532  35.507 -18.317  1.00  0.00     0.078 A 
ATOM     10  C   UNL     1      -3.146  35.640 -18.446  1.00  0.00     0.223 A 
ENDROOT
BRANCH   1  11
ATOM     11  C   UNL     1      -0.842  34.650 -18.127  1.00  0.00     0.091 A 
ATOM     12  C   UNL     1      -0.139  34.031 -19.174  1.00  0.00     0.068 A 
ATOM     13  C   UNL     1       1.254  34.130 -19.253  1.00  0.00     0.162 A 
ATOM     14  C   UNL     1      -0.132  35.399 -17.177  1.00  0.00     0.068 A 
ATOM     15  C   UNL     1       1.963  34.862 -18.285  1.00  0.00     0.200 A 
ATOM     16  C   UNL     1       1.264  35.502 -17.247  1.00  0.00     0.162 A 
BRANCH  13  17
ATOM     17  O   UNL     1       1.916  33.496 -20.304  1.00  0.00    -0.504 OA
ATOM     18  H   UNL     1       2.743  32.929 -20.157  1.00  0.00     0.293 HD
ENDBRANCH  13  17
BRANCH  15  19
ATOM     19  O   UNL     1       3.353  34.951 -18.370  1.00  0.00    -0.502 OA
ATOM     20  H   UNL     1       3.917  34.210 -18.767  1.00  0.00     0.293 HD
ENDBRANCH  15  19
BRANCH  16  21
ATOM     21  O   UNL     1       1.960  36.237 -16.288  1.00  0.00    -0.504 OA
ATOM     22  H   UNL     1       2.481  35.784 -15.546  1.00  0.00     0.293 HD
ENDBRANCH  16  21
ENDBRANCH   1  11
BRANCH  10  23
ATOM     23  O   UNL     1      -2.603  36.801 -18.999  1.00  0.00    -0.500 OA
ATOM     24  H   UNL     1      -3.190  37.530 -19.387  1.00  0.00     0.294 HD
ENDBRANCH  10  23
BRANCH   5  25
ATOM     25  O   UNL     1      -6.524  30.667 -16.293  1.00  0.00    -0.507 OA
ATOM     26  H   UNL     1      -5.989  30.109 -15.637  1.00  0.00     0.293 HD
ENDBRANCH   5  25
BRANCH   7  27
ATOM     27  O   UNL     1      -7.436  35.069 -17.976  1.00  0.00    -0.507 OA
ATOM     28  H   UNL     1      -7.355  35.717 -18.746  1.00  0.00     0.293 HD
ENDBRANCH   7  27
TORSDOF 7
ENDMDL
