MODEL 1
REMARK VINA RESULT:    -4.821      0.000      0.000
REMARK INTER + INTRA:         -11.679
REMARK INTER:                 -10.458
REMARK INTRA:                  -1.221
REMARK UNBOUND:                -1.221
REMARK SMILES CCCCCCCCCCCCCCCCCCCCCC(=O)[O-]
REMARK SMILES IDX 12 1 11 2 10 3 9 4 8 5 7 6 6 7 5 8 4 9 3 10 2 11 1 12 13 13
REMARK SMILES IDX 14 14 15 15 16 16 17 17 18 18 19 19 20 20 21 21 22 22 23 23
REMARK SMILES IDX 24 24
REMARK H PARENT
REMARK Flexibility Score: inf
ROOT
ATOM      1  C   UNL     1      -2.507  11.640 -35.866  1.00  0.00     0.000 C 
ENDROOT
BRANCH   1   2
ATOM      2  C   UNL     1      -1.389  12.631 -36.253  1.00  0.00     0.000 C 
BRANCH   2   3
ATOM      3  C   UNL     1      -0.974  12.510 -37.728  1.00  0.00     0.000 C 
BRANCH   3   4
ATOM      4  C   UNL     1       0.518  12.182 -37.860  1.00  0.00    -0.000 C 
BRANCH   4   5
ATOM      5  C   UNL     1       0.724  10.701 -38.202  1.00  0.00    -0.000 C 
BRANCH   5   6
ATOM      6  C   UNL     1      -0.536  10.099 -38.835  1.00  0.00    -0.000 C 
BRANCH   6   7
ATOM      7  C   UNL     1      -0.601   8.582 -38.592  1.00  0.00    -0.000 C 
BRANCH   7   8
ATOM      8  C   UNL     1      -1.226   7.826 -39.783  1.00  0.00    -0.000 C 
BRANCH   8   9
ATOM      9  C   UNL     1      -0.284   7.689 -40.993  1.00  0.00    -0.000 C 
BRANCH   9  10
ATOM     10  C   UNL     1       0.283   6.272 -41.152  1.00  0.00    -0.000 C 
BRANCH  10  11
ATOM     11  C   UNL     1       1.449   6.253 -42.147  1.00  0.00    -0.003 C 
ATOM     12  C   UNL     1       2.554   5.308 -41.688  1.00  0.00     0.004 C 
ENDBRANCH  10  11
ENDBRANCH   9  10
ENDBRANCH   8   9
ENDBRANCH   7   8
ENDBRANCH   6   7
ENDBRANCH   5   6
ENDBRANCH   4   5
ENDBRANCH   3   4
ENDBRANCH   2   3
ENDBRANCH   1   2
BRANCH   1  13
ATOM     13  C   UNL     1      -2.705  10.493 -36.875  1.00  0.00     0.000 C 
BRANCH  13  14
ATOM     14  C   UNL     1      -4.043   9.738 -36.760  1.00  0.00     0.000 C 
BRANCH  14  15
ATOM     15  C   UNL     1      -4.314   8.716 -37.879  1.00  0.00     0.000 C 
BRANCH  15  16
ATOM     16  C   UNL     1      -4.384   9.358 -39.275  1.00  0.00     0.000 C 
BRANCH  16  17
ATOM     17  C   UNL     1      -5.828   9.591 -39.750  1.00  0.00     0.000 C 
BRANCH  17  18
ATOM     18  C   UNL     1      -6.815   8.566 -39.160  1.00  0.00     0.000 C 
BRANCH  18  19
ATOM     19  C   UNL     1      -7.325   7.570 -40.213  1.00  0.00     0.000 C 
BRANCH  19  20
ATOM     20  C   UNL     1      -7.126   6.105 -39.783  1.00  0.00     0.006 C 
BRANCH  20  21
ATOM     21  C   UNL     1      -8.427   5.294 -39.873  1.00  0.00     0.053 C 
BRANCH  21  22
ATOM     22  C   UNL     1      -8.530   4.546 -41.167  1.00  0.00     0.041 C 
ATOM     23  O   UNL     1      -9.079   3.413 -41.204  1.00  0.00    -0.550 OA
ATOM     24  O   UNL     1      -7.988   5.086 -42.328  1.00  0.00    -0.550 OA
ENDBRANCH  21  22
ENDBRANCH  20  21
ENDBRANCH  19  20
ENDBRANCH  18  19
ENDBRANCH  17  18
ENDBRANCH  16  17
ENDBRANCH  15  16
ENDBRANCH  14  15
ENDBRANCH  13  14
ENDBRANCH   1  13
TORSDOF 20
ENDMDL
MODEL 2
REMARK VINA RESULT:    -4.635      1.843      2.495
REMARK INTER + INTRA:         -11.274
REMARK INTER:                  -9.766
REMARK INTRA:                  -1.508
REMARK UNBOUND:                -1.221
REMARK SMILES CCCCCCCCCCCCCCCCCCCCCC(=O)[O-]
REMARK SMILES IDX 12 1 11 2 10 3 9 4 8 5 7 6 6 7 5 8 4 9 3 10 2 11 1 12 13 13
REMARK SMILES IDX 14 14 15 15 16 16 17 17 18 18 19 19 20 20 21 21 22 22 23 23
REMARK SMILES IDX 24 24
REMARK H PARENT
REMARK Flexibility Score: inf
ROOT
ATOM      1  C   UNL     1      -0.443  11.522 -37.675  1.00  0.00     0.000 C 
ENDROOT
BRANCH   1   2
ATOM      2  C   UNL     1       0.734  12.456 -38.030  1.00  0.00     0.000 C 
BRANCH   2   3
ATOM      3  C   UNL     1       1.569  11.933 -39.209  1.00  0.00     0.000 C 
BRANCH   3   4
ATOM      4  C   UNL     1       2.038  13.083 -40.110  1.00  0.00    -0.000 C 
BRANCH   4   5
ATOM      5  C   UNL     1       2.880  12.553 -41.278  1.00  0.00    -0.000 C 
BRANCH   5   6
ATOM      6  C   UNL     1       2.751  11.031 -41.407  1.00  0.00    -0.000 C 
BRANCH   6   7
ATOM      7  C   UNL     1       1.886  10.654 -42.620  1.00  0.00    -0.000 C 
BRANCH   7   8
ATOM      8  C   UNL     1       1.699   9.128 -42.754  1.00  0.00    -0.000 C 
BRANCH   8   9
ATOM      9  C   UNL     1       0.747   8.527 -41.705  1.00  0.00    -0.000 C 
BRANCH   9  10
ATOM     10  C   UNL     1       0.157   7.177 -42.137  1.00  0.00    -0.000 C 
BRANCH  10  11
ATOM     11  C   UNL     1       0.817   6.020 -41.378  1.00  0.00    -0.003 C 
ATOM     12  C   UNL     1       2.170   5.661 -41.984  1.00  0.00     0.004 C 
ENDBRANCH  10  11
ENDBRANCH   9  10
ENDBRANCH   8   9
ENDBRANCH   7   8
ENDBRANCH   6   7
ENDBRANCH   5   6
ENDBRANCH   4   5
ENDBRANCH   3   4
ENDBRANCH   2   3
ENDBRANCH   1   2
BRANCH   1  13
ATOM     13  C   UNL     1      -0.525  10.256 -38.548  1.00  0.00     0.000 C 
BRANCH  13  14
ATOM     14  C   UNL     1      -1.661   9.281 -38.189  1.00  0.00     0.000 C 
BRANCH  14  15
ATOM     15  C   UNL     1      -2.372   8.634 -39.393  1.00  0.00     0.000 C 
BRANCH  15  16
ATOM     16  C   UNL     1      -3.687   9.341 -39.763  1.00  0.00     0.000 C 
BRANCH  16  17
ATOM     17  C   UNL     1      -4.858   8.928 -38.857  1.00  0.00     0.000 C 
BRANCH  17  18
ATOM     18  C   UNL     1      -6.228   9.271 -39.470  1.00  0.00     0.000 C 
BRANCH  18  19
ATOM     19  C   UNL     1      -7.266   8.159 -39.245  1.00  0.00     0.000 C 
BRANCH  19  20
ATOM     20  C   UNL     1      -7.355   7.188 -40.437  1.00  0.00     0.006 C 
BRANCH  20  21
ATOM     21  C   UNL     1      -7.700   5.759 -39.993  1.00  0.00     0.053 C 
BRANCH  21  22
ATOM     22  C   UNL     1      -8.134   4.906 -41.145  1.00  0.00     0.041 C 
ATOM     23  O   UNL     1      -8.811   3.863 -40.944  1.00  0.00    -0.550 OA
ATOM     24  O   UNL     1      -7.762   5.245 -42.441  1.00  0.00    -0.550 OA
ENDBRANCH  21  22
ENDBRANCH  20  21
ENDBRANCH  19  20
ENDBRANCH  18  19
ENDBRANCH  17  18
ENDBRANCH  16  17
ENDBRANCH  15  16
ENDBRANCH  14  15
ENDBRANCH  13  14
ENDBRANCH   1  13
TORSDOF 20
ENDMDL
MODEL 3
REMARK VINA RESULT:    -4.288      0.860      1.616
REMARK INTER + INTRA:         -10.522
REMARK INTER:                  -9.120
REMARK INTRA:                  -1.402
REMARK UNBOUND:                -1.221
REMARK SMILES CCCCCCCCCCCCCCCCCCCCCC(=O)[O-]
REMARK SMILES IDX 12 1 11 2 10 3 9 4 8 5 7 6 6 7 5 8 4 9 3 10 2 11 1 12 13 13
REMARK SMILES IDX 14 14 15 15 16 16 17 17 18 18 19 19 20 20 21 21 22 22 23 23
REMARK SMILES IDX 24 24
REMARK H PARENT
REMARK Flexibility Score: inf
ROOT
ATOM      1  C   UNL     1      -1.755  12.912 -36.571  1.00  0.00     0.000 C 
ENDROOT
BRANCH   1   2
ATOM      2  C   UNL     1      -0.225  12.718 -36.526  1.00  0.00     0.000 C 
BRANCH   2   3
ATOM      3  C   UNL     1       0.372  12.395 -37.904  1.00  0.00     0.000 C 
BRANCH   3   4
ATOM      4  C   UNL     1       0.584  10.886 -38.079  1.00  0.00    -0.000 C 
BRANCH   4   5
ATOM      5  C   UNL     1      -0.551  10.268 -38.905  1.00  0.00    -0.000 C 
BRANCH   5   6
ATOM      6  C   UNL     1      -0.580   8.743 -38.749  1.00  0.00    -0.000 C 
BRANCH   6   7
ATOM      7  C   UNL     1      -0.825   8.058 -40.104  1.00  0.00    -0.000 C 
BRANCH   7   8
ATOM      8  C   UNL     1      -0.958   6.526 -39.968  1.00  0.00    -0.000 C 
BRANCH   8   9
ATOM      9  C   UNL     1      -0.060   5.738 -40.938  1.00  0.00    -0.000 C 
BRANCH   9  10
ATOM     10  C   UNL     1       0.664   6.639 -41.948  1.00  0.00    -0.000 C 
BRANCH  10  11
ATOM     11  C   UNL     1       1.806   5.885 -42.639  1.00  0.00    -0.003 C 
ATOM     12  C   UNL     1       2.817   5.360 -41.623  1.00  0.00     0.004 C 
ENDBRANCH  10  11
ENDBRANCH   9  10
ENDBRANCH   8   9
ENDBRANCH   7   8
ENDBRANCH   6   7
ENDBRANCH   5   6
ENDBRANCH   4   5
ENDBRANCH   3   4
ENDBRANCH   2   3
ENDBRANCH   1   2
BRANCH   1  13
ATOM     13  C   UNL     1      -2.552  11.774 -35.906  1.00  0.00     0.000 C 
BRANCH  13  14
ATOM     14  C   UNL     1      -2.568  10.441 -36.678  1.00  0.00     0.000 C 
BRANCH  14  15
ATOM     15  C   UNL     1      -3.941   9.750 -36.758  1.00  0.00     0.000 C 
BRANCH  15  16
ATOM     16  C   UNL     1      -4.061   8.790 -37.954  1.00  0.00     0.000 C 
BRANCH  16  17
ATOM     17  C   UNL     1      -4.137   9.527 -39.301  1.00  0.00     0.000 C 
BRANCH  17  18
ATOM     18  C   UNL     1      -5.374   9.124 -40.125  1.00  0.00     0.000 C 
BRANCH  18  19
ATOM     19  C   UNL     1      -6.626   8.940 -39.252  1.00  0.00     0.000 C 
BRANCH  19  20
ATOM     20  C   UNL     1      -7.295   7.570 -39.464  1.00  0.00     0.006 C 
BRANCH  20  21
ATOM     21  C   UNL     1      -7.307   7.157 -40.943  1.00  0.00     0.053 C 
BRANCH  21  22
ATOM     22  C   UNL     1      -7.797   5.752 -41.127  1.00  0.00     0.041 C 
ATOM     23  O   UNL     1      -7.912   5.266 -42.283  1.00  0.00    -0.550 OA
ATOM     24  O   UNL     1      -8.158   4.992 -40.021  1.00  0.00    -0.550 OA
ENDBRANCH  21  22
ENDBRANCH  20  21
ENDBRANCH  19  20
ENDBRANCH  18  19
ENDBRANCH  17  18
ENDBRANCH  16  17
ENDBRANCH  15  16
ENDBRANCH  14  15
ENDBRANCH  13  14
ENDBRANCH   1  13
TORSDOF 20
ENDMDL
MODEL 4
REMARK VINA RESULT:    -4.123      3.216      7.416
REMARK INTER + INTRA:         -10.165
REMARK INTER:                  -8.653
REMARK INTRA:                  -1.512
REMARK UNBOUND:                -1.221
REMARK SMILES CCCCCCCCCCCCCCCCCCCCCC(=O)[O-]
REMARK SMILES IDX 12 1 11 2 10 3 9 4 8 5 7 6 6 7 5 8 4 9 3 10 2 11 1 12 13 13
REMARK SMILES IDX 14 14 15 15 16 16 17 17 18 18 19 19 20 20 21 21 22 22 23 23
REMARK SMILES IDX 24 24
REMARK H PARENT
REMARK Flexibility Score: inf
ROOT
ATOM      1  C   UNL     1      -0.993  11.989 -37.716  1.00  0.00     0.000 C 
ENDROOT
BRANCH   1   2
ATOM      2  C   UNL     1      -1.542  10.546 -37.731  1.00  0.00     0.000 C 
BRANCH   2   3
ATOM      3  C   UNL     1      -0.687   9.596 -38.584  1.00  0.00     0.000 C 
BRANCH   3   4
ATOM      4  C   UNL     1      -1.558   8.551 -39.291  1.00  0.00    -0.000 C 
BRANCH   4   5
ATOM      5  C   UNL     1      -3.044   8.784 -38.992  1.00  0.00    -0.000 C 
BRANCH   5   6
ATOM      6  C   UNL     1      -3.768   9.370 -40.210  1.00  0.00    -0.000 C 
BRANCH   6   7
ATOM      7  C   UNL     1      -5.238   9.676 -39.880  1.00  0.00    -0.000 C 
BRANCH   7   8
ATOM      8  C   UNL     1      -5.883   8.575 -39.012  1.00  0.00    -0.000 C 
BRANCH   8   9
ATOM      9  C   UNL     1      -7.310   8.197 -39.449  1.00  0.00    -0.000 C 
BRANCH   9  10
ATOM     10  C   UNL     1      -7.346   6.982 -40.385  1.00  0.00    -0.000 C 
BRANCH  10  11
ATOM     11  C   UNL     1      -8.266   5.887 -39.831  1.00  0.00    -0.003 C 
ATOM     12  C   UNL     1      -8.337   4.693 -40.778  1.00  0.00     0.004 C 
ENDBRANCH  10  11
ENDBRANCH   9  10
ENDBRANCH   8   9
ENDBRANCH   7   8
ENDBRANCH   6   7
ENDBRANCH   5   6
ENDBRANCH   4   5
ENDBRANCH   3   4
ENDBRANCH   2   3
ENDBRANCH   1   2
BRANCH   1  13
ATOM     13  C   UNL     1       0.540  12.075 -37.593  1.00  0.00     0.000 C 
BRANCH  13  14
ATOM     14  C   UNL     1       1.268  12.658 -38.819  1.00  0.00     0.000 C 
BRANCH  14  15
ATOM     15  C   UNL     1       1.892  11.615 -39.765  1.00  0.00     0.000 C 
BRANCH  15  16
ATOM     16  C   UNL     1       2.531  12.245 -41.014  1.00  0.00     0.000 C 
BRANCH  16  17
ATOM     17  C   UNL     1       2.888  11.202 -42.087  1.00  0.00     0.000 C 
BRANCH  17  18
ATOM     18  C   UNL     1       1.669  10.373 -42.532  1.00  0.00     0.000 C 
BRANCH  18  19
ATOM     19  C   UNL     1       1.889   8.863 -42.348  1.00  0.00     0.000 C 
BRANCH  19  20
ATOM     20  C   UNL     1       0.591   8.121 -41.976  1.00  0.00     0.006 C 
BRANCH  20  21
ATOM     21  C   UNL     1       0.527   6.721 -42.601  1.00  0.00     0.053 C 
BRANCH  21  22
ATOM     22  C   UNL     1       0.955   5.658 -41.635  1.00  0.00     0.041 C 
ATOM     23  O   UNL     1       0.097   5.032 -40.959  1.00  0.00    -0.550 OA
ATOM     24  O   UNL     1       2.306   5.382 -41.458  1.00  0.00    -0.550 OA
ENDBRANCH  21  22
ENDBRANCH  20  21
ENDBRANCH  19  20
ENDBRANCH  18  19
ENDBRANCH  17  18
ENDBRANCH  16  17
ENDBRANCH  15  16
ENDBRANCH  14  15
ENDBRANCH  13  14
ENDBRANCH   1  13
TORSDOF 20
ENDMDL
MODEL 5
REMARK VINA RESULT:    -4.093      3.220      7.692
REMARK INTER + INTRA:         -10.099
REMARK INTER:                  -8.525
REMARK INTRA:                  -1.574
REMARK UNBOUND:                -1.221
REMARK SMILES CCCCCCCCCCCCCCCCCCCCCC(=O)[O-]
REMARK SMILES IDX 12 1 11 2 10 3 9 4 8 5 7 6 6 7 5 8 4 9 3 10 2 11 1 12 13 13
REMARK SMILES IDX 14 14 15 15 16 16 17 17 18 18 19 19 20 20 21 21 22 22 23 23
REMARK SMILES IDX 24 24
REMARK H PARENT
REMARK Flexibility Score: inf
ROOT
ATOM      1  C   UNL     1      -1.011  10.952 -37.960  1.00  0.00     0.000 C 
ENDROOT
BRANCH   1   2
ATOM      2  C   UNL     1      -0.667   9.595 -38.610  1.00  0.00     0.000 C 
BRANCH   2   3
ATOM      3  C   UNL     1      -1.873   8.953 -39.314  1.00  0.00     0.000 C 
BRANCH   3   4
ATOM      4  C   UNL     1      -3.156   9.134 -38.494  1.00  0.00    -0.000 C 
BRANCH   4   5
ATOM      5  C   UNL     1      -4.397   8.987 -39.383  1.00  0.00    -0.000 C 
BRANCH   5   6
ATOM      6  C   UNL     1      -5.667   8.833 -38.538  1.00  0.00    -0.000 C 
BRANCH   6   7
ATOM      7  C   UNL     1      -6.919   8.799 -39.430  1.00  0.00    -0.000 C 
BRANCH   7   8
ATOM      8  C   UNL     1      -7.381   7.358 -39.733  1.00  0.00    -0.000 C 
BRANCH   8   9
ATOM      9  C   UNL     1      -7.296   6.981 -41.223  1.00  0.00    -0.000 C 
BRANCH   9  10
ATOM     10  C   UNL     1      -7.886   5.596 -41.524  1.00  0.00    -0.000 C 
BRANCH  10  11
ATOM     11  C   UNL     1      -8.300   4.882 -40.232  1.00  0.00    -0.003 C 
ATOM     12  C   UNL     1      -9.291   3.757 -40.514  1.00  0.00     0.004 C 
ENDBRANCH  10  11
ENDBRANCH   9  10
ENDBRANCH   8   9
ENDBRANCH   7   8
ENDBRANCH   6   7
ENDBRANCH   5   6
ENDBRANCH   4   5
ENDBRANCH   3   4
ENDBRANCH   2   3
ENDBRANCH   1   2
BRANCH   1  13
ATOM     13  C   UNL     1       0.151  11.962 -37.964  1.00  0.00     0.000 C 
BRANCH  13  14
ATOM     14  C   UNL     1       1.456  11.463 -38.610  1.00  0.00     0.000 C 
BRANCH  14  15
ATOM     15  C   UNL     1       1.760  12.045 -40.003  1.00  0.00     0.000 C 
BRANCH  15  16
ATOM     16  C   UNL     1       2.751  11.188 -40.808  1.00  0.00     0.000 C 
BRANCH  16  17
ATOM     17  C   UNL     1       2.486  11.240 -42.322  1.00  0.00     0.000 C 
BRANCH  17  18
ATOM     18  C   UNL     1       1.533  10.126 -42.793  1.00  0.00     0.000 C 
BRANCH  18  19
ATOM     19  C   UNL     1       1.650   8.854 -41.936  1.00  0.00     0.000 C 
BRANCH  19  20
ATOM     20  C   UNL     1       0.395   7.966 -42.029  1.00  0.00     0.006 C 
BRANCH  20  21
ATOM     21  C   UNL     1       0.699   6.602 -42.664  1.00  0.00     0.053 C 
BRANCH  21  22
ATOM     22  C   UNL     1       1.096   5.584 -41.637  1.00  0.00     0.041 C 
ATOM     23  O   UNL     1       2.313   5.349 -41.414  1.00  0.00    -0.550 OA
ATOM     24  O   UNL     1       0.119   4.873 -40.951  1.00  0.00    -0.550 OA
ENDBRANCH  21  22
ENDBRANCH  20  21
ENDBRANCH  19  20
ENDBRANCH  18  19
ENDBRANCH  17  18
ENDBRANCH  16  17
ENDBRANCH  15  16
ENDBRANCH  14  15
ENDBRANCH  13  14
ENDBRANCH   1  13
TORSDOF 20
ENDMDL
MODEL 6
REMARK VINA RESULT:    -4.092      3.991      7.446
REMARK INTER + INTRA:         -10.097
REMARK INTER:                  -8.899
REMARK INTRA:                  -1.198
REMARK UNBOUND:                -1.221
REMARK SMILES CCCCCCCCCCCCCCCCCCCCCC(=O)[O-]
REMARK SMILES IDX 12 1 11 2 10 3 9 4 8 5 7 6 6 7 5 8 4 9 3 10 2 11 1 12 13 13
REMARK SMILES IDX 14 14 15 15 16 16 17 17 18 18 19 19 20 20 21 21 22 22 23 23
REMARK SMILES IDX 24 24
REMARK H PARENT
REMARK Flexibility Score: inf
ROOT
ATOM      1  C   UNL     1       0.538  12.247 -37.491  1.00  0.00     0.000 C 
ENDROOT
BRANCH   1   2
ATOM      2  C   UNL     1      -0.858  12.899 -37.580  1.00  0.00     0.000 C 
BRANCH   2   3
ATOM      3  C   UNL     1      -1.488  13.142 -36.200  1.00  0.00     0.000 C 
BRANCH   3   4
ATOM      4  C   UNL     1      -2.231  11.897 -35.701  1.00  0.00    -0.000 C 
BRANCH   4   5
ATOM      5  C   UNL     1      -2.850  11.125 -36.871  1.00  0.00    -0.000 C 
BRANCH   5   6
ATOM      6  C   UNL     1      -3.405   9.772 -36.410  1.00  0.00    -0.000 C 
BRANCH   6   7
ATOM      7  C   UNL     1      -4.631   9.367 -37.246  1.00  0.00    -0.000 C 
BRANCH   7   8
ATOM      8  C   UNL     1      -4.250   8.977 -38.690  1.00  0.00    -0.000 C 
BRANCH   8   9
ATOM      9  C   UNL     1      -5.273   9.432 -39.745  1.00  0.00    -0.000 C 
BRANCH   9  10
ATOM     10  C   UNL     1      -6.715   9.051 -39.382  1.00  0.00    -0.000 C 
BRANCH  10  11
ATOM     11  C   UNL     1      -6.889   7.528 -39.346  1.00  0.00    -0.003 C 
ATOM     12  C   UNL     1      -7.452   7.003 -40.663  1.00  0.00     0.004 C 
ENDBRANCH  10  11
ENDBRANCH   9  10
ENDBRANCH   8   9
ENDBRANCH   7   8
ENDBRANCH   6   7
ENDBRANCH   5   6
ENDBRANCH   4   5
ENDBRANCH   3   4
ENDBRANCH   2   3
ENDBRANCH   1   2
BRANCH   1  13
ATOM     13  C   UNL     1       0.680  10.952 -38.314  1.00  0.00     0.000 C 
BRANCH  13  14
ATOM     14  C   UNL     1      -0.644  10.261 -38.689  1.00  0.00     0.000 C 
BRANCH  14  15
ATOM     15  C   UNL     1      -0.646   8.729 -38.539  1.00  0.00     0.000 C 
BRANCH  15  16
ATOM     16  C   UNL     1      -1.338   8.012 -39.711  1.00  0.00     0.000 C 
BRANCH  16  17
ATOM     17  C   UNL     1      -0.431   6.968 -40.385  1.00  0.00     0.000 C 
BRANCH  17  18
ATOM     18  C   UNL     1       0.085   7.436 -41.759  1.00  0.00     0.000 C 
BRANCH  18  19
ATOM     19  C   UNL     1       0.694   6.286 -42.578  1.00  0.00     0.000 C 
BRANCH  19  20
ATOM     20  C   UNL     1       2.228   6.227 -42.458  1.00  0.00     0.006 C 
BRANCH  20  21
ATOM     21  C   UNL     1       2.691   5.107 -41.516  1.00  0.00     0.053 C 
BRANCH  21  22
ATOM     22  C   UNL     1       4.178   5.111 -41.332  1.00  0.00     0.041 C 
ATOM     23  O   UNL     1       4.801   6.200 -41.224  1.00  0.00    -0.550 OA
ATOM     24  O   UNL     1       4.880   3.912 -41.312  1.00  0.00    -0.550 OA
ENDBRANCH  21  22
ENDBRANCH  20  21
ENDBRANCH  19  20
ENDBRANCH  18  19
ENDBRANCH  17  18
ENDBRANCH  16  17
ENDBRANCH  15  16
ENDBRANCH  14  15
ENDBRANCH  13  14
ENDBRANCH   1  13
TORSDOF 20
ENDMDL
MODEL 7
REMARK VINA RESULT:    -4.028      2.654      3.893
REMARK INTER + INTRA:          -9.958
REMARK INTER:                  -8.056
REMARK INTRA:                  -1.902
REMARK UNBOUND:                -1.221
REMARK SMILES CCCCCCCCCCCCCCCCCCCCCC(=O)[O-]
REMARK SMILES IDX 12 1 11 2 10 3 9 4 8 5 7 6 6 7 5 8 4 9 3 10 2 11 1 12 13 13
REMARK SMILES IDX 14 14 15 15 16 16 17 17 18 18 19 19 20 20 21 21 22 22 23 23
REMARK SMILES IDX 24 24
REMARK H PARENT
REMARK Flexibility Score: inf
ROOT
ATOM      1  C   UNL     1       0.658  12.591 -37.939  1.00  0.00     0.000 C 
ENDROOT
BRANCH   1   2
ATOM      2  C   UNL     1       1.501  11.961 -39.067  1.00  0.00     0.000 C 
BRANCH   2   3
ATOM      3  C   UNL     1       1.986  12.997 -40.093  1.00  0.00     0.000 C 
BRANCH   3   4
ATOM      4  C   UNL     1       2.866  12.345 -41.167  1.00  0.00    -0.000 C 
BRANCH   4   5
ATOM      5  C   UNL     1       2.442  10.892 -41.413  1.00  0.00    -0.000 C 
BRANCH   5   6
ATOM      6  C   UNL     1       2.117  10.654 -42.893  1.00  0.00    -0.000 C 
BRANCH   6   7
ATOM      7  C   UNL     1       1.284   9.374 -43.073  1.00  0.00    -0.000 C 
BRANCH   7   8
ATOM      8  C   UNL     1       1.268   8.503 -41.798  1.00  0.00    -0.000 C 
BRANCH   8   9
ATOM      9  C   UNL     1       0.232   7.366 -41.839  1.00  0.00    -0.000 C 
BRANCH   9  10
ATOM     10  C   UNL     1       0.850   5.986 -41.573  1.00  0.00    -0.000 C 
BRANCH  10  11
ATOM     11  C   UNL     1       2.122   5.783 -42.404  1.00  0.00    -0.003 C 
ATOM     12  C   UNL     1       3.270   5.267 -41.541  1.00  0.00     0.004 C 
ENDBRANCH  10  11
ENDBRANCH   9  10
ENDBRANCH   8   9
ENDBRANCH   7   8
ENDBRANCH   6   7
ENDBRANCH   5   6
ENDBRANCH   4   5
ENDBRANCH   3   4
ENDBRANCH   2   3
ENDBRANCH   1   2
BRANCH   1  13
ATOM     13  C   UNL     1      -0.473  11.683 -37.418  1.00  0.00     0.000 C 
BRANCH  13  14
ATOM     14  C   UNL     1      -1.083  10.727 -38.460  1.00  0.00     0.000 C 
BRANCH  14  15
ATOM     15  C   UNL     1      -0.754   9.238 -38.251  1.00  0.00     0.000 C 
BRANCH  15  16
ATOM     16  C   UNL     1      -1.758   8.299 -38.941  1.00  0.00     0.000 C 
BRANCH  16  17
ATOM     17  C   UNL     1      -2.485   8.970 -40.118  1.00  0.00     0.000 C 
BRANCH  17  18
ATOM     18  C   UNL     1      -3.983   9.187 -39.840  1.00  0.00     0.000 C 
BRANCH  18  19
ATOM     19  C   UNL     1      -4.340   8.980 -38.359  1.00  0.00     0.000 C 
BRANCH  19  20
ATOM     20  C   UNL     1      -5.740   8.364 -38.172  1.00  0.00     0.006 C 
BRANCH  20  21
ATOM     21  C   UNL     1      -6.634   8.581 -39.401  1.00  0.00     0.053 C 
BRANCH  21  22
ATOM     22  C   UNL     1      -7.284   9.930 -39.388  1.00  0.00     0.041 C 
ATOM     23  O   UNL     1      -8.231  10.171 -38.592  1.00  0.00    -0.550 OA
ATOM     24  O   UNL     1      -6.866  10.913 -40.278  1.00  0.00    -0.550 OA
ENDBRANCH  21  22
ENDBRANCH  20  21
ENDBRANCH  19  20
ENDBRANCH  18  19
ENDBRANCH  17  18
ENDBRANCH  16  17
ENDBRANCH  15  16
ENDBRANCH  14  15
ENDBRANCH  13  14
ENDBRANCH   1  13
TORSDOF 20
ENDMDL
MODEL 8
REMARK VINA RESULT:    -3.957      3.898      8.405
REMARK INTER + INTRA:          -9.805
REMARK INTER:                  -7.871
REMARK INTRA:                  -1.934
REMARK UNBOUND:                -1.221
REMARK SMILES CCCCCCCCCCCCCCCCCCCCCC(=O)[O-]
REMARK SMILES IDX 12 1 11 2 10 3 9 4 8 5 7 6 6 7 5 8 4 9 3 10 2 11 1 12 13 13
REMARK SMILES IDX 14 14 15 15 16 16 17 17 18 18 19 19 20 20 21 21 22 22 23 23
REMARK SMILES IDX 24 24
REMARK H PARENT
REMARK Flexibility Score: inf
ROOT
ATOM      1  C   UNL     1      -0.966   7.166 -40.242  1.00  0.00     0.000 C 
ENDROOT
BRANCH   1   2
ATOM      2  C   UNL     1      -0.713   8.253 -39.175  1.00  0.00     0.000 C 
BRANCH   2   3
ATOM      3  C   UNL     1      -1.997   8.988 -38.761  1.00  0.00     0.000 C 
BRANCH   3   4
ATOM      4  C   UNL     1      -2.775   9.479 -39.988  1.00  0.00    -0.000 C 
BRANCH   4   5
ATOM      5  C   UNL     1      -4.272   9.177 -39.844  1.00  0.00    -0.000 C 
BRANCH   5   6
ATOM      6  C   UNL     1      -4.651   8.950 -38.376  1.00  0.00    -0.000 C 
BRANCH   6   7
ATOM      7  C   UNL     1      -6.131   8.556 -38.246  1.00  0.00    -0.000 C 
BRANCH   7   8
ATOM      8  C   UNL     1      -6.952   8.947 -39.494  1.00  0.00    -0.000 C 
BRANCH   8   9
ATOM      9  C   UNL     1      -7.496   7.741 -40.280  1.00  0.00    -0.000 C 
BRANCH   9  10
ATOM     10  C   UNL     1      -7.367   6.419 -39.511  1.00  0.00    -0.000 C 
BRANCH  10  11
ATOM     11  C   UNL     1      -7.948   5.253 -40.320  1.00  0.00    -0.003 C 
ATOM     12  C   UNL     1      -7.926   5.553 -41.816  1.00  0.00     0.004 C 
ENDBRANCH  10  11
ENDBRANCH   9  10
ENDBRANCH   8   9
ENDBRANCH   7   8
ENDBRANCH   6   7
ENDBRANCH   5   6
ENDBRANCH   4   5
ENDBRANCH   3   4
ENDBRANCH   2   3
ENDBRANCH   1   2
BRANCH   1  13
ATOM     13  C   UNL     1       0.188   6.994 -41.248  1.00  0.00     0.000 C 
BRANCH  13  14
ATOM     14  C   UNL     1       0.400   8.172 -42.216  1.00  0.00     0.000 C 
BRANCH  14  15
ATOM     15  C   UNL     1       1.753   8.895 -42.078  1.00  0.00     0.000 C 
BRANCH  15  16
ATOM     16  C   UNL     1       1.654  10.408 -42.337  1.00  0.00     0.000 C 
BRANCH  16  17
ATOM     17  C   UNL     1       2.749  11.207 -41.611  1.00  0.00     0.000 C 
BRANCH  17  18
ATOM     18  C   UNL     1       2.181  12.121 -40.510  1.00  0.00     0.000 C 
BRANCH  18  19
ATOM     19  C   UNL     1       1.319  11.351 -39.496  1.00  0.00     0.000 C 
BRANCH  19  20
ATOM     20  C   UNL     1       0.990  12.190 -38.247  1.00  0.00     0.006 C 
BRANCH  20  21
ATOM     21  C   UNL     1      -0.417  11.896 -37.708  1.00  0.00     0.053 C 
BRANCH  21  22
ATOM     22  C   UNL     1      -1.062  13.120 -37.134  1.00  0.00     0.041 C 
ATOM     23  O   UNL     1      -1.513  14.017 -37.896  1.00  0.00    -0.550 OA
ATOM     24  O   UNL     1      -1.135  13.287 -35.756  1.00  0.00    -0.550 OA
ENDBRANCH  21  22
ENDBRANCH  20  21
ENDBRANCH  19  20
ENDBRANCH  18  19
ENDBRANCH  17  18
ENDBRANCH  16  17
ENDBRANCH  15  16
ENDBRANCH  14  15
ENDBRANCH  13  14
ENDBRANCH   1  13
TORSDOF 20
ENDMDL
MODEL 9
REMARK VINA RESULT:    -3.933      2.748      6.961
REMARK INTER + INTRA:          -9.753
REMARK INTER:                  -8.456
REMARK INTRA:                  -1.297
REMARK UNBOUND:                -1.221
REMARK SMILES CCCCCCCCCCCCCCCCCCCCCC(=O)[O-]
REMARK SMILES IDX 12 1 11 2 10 3 9 4 8 5 7 6 6 7 5 8 4 9 3 10 2 11 1 12 13 13
REMARK SMILES IDX 14 14 15 15 16 16 17 17 18 18 19 19 20 20 21 21 22 22 23 23
REMARK SMILES IDX 24 24
REMARK H PARENT
REMARK Flexibility Score: inf
ROOT
ATOM      1  C   UNL     1      -2.494  11.680 -36.056  1.00  0.00     0.000 C 
ENDROOT
BRANCH   1   2
ATOM      2  C   UNL     1      -2.752  10.551 -37.077  1.00  0.00     0.000 C 
BRANCH   2   3
ATOM      3  C   UNL     1      -4.047   9.775 -36.787  1.00  0.00     0.000 C 
BRANCH   3   4
ATOM      4  C   UNL     1      -4.302   8.704 -37.854  1.00  0.00    -0.000 C 
BRANCH   4   5
ATOM      5  C   UNL     1      -4.316   9.322 -39.257  1.00  0.00    -0.000 C 
BRANCH   5   6
ATOM      6  C   UNL     1      -5.742   9.399 -39.814  1.00  0.00    -0.000 C 
BRANCH   6   7
ATOM      7  C   UNL     1      -6.740   8.721 -38.861  1.00  0.00    -0.000 C 
BRANCH   7   8
ATOM      8  C   UNL     1      -7.217   7.352 -39.392  1.00  0.00    -0.000 C 
BRANCH   8   9
ATOM      9  C   UNL     1      -7.293   7.275 -40.927  1.00  0.00    -0.000 C 
BRANCH   9  10
ATOM     10  C   UNL     1      -7.653   5.873 -41.438  1.00  0.00    -0.000 C 
BRANCH  10  11
ATOM     11  C   UNL     1      -8.129   4.974 -40.290  1.00  0.00    -0.003 C 
ATOM     12  C   UNL     1      -9.123   3.927 -40.782  1.00  0.00     0.004 C 
ENDBRANCH  10  11
ENDBRANCH   9  10
ENDBRANCH   8   9
ENDBRANCH   7   8
ENDBRANCH   6   7
ENDBRANCH   5   6
ENDBRANCH   4   5
ENDBRANCH   3   4
ENDBRANCH   2   3
ENDBRANCH   1   2
BRANCH   1  13
ATOM     13  C   UNL     1      -1.605  12.818 -36.590  1.00  0.00     0.000 C 
BRANCH  13  14
ATOM     14  C   UNL     1      -0.091  12.539 -36.564  1.00  0.00     0.000 C 
BRANCH  14  15
ATOM     15  C   UNL     1       0.539  12.226 -37.934  1.00  0.00     0.000 C 
BRANCH  15  16
ATOM     16  C   UNL     1       0.691  10.718 -38.194  1.00  0.00     0.000 C 
BRANCH  16  17
ATOM     17  C   UNL     1      -0.469  10.139 -39.022  1.00  0.00     0.000 C 
BRANCH  17  18
ATOM     18  C   UNL     1      -0.715   8.647 -38.729  1.00  0.00     0.000 C 
BRANCH  18  19
ATOM     19  C   UNL     1      -0.927   7.825 -40.011  1.00  0.00     0.000 C 
BRANCH  19  20
ATOM     20  C   UNL     1       0.178   8.069 -41.055  1.00  0.00     0.006 C 
BRANCH  20  21
ATOM     21  C   UNL     1       0.253   6.939 -42.092  1.00  0.00     0.053 C 
BRANCH  21  22
ATOM     22  C   UNL     1       0.820   5.682 -41.507  1.00  0.00     0.041 C 
ATOM     23  O   UNL     1       0.057   4.820 -40.994  1.00  0.00    -0.550 OA
ATOM     24  O   UNL     1       2.194   5.477 -41.499  1.00  0.00    -0.550 OA
ENDBRANCH  21  22
ENDBRANCH  20  21
ENDBRANCH  19  20
ENDBRANCH  18  19
ENDBRANCH  17  18
ENDBRANCH  16  17
ENDBRANCH  15  16
ENDBRANCH  14  15
ENDBRANCH  13  14
ENDBRANCH   1  13
TORSDOF 20
ENDMDL
