MODEL 1
REMARK VINA RESULT:     0.144      0.000      0.000
REMARK INTER + INTRA:          -1.749
REMARK INTER:                   0.363
REMARK INTRA:                  -2.112
REMARK UNBOUND:                -2.112
REMARK SMILES CCCCCCCCCCCCCCCCCCCCCCCCCCCC(=O)[O-]
REMARK SMILES IDX 15 1 16 2 17 3 18 4 19 5 20 6 21 7 22 8 23 9 24 10 25 11
REMARK SMILES IDX 26 12 27 13 28 14 29 15 30 16 14 17 13 18 12 19 11 20 10 21
REMARK SMILES IDX 9 22 8 23 7 24 6 25 5 26 4 27 3 28 2 29 1 30
REMARK H PARENT
REMARK Flexibility Score: inf
ROOT
ATOM      1  C   UNL     1      13.813   4.214  16.056  1.00  0.00     0.000 C 
ENDROOT
BRANCH   1   2
ATOM      2  C   UNL     1      14.840   4.916  15.145  1.00  0.00     0.000 C 
BRANCH   2   3
ATOM      3  C   UNL     1      14.262   6.011  14.224  1.00  0.00     0.000 C 
BRANCH   3   4
ATOM      4  C   UNL     1      14.455   7.453  14.729  1.00  0.00     0.000 C 
BRANCH   4   5
ATOM      5  C   UNL     1      13.170   8.049  15.327  1.00  0.00     0.000 C 
BRANCH   5   6
ATOM      6  C   UNL     1      13.172   9.590  15.348  1.00  0.00     0.000 C 
BRANCH   6   7
ATOM      7  C   UNL     1      12.151  10.265  14.414  1.00  0.00     0.000 C 
BRANCH   7   8
ATOM      8  C   UNL     1      12.436  11.742  14.081  1.00  0.00     0.000 C 
BRANCH   8   9
ATOM      9  C   UNL     1      12.124  12.719  15.235  1.00  0.00     0.000 C 
BRANCH   9  10
ATOM     10  C   UNL     1      13.366  13.080  16.063  1.00  0.00     0.000 C 
BRANCH  10  11
ATOM     11  C   UNL     1      13.784  14.536  15.825  1.00  0.00     0.000 C 
BRANCH  11  12
ATOM     12  C   UNL     1      12.855  15.216  14.812  1.00  0.00     0.006 C 
BRANCH  12  13
ATOM     13  C   UNL     1      13.660  15.917  13.709  1.00  0.00     0.053 C 
BRANCH  13  14
ATOM     14  C   UNL     1      13.205  15.503  12.341  1.00  0.00     0.041 C 
ATOM     15  O   UNL     1      12.983  14.290  12.080  1.00  0.00    -0.550 OA
ATOM     16  O   UNL     1      12.956  16.469  11.373  1.00  0.00    -0.550 OA
ENDBRANCH  13  14
ENDBRANCH  12  13
ENDBRANCH  11  12
ENDBRANCH  10  11
ENDBRANCH   9  10
ENDBRANCH   8   9
ENDBRANCH   7   8
ENDBRANCH   6   7
ENDBRANCH   5   6
ENDBRANCH   4   5
ENDBRANCH   3   4
ENDBRANCH   2   3
ENDBRANCH   1   2
BRANCH   1  17
ATOM     17  C   UNL     1      14.362   3.015  16.853  1.00  0.00     0.000 C 
BRANCH  17  18
ATOM     18  C   UNL     1      13.295   2.187  17.595  1.00  0.00     0.000 C 
BRANCH  18  19
ATOM     19  C   UNL     1      12.093   2.999  18.115  1.00  0.00     0.000 C 
BRANCH  19  20
ATOM     20  C   UNL     1      12.196   3.448  19.587  1.00  0.00     0.000 C 
BRANCH  20  21
ATOM     21  C   UNL     1      12.139   4.971  19.808  1.00  0.00     0.000 C 
BRANCH  21  22
ATOM     22  C   UNL     1      12.445   5.772  18.534  1.00  0.00    -0.000 C 
BRANCH  22  23
ATOM     23  C   UNL     1      13.567   6.792  18.782  1.00  0.00    -0.000 C 
BRANCH  23  24
ATOM     24  C   UNL     1      14.545   6.340  19.878  1.00  0.00    -0.000 C 
BRANCH  24  25
ATOM     25  C   UNL     1      15.796   7.233  19.963  1.00  0.00    -0.000 C 
BRANCH  25  26
ATOM     26  C   UNL     1      16.909   6.592  20.820  1.00  0.00    -0.000 C 
BRANCH  26  27
ATOM     27  C   UNL     1      16.413   6.058  22.176  1.00  0.00    -0.000 C 
BRANCH  27  28
ATOM     28  C   UNL     1      17.338   4.982  22.769  1.00  0.00    -0.000 C 
BRANCH  28  29
ATOM     29  C   UNL     1      18.772   5.488  22.990  1.00  0.00    -0.003 C 
ATOM     30  C   UNL     1      19.663   4.466  23.698  1.00  0.00     0.004 C 
ENDBRANCH  28  29
ENDBRANCH  27  28
ENDBRANCH  26  27
ENDBRANCH  25  26
ENDBRANCH  24  25
ENDBRANCH  23  24
ENDBRANCH  22  23
ENDBRANCH  21  22
ENDBRANCH  20  21
ENDBRANCH  19  20
ENDBRANCH  18  19
ENDBRANCH  17  18
ENDBRANCH   1  17
TORSDOF 26
ENDMDL
MODEL 2
REMARK VINA RESULT:     0.219      1.142      1.573
REMARK INTER + INTRA:          -1.559
REMARK INTER:                   0.814
REMARK INTRA:                  -2.374
REMARK UNBOUND:                -2.112
REMARK SMILES CCCCCCCCCCCCCCCCCCCCCCCCCCCC(=O)[O-]
REMARK SMILES IDX 15 1 16 2 17 3 18 4 19 5 20 6 21 7 22 8 23 9 24 10 25 11
REMARK SMILES IDX 26 12 27 13 28 14 29 15 30 16 14 17 13 18 12 19 11 20 10 21
REMARK SMILES IDX 9 22 8 23 7 24 6 25 5 26 4 27 3 28 2 29 1 30
REMARK H PARENT
REMARK Flexibility Score: inf
ROOT
ATOM      1  C   UNL     1      13.742   4.257  16.219  1.00  0.00     0.000 C 
ENDROOT
BRANCH   1   2
ATOM      2  C   UNL     1      14.951   4.547  15.308  1.00  0.00     0.000 C 
BRANCH   2   3
ATOM      3  C   UNL     1      14.770   5.729  14.332  1.00  0.00     0.000 C 
BRANCH   3   4
ATOM      4  C   UNL     1      13.651   6.717  14.709  1.00  0.00     0.000 C 
BRANCH   4   5
ATOM      5  C   UNL     1      14.194   8.077  15.179  1.00  0.00     0.000 C 
BRANCH   5   6
ATOM      6  C   UNL     1      13.093   9.140  15.351  1.00  0.00     0.000 C 
BRANCH   6   7
ATOM      7  C   UNL     1      13.492  10.575  14.958  1.00  0.00     0.000 C 
BRANCH   7   8
ATOM      8  C   UNL     1      12.681  11.695  15.638  1.00  0.00     0.000 C 
BRANCH   8   9
ATOM      9  C   UNL     1      11.845  12.549  14.661  1.00  0.00     0.000 C 
BRANCH   9  10
ATOM     10  C   UNL     1      11.427  11.775  13.402  1.00  0.00     0.000 C 
BRANCH  10  11
ATOM     11  C   UNL     1      11.725  12.582  12.133  1.00  0.00     0.000 C 
BRANCH  11  12
ATOM     12  C   UNL     1      12.958  13.473  12.325  1.00  0.00     0.006 C 
BRANCH  12  13
ATOM     13  C   UNL     1      12.627  14.944  12.042  1.00  0.00     0.053 C 
BRANCH  13  14
ATOM     14  C   UNL     1      13.303  15.863  13.015  1.00  0.00     0.041 C 
ATOM     15  O   UNL     1      13.077  15.765  14.251  1.00  0.00    -0.550 OA
ATOM     16  O   UNL     1      14.240  16.784  12.561  1.00  0.00    -0.550 OA
ENDBRANCH  13  14
ENDBRANCH  12  13
ENDBRANCH  11  12
ENDBRANCH  10  11
ENDBRANCH   9  10
ENDBRANCH   8   9
ENDBRANCH   7   8
ENDBRANCH   6   7
ENDBRANCH   5   6
ENDBRANCH   4   5
ENDBRANCH   3   4
ENDBRANCH   2   3
ENDBRANCH   1   2
BRANCH   1  17
ATOM     17  C   UNL     1      13.810   2.921  16.985  1.00  0.00     0.000 C 
BRANCH  17  18
ATOM     18  C   UNL     1      12.487   2.485  17.644  1.00  0.00     0.000 C 
BRANCH  18  19
ATOM     19  C   UNL     1      12.501   2.484  19.185  1.00  0.00     0.000 C 
BRANCH  19  20
ATOM     20  C   UNL     1      11.625   3.566  19.847  1.00  0.00     0.000 C 
BRANCH  20  21
ATOM     21  C   UNL     1      12.282   4.955  19.962  1.00  0.00     0.000 C 
BRANCH  21  22
ATOM     22  C   UNL     1      12.108   5.804  18.694  1.00  0.00    -0.000 C 
BRANCH  22  23
ATOM     23  C   UNL     1      13.295   6.762  18.508  1.00  0.00    -0.000 C 
BRANCH  23  24
ATOM     24  C   UNL     1      14.574   6.260  19.195  1.00  0.00    -0.000 C 
BRANCH  24  25
ATOM     25  C   UNL     1      15.333   7.380  19.928  1.00  0.00    -0.000 C 
BRANCH  25  26
ATOM     26  C   UNL     1      16.597   6.853  20.642  1.00  0.00    -0.000 C 
BRANCH  26  27
ATOM     27  C   UNL     1      16.294   5.893  21.806  1.00  0.00    -0.000 C 
BRANCH  27  28
ATOM     28  C   UNL     1      17.361   5.939  22.912  1.00  0.00    -0.000 C 
BRANCH  28  29
ATOM     29  C   UNL     1      17.935   4.551  23.240  1.00  0.00    -0.003 C 
ATOM     30  C   UNL     1      19.459   4.553  23.370  1.00  0.00     0.004 C 
ENDBRANCH  28  29
ENDBRANCH  27  28
ENDBRANCH  26  27
ENDBRANCH  25  26
ENDBRANCH  24  25
ENDBRANCH  23  24
ENDBRANCH  22  23
ENDBRANCH  21  22
ENDBRANCH  20  21
ENDBRANCH  19  20
ENDBRANCH  18  19
ENDBRANCH  17  18
ENDBRANCH   1  17
TORSDOF 26
ENDMDL
MODEL 3
REMARK VINA RESULT:     0.303      4.281     10.069
REMARK INTER + INTRA:          -1.348
REMARK INTER:                   0.438
REMARK INTRA:                  -1.786
REMARK UNBOUND:                -2.112
REMARK SMILES CCCCCCCCCCCCCCCCCCCCCCCCCCCC(=O)[O-]
REMARK SMILES IDX 15 1 16 2 17 3 18 4 19 5 20 6 21 7 22 8 23 9 24 10 25 11
REMARK SMILES IDX 26 12 27 13 28 14 29 15 30 16 14 17 13 18 12 19 11 20 10 21
REMARK SMILES IDX 9 22 8 23 7 24 6 25 5 26 4 27 3 28 2 29 1 30
REMARK H PARENT
REMARK Flexibility Score: inf
ROOT
ATOM      1  C   UNL     1      12.333   6.021  17.385  1.00  0.00     0.000 C 
ENDROOT
BRANCH   1   2
ATOM      2  C   UNL     1      13.097   6.176  18.715  1.00  0.00     0.000 C 
BRANCH   2   3
ATOM      3  C   UNL     1      12.608   5.270  19.863  1.00  0.00     0.000 C 
BRANCH   3   4
ATOM      4  C   UNL     1      11.586   4.194  19.452  1.00  0.00     0.000 C 
BRANCH   4   5
ATOM      5  C   UNL     1      12.128   2.765  19.624  1.00  0.00     0.000 C 
BRANCH   5   6
ATOM      6  C   UNL     1      12.562   2.120  18.295  1.00  0.00     0.000 C 
BRANCH   6   7
ATOM      7  C   UNL     1      13.139   3.090  17.246  1.00  0.00     0.000 C 
BRANCH   7   8
ATOM      8  C   UNL     1      14.603   2.830  16.841  1.00  0.00     0.000 C 
BRANCH   8   9
ATOM      9  C   UNL     1      15.152   3.822  15.794  1.00  0.00     0.000 C 
BRANCH   9  10
ATOM     10  C   UNL     1      14.042   4.511  14.986  1.00  0.00     0.000 C 
BRANCH  10  11
ATOM     11  C   UNL     1      14.624   5.308  13.813  1.00  0.00     0.000 C 
BRANCH  11  12
ATOM     12  C   UNL     1      16.157   5.239  13.809  1.00  0.00     0.006 C 
BRANCH  12  13
ATOM     13  C   UNL     1      16.671   4.477  12.582  1.00  0.00     0.053 C 
BRANCH  13  14
ATOM     14  C   UNL     1      18.011   3.852  12.838  1.00  0.00     0.041 C 
ATOM     15  O   UNL     1      18.661   3.324  11.895  1.00  0.00    -0.550 OA
ATOM     16  O   UNL     1      18.574   3.917  14.107  1.00  0.00    -0.550 OA
ENDBRANCH  13  14
ENDBRANCH  12  13
ENDBRANCH  11  12
ENDBRANCH  10  11
ENDBRANCH   9  10
ENDBRANCH   8   9
ENDBRANCH   7   8
ENDBRANCH   6   7
ENDBRANCH   5   6
ENDBRANCH   4   5
ENDBRANCH   3   4
ENDBRANCH   2   3
ENDBRANCH   1   2
BRANCH   1  17
ATOM     17  C   UNL     1      12.154   7.324  16.580  1.00  0.00     0.000 C 
BRANCH  17  18
ATOM     18  C   UNL     1      13.431   7.835  15.884  1.00  0.00     0.000 C 
BRANCH  18  19
ATOM     19  C   UNL     1      13.193   8.910  14.807  1.00  0.00     0.000 C 
BRANCH  19  20
ATOM     20  C   UNL     1      13.072  10.353  15.339  1.00  0.00     0.000 C 
BRANCH  20  21
ATOM     21  C   UNL     1      12.073  11.245  14.580  1.00  0.00     0.000 C 
BRANCH  21  22
ATOM     22  C   UNL     1      11.961  12.657  15.174  1.00  0.00    -0.000 C 
BRANCH  22  23
ATOM     23  C   UNL     1      13.342  13.190  15.586  1.00  0.00    -0.000 C 
BRANCH  23  24
ATOM     24  C   UNL     1      13.380  14.723  15.681  1.00  0.00    -0.000 C 
BRANCH  24  25
ATOM     25  C   UNL     1      12.719  15.410  14.473  1.00  0.00    -0.000 C 
BRANCH  25  26
ATOM     26  C   UNL     1      13.760  16.042  13.524  1.00  0.00    -0.000 C 
BRANCH  26  27
ATOM     27  C   UNL     1      13.322  16.057  12.048  1.00  0.00    -0.000 C 
BRANCH  27  28
ATOM     28  C   UNL     1      12.236  15.015  11.736  1.00  0.00    -0.000 C 
BRANCH  28  29
ATOM     29  C   UNL     1      12.754  13.571  11.831  1.00  0.00    -0.003 C 
ATOM     30  C   UNL     1      11.694  12.532  11.463  1.00  0.00     0.004 C 
ENDBRANCH  28  29
ENDBRANCH  27  28
ENDBRANCH  26  27
ENDBRANCH  25  26
ENDBRANCH  24  25
ENDBRANCH  23  24
ENDBRANCH  22  23
ENDBRANCH  21  22
ENDBRANCH  20  21
ENDBRANCH  19  20
ENDBRANCH  18  19
ENDBRANCH  17  18
ENDBRANCH   1  17
TORSDOF 26
ENDMDL
MODEL 4
REMARK VINA RESULT:     0.479      4.251     10.459
REMARK INTER + INTRA:          -0.904
REMARK INTER:                   0.227
REMARK INTRA:                  -1.131
REMARK UNBOUND:                -2.112
REMARK SMILES CCCCCCCCCCCCCCCCCCCCCCCCCCCC(=O)[O-]
REMARK SMILES IDX 15 1 16 2 17 3 18 4 19 5 20 6 21 7 22 8 23 9 24 10 25 11
REMARK SMILES IDX 26 12 27 13 28 14 29 15 30 16 14 17 13 18 12 19 11 20 10 21
REMARK SMILES IDX 9 22 8 23 7 24 6 25 5 26 4 27 3 28 2 29 1 30
REMARK H PARENT
REMARK Flexibility Score: inf
ROOT
ATOM      1  C   UNL     1      14.328   5.450  14.446  1.00  0.00     0.000 C 
ENDROOT
BRANCH   1   2
ATOM      2  C   UNL     1      14.500   4.642  15.748  1.00  0.00     0.000 C 
BRANCH   2   3
ATOM      3  C   UNL     1      13.190   4.124  16.378  1.00  0.00     0.000 C 
BRANCH   3   4
ATOM      4  C   UNL     1      13.376   3.155  17.559  1.00  0.00     0.000 C 
BRANCH   4   5
ATOM      5  C   UNL     1      12.247   3.263  18.598  1.00  0.00     0.000 C 
BRANCH   5   6
ATOM      6  C   UNL     1      12.226   4.619  19.329  1.00  0.00     0.000 C 
BRANCH   6   7
ATOM      7  C   UNL     1      12.538   5.847  18.453  1.00  0.00     0.000 C 
BRANCH   7   8
ATOM      8  C   UNL     1      13.511   6.870  19.071  1.00  0.00     0.000 C 
BRANCH   8   9
ATOM      9  C   UNL     1      14.942   6.330  19.277  1.00  0.00     0.000 C 
BRANCH   9  10
ATOM     10  C   UNL     1      15.710   7.082  20.374  1.00  0.00     0.000 C 
BRANCH  10  11
ATOM     11  C   UNL     1      16.877   6.243  20.907  1.00  0.00     0.000 C 
BRANCH  11  12
ATOM     12  C   UNL     1      16.781   6.072  22.428  1.00  0.00     0.006 C 
BRANCH  12  13
ATOM     13  C   UNL     1      17.557   4.833  22.895  1.00  0.00     0.053 C 
BRANCH  13  14
ATOM     14  C   UNL     1      18.958   5.177  23.303  1.00  0.00     0.041 C 
ATOM     15  O   UNL     1      19.246   6.344  23.683  1.00  0.00    -0.550 OA
ATOM     16  O   UNL     1      19.933   4.186  23.334  1.00  0.00    -0.550 OA
ENDBRANCH  13  14
ENDBRANCH  12  13
ENDBRANCH  11  12
ENDBRANCH  10  11
ENDBRANCH   9  10
ENDBRANCH   8   9
ENDBRANCH   7   8
ENDBRANCH   6   7
ENDBRANCH   5   6
ENDBRANCH   4   5
ENDBRANCH   3   4
ENDBRANCH   2   3
ENDBRANCH   1   2
BRANCH   1  17
ATOM     17  C   UNL     1      14.522   6.972  14.593  1.00  0.00     0.000 C 
BRANCH  17  18
ATOM     18  C   UNL     1      13.592   7.647  15.620  1.00  0.00     0.000 C 
BRANCH  18  19
ATOM     19  C   UNL     1      12.617   8.681  15.027  1.00  0.00     0.000 C 
BRANCH  19  20
ATOM     20  C   UNL     1      13.043  10.153  15.196  1.00  0.00     0.000 C 
BRANCH  20  21
ATOM     21  C   UNL     1      12.108  11.183  14.535  1.00  0.00     0.000 C 
BRANCH  21  22
ATOM     22  C   UNL     1      12.014  12.498  15.322  1.00  0.00    -0.000 C 
BRANCH  22  23
ATOM     23  C   UNL     1      13.411  13.009  15.707  1.00  0.00    -0.000 C 
BRANCH  23  24
ATOM     24  C   UNL     1      13.484  14.543  15.765  1.00  0.00    -0.000 C 
BRANCH  24  25
ATOM     25  C   UNL     1      12.809  15.216  14.557  1.00  0.00    -0.000 C 
BRANCH  25  26
ATOM     26  C   UNL     1      13.838  15.714  13.520  1.00  0.00    -0.000 C 
BRANCH  26  27
ATOM     27  C   UNL     1      13.218  16.073  12.158  1.00  0.00    -0.000 C 
BRANCH  27  28
ATOM     28  C   UNL     1      12.235  15.007  11.649  1.00  0.00    -0.000 C 
BRANCH  28  29
ATOM     29  C   UNL     1      12.710  13.574  11.940  1.00  0.00    -0.003 C 
ATOM     30  C   UNL     1      11.804  12.509  11.321  1.00  0.00     0.004 C 
ENDBRANCH  28  29
ENDBRANCH  27  28
ENDBRANCH  26  27
ENDBRANCH  25  26
ENDBRANCH  24  25
ENDBRANCH  23  24
ENDBRANCH  22  23
ENDBRANCH  21  22
ENDBRANCH  20  21
ENDBRANCH  19  20
ENDBRANCH  18  19
ENDBRANCH  17  18
ENDBRANCH   1  17
TORSDOF 26
ENDMDL
MODEL 5
REMARK VINA RESULT:     0.574      6.450     11.649
REMARK INTER + INTRA:          -0.666
REMARK INTER:                   1.011
REMARK INTRA:                  -1.676
REMARK UNBOUND:                -2.112
REMARK SMILES CCCCCCCCCCCCCCCCCCCCCCCCCCCC(=O)[O-]
REMARK SMILES IDX 15 1 16 2 17 3 18 4 19 5 20 6 21 7 22 8 23 9 24 10 25 11
REMARK SMILES IDX 26 12 27 13 28 14 29 15 30 16 14 17 13 18 12 19 11 20 10 21
REMARK SMILES IDX 9 22 8 23 7 24 6 25 5 26 4 27 3 28 2 29 1 30
REMARK H PARENT
REMARK Flexibility Score: inf
ROOT
ATOM      1  C   UNL     1      13.650   3.784  16.893  1.00  0.00     0.000 C 
ENDROOT
BRANCH   1   2
ATOM      2  C   UNL     1      13.942   4.020  15.397  1.00  0.00     0.000 C 
BRANCH   2   3
ATOM      3  C   UNL     1      15.332   4.611  15.085  1.00  0.00     0.000 C 
BRANCH   3   4
ATOM      4  C   UNL     1      15.449   5.311  13.718  1.00  0.00     0.000 C 
BRANCH   4   5
ATOM      5  C   UNL     1      16.038   4.396  12.632  1.00  0.00     0.000 C 
BRANCH   5   6
ATOM      6  C   UNL     1      17.549   4.152  12.802  1.00  0.00     0.000 C 
BRANCH   6   7
ATOM      7  C   UNL     1      18.256   3.512  11.593  1.00  0.00     0.000 C 
BRANCH   7   8
ATOM      8  C   UNL     1      19.724   3.103  11.826  1.00  0.00     0.000 C 
BRANCH   8   9
ATOM      9  C   UNL     1      20.035   1.637  11.455  1.00  0.00     0.000 C 
BRANCH   9  10
ATOM     10  C   UNL     1      21.536   1.377  11.260  1.00  0.00     0.000 C 
BRANCH  10  11
ATOM     11  C   UNL     1      21.909  -0.049  11.678  1.00  0.00     0.000 C 
BRANCH  11  12
ATOM     12  C   UNL     1      23.392  -0.140  12.061  1.00  0.00     0.006 C 
BRANCH  12  13
ATOM     13  C   UNL     1      23.735   0.851  13.180  1.00  0.00     0.053 C 
BRANCH  13  14
ATOM     14  C   UNL     1      23.257   0.367  14.517  1.00  0.00     0.041 C 
ATOM     15  O   UNL     1      22.522   1.095  15.236  1.00  0.00    -0.550 OA
ATOM     16  O   UNL     1      23.566  -0.922  14.936  1.00  0.00    -0.550 OA
ENDBRANCH  13  14
ENDBRANCH  12  13
ENDBRANCH  11  12
ENDBRANCH  10  11
ENDBRANCH   9  10
ENDBRANCH   8   9
ENDBRANCH   7   8
ENDBRANCH   6   7
ENDBRANCH   5   6
ENDBRANCH   4   5
ENDBRANCH   3   4
ENDBRANCH   2   3
ENDBRANCH   1   2
BRANCH   1  17
ATOM     17  C   UNL     1      12.526   4.660  17.483  1.00  0.00     0.000 C 
BRANCH  17  18
ATOM     18  C   UNL     1      12.994   6.008  18.064  1.00  0.00     0.000 C 
BRANCH  18  19
ATOM     19  C   UNL     1      12.500   7.250  17.297  1.00  0.00     0.000 C 
BRANCH  19  20
ATOM     20  C   UNL     1      12.899   7.299  15.808  1.00  0.00     0.000 C 
BRANCH  20  21
ATOM     21  C   UNL     1      13.663   8.567  15.381  1.00  0.00     0.000 C 
BRANCH  21  22
ATOM     22  C   UNL     1      12.731   9.734  15.024  1.00  0.00    -0.000 C 
BRANCH  22  23
ATOM     23  C   UNL     1      13.375  11.082  15.386  1.00  0.00    -0.000 C 
BRANCH  23  24
ATOM     24  C   UNL     1      12.477  12.279  15.035  1.00  0.00    -0.000 C 
BRANCH  24  25
ATOM     25  C   UNL     1      11.326  11.901  14.087  1.00  0.00    -0.000 C 
BRANCH  25  26
ATOM     26  C   UNL     1      11.622  12.304  12.626  1.00  0.00    -0.000 C 
BRANCH  26  27
ATOM     27  C   UNL     1      12.892  13.158  12.466  1.00  0.00    -0.000 C 
BRANCH  27  28
ATOM     28  C   UNL     1      12.603  14.562  11.912  1.00  0.00    -0.000 C 
BRANCH  28  29
ATOM     29  C   UNL     1      13.248  15.677  12.751  1.00  0.00    -0.003 C 
ATOM     30  C   UNL     1      13.282  15.353  14.246  1.00  0.00     0.004 C 
ENDBRANCH  28  29
ENDBRANCH  27  28
ENDBRANCH  26  27
ENDBRANCH  25  26
ENDBRANCH  24  25
ENDBRANCH  23  24
ENDBRANCH  22  23
ENDBRANCH  21  22
ENDBRANCH  20  21
ENDBRANCH  19  20
ENDBRANCH  18  19
ENDBRANCH  17  18
ENDBRANCH   1  17
TORSDOF 26
ENDMDL
MODEL 6
REMARK VINA RESULT:     0.592      3.793      9.758
REMARK INTER + INTRA:          -0.620
REMARK INTER:                   1.012
REMARK INTRA:                  -1.632
REMARK UNBOUND:                -2.112
REMARK SMILES CCCCCCCCCCCCCCCCCCCCCCCCCCCC(=O)[O-]
REMARK SMILES IDX 15 1 16 2 17 3 18 4 19 5 20 6 21 7 22 8 23 9 24 10 25 11
REMARK SMILES IDX 26 12 27 13 28 14 29 15 30 16 14 17 13 18 12 19 11 20 10 21
REMARK SMILES IDX 9 22 8 23 7 24 6 25 5 26 4 27 3 28 2 29 1 30
REMARK H PARENT
REMARK Flexibility Score: inf
ROOT
ATOM      1  C   UNL     1      12.386   6.475  18.457  1.00  0.00     0.000 C 
ENDROOT
BRANCH   1   2
ATOM      2  C   UNL     1      13.074   5.179  18.931  1.00  0.00     0.000 C 
BRANCH   2   3
ATOM      3  C   UNL     1      12.123   3.997  19.214  1.00  0.00     0.000 C 
BRANCH   3   4
ATOM      4  C   UNL     1      12.467   2.693  18.471  1.00  0.00     0.000 C 
BRANCH   4   5
ATOM      5  C   UNL     1      12.882   2.935  17.011  1.00  0.00     0.000 C 
BRANCH   5   6
ATOM      6  C   UNL     1      14.403   2.831  16.790  1.00  0.00     0.000 C 
BRANCH   6   7
ATOM      7  C   UNL     1      15.037   3.988  15.994  1.00  0.00     0.000 C 
BRANCH   7   8
ATOM      8  C   UNL     1      15.936   3.564  14.816  1.00  0.00     0.000 C 
BRANCH   8   9
ATOM      9  C   UNL     1      17.030   4.593  14.459  1.00  0.00     0.000 C 
BRANCH   9  10
ATOM     10  C   UNL     1      18.186   3.978  13.656  1.00  0.00     0.000 C 
BRANCH  10  11
ATOM     11  C   UNL     1      17.727   3.566  12.252  1.00  0.00     0.000 C 
BRANCH  11  12
ATOM     12  C   UNL     1      16.501   4.378  11.815  1.00  0.00     0.006 C 
BRANCH  12  13
ATOM     13  C   UNL     1      15.605   3.561  10.875  1.00  0.00     0.053 C 
BRANCH  13  14
ATOM     14  C   UNL     1      14.193   4.066  10.875  1.00  0.00     0.041 C 
ATOM     15  O   UNL     1      13.225   3.259  10.890  1.00  0.00    -0.550 OA
ATOM     16  O   UNL     1      13.947   5.433  10.932  1.00  0.00    -0.550 OA
ENDBRANCH  13  14
ENDBRANCH  12  13
ENDBRANCH  11  12
ENDBRANCH  10  11
ENDBRANCH   9  10
ENDBRANCH   8   9
ENDBRANCH   7   8
ENDBRANCH   6   7
ENDBRANCH   5   6
ENDBRANCH   4   5
ENDBRANCH   3   4
ENDBRANCH   2   3
ENDBRANCH   1   2
BRANCH   1  17
ATOM     17  C   UNL     1      12.254   6.620  16.928  1.00  0.00     0.000 C 
BRANCH  17  18
ATOM     18  C   UNL     1      13.588   6.595  16.157  1.00  0.00     0.000 C 
BRANCH  18  19
ATOM     19  C   UNL     1      13.685   7.605  14.998  1.00  0.00     0.000 C 
BRANCH  19  20
ATOM     20  C   UNL     1      13.849   9.077  15.427  1.00  0.00     0.000 C 
BRANCH  20  21
ATOM     21  C   UNL     1      12.689  10.006  15.025  1.00  0.00     0.000 C 
BRANCH  21  22
ATOM     22  C   UNL     1      13.158  11.418  14.643  1.00  0.00    -0.000 C 
BRANCH  22  23
ATOM     23  C   UNL     1      12.090  12.466  14.994  1.00  0.00    -0.000 C 
BRANCH  23  24
ATOM     24  C   UNL     1      12.631  13.581  15.902  1.00  0.00    -0.000 C 
BRANCH  24  25
ATOM     25  C   UNL     1      12.834  14.910  15.154  1.00  0.00    -0.000 C 
BRANCH  25  26
ATOM     26  C   UNL     1      13.698  14.736  13.886  1.00  0.00    -0.000 C 
BRANCH  26  27
ATOM     27  C   UNL     1      13.258  15.627  12.711  1.00  0.00    -0.000 C 
BRANCH  27  28
ATOM     28  C   UNL     1      12.371  14.886  11.698  1.00  0.00    -0.000 C 
BRANCH  28  29
ATOM     29  C   UNL     1      12.593  13.365  11.715  1.00  0.00    -0.003 C 
ATOM     30  C   UNL     1      11.344  12.576  11.321  1.00  0.00     0.004 C 
ENDBRANCH  28  29
ENDBRANCH  27  28
ENDBRANCH  26  27
ENDBRANCH  25  26
ENDBRANCH  24  25
ENDBRANCH  23  24
ENDBRANCH  22  23
ENDBRANCH  21  22
ENDBRANCH  20  21
ENDBRANCH  19  20
ENDBRANCH  18  19
ENDBRANCH  17  18
ENDBRANCH   1  17
TORSDOF 26
ENDMDL
MODEL 7
REMARK VINA RESULT:     0.633      6.206     11.738
REMARK INTER + INTRA:          -0.516
REMARK INTER:                   0.800
REMARK INTRA:                  -1.316
REMARK UNBOUND:                -2.112
REMARK SMILES CCCCCCCCCCCCCCCCCCCCCCCCCCCC(=O)[O-]
REMARK SMILES IDX 15 1 16 2 17 3 18 4 19 5 20 6 21 7 22 8 23 9 24 10 25 11
REMARK SMILES IDX 26 12 27 13 28 14 29 15 30 16 14 17 13 18 12 19 11 20 10 21
REMARK SMILES IDX 9 22 8 23 7 24 6 25 5 26 4 27 3 28 2 29 1 30
REMARK H PARENT
REMARK Flexibility Score: inf
ROOT
ATOM      1  C   UNL     1      12.868   5.485  17.632  1.00  0.00     0.000 C 
ENDROOT
BRANCH   1   2
ATOM      2  C   UNL     1      13.621   4.239  17.125  1.00  0.00     0.000 C 
BRANCH   2   3
ATOM      3  C   UNL     1      13.992   4.259  15.628  1.00  0.00     0.000 C 
BRANCH   3   4
ATOM      4  C   UNL     1      15.485   4.032  15.325  1.00  0.00     0.000 C 
BRANCH   4   5
ATOM      5  C   UNL     1      15.981   4.868  14.133  1.00  0.00     0.000 C 
BRANCH   5   6
ATOM      6  C   UNL     1      17.088   4.166  13.323  1.00  0.00     0.000 C 
BRANCH   6   7
ATOM      7  C   UNL     1      16.804   4.001  11.819  1.00  0.00     0.000 C 
BRANCH   7   8
ATOM      8  C   UNL     1      17.888   3.252  11.020  1.00  0.00     0.000 C 
BRANCH   8   9
ATOM      9  C   UNL     1      19.153   2.917  11.838  1.00  0.00     0.000 C 
BRANCH   9  10
ATOM     10  C   UNL     1      20.269   2.298  10.983  1.00  0.00     0.000 C 
BRANCH  10  11
ATOM     11  C   UNL     1      20.862   1.058  11.661  1.00  0.00     0.000 C 
BRANCH  11  12
ATOM     12  C   UNL     1      22.395   1.082  11.608  1.00  0.00     0.006 C 
BRANCH  12  13
ATOM     13  C   UNL     1      22.990  -0.160  12.282  1.00  0.00     0.053 C 
BRANCH  13  14
ATOM     14  C   UNL     1      23.578   0.163  13.623  1.00  0.00     0.041 C 
ATOM     15  O   UNL     1      23.855   1.354  13.931  1.00  0.00    -0.550 OA
ATOM     16  O   UNL     1      23.751  -0.846  14.564  1.00  0.00    -0.550 OA
ENDBRANCH  13  14
ENDBRANCH  12  13
ENDBRANCH  11  12
ENDBRANCH  10  11
ENDBRANCH   9  10
ENDBRANCH   8   9
ENDBRANCH   7   8
ENDBRANCH   6   7
ENDBRANCH   5   6
ENDBRANCH   4   5
ENDBRANCH   3   4
ENDBRANCH   2   3
ENDBRANCH   1   2
BRANCH   1  17
ATOM     17  C   UNL     1      12.510   6.516  16.544  1.00  0.00     0.000 C 
BRANCH  17  18
ATOM     18  C   UNL     1      13.704   7.323  15.999  1.00  0.00     0.000 C 
BRANCH  18  19
ATOM     19  C   UNL     1      13.347   8.349  14.906  1.00  0.00     0.000 C 
BRANCH  19  20
ATOM     20  C   UNL     1      12.637   9.621  15.411  1.00  0.00     0.000 C 
BRANCH  20  21
ATOM     21  C   UNL     1      12.945  10.901  14.610  1.00  0.00     0.000 C 
BRANCH  21  22
ATOM     22  C   UNL     1      11.720  11.811  14.443  1.00  0.00    -0.000 C 
BRANCH  22  23
ATOM     23  C   UNL     1      11.794  13.013  15.397  1.00  0.00    -0.000 C 
BRANCH  23  24
ATOM     24  C   UNL     1      13.233  13.340  15.825  1.00  0.00    -0.000 C 
BRANCH  24  25
ATOM     25  C   UNL     1      13.651  14.774  15.454  1.00  0.00    -0.000 C 
BRANCH  25  26
ATOM     26  C   UNL     1      12.775  15.360  14.326  1.00  0.00    -0.000 C 
BRANCH  26  27
ATOM     27  C   UNL     1      13.584  16.001  13.184  1.00  0.00    -0.000 C 
BRANCH  27  28
ATOM     28  C   UNL     1      13.173  15.484  11.796  1.00  0.00    -0.000 C 
BRANCH  28  29
ATOM     29  C   UNL     1      12.026  14.463  11.858  1.00  0.00    -0.003 C 
ATOM     30  C   UNL     1      12.489  13.029  11.599  1.00  0.00     0.004 C 
ENDBRANCH  28  29
ENDBRANCH  27  28
ENDBRANCH  26  27
ENDBRANCH  25  26
ENDBRANCH  24  25
ENDBRANCH  23  24
ENDBRANCH  22  23
ENDBRANCH  21  22
ENDBRANCH  20  21
ENDBRANCH  19  20
ENDBRANCH  18  19
ENDBRANCH  17  18
ENDBRANCH   1  17
TORSDOF 26
ENDMDL
MODEL 8
REMARK VINA RESULT:     0.780      4.930      7.018
REMARK INTER + INTRA:          -0.146
REMARK INTER:                   1.637
REMARK INTRA:                  -1.783
REMARK UNBOUND:                -2.112
REMARK SMILES CCCCCCCCCCCCCCCCCCCCCCCCCCCC(=O)[O-]
REMARK SMILES IDX 15 1 16 2 17 3 18 4 19 5 20 6 21 7 22 8 23 9 24 10 25 11
REMARK SMILES IDX 26 12 27 13 28 14 29 15 30 16 14 17 13 18 12 19 11 20 10 21
REMARK SMILES IDX 9 22 8 23 7 24 6 25 5 26 4 27 3 28 2 29 1 30
REMARK H PARENT
REMARK Flexibility Score: inf
ROOT
ATOM      1  C   UNL     1      13.114   5.010  16.587  1.00  0.00     0.000 C 
ENDROOT
BRANCH   1   2
ATOM      2  C   UNL     1      12.755   6.496  16.796  1.00  0.00     0.000 C 
BRANCH   2   3
ATOM      3  C   UNL     1      13.638   7.499  16.025  1.00  0.00     0.000 C 
BRANCH   3   4
ATOM      4  C   UNL     1      12.885   8.387  15.017  1.00  0.00     0.000 C 
BRANCH   4   5
ATOM      5  C   UNL     1      13.090   9.888  15.282  1.00  0.00     0.000 C 
BRANCH   5   6
ATOM      6  C   UNL     1      12.058  10.774  14.558  1.00  0.00     0.000 C 
BRANCH   6   7
ATOM      7  C   UNL     1      12.029  12.250  14.999  1.00  0.00     0.000 C 
BRANCH   7   8
ATOM      8  C   UNL     1      13.300  12.751  15.712  1.00  0.00     0.000 C 
BRANCH   8   9
ATOM      9  C   UNL     1      13.487  14.283  15.660  1.00  0.00     0.000 C 
BRANCH   9  10
ATOM     10  C   UNL     1      12.578  14.960  14.624  1.00  0.00     0.000 C 
BRANCH  10  11
ATOM     11  C   UNL     1      13.387  15.862  13.684  1.00  0.00     0.000 C 
BRANCH  11  12
ATOM     12  C   UNL     1      13.121  15.506  12.216  1.00  0.00     0.006 C 
BRANCH  12  13
ATOM     13  C   UNL     1      13.223  13.992  11.988  1.00  0.00     0.053 C 
BRANCH  13  14
ATOM     14  C   UNL     1      11.940  13.422  11.461  1.00  0.00     0.041 C 
ATOM     15  O   UNL     1      11.827  12.183  11.255  1.00  0.00    -0.550 OA
ATOM     16  O   UNL     1      10.842  14.252  11.267  1.00  0.00    -0.550 OA
ENDBRANCH  13  14
ENDBRANCH  12  13
ENDBRANCH  11  12
ENDBRANCH  10  11
ENDBRANCH   9  10
ENDBRANCH   8   9
ENDBRANCH   7   8
ENDBRANCH   6   7
ENDBRANCH   5   6
ENDBRANCH   4   5
ENDBRANCH   3   4
ENDBRANCH   2   3
ENDBRANCH   1   2
BRANCH   1  17
ATOM     17  C   UNL     1      14.518   4.755  16.005  1.00  0.00     0.000 C 
BRANCH  17  18
ATOM     18  C   UNL     1      14.547   4.454  14.494  1.00  0.00     0.000 C 
BRANCH  18  19
ATOM     19  C   UNL     1      15.700   5.124  13.722  1.00  0.00     0.000 C 
BRANCH  19  20
ATOM     20  C   UNL     1      16.428   4.212  12.714  1.00  0.00     0.000 C 
BRANCH  20  21
ATOM     21  C   UNL     1      17.965   4.312  12.737  1.00  0.00     0.000 C 
BRANCH  21  22
ATOM     22  C   UNL     1      18.656   2.979  12.417  1.00  0.00    -0.000 C 
BRANCH  22  23
ATOM     23  C   UNL     1      19.207   2.976  10.982  1.00  0.00    -0.000 C 
BRANCH  23  24
ATOM     24  C   UNL     1      20.574   2.283  10.875  1.00  0.00    -0.000 C 
BRANCH  24  25
ATOM     25  C   UNL     1      20.900   1.418  12.106  1.00  0.00    -0.000 C 
BRANCH  25  26
ATOM     26  C   UNL     1      21.543   0.070  11.714  1.00  0.00    -0.000 C 
BRANCH  26  27
ATOM     27  C   UNL     1      23.040  -0.024  12.062  1.00  0.00    -0.000 C 
BRANCH  27  28
ATOM     28  C   UNL     1      23.508   1.102  12.998  1.00  0.00    -0.000 C 
BRANCH  28  29
ATOM     29  C   UNL     1      23.905   0.589  14.392  1.00  0.00    -0.003 C 
ATOM     30  C   UNL     1      23.907  -0.938  14.486  1.00  0.00     0.004 C 
ENDBRANCH  28  29
ENDBRANCH  27  28
ENDBRANCH  26  27
ENDBRANCH  25  26
ENDBRANCH  24  25
ENDBRANCH  23  24
ENDBRANCH  22  23
ENDBRANCH  21  22
ENDBRANCH  20  21
ENDBRANCH  19  20
ENDBRANCH  18  19
ENDBRANCH  17  18
ENDBRANCH   1  17
TORSDOF 26
ENDMDL
MODEL 9
REMARK VINA RESULT:     0.905      2.787      5.235
REMARK INTER + INTRA:           0.169
REMARK INTER:                   1.381
REMARK INTRA:                  -1.211
REMARK UNBOUND:                -2.112
REMARK SMILES CCCCCCCCCCCCCCCCCCCCCCCCCCCC(=O)[O-]
REMARK SMILES IDX 15 1 16 2 17 3 18 4 19 5 20 6 21 7 22 8 23 9 24 10 25 11
REMARK SMILES IDX 26 12 27 13 28 14 29 15 30 16 14 17 13 18 12 19 11 20 10 21
REMARK SMILES IDX 9 22 8 23 7 24 6 25 5 26 4 27 3 28 2 29 1 30
REMARK H PARENT
REMARK Flexibility Score: inf
ROOT
ATOM      1  C   UNL     1      12.398   6.097  17.244  1.00  0.00     0.000 C 
ENDROOT
BRANCH   1   2
ATOM      2  C   UNL     1      12.388   7.380  16.389  1.00  0.00     0.000 C 
BRANCH   2   3
ATOM      3  C   UNL     1      13.718   7.706  15.678  1.00  0.00     0.000 C 
BRANCH   3   4
ATOM      4  C   UNL     1      13.736   9.043  14.915  1.00  0.00     0.000 C 
BRANCH   4   5
ATOM      5  C   UNL     1      12.471   9.883  15.160  1.00  0.00     0.000 C 
BRANCH   5   6
ATOM      6  C   UNL     1      12.580  11.315  14.604  1.00  0.00     0.000 C 
BRANCH   6   7
ATOM      7  C   UNL     1      12.397  12.442  15.638  1.00  0.00     0.000 C 
BRANCH   7   8
ATOM      8  C   UNL     1      13.657  13.277  15.935  1.00  0.00     0.000 C 
BRANCH   8   9
ATOM      9  C   UNL     1      13.541  14.760  15.522  1.00  0.00     0.000 C 
BRANCH   9  10
ATOM     10  C   UNL     1      12.683  14.963  14.265  1.00  0.00     0.000 C 
BRANCH  10  11
ATOM     11  C   UNL     1      13.369  15.911  13.274  1.00  0.00     0.000 C 
BRANCH  11  12
ATOM     12  C   UNL     1      13.189  15.422  11.831  1.00  0.00     0.006 C 
BRANCH  12  13
ATOM     13  C   UNL     1      11.841  14.713  11.653  1.00  0.00     0.053 C 
BRANCH  13  14
ATOM     14  C   UNL     1      11.989  13.220  11.691  1.00  0.00     0.041 C 
ATOM     15  O   UNL     1      10.994  12.485  11.931  1.00  0.00    -0.550 OA
ATOM     16  O   UNL     1      13.214  12.638  11.389  1.00  0.00    -0.550 OA
ENDBRANCH  13  14
ENDBRANCH  12  13
ENDBRANCH  11  12
ENDBRANCH  10  11
ENDBRANCH   9  10
ENDBRANCH   8   9
ENDBRANCH   7   8
ENDBRANCH   6   7
ENDBRANCH   5   6
ENDBRANCH   4   5
ENDBRANCH   3   4
ENDBRANCH   2   3
ENDBRANCH   1   2
BRANCH   1  17
ATOM     17  C   UNL     1      13.049   6.246  18.634  1.00  0.00     0.000 C 
BRANCH  17  18
ATOM     18  C   UNL     1      12.576   5.221  19.683  1.00  0.00     0.000 C 
BRANCH  18  19
ATOM     19  C   UNL     1      11.773   4.036  19.114  1.00  0.00     0.000 C 
BRANCH  19  20
ATOM     20  C   UNL     1      12.590   2.751  18.868  1.00  0.00     0.000 C 
BRANCH  20  21
ATOM     21  C   UNL     1      12.839   2.412  17.387  1.00  0.00     0.000 C 
BRANCH  21  22
ATOM     22  C   UNL     1      14.215   2.882  16.890  1.00  0.00    -0.000 C 
BRANCH  22  23
ATOM     23  C   UNL     1      14.074   4.066  15.922  1.00  0.00    -0.000 C 
BRANCH  23  24
ATOM     24  C   UNL     1      15.377   4.372  15.167  1.00  0.00    -0.000 C 
BRANCH  24  25
ATOM     25  C   UNL     1      15.165   5.323  13.977  1.00  0.00    -0.000 C 
BRANCH  25  26
ATOM     26  C   UNL     1      14.948   4.557  12.654  1.00  0.00    -0.000 C 
BRANCH  26  27
ATOM     27  C   UNL     1      16.248   4.287  11.875  1.00  0.00    -0.000 C 
BRANCH  27  28
ATOM     28  C   UNL     1      17.505   4.404  12.752  1.00  0.00    -0.000 C 
BRANCH  28  29
ATOM     29  C   UNL     1      18.499   3.254  12.521  1.00  0.00    -0.003 C 
ATOM     30  C   UNL     1      19.038   3.211  11.090  1.00  0.00     0.004 C 
ENDBRANCH  28  29
ENDBRANCH  27  28
ENDBRANCH  26  27
ENDBRANCH  25  26
ENDBRANCH  24  25
ENDBRANCH  23  24
ENDBRANCH  22  23
ENDBRANCH  21  22
ENDBRANCH  20  21
ENDBRANCH  19  20
ENDBRANCH  18  19
ENDBRANCH  17  18
ENDBRANCH   1  17
TORSDOF 26
ENDMDL
