MODEL 1
REMARK VINA RESULT:    -1.051      0.000      0.000
REMARK INTER + INTRA:          -8.888
REMARK INTER:                  -2.649
REMARK INTRA:                  -6.238
REMARK UNBOUND:                -6.238
REMARK SMILES CCCCCCCCCCCCCCCCCCCCCCCCCCCC(=O)[O-]
REMARK SMILES IDX 15 1 16 2 17 3 18 4 19 5 20 6 21 7 22 8 23 9 24 10 25 11
REMARK SMILES IDX 26 12 27 13 28 14 29 15 30 16 14 17 13 18 12 19 11 20 10 21
REMARK SMILES IDX 9 22 8 23 7 24 6 25 5 26 4 27 3 28 2 29 1 30
REMARK H PARENT
REMARK Flexibility Score: inf
ROOT
ATOM      1  C   UNL     1     173.616 181.739 194.918  1.00  0.00     0.000 C 
ENDROOT
BRANCH   1   2
ATOM      2  C   UNL     1     174.041 181.257 196.322  1.00  0.00     0.000 C 
BRANCH   2   3
ATOM      3  C   UNL     1     172.866 180.794 197.205  1.00  0.00     0.000 C 
BRANCH   3   4
ATOM      4  C   UNL     1     173.128 179.521 198.032  1.00  0.00     0.000 C 
BRANCH   4   5
ATOM      5  C   UNL     1     174.457 178.805 197.726  1.00  0.00     0.000 C 
BRANCH   5   6
ATOM      6  C   UNL     1     174.266 177.367 197.217  1.00  0.00     0.000 C 
BRANCH   6   7
ATOM      7  C   UNL     1     172.854 177.117 196.646  1.00  0.00     0.000 C 
BRANCH   7   8
ATOM      8  C   UNL     1     172.751 177.305 195.117  1.00  0.00     0.000 C 
BRANCH   8   9
ATOM      9  C   UNL     1     174.058 177.044 194.346  1.00  0.00     0.000 C 
BRANCH   9  10
ATOM     10  C   UNL     1     174.771 178.341 193.892  1.00  0.00     0.000 C 
BRANCH  10  11
ATOM     11  C   UNL     1     176.264 178.340 194.256  1.00  0.00     0.000 C 
BRANCH  11  12
ATOM     12  C   UNL     1     176.798 179.754 194.547  1.00  0.00     0.006 C 
BRANCH  12  13
ATOM     13  C   UNL     1     178.217 179.733 195.134  1.00  0.00     0.053 C 
BRANCH  13  14
ATOM     14  C   UNL     1     178.445 180.939 195.989  1.00  0.00     0.041 C 
ATOM     15  O   UNL     1     179.489 181.031 196.689  1.00  0.00    -0.550 OA
ATOM     16  O   UNL     1     177.529 181.985 195.979  1.00  0.00    -0.550 OA
ENDBRANCH  13  14
ENDBRANCH  12  13
ENDBRANCH  11  12
ENDBRANCH  10  11
ENDBRANCH   9  10
ENDBRANCH   8   9
ENDBRANCH   7   8
ENDBRANCH   6   7
ENDBRANCH   5   6
ENDBRANCH   4   5
ENDBRANCH   3   4
ENDBRANCH   2   3
ENDBRANCH   1   2
BRANCH   1  17
ATOM     17  C   UNL     1     172.375 181.002 194.385  1.00  0.00     0.000 C 
BRANCH  17  18
ATOM     18  C   UNL     1     171.707 181.759 193.217  1.00  0.00     0.000 C 
BRANCH  18  19
ATOM     19  C   UNL     1     171.277 180.843 192.058  1.00  0.00     0.000 C 
BRANCH  19  20
ATOM     20  C   UNL     1     171.771 179.397 192.225  1.00  0.00     0.000 C 
BRANCH  20  21
ATOM     21  C   UNL     1     171.622 178.566 190.942  1.00  0.00     0.000 C 
BRANCH  21  22
ATOM     22  C   UNL     1     172.376 177.226 191.010  1.00  0.00    -0.000 C 
BRANCH  22  23
ATOM     23  C   UNL     1     173.543 177.148 190.003  1.00  0.00    -0.000 C 
BRANCH  23  24
ATOM     24  C   UNL     1     174.941 177.231 190.646  1.00  0.00    -0.000 C 
BRANCH  24  25
ATOM     25  C   UNL     1     175.783 178.467 190.275  1.00  0.00    -0.000 C 
BRANCH  25  26
ATOM     26  C   UNL     1     175.093 179.497 189.350  1.00  0.00    -0.000 C 
BRANCH  26  27
ATOM     27  C   UNL     1     174.493 180.710 190.085  1.00  0.00    -0.000 C 
BRANCH  27  28
ATOM     28  C   UNL     1     175.196 181.045 191.420  1.00  0.00    -0.000 C 
BRANCH  28  29
ATOM     29  C   UNL     1     175.207 182.555 191.695  1.00  0.00    -0.003 C 
ATOM     30  C   UNL     1     176.304 182.928 192.685  1.00  0.00     0.004 C 
ENDBRANCH  28  29
ENDBRANCH  27  28
ENDBRANCH  26  27
ENDBRANCH  25  26
ENDBRANCH  24  25
ENDBRANCH  23  24
ENDBRANCH  22  23
ENDBRANCH  21  22
ENDBRANCH  20  21
ENDBRANCH  19  20
ENDBRANCH  18  19
ENDBRANCH  17  18
ENDBRANCH   1  17
TORSDOF 26
ENDMDL
MODEL 2
REMARK VINA RESULT:    -0.972      2.278      6.527
REMARK INTER + INTRA:          -8.688
REMARK INTER:                  -3.229
REMARK INTRA:                  -5.459
REMARK UNBOUND:                -6.238
REMARK SMILES CCCCCCCCCCCCCCCCCCCCCCCCCCCC(=O)[O-]
REMARK SMILES IDX 15 1 16 2 17 3 18 4 19 5 20 6 21 7 22 8 23 9 24 10 25 11
REMARK SMILES IDX 26 12 27 13 28 14 29 15 30 16 14 17 13 18 12 19 11 20 10 21
REMARK SMILES IDX 9 22 8 23 7 24 6 25 5 26 4 27 3 28 2 29 1 30
REMARK H PARENT
REMARK Flexibility Score: inf
ROOT
ATOM      1  C   UNL     1     172.995 178.080 195.169  1.00  0.00     0.000 C 
ENDROOT
BRANCH   1   2
ATOM      2  C   UNL     1     173.229 177.720 193.686  1.00  0.00     0.000 C 
BRANCH   2   3
ATOM      3  C   UNL     1     171.941 177.679 192.843  1.00  0.00     0.000 C 
BRANCH   3   4
ATOM      4  C   UNL     1     171.914 178.640 191.638  1.00  0.00     0.000 C 
BRANCH   4   5
ATOM      5  C   UNL     1     170.911 179.801 191.751  1.00  0.00     0.000 C 
BRANCH   5   6
ATOM      6  C   UNL     1     171.588 181.179 191.842  1.00  0.00     0.000 C 
BRANCH   6   7
ATOM      7  C   UNL     1     171.470 181.812 193.244  1.00  0.00     0.000 C 
BRANCH   7   8
ATOM      8  C   UNL     1     172.565 181.361 194.234  1.00  0.00     0.000 C 
BRANCH   8   9
ATOM      9  C   UNL     1     173.897 182.123 194.113  1.00  0.00     0.000 C 
BRANCH   9  10
ATOM     10  C   UNL     1     175.129 181.192 194.013  1.00  0.00     0.000 C 
BRANCH  10  11
ATOM     11  C   UNL     1     175.447 180.804 192.560  1.00  0.00     0.000 C 
BRANCH  11  12
ATOM     12  C   UNL     1     176.004 179.375 192.443  1.00  0.00     0.006 C 
BRANCH  12  13
ATOM     13  C   UNL     1     177.539 179.343 192.475  1.00  0.00     0.053 C 
BRANCH  13  14
ATOM     14  C   UNL     1     178.094 179.512 191.096  1.00  0.00     0.041 C 
ATOM     15  O   UNL     1     179.181 180.125 190.921  1.00  0.00    -0.550 OA
ATOM     16  O   UNL     1     177.435 178.953 190.006  1.00  0.00    -0.550 OA
ENDBRANCH  13  14
ENDBRANCH  12  13
ENDBRANCH  11  12
ENDBRANCH  10  11
ENDBRANCH   9  10
ENDBRANCH   8   9
ENDBRANCH   7   8
ENDBRANCH   6   7
ENDBRANCH   5   6
ENDBRANCH   4   5
ENDBRANCH   3   4
ENDBRANCH   2   3
ENDBRANCH   1   2
BRANCH   1  17
ATOM     17  C   UNL     1     173.173 176.875 196.110  1.00  0.00     0.000 C 
BRANCH  17  18
ATOM     18  C   UNL     1     172.863 177.235 197.579  1.00  0.00     0.000 C 
BRANCH  18  19
ATOM     19  C   UNL     1     174.016 176.914 198.546  1.00  0.00     0.000 C 
BRANCH  19  20
ATOM     20  C   UNL     1     173.876 177.631 199.899  1.00  0.00     0.000 C 
BRANCH  20  21
ATOM     21  C   UNL     1     172.591 178.468 199.998  1.00  0.00     0.000 C 
BRANCH  21  22
ATOM     22  C   UNL     1     172.872 179.976 200.121  1.00  0.00    -0.000 C 
BRANCH  22  23
ATOM     23  C   UNL     1     172.345 180.780 198.913  1.00  0.00    -0.000 C 
BRANCH  23  24
ATOM     24  C   UNL     1     173.322 180.847 197.722  1.00  0.00    -0.000 C 
BRANCH  24  25
ATOM     25  C   UNL     1     174.507 181.819 197.875  1.00  0.00    -0.000 C 
BRANCH  25  26
ATOM     26  C   UNL     1     175.897 181.247 197.511  1.00  0.00    -0.000 C 
BRANCH  26  27
ATOM     27  C   UNL     1     176.118 179.786 197.946  1.00  0.00    -0.000 C 
BRANCH  27  28
ATOM     28  C   UNL     1     177.189 179.041 197.116  1.00  0.00    -0.000 C 
BRANCH  28  29
ATOM     29  C   UNL     1     176.586 178.379 195.869  1.00  0.00    -0.003 C 
ATOM     30  C   UNL     1     176.834 176.875 195.868  1.00  0.00     0.004 C 
ENDBRANCH  28  29
ENDBRANCH  27  28
ENDBRANCH  26  27
ENDBRANCH  25  26
ENDBRANCH  24  25
ENDBRANCH  23  24
ENDBRANCH  22  23
ENDBRANCH  21  22
ENDBRANCH  20  21
ENDBRANCH  19  20
ENDBRANCH  18  19
ENDBRANCH  17  18
ENDBRANCH   1  17
TORSDOF 26
ENDMDL
MODEL 3
REMARK VINA RESULT:    -0.956      2.503      5.000
REMARK INTER + INTRA:          -8.647
REMARK INTER:                  -2.841
REMARK INTRA:                  -5.806
REMARK UNBOUND:                -6.238
REMARK SMILES CCCCCCCCCCCCCCCCCCCCCCCCCCCC(=O)[O-]
REMARK SMILES IDX 15 1 16 2 17 3 18 4 19 5 20 6 21 7 22 8 23 9 24 10 25 11
REMARK SMILES IDX 26 12 27 13 28 14 29 15 30 16 14 17 13 18 12 19 11 20 10 21
REMARK SMILES IDX 9 22 8 23 7 24 6 25 5 26 4 27 3 28 2 29 1 30
REMARK H PARENT
REMARK Flexibility Score: inf
ROOT
ATOM      1  C   UNL     1     174.551 179.014 195.909  1.00  0.00     0.000 C 
ENDROOT
BRANCH   1   2
ATOM      2  C   UNL     1     175.380 178.824 197.197  1.00  0.00     0.000 C 
BRANCH   2   3
ATOM      3  C   UNL     1     174.624 178.098 198.325  1.00  0.00     0.000 C 
BRANCH   3   4
ATOM      4  C   UNL     1     174.419 178.919 199.613  1.00  0.00     0.000 C 
BRANCH   4   5
ATOM      5  C   UNL     1     173.025 178.793 200.254  1.00  0.00     0.000 C 
BRANCH   5   6
ATOM      6  C   UNL     1     171.928 179.525 199.464  1.00  0.00     0.000 C 
BRANCH   6   7
ATOM      7  C   UNL     1     171.647 180.943 200.004  1.00  0.00     0.000 C 
BRANCH   7   8
ATOM      8  C   UNL     1     171.844 182.065 198.963  1.00  0.00     0.000 C 
BRANCH   8   9
ATOM      9  C   UNL     1     172.794 181.710 197.804  1.00  0.00     0.000 C 
BRANCH   9  10
ATOM     10  C   UNL     1     174.212 182.306 197.969  1.00  0.00     0.000 C 
BRANCH  10  11
ATOM     11  C   UNL     1     174.176 183.771 198.434  1.00  0.00     0.000 C 
BRANCH  11  12
ATOM     12  C   UNL     1     174.487 184.756 197.294  1.00  0.00     0.006 C 
BRANCH  12  13
ATOM     13  C   UNL     1     173.233 185.139 196.495  1.00  0.00     0.053 C 
BRANCH  13  14
ATOM     14  C   UNL     1     173.616 185.736 195.177  1.00  0.00     0.041 C 
ATOM     15  O   UNL     1     172.737 185.958 194.303  1.00  0.00    -0.550 OA
ATOM     16  O   UNL     1     174.938 186.092 194.931  1.00  0.00    -0.550 OA
ENDBRANCH  13  14
ENDBRANCH  12  13
ENDBRANCH  11  12
ENDBRANCH  10  11
ENDBRANCH   9  10
ENDBRANCH   8   9
ENDBRANCH   7   8
ENDBRANCH   6   7
ENDBRANCH   5   6
ENDBRANCH   4   5
ENDBRANCH   3   4
ENDBRANCH   2   3
ENDBRANCH   1   2
BRANCH   1  17
ATOM     17  C   UNL     1     173.093 178.545 196.065  1.00  0.00     0.000 C 
BRANCH  17  18
ATOM     18  C   UNL     1     172.767 177.348 195.146  1.00  0.00     0.000 C 
BRANCH  18  19
ATOM     19  C   UNL     1     173.844 177.082 194.079  1.00  0.00     0.000 C 
BRANCH  19  20
ATOM     20  C   UNL     1     173.374 177.430 192.657  1.00  0.00     0.000 C 
BRANCH  20  21
ATOM     21  C   UNL     1     171.867 177.719 192.584  1.00  0.00     0.000 C 
BRANCH  21  22
ATOM     22  C   UNL     1     171.557 179.123 192.035  1.00  0.00    -0.000 C 
BRANCH  22  23
ATOM     23  C   UNL     1     172.580 180.182 192.497  1.00  0.00    -0.000 C 
BRANCH  23  24
ATOM     24  C   UNL     1     172.055 181.136 193.589  1.00  0.00    -0.000 C 
BRANCH  24  25
ATOM     25  C   UNL     1     173.081 182.128 194.169  1.00  0.00    -0.000 C 
BRANCH  25  26
ATOM     26  C   UNL     1     174.537 181.956 193.675  1.00  0.00    -0.000 C 
BRANCH  26  27
ATOM     27  C   UNL     1     175.600 182.584 194.596  1.00  0.00    -0.000 C 
BRANCH  27  28
ATOM     28  C   UNL     1     176.858 181.706 194.788  1.00  0.00    -0.000 C 
BRANCH  28  29
ATOM     29  C   UNL     1     177.393 181.784 196.225  1.00  0.00    -0.003 C 
ATOM     30  C   UNL     1     177.830 183.202 196.575  1.00  0.00     0.004 C 
ENDBRANCH  28  29
ENDBRANCH  27  28
ENDBRANCH  26  27
ENDBRANCH  25  26
ENDBRANCH  24  25
ENDBRANCH  23  24
ENDBRANCH  22  23
ENDBRANCH  21  22
ENDBRANCH  20  21
ENDBRANCH  19  20
ENDBRANCH  18  19
ENDBRANCH  17  18
ENDBRANCH   1  17
TORSDOF 26
ENDMDL
MODEL 4
REMARK VINA RESULT:    -0.918      2.238      5.715
REMARK INTER + INTRA:          -8.551
REMARK INTER:                  -2.111
REMARK INTRA:                  -6.440
REMARK UNBOUND:                -6.238
REMARK SMILES CCCCCCCCCCCCCCCCCCCCCCCCCCCC(=O)[O-]
REMARK SMILES IDX 15 1 16 2 17 3 18 4 19 5 20 6 21 7 22 8 23 9 24 10 25 11
REMARK SMILES IDX 26 12 27 13 28 14 29 15 30 16 14 17 13 18 12 19 11 20 10 21
REMARK SMILES IDX 9 22 8 23 7 24 6 25 5 26 4 27 3 28 2 29 1 30
REMARK H PARENT
REMARK Flexibility Score: inf
ROOT
ATOM      1  C   UNL     1     177.139 177.859 196.142  1.00  0.00     0.000 C 
ENDROOT
BRANCH   1   2
ATOM      2  C   UNL     1     177.560 178.616 194.865  1.00  0.00     0.000 C 
BRANCH   2   3
ATOM      3  C   UNL     1     176.819 178.158 193.594  1.00  0.00     0.000 C 
BRANCH   3   4
ATOM      4  C   UNL     1     175.863 176.965 193.786  1.00  0.00     0.000 C 
BRANCH   4   5
ATOM      5  C   UNL     1     174.716 176.875 192.763  1.00  0.00     0.000 C 
BRANCH   5   6
ATOM      6  C   UNL     1     174.131 178.247 192.388  1.00  0.00     0.000 C 
BRANCH   6   7
ATOM      7  C   UNL     1     172.597 178.218 192.223  1.00  0.00     0.000 C 
BRANCH   7   8
ATOM      8  C   UNL     1     171.921 179.597 192.370  1.00  0.00     0.000 C 
BRANCH   8   9
ATOM      9  C   UNL     1     172.711 180.770 191.761  1.00  0.00     0.000 C 
BRANCH   9  10
ATOM     10  C   UNL     1     172.567 182.087 192.561  1.00  0.00     0.000 C 
BRANCH  10  11
ATOM     11  C   UNL     1     171.452 182.007 193.616  1.00  0.00     0.000 C 
BRANCH  11  12
ATOM     12  C   UNL     1     171.204 183.357 194.311  1.00  0.00     0.006 C 
BRANCH  12  13
ATOM     13  C   UNL     1     171.710 183.369 195.761  1.00  0.00     0.053 C 
BRANCH  13  14
ATOM     14  C   UNL     1     172.253 184.717 196.113  1.00  0.00     0.041 C 
ATOM     15  O   UNL     1     171.471 185.689 196.290  1.00  0.00    -0.550 OA
ATOM     16  O   UNL     1     173.621 184.893 196.293  1.00  0.00    -0.550 OA
ENDBRANCH  13  14
ENDBRANCH  12  13
ENDBRANCH  11  12
ENDBRANCH  10  11
ENDBRANCH   9  10
ENDBRANCH   8   9
ENDBRANCH   7   8
ENDBRANCH   6   7
ENDBRANCH   5   6
ENDBRANCH   4   5
ENDBRANCH   3   4
ENDBRANCH   2   3
ENDBRANCH   1   2
BRANCH   1  17
ATOM     17  C   UNL     1     176.993 178.785 197.363  1.00  0.00     0.000 C 
BRANCH  17  18
ATOM     18  C   UNL     1     175.917 178.281 198.348  1.00  0.00     0.000 C 
BRANCH  18  19
ATOM     19  C   UNL     1     174.979 177.221 197.744  1.00  0.00     0.000 C 
BRANCH  19  20
ATOM     20  C   UNL     1     173.535 177.724 197.583  1.00  0.00     0.000 C 
BRANCH  20  21
ATOM     21  C   UNL     1     173.196 178.104 196.133  1.00  0.00     0.000 C 
BRANCH  21  22
ATOM     22  C   UNL     1     173.054 179.623 195.934  1.00  0.00    -0.000 C 
BRANCH  22  23
ATOM     23  C   UNL     1     174.294 180.254 195.266  1.00  0.00    -0.000 C 
BRANCH  23  24
ATOM     24  C   UNL     1     174.844 181.495 195.995  1.00  0.00    -0.000 C 
BRANCH  24  25
ATOM     25  C   UNL     1     175.876 182.334 195.217  1.00  0.00    -0.000 C 
BRANCH  25  26
ATOM     26  C   UNL     1     176.171 181.866 193.772  1.00  0.00    -0.000 C 
BRANCH  26  27
ATOM     27  C   UNL     1     176.023 182.966 192.704  1.00  0.00    -0.000 C 
BRANCH  27  28
ATOM     28  C   UNL     1     176.150 182.450 191.253  1.00  0.00    -0.000 C 
BRANCH  28  29
ATOM     29  C   UNL     1     176.733 181.031 191.200  1.00  0.00    -0.003 C 
ATOM     30  C   UNL     1     176.074 180.204 190.103  1.00  0.00     0.004 C 
ENDBRANCH  28  29
ENDBRANCH  27  28
ENDBRANCH  26  27
ENDBRANCH  25  26
ENDBRANCH  24  25
ENDBRANCH  23  24
ENDBRANCH  22  23
ENDBRANCH  21  22
ENDBRANCH  20  21
ENDBRANCH  19  20
ENDBRANCH  18  19
ENDBRANCH  17  18
ENDBRANCH   1  17
TORSDOF 26
ENDMDL
MODEL 5
REMARK VINA RESULT:    -0.916      2.221      6.894
REMARK INTER + INTRA:          -8.545
REMARK INTER:                  -3.338
REMARK INTRA:                  -5.207
REMARK UNBOUND:                -6.238
REMARK SMILES CCCCCCCCCCCCCCCCCCCCCCCCCCCC(=O)[O-]
REMARK SMILES IDX 15 1 16 2 17 3 18 4 19 5 20 6 21 7 22 8 23 9 24 10 25 11
REMARK SMILES IDX 26 12 27 13 28 14 29 15 30 16 14 17 13 18 12 19 11 20 10 21
REMARK SMILES IDX 9 22 8 23 7 24 6 25 5 26 4 27 3 28 2 29 1 30
REMARK H PARENT
REMARK Flexibility Score: inf
ROOT
ATOM      1  C   UNL     1     172.955 177.106 195.225  1.00  0.00     0.000 C 
ENDROOT
BRANCH   1   2
ATOM      2  C   UNL     1     172.094 176.877 193.965  1.00  0.00     0.000 C 
BRANCH   2   3
ATOM      3  C   UNL     1     172.613 177.607 192.712  1.00  0.00     0.000 C 
BRANCH   3   4
ATOM      4  C   UNL     1     171.666 178.678 192.137  1.00  0.00     0.000 C 
BRANCH   4   5
ATOM      5  C   UNL     1     171.952 180.118 192.597  1.00  0.00     0.000 C 
BRANCH   5   6
ATOM      6  C   UNL     1     173.079 180.796 191.800  1.00  0.00     0.000 C 
BRANCH   6   7
ATOM      7  C   UNL     1     174.369 180.978 192.626  1.00  0.00     0.000 C 
BRANCH   7   8
ATOM      8  C   UNL     1     175.525 180.045 192.204  1.00  0.00     0.000 C 
BRANCH   8   9
ATOM      9  C   UNL     1     176.927 180.528 192.618  1.00  0.00     0.000 C 
BRANCH   9  10
ATOM     10  C   UNL     1     177.281 180.195 194.087  1.00  0.00     0.000 C 
BRANCH  10  11
ATOM     11  C   UNL     1     177.718 181.440 194.876  1.00  0.00     0.000 C 
BRANCH  11  12
ATOM     12  C   UNL     1     176.596 182.487 194.989  1.00  0.00     0.006 C 
BRANCH  12  13
ATOM     13  C   UNL     1     177.044 183.877 194.514  1.00  0.00     0.053 C 
BRANCH  13  14
ATOM     14  C   UNL     1     176.070 184.428 193.521  1.00  0.00     0.041 C 
ATOM     15  O   UNL     1     175.267 185.338 193.859  1.00  0.00    -0.550 OA
ATOM     16  O   UNL     1     176.079 183.972 192.207  1.00  0.00    -0.550 OA
ENDBRANCH  13  14
ENDBRANCH  12  13
ENDBRANCH  11  12
ENDBRANCH  10  11
ENDBRANCH   9  10
ENDBRANCH   8   9
ENDBRANCH   7   8
ENDBRANCH   6   7
ENDBRANCH   5   6
ENDBRANCH   4   5
ENDBRANCH   3   4
ENDBRANCH   2   3
ENDBRANCH   1   2
BRANCH   1  17
ATOM     17  C   UNL     1     174.277 177.832 194.919  1.00  0.00     0.000 C 
BRANCH  17  18
ATOM     18  C   UNL     1     174.447 179.112 195.765  1.00  0.00     0.000 C 
BRANCH  18  19
ATOM     19  C   UNL     1     173.112 179.766 196.163  1.00  0.00     0.000 C 
BRANCH  19  20
ATOM     20  C   UNL     1     173.140 181.299 196.043  1.00  0.00     0.000 C 
BRANCH  20  21
ATOM     21  C   UNL     1     172.784 182.004 197.361  1.00  0.00     0.000 C 
BRANCH  21  22
ATOM     22  C   UNL     1     173.019 181.113 198.594  1.00  0.00    -0.000 C 
BRANCH  22  23
ATOM     23  C   UNL     1     171.750 180.947 199.457  1.00  0.00    -0.000 C 
BRANCH  23  24
ATOM     24  C   UNL     1     171.938 180.041 200.690  1.00  0.00    -0.000 C 
BRANCH  24  25
ATOM     25  C   UNL     1     171.104 178.745 200.709  1.00  0.00    -0.000 C 
BRANCH  25  26
ATOM     26  C   UNL     1     171.862 177.452 200.331  1.00  0.00    -0.000 C 
BRANCH  26  27
ATOM     27  C   UNL     1     172.397 177.426 198.886  1.00  0.00    -0.000 C 
BRANCH  27  28
ATOM     28  C   UNL     1     173.901 177.085 198.781  1.00  0.00    -0.000 C 
BRANCH  28  29
ATOM     29  C   UNL     1     174.710 177.718 199.922  1.00  0.00    -0.003 C 
ATOM     30  C   UNL     1     175.679 178.769 199.393  1.00  0.00     0.004 C 
ENDBRANCH  28  29
ENDBRANCH  27  28
ENDBRANCH  26  27
ENDBRANCH  25  26
ENDBRANCH  24  25
ENDBRANCH  23  24
ENDBRANCH  22  23
ENDBRANCH  21  22
ENDBRANCH  20  21
ENDBRANCH  19  20
ENDBRANCH  18  19
ENDBRANCH  17  18
ENDBRANCH   1  17
TORSDOF 26
ENDMDL
MODEL 6
REMARK VINA RESULT:    -0.898      2.736      5.661
REMARK INTER + INTRA:          -8.500
REMARK INTER:                  -2.686
REMARK INTRA:                  -5.815
REMARK UNBOUND:                -6.238
REMARK SMILES CCCCCCCCCCCCCCCCCCCCCCCCCCCC(=O)[O-]
REMARK SMILES IDX 15 1 16 2 17 3 18 4 19 5 20 6 21 7 22 8 23 9 24 10 25 11
REMARK SMILES IDX 26 12 27 13 28 14 29 15 30 16 14 17 13 18 12 19 11 20 10 21
REMARK SMILES IDX 9 22 8 23 7 24 6 25 5 26 4 27 3 28 2 29 1 30
REMARK H PARENT
REMARK Flexibility Score: inf
ROOT
ATOM      1  C   UNL     1     172.822 180.923 194.400  1.00  0.00     0.000 C 
ENDROOT
BRANCH   1   2
ATOM      2  C   UNL     1     173.053 180.445 195.849  1.00  0.00     0.000 C 
BRANCH   2   3
ATOM      3  C   UNL     1     172.971 181.569 196.899  1.00  0.00     0.000 C 
BRANCH   3   4
ATOM      4  C   UNL     1     173.551 181.219 198.283  1.00  0.00     0.000 C 
BRANCH   4   5
ATOM      5  C   UNL     1     174.297 182.365 198.988  1.00  0.00     0.000 C 
BRANCH   5   6
ATOM      6  C   UNL     1     175.511 181.887 199.803  1.00  0.00     0.000 C 
BRANCH   6   7
ATOM      7  C   UNL     1     176.658 181.362 198.914  1.00  0.00     0.000 C 
BRANCH   7   8
ATOM      8  C   UNL     1     177.127 182.360 197.834  1.00  0.00     0.000 C 
BRANCH   8   9
ATOM      9  C   UNL     1     177.513 181.719 196.488  1.00  0.00     0.000 C 
BRANCH   9  10
ATOM     10  C   UNL     1     176.708 182.278 195.290  1.00  0.00     0.000 C 
BRANCH  10  11
ATOM     11  C   UNL     1     175.760 183.414 195.706  1.00  0.00     0.000 C 
BRANCH  11  12
ATOM     12  C   UNL     1     174.905 183.923 194.533  1.00  0.00     0.006 C 
BRANCH  12  13
ATOM     13  C   UNL     1     173.921 185.021 194.962  1.00  0.00     0.053 C 
BRANCH  13  14
ATOM     14  C   UNL     1     173.228 185.597 193.767  1.00  0.00     0.041 C 
ATOM     15  O   UNL     1     171.993 185.845 193.810  1.00  0.00    -0.550 OA
ATOM     16  O   UNL     1     173.952 185.903 192.621  1.00  0.00    -0.550 OA
ENDBRANCH  13  14
ENDBRANCH  12  13
ENDBRANCH  11  12
ENDBRANCH  10  11
ENDBRANCH   9  10
ENDBRANCH   8   9
ENDBRANCH   7   8
ENDBRANCH   6   7
ENDBRANCH   5   6
ENDBRANCH   4   5
ENDBRANCH   3   4
ENDBRANCH   2   3
ENDBRANCH   1   2
BRANCH   1  17
ATOM     17  C   UNL     1     173.985 180.561 193.460  1.00  0.00     0.000 C 
BRANCH  17  18
ATOM     18  C   UNL     1     173.555 179.569 192.359  1.00  0.00     0.000 C 
BRANCH  18  19
ATOM     19  C   UNL     1     172.036 179.324 192.312  1.00  0.00     0.000 C 
BRANCH  19  20
ATOM     20  C   UNL     1     171.671 177.831 192.339  1.00  0.00     0.000 C 
BRANCH  20  21
ATOM     21  C   UNL     1     172.661 176.992 193.162  1.00  0.00     0.000 C 
BRANCH  21  22
ATOM     22  C   UNL     1     172.321 176.977 194.663  1.00  0.00    -0.000 C 
BRANCH  22  23
ATOM     23  C   UNL     1     173.576 176.875 195.556  1.00  0.00    -0.000 C 
BRANCH  23  24
ATOM     24  C   UNL     1     174.909 176.970 194.787  1.00  0.00    -0.000 C 
BRANCH  24  25
ATOM     25  C   UNL     1     175.953 177.945 195.365  1.00  0.00    -0.000 C 
BRANCH  25  26
ATOM     26  C   UNL     1     175.605 178.569 196.736  1.00  0.00    -0.000 C 
BRANCH  26  27
ATOM     27  C   UNL     1     176.032 177.720 197.949  1.00  0.00    -0.000 C 
BRANCH  27  28
ATOM     28  C   UNL     1     175.237 178.026 199.238  1.00  0.00    -0.000 C 
BRANCH  28  29
ATOM     29  C   UNL     1     174.073 177.045 199.437  1.00  0.00    -0.003 C 
ATOM     30  C   UNL     1     172.748 177.670 199.018  1.00  0.00     0.004 C 
ENDBRANCH  28  29
ENDBRANCH  27  28
ENDBRANCH  26  27
ENDBRANCH  25  26
ENDBRANCH  24  25
ENDBRANCH  23  24
ENDBRANCH  22  23
ENDBRANCH  21  22
ENDBRANCH  20  21
ENDBRANCH  19  20
ENDBRANCH  18  19
ENDBRANCH  17  18
ENDBRANCH   1  17
TORSDOF 26
ENDMDL
MODEL 7
REMARK VINA RESULT:    -0.896      1.819      4.495
REMARK INTER + INTRA:          -8.497
REMARK INTER:                  -2.433
REMARK INTRA:                  -6.064
REMARK UNBOUND:                -6.238
REMARK SMILES CCCCCCCCCCCCCCCCCCCCCCCCCCCC(=O)[O-]
REMARK SMILES IDX 15 1 16 2 17 3 18 4 19 5 20 6 21 7 22 8 23 9 24 10 25 11
REMARK SMILES IDX 26 12 27 13 28 14 29 15 30 16 14 17 13 18 12 19 11 20 10 21
REMARK SMILES IDX 9 22 8 23 7 24 6 25 5 26 4 27 3 28 2 29 1 30
REMARK H PARENT
REMARK Flexibility Score: inf
ROOT
ATOM      1  C   UNL     1     174.502 178.437 195.648  1.00  0.00     0.000 C 
ENDROOT
BRANCH   1   2
ATOM      2  C   UNL     1     173.093 178.139 196.203  1.00  0.00     0.000 C 
BRANCH   2   3
ATOM      3  C   UNL     1     173.067 177.040 197.281  1.00  0.00     0.000 C 
BRANCH   3   4
ATOM      4  C   UNL     1     172.829 177.537 198.720  1.00  0.00     0.000 C 
BRANCH   4   5
ATOM      5  C   UNL     1     174.101 177.925 199.496  1.00  0.00     0.000 C 
BRANCH   5   6
ATOM      6  C   UNL     1     174.078 179.375 200.008  1.00  0.00     0.000 C 
BRANCH   6   7
ATOM      7  C   UNL     1     174.427 180.402 198.911  1.00  0.00     0.000 C 
BRANCH   7   8
ATOM      8  C   UNL     1     173.303 181.418 198.617  1.00  0.00     0.000 C 
BRANCH   8   9
ATOM      9  C   UNL     1     173.113 181.757 197.127  1.00  0.00     0.000 C 
BRANCH   9  10
ATOM     10  C   UNL     1     174.439 181.777 196.329  1.00  0.00     0.000 C 
BRANCH  10  11
ATOM     11  C   UNL     1     174.903 183.207 196.011  1.00  0.00     0.000 C 
BRANCH  11  12
ATOM     12  C   UNL     1     176.421 183.384 196.189  1.00  0.00     0.006 C 
BRANCH  12  13
ATOM     13  C   UNL     1     176.926 182.797 197.515  1.00  0.00     0.053 C 
BRANCH  13  14
ATOM     14  C   UNL     1     178.422 182.786 197.545  1.00  0.00     0.041 C 
ATOM     15  O   UNL     1     179.078 182.906 196.476  1.00  0.00    -0.550 OA
ATOM     16  O   UNL     1     179.094 182.690 198.759  1.00  0.00    -0.550 OA
ENDBRANCH  13  14
ENDBRANCH  12  13
ENDBRANCH  11  12
ENDBRANCH  10  11
ENDBRANCH   9  10
ENDBRANCH   8   9
ENDBRANCH   7   8
ENDBRANCH   6   7
ENDBRANCH   5   6
ENDBRANCH   4   5
ENDBRANCH   3   4
ENDBRANCH   2   3
ENDBRANCH   1   2
BRANCH   1  17
ATOM     17  C   UNL     1     175.478 177.262 195.835  1.00  0.00     0.000 C 
BRANCH  17  18
ATOM     18  C   UNL     1     176.696 177.650 196.700  1.00  0.00     0.000 C 
BRANCH  18  19
ATOM     19  C   UNL     1     176.997 179.159 196.695  1.00  0.00     0.000 C 
BRANCH  19  20
ATOM     20  C   UNL     1     178.072 179.549 195.667  1.00  0.00     0.000 C 
BRANCH  20  21
ATOM     21  C   UNL     1     177.479 180.165 194.391  1.00  0.00     0.000 C 
BRANCH  21  22
ATOM     22  C   UNL     1     177.433 179.172 193.216  1.00  0.00    -0.000 C 
BRANCH  22  23
ATOM     23  C   UNL     1     176.070 179.168 192.493  1.00  0.00    -0.000 C 
BRANCH  23  24
ATOM     24  C   UNL     1     175.593 177.772 192.047  1.00  0.00    -0.000 C 
BRANCH  24  25
ATOM     25  C   UNL     1     174.161 177.696 191.483  1.00  0.00    -0.000 C 
BRANCH  25  26
ATOM     26  C   UNL     1     173.026 177.649 192.532  1.00  0.00    -0.000 C 
BRANCH  26  27
ATOM     27  C   UNL     1     171.693 178.258 192.056  1.00  0.00    -0.000 C 
BRANCH  27  28
ATOM     28  C   UNL     1     171.695 179.802 192.000  1.00  0.00    -0.000 C 
BRANCH  28  29
ATOM     29  C   UNL     1     172.376 180.417 193.231  1.00  0.00    -0.003 C 
ATOM     30  C   UNL     1     173.354 181.515 192.830  1.00  0.00     0.004 C 
ENDBRANCH  28  29
ENDBRANCH  27  28
ENDBRANCH  26  27
ENDBRANCH  25  26
ENDBRANCH  24  25
ENDBRANCH  23  24
ENDBRANCH  22  23
ENDBRANCH  21  22
ENDBRANCH  20  21
ENDBRANCH  19  20
ENDBRANCH  18  19
ENDBRANCH  17  18
ENDBRANCH   1  17
TORSDOF 26
ENDMDL
MODEL 8
REMARK VINA RESULT:    -0.874      1.883      5.812
REMARK INTER + INTRA:          -8.441
REMARK INTER:                  -2.367
REMARK INTRA:                  -6.073
REMARK UNBOUND:                -6.238
REMARK SMILES CCCCCCCCCCCCCCCCCCCCCCCCCCCC(=O)[O-]
REMARK SMILES IDX 15 1 16 2 17 3 18 4 19 5 20 6 21 7 22 8 23 9 24 10 25 11
REMARK SMILES IDX 26 12 27 13 28 14 29 15 30 16 14 17 13 18 12 19 11 20 10 21
REMARK SMILES IDX 9 22 8 23 7 24 6 25 5 26 4 27 3 28 2 29 1 30
REMARK H PARENT
REMARK Flexibility Score: inf
ROOT
ATOM      1  C   UNL     1     173.827 181.137 194.261  1.00  0.00     0.000 C 
ENDROOT
BRANCH   1   2
ATOM      2  C   UNL     1     172.400 181.450 194.759  1.00  0.00     0.000 C 
BRANCH   2   3
ATOM      3  C   UNL     1     171.459 181.983 193.662  1.00  0.00     0.000 C 
BRANCH   3   4
ATOM      4  C   UNL     1     172.086 182.105 192.261  1.00  0.00     0.000 C 
BRANCH   4   5
ATOM      5  C   UNL     1     171.457 181.205 191.182  1.00  0.00     0.000 C 
BRANCH   5   6
ATOM      6  C   UNL     1     170.929 179.872 191.739  1.00  0.00     0.000 C 
BRANCH   6   7
ATOM      7  C   UNL     1     171.691 178.650 191.186  1.00  0.00     0.000 C 
BRANCH   7   8
ATOM      8  C   UNL     1     172.976 179.006 190.407  1.00  0.00     0.000 C 
BRANCH   8   9
ATOM      9  C   UNL     1     174.279 178.493 191.045  1.00  0.00     0.000 C 
BRANCH   9  10
ATOM     10  C   UNL     1     175.395 179.563 191.105  1.00  0.00     0.000 C 
BRANCH  10  11
ATOM     11  C   UNL     1     174.987 180.868 190.403  1.00  0.00     0.000 C 
BRANCH  11  12
ATOM     12  C   UNL     1     176.078 181.948 190.492  1.00  0.00     0.006 C 
BRANCH  12  13
ATOM     13  C   UNL     1     175.695 183.088 191.447  1.00  0.00     0.053 C 
BRANCH  13  14
ATOM     14  C   UNL     1     176.593 183.090 192.644  1.00  0.00     0.041 C 
ATOM     15  O   UNL     1     177.307 182.085 192.902  1.00  0.00    -0.550 OA
ATOM     16  O   UNL     1     176.676 184.219 193.451  1.00  0.00    -0.550 OA
ENDBRANCH  13  14
ENDBRANCH  12  13
ENDBRANCH  11  12
ENDBRANCH  10  11
ENDBRANCH   9  10
ENDBRANCH   8   9
ENDBRANCH   7   8
ENDBRANCH   6   7
ENDBRANCH   5   6
ENDBRANCH   4   5
ENDBRANCH   3   4
ENDBRANCH   2   3
ENDBRANCH   1   2
BRANCH   1  17
ATOM     17  C   UNL     1     174.261 179.693 194.566  1.00  0.00     0.000 C 
BRANCH  17  18
ATOM     18  C   UNL     1     173.068 178.713 194.554  1.00  0.00     0.000 C 
BRANCH  18  19
ATOM     19  C   UNL     1     173.104 177.687 195.701  1.00  0.00     0.000 C 
BRANCH  19  20
ATOM     20  C   UNL     1     174.102 178.065 196.807  1.00  0.00     0.000 C 
BRANCH  20  21
ATOM     21  C   UNL     1     173.422 178.311 198.162  1.00  0.00     0.000 C 
BRANCH  21  22
ATOM     22  C   UNL     1     172.677 179.657 198.218  1.00  0.00    -0.000 C 
BRANCH  22  23
ATOM     23  C   UNL     1     173.633 180.868 198.156  1.00  0.00    -0.000 C 
BRANCH  23  24
ATOM     24  C   UNL     1     174.735 180.860 199.234  1.00  0.00    -0.000 C 
BRANCH  24  25
ATOM     25  C   UNL     1     176.144 181.266 198.762  1.00  0.00    -0.000 C 
BRANCH  25  26
ATOM     26  C   UNL     1     176.489 180.914 197.296  1.00  0.00    -0.000 C 
BRANCH  26  27
ATOM     27  C   UNL     1     176.676 182.134 196.375  1.00  0.00    -0.000 C 
BRANCH  27  28
ATOM     28  C   UNL     1     176.191 183.465 196.994  1.00  0.00    -0.000 C 
BRANCH  28  29
ATOM     29  C   UNL     1     174.844 183.910 196.407  1.00  0.00    -0.003 C 
ATOM     30  C   UNL     1     174.419 185.263 196.966  1.00  0.00     0.004 C 
ENDBRANCH  28  29
ENDBRANCH  27  28
ENDBRANCH  26  27
ENDBRANCH  25  26
ENDBRANCH  24  25
ENDBRANCH  23  24
ENDBRANCH  22  23
ENDBRANCH  21  22
ENDBRANCH  20  21
ENDBRANCH  19  20
ENDBRANCH  18  19
ENDBRANCH  17  18
ENDBRANCH   1  17
TORSDOF 26
ENDMDL
MODEL 9
REMARK VINA RESULT:    -0.870      2.220      6.456
REMARK INTER + INTRA:          -8.432
REMARK INTER:                  -3.064
REMARK INTRA:                  -5.367
REMARK UNBOUND:                -6.238
REMARK SMILES CCCCCCCCCCCCCCCCCCCCCCCCCCCC(=O)[O-]
REMARK SMILES IDX 15 1 16 2 17 3 18 4 19 5 20 6 21 7 22 8 23 9 24 10 25 11
REMARK SMILES IDX 26 12 27 13 28 14 29 15 30 16 14 17 13 18 12 19 11 20 10 21
REMARK SMILES IDX 9 22 8 23 7 24 6 25 5 26 4 27 3 28 2 29 1 30
REMARK H PARENT
REMARK Flexibility Score: inf
ROOT
ATOM      1  C   UNL     1     173.115 178.339 195.104  1.00  0.00     0.000 C 
ENDROOT
BRANCH   1   2
ATOM      2  C   UNL     1     173.329 177.943 193.628  1.00  0.00     0.000 C 
BRANCH   2   3
ATOM      3  C   UNL     1     172.025 177.649 192.864  1.00  0.00     0.000 C 
BRANCH   3   4
ATOM      4  C   UNL     1     171.632 178.699 191.807  1.00  0.00     0.000 C 
BRANCH   4   5
ATOM      5  C   UNL     1     172.507 179.965 191.786  1.00  0.00     0.000 C 
BRANCH   5   6
ATOM      6  C   UNL     1     171.709 181.248 191.503  1.00  0.00     0.000 C 
BRANCH   6   7
ATOM      7  C   UNL     1     171.862 182.306 192.617  1.00  0.00     0.000 C 
BRANCH   7   8
ATOM      8  C   UNL     1     171.730 181.739 194.047  1.00  0.00     0.000 C 
BRANCH   8   9
ATOM      9  C   UNL     1     172.971 181.936 194.936  1.00  0.00     0.000 C 
BRANCH   9  10
ATOM     10  C   UNL     1     174.262 182.221 194.131  1.00  0.00     0.000 C 
BRANCH  10  11
ATOM     11  C   UNL     1     175.387 181.228 194.467  1.00  0.00     0.000 C 
BRANCH  11  12
ATOM     12  C   UNL     1     175.523 180.987 195.980  1.00  0.00     0.006 C 
BRANCH  12  13
ATOM     13  C   UNL     1     176.344 179.728 196.298  1.00  0.00     0.053 C 
BRANCH  13  14
ATOM     14  C   UNL     1     177.218 179.963 197.489  1.00  0.00     0.041 C 
ATOM     15  O   UNL     1     178.081 179.106 197.820  1.00  0.00    -0.550 OA
ATOM     16  O   UNL     1     177.114 181.148 198.208  1.00  0.00    -0.550 OA
ENDBRANCH  13  14
ENDBRANCH  12  13
ENDBRANCH  11  12
ENDBRANCH  10  11
ENDBRANCH   9  10
ENDBRANCH   8   9
ENDBRANCH   7   8
ENDBRANCH   6   7
ENDBRANCH   5   6
ENDBRANCH   4   5
ENDBRANCH   3   4
ENDBRANCH   2   3
ENDBRANCH   1   2
BRANCH   1  17
ATOM     17  C   UNL     1     172.965 177.120 196.032  1.00  0.00     0.000 C 
BRANCH  17  18
ATOM     18  C   UNL     1     173.681 177.328 197.384  1.00  0.00     0.000 C 
BRANCH  18  19
ATOM     19  C   UNL     1     172.718 177.413 198.582  1.00  0.00     0.000 C 
BRANCH  19  20
ATOM     20  C   UNL     1     172.826 178.747 199.340  1.00  0.00     0.000 C 
BRANCH  20  21
ATOM     21  C   UNL     1     172.758 179.967 198.409  1.00  0.00     0.000 C 
BRANCH  21  22
ATOM     22  C   UNL     1     173.540 181.175 198.955  1.00  0.00    -0.000 C 
BRANCH  22  23
ATOM     23  C   UNL     1     172.639 182.173 199.713  1.00  0.00    -0.000 C 
BRANCH  23  24
ATOM     24  C   UNL     1     171.356 182.569 198.956  1.00  0.00    -0.000 C 
BRANCH  24  25
ATOM     25  C   UNL     1     171.517 183.655 197.875  1.00  0.00    -0.000 C 
BRANCH  25  26
ATOM     26  C   UNL     1     172.604 184.720 198.149  1.00  0.00    -0.000 C 
BRANCH  26  27
ATOM     27  C   UNL     1     173.744 184.747 197.113  1.00  0.00    -0.000 C 
BRANCH  27  28
ATOM     28  C   UNL     1     175.095 184.227 197.654  1.00  0.00    -0.000 C 
BRANCH  28  29
ATOM     29  C   UNL     1     176.261 184.596 196.728  1.00  0.00    -0.003 C 
ATOM     30  C   UNL     1     175.762 185.262 195.451  1.00  0.00     0.004 C 
ENDBRANCH  28  29
ENDBRANCH  27  28
ENDBRANCH  26  27
ENDBRANCH  25  26
ENDBRANCH  24  25
ENDBRANCH  23  24
ENDBRANCH  22  23
ENDBRANCH  21  22
ENDBRANCH  20  21
ENDBRANCH  19  20
ENDBRANCH  18  19
ENDBRANCH  17  18
ENDBRANCH   1  17
TORSDOF 26
ENDMDL
