MODEL 1
REMARK VINA RESULT:    -2.641      0.000      0.000
REMARK INTER + INTRA:          -8.236
REMARK INTER:                  -5.111
REMARK INTRA:                  -3.125
REMARK UNBOUND:                -3.125
REMARK SMILES CCCCCCCCCCCCCCCCCC(=O)[O-]
REMARK SMILES IDX 10 1 11 2 12 3 13 4 14 5 15 6 16 7 17 8 18 9 19 10 20 11
REMARK SMILES IDX 9 12 8 13 7 14 6 15 5 16 4 17 3 18 2 19 1 20
REMARK H PARENT
REMARK Flexibility Score: inf
ROOT
ATOM      1  C   UNL     1      98.841  65.574 225.300  1.00  0.00     0.000 C 
ENDROOT
BRANCH   1   2
ATOM      2  C   UNL     1     100.327  65.357 224.963  1.00  0.00     0.000 C 
BRANCH   2   3
ATOM      3  C   UNL     1     101.217  66.533 225.404  1.00  0.00     0.000 C 
BRANCH   3   4
ATOM      4  C   UNL     1     101.596  66.471 226.896  1.00  0.00     0.000 C 
BRANCH   4   5
ATOM      5  C   UNL     1     100.804  67.424 227.809  1.00  0.00     0.000 C 
BRANCH   5   6
ATOM      6  C   UNL     1      99.990  66.684 228.884  1.00  0.00     0.000 C 
BRANCH   6   7
ATOM      7  C   UNL     1      98.480  66.972 228.805  1.00  0.00     0.006 C 
BRANCH   7   8
ATOM      8  C   UNL     1      97.699  66.546 230.060  1.00  0.00     0.053 C 
BRANCH   8   9
ATOM      9  C   UNL     1      96.217  66.542 229.842  1.00  0.00     0.041 C 
ATOM     10  O   UNL     1      95.494  65.688 230.421  1.00  0.00    -0.550 OA
ATOM     11  O   UNL     1      95.628  67.500 229.025  1.00  0.00    -0.550 OA
ENDBRANCH   8   9
ENDBRANCH   7   8
ENDBRANCH   6   7
ENDBRANCH   5   6
ENDBRANCH   4   5
ENDBRANCH   3   4
ENDBRANCH   2   3
ENDBRANCH   1   2
BRANCH   1  12
ATOM     12  C   UNL     1      98.038  64.292 225.604  1.00  0.00     0.000 C 
BRANCH  12  13
ATOM     13  C   UNL     1      97.069  64.386 226.798  1.00  0.00    -0.000 C 
BRANCH  13  14
ATOM     14  C   UNL     1      97.471  63.473 227.967  1.00  0.00    -0.000 C 
BRANCH  14  15
ATOM     15  C   UNL     1      98.749  62.662 227.683  1.00  0.00    -0.000 C 
BRANCH  15  16
ATOM     16  C   UNL     1      99.975  63.058 228.526  1.00  0.00    -0.000 C 
BRANCH  16  17
ATOM     17  C   UNL     1     101.290  63.006 227.730  1.00  0.00    -0.000 C 
BRANCH  17  18
ATOM     18  C   UNL     1     101.299  61.897 226.662  1.00  0.00    -0.000 C 
BRANCH  18  19
ATOM     19  C   UNL     1     102.138  62.213 225.412  1.00  0.00    -0.003 C 
ATOM     20  C   UNL     1     103.374  63.060 225.720  1.00  0.00     0.004 C 
ENDBRANCH  18  19
ENDBRANCH  17  18
ENDBRANCH  16  17
ENDBRANCH  15  16
ENDBRANCH  14  15
ENDBRANCH  13  14
ENDBRANCH  12  13
ENDBRANCH   1  12
TORSDOF 16
ENDMDL
MODEL 2
REMARK VINA RESULT:    -2.608      1.904      3.490
REMARK INTER + INTRA:          -8.172
REMARK INTER:                  -5.058
REMARK INTRA:                  -3.114
REMARK UNBOUND:                -3.125
REMARK SMILES CCCCCCCCCCCCCCCCCC(=O)[O-]
REMARK SMILES IDX 10 1 11 2 12 3 13 4 14 5 15 6 16 7 17 8 18 9 19 10 20 11
REMARK SMILES IDX 9 12 8 13 7 14 6 15 5 16 4 17 3 18 2 19 1 20
REMARK H PARENT
REMARK Flexibility Score: inf
ROOT
ATOM      1  C   UNL     1      95.577  65.198 226.211  1.00  0.00     0.000 C 
ENDROOT
BRANCH   1   2
ATOM      2  C   UNL     1      96.324  65.578 224.920  1.00  0.00     0.000 C 
BRANCH   2   3
ATOM      3  C   UNL     1      96.545  67.094 224.782  1.00  0.00     0.000 C 
BRANCH   3   4
ATOM      4  C   UNL     1      97.781  67.593 225.555  1.00  0.00     0.000 C 
BRANCH   4   5
ATOM      5  C   UNL     1      97.472  68.362 226.852  1.00  0.00     0.000 C 
BRANCH   5   6
ATOM      6  C   UNL     1      98.172  67.763 228.084  1.00  0.00     0.000 C 
BRANCH   6   7
ATOM      7  C   UNL     1      97.217  67.538 229.271  1.00  0.00     0.006 C 
BRANCH   7   8
ATOM      8  C   UNL     1      97.693  66.452 230.253  1.00  0.00     0.053 C 
BRANCH   8   9
ATOM      9  C   UNL     1      96.556  65.708 230.882  1.00  0.00     0.041 C 
ATOM     10  O   UNL     1      96.743  65.033 231.929  1.00  0.00    -0.550 OA
ATOM     11  O   UNL     1      95.281  65.782 230.333  1.00  0.00    -0.550 OA
ENDBRANCH   8   9
ENDBRANCH   7   8
ENDBRANCH   6   7
ENDBRANCH   5   6
ENDBRANCH   4   5
ENDBRANCH   3   4
ENDBRANCH   2   3
ENDBRANCH   1   2
BRANCH   1  12
ATOM     12  C   UNL     1      96.444  64.551 227.311  1.00  0.00     0.000 C 
BRANCH  12  13
ATOM     13  C   UNL     1      97.699  63.808 226.812  1.00  0.00    -0.000 C 
BRANCH  13  14
ATOM     14  C   UNL     1      98.945  64.103 227.663  1.00  0.00    -0.000 C 
BRANCH  14  15
ATOM     15  C   UNL     1     100.031  64.874 226.889  1.00  0.00    -0.000 C 
BRANCH  15  16
ATOM     16  C   UNL     1     100.024  64.658 225.365  1.00  0.00    -0.000 C 
BRANCH  16  17
ATOM     17  C   UNL     1     101.132  65.446 224.645  1.00  0.00    -0.000 C 
BRANCH  17  18
ATOM     18  C   UNL     1     101.635  66.651 225.461  1.00  0.00    -0.000 C 
BRANCH  18  19
ATOM     19  C   UNL     1     101.238  68.024 224.892  1.00  0.00    -0.003 C 
ATOM     20  C   UNL     1     101.206  69.125 225.954  1.00  0.00     0.004 C 
ENDBRANCH  18  19
ENDBRANCH  17  18
ENDBRANCH  16  17
ENDBRANCH  15  16
ENDBRANCH  14  15
ENDBRANCH  13  14
ENDBRANCH  12  13
ENDBRANCH   1  12
TORSDOF 16
ENDMDL
MODEL 3
REMARK VINA RESULT:    -2.586      9.399     11.723
REMARK INTER + INTRA:          -8.130
REMARK INTER:                  -5.280
REMARK INTRA:                  -2.850
REMARK UNBOUND:                -3.125
REMARK SMILES CCCCCCCCCCCCCCCCCC(=O)[O-]
REMARK SMILES IDX 10 1 11 2 12 3 13 4 14 5 15 6 16 7 17 8 18 9 19 10 20 11
REMARK SMILES IDX 9 12 8 13 7 14 6 15 5 16 4 17 3 18 2 19 1 20
REMARK H PARENT
REMARK Flexibility Score: inf
ROOT
ATOM      1  C   UNL     1      96.001  54.444 220.537  1.00  0.00     0.000 C 
ENDROOT
BRANCH   1   2
ATOM      2  C   UNL     1      96.233  55.799 219.844  1.00  0.00     0.000 C 
BRANCH   2   3
ATOM      3  C   UNL     1      97.201  55.703 218.652  1.00  0.00     0.000 C 
BRANCH   3   4
ATOM      4  C   UNL     1      98.272  56.810 218.659  1.00  0.00     0.000 C 
BRANCH   4   5
ATOM      5  C   UNL     1      99.063  56.959 217.346  1.00  0.00     0.000 C 
BRANCH   5   6
ATOM      6  C   UNL     1     100.550  56.595 217.499  1.00  0.00     0.000 C 
BRANCH   6   7
ATOM      7  C   UNL     1     101.388  57.728 218.118  1.00  0.00     0.006 C 
BRANCH   7   8
ATOM      8  C   UNL     1     100.817  59.135 217.864  1.00  0.00     0.053 C 
BRANCH   8   9
ATOM      9  C   UNL     1     100.621  59.913 219.129  1.00  0.00     0.041 C 
ATOM     10  O   UNL     1      99.465  60.074 219.601  1.00  0.00    -0.550 OA
ATOM     11  O   UNL     1     101.717  60.437 219.804  1.00  0.00    -0.550 OA
ENDBRANCH   8   9
ENDBRANCH   7   8
ENDBRANCH   6   7
ENDBRANCH   5   6
ENDBRANCH   4   5
ENDBRANCH   3   4
ENDBRANCH   2   3
ENDBRANCH   1   2
BRANCH   1  12
ATOM     12  C   UNL     1      95.972  54.486 222.079  1.00  0.00     0.000 C 
BRANCH  12  13
ATOM     13  C   UNL     1      95.450  55.798 222.694  1.00  0.00    -0.000 C 
BRANCH  13  14
ATOM     14  C   UNL     1      96.531  56.562 223.477  1.00  0.00    -0.000 C 
BRANCH  14  15
ATOM     15  C   UNL     1      96.922  57.896 222.814  1.00  0.00    -0.000 C 
BRANCH  15  16
ATOM     16  C   UNL     1      98.285  57.895 222.099  1.00  0.00    -0.000 C 
BRANCH  16  17
ATOM     17  C   UNL     1      99.305  56.951 222.759  1.00  0.00    -0.000 C 
BRANCH  17  18
ATOM     18  C   UNL     1     100.114  56.136 221.734  1.00  0.00    -0.000 C 
BRANCH  18  19
ATOM     19  C   UNL     1      99.655  54.677 221.565  1.00  0.00    -0.003 C 
ATOM     20  C   UNL     1     100.150  54.041 220.264  1.00  0.00     0.004 C 
ENDBRANCH  18  19
ENDBRANCH  17  18
ENDBRANCH  16  17
ENDBRANCH  15  16
ENDBRANCH  14  15
ENDBRANCH  13  14
ENDBRANCH  12  13
ENDBRANCH   1  12
TORSDOF 16
ENDMDL
MODEL 4
REMARK VINA RESULT:    -2.533      1.674      3.376
REMARK INTER + INTRA:          -8.028
REMARK INTER:                  -5.227
REMARK INTRA:                  -2.801
REMARK UNBOUND:                -3.125
REMARK SMILES CCCCCCCCCCCCCCCCCC(=O)[O-]
REMARK SMILES IDX 10 1 11 2 12 3 13 4 14 5 15 6 16 7 17 8 18 9 19 10 20 11
REMARK SMILES IDX 9 12 8 13 7 14 6 15 5 16 4 17 3 18 2 19 1 20
REMARK H PARENT
REMARK Flexibility Score: inf
ROOT
ATOM      1  C   UNL     1      96.281  64.669 226.778  1.00  0.00     0.000 C 
ENDROOT
BRANCH   1   2
ATOM      2  C   UNL     1      95.730  65.688 225.763  1.00  0.00     0.000 C 
BRANCH   2   3
ATOM      3  C   UNL     1      95.505  67.080 226.377  1.00  0.00     0.000 C 
BRANCH   3   4
ATOM      4  C   UNL     1      96.601  68.091 225.988  1.00  0.00     0.000 C 
BRANCH   4   5
ATOM      5  C   UNL     1      97.611  68.416 227.103  1.00  0.00     0.000 C 
BRANCH   5   6
ATOM      6  C   UNL     1      97.063  68.125 228.511  1.00  0.00     0.000 C 
BRANCH   6   7
ATOM      7  C   UNL     1      97.847  67.024 229.249  1.00  0.00     0.006 C 
BRANCH   7   8
ATOM      8  C   UNL     1      97.381  66.793 230.697  1.00  0.00     0.053 C 
BRANCH   8   9
ATOM      9  C   UNL     1      96.417  65.652 230.816  1.00  0.00     0.041 C 
ATOM     10  O   UNL     1      95.293  65.711 230.251  1.00  0.00    -0.550 OA
ATOM     11  O   UNL     1      96.770  64.510 231.525  1.00  0.00    -0.550 OA
ENDBRANCH   8   9
ENDBRANCH   7   8
ENDBRANCH   6   7
ENDBRANCH   5   6
ENDBRANCH   4   5
ENDBRANCH   3   4
ENDBRANCH   2   3
ENDBRANCH   1   2
BRANCH   1  12
ATOM     12  C   UNL     1      97.801  64.415 226.701  1.00  0.00     0.000 C 
BRANCH  12  13
ATOM     13  C   UNL     1      98.451  64.705 225.335  1.00  0.00    -0.000 C 
BRANCH  13  14
ATOM     14  C   UNL     1      99.477  65.848 225.392  1.00  0.00    -0.000 C 
BRANCH  14  15
ATOM     15  C   UNL     1     100.839  65.463 224.785  1.00  0.00    -0.000 C 
BRANCH  15  16
ATOM     16  C   UNL     1     101.210  63.974 224.904  1.00  0.00    -0.000 C 
BRANCH  16  17
ATOM     17  C   UNL     1     101.937  63.642 226.218  1.00  0.00    -0.000 C 
BRANCH  17  18
ATOM     18  C   UNL     1     101.096  62.764 227.161  1.00  0.00    -0.000 C 
BRANCH  18  19
ATOM     19  C   UNL     1     100.910  63.335 228.578  1.00  0.00    -0.003 C 
ATOM     20  C   UNL     1     100.954  64.864 228.617  1.00  0.00     0.004 C 
ENDBRANCH  18  19
ENDBRANCH  17  18
ENDBRANCH  16  17
ENDBRANCH  15  16
ENDBRANCH  14  15
ENDBRANCH  13  14
ENDBRANCH  12  13
ENDBRANCH   1  12
TORSDOF 16
ENDMDL
MODEL 5
REMARK VINA RESULT:    -2.529      3.625      5.793
REMARK INTER + INTRA:          -8.020
REMARK INTER:                  -5.164
REMARK INTRA:                  -2.857
REMARK UNBOUND:                -3.125
REMARK SMILES CCCCCCCCCCCCCCCCCC(=O)[O-]
REMARK SMILES IDX 10 1 11 2 12 3 13 4 14 5 15 6 16 7 17 8 18 9 19 10 20 11
REMARK SMILES IDX 9 12 8 13 7 14 6 15 5 16 4 17 3 18 2 19 1 20
REMARK H PARENT
REMARK Flexibility Score: inf
ROOT
ATOM      1  C   UNL     1      98.922  67.898 225.268  1.00  0.00     0.000 C 
ENDROOT
BRANCH   1   2
ATOM      2  C   UNL     1      99.762  67.763 226.551  1.00  0.00     0.000 C 
BRANCH   2   3
ATOM      3  C   UNL     1     100.784  66.615 226.479  1.00  0.00     0.000 C 
BRANCH   3   4
ATOM      4  C   UNL     1     101.077  66.164 225.035  1.00  0.00     0.000 C 
BRANCH   4   5
ATOM      5  C   UNL     1     100.859  64.664 224.766  1.00  0.00     0.000 C 
BRANCH   5   6
ATOM      6  C   UNL     1     100.704  63.840 226.056  1.00  0.00     0.000 C 
BRANCH   6   7
ATOM      7  C   UNL     1     101.828  62.806 226.252  1.00  0.00     0.006 C 
BRANCH   7   8
ATOM      8  C   UNL     1     102.944  63.275 227.202  1.00  0.00     0.053 C 
BRANCH   8   9
ATOM      9  C   UNL     1     104.046  63.994 226.486  1.00  0.00     0.041 C 
ATOM     10  O   UNL     1     104.441  63.588 225.362  1.00  0.00    -0.550 OA
ATOM     11  O   UNL     1     104.616  65.133 227.044  1.00  0.00    -0.550 OA
ENDBRANCH   8   9
ENDBRANCH   7   8
ENDBRANCH   6   7
ENDBRANCH   5   6
ENDBRANCH   4   5
ENDBRANCH   3   4
ENDBRANCH   2   3
ENDBRANCH   1   2
BRANCH   1  12
ATOM     12  C   UNL     1      97.465  68.359 225.476  1.00  0.00     0.000 C 
BRANCH  12  13
ATOM     13  C   UNL     1      96.499  68.038 224.320  1.00  0.00    -0.000 C 
BRANCH  13  14
ATOM     14  C   UNL     1      95.789  66.686 224.493  1.00  0.00    -0.000 C 
BRANCH  14  15
ATOM     15  C   UNL     1      96.621  65.499 223.971  1.00  0.00    -0.000 C 
BRANCH  15  16
ATOM     16  C   UNL     1      97.176  64.563 225.060  1.00  0.00    -0.000 C 
BRANCH  16  17
ATOM     17  C   UNL     1      96.555  64.820 226.443  1.00  0.00    -0.000 C 
BRANCH  17  18
ATOM     18  C   UNL     1      97.394  64.234 227.593  1.00  0.00    -0.000 C 
BRANCH  18  19
ATOM     19  C   UNL     1      97.962  65.276 228.572  1.00  0.00    -0.003 C 
ATOM     20  C   UNL     1      97.011  66.448 228.817  1.00  0.00     0.004 C 
ENDBRANCH  18  19
ENDBRANCH  17  18
ENDBRANCH  16  17
ENDBRANCH  15  16
ENDBRANCH  14  15
ENDBRANCH  13  14
ENDBRANCH  12  13
ENDBRANCH   1  12
TORSDOF 16
ENDMDL
MODEL 6
REMARK VINA RESULT:    -2.493      8.507     10.842
REMARK INTER + INTRA:          -7.949
REMARK INTER:                  -5.159
REMARK INTRA:                  -2.791
REMARK UNBOUND:                -3.125
REMARK SMILES CCCCCCCCCCCCCCCCCC(=O)[O-]
REMARK SMILES IDX 10 1 11 2 12 3 13 4 14 5 15 6 16 7 17 8 18 9 19 10 20 11
REMARK SMILES IDX 9 12 8 13 7 14 6 15 5 16 4 17 3 18 2 19 1 20
REMARK H PARENT
REMARK Flexibility Score: inf
ROOT
ATOM      1  C   UNL     1      99.805  55.828 223.856  1.00  0.00     0.000 C 
ENDROOT
BRANCH   1   2
ATOM      2  C   UNL     1      99.577  57.301 223.470  1.00  0.00     0.000 C 
BRANCH   2   3
ATOM      3  C   UNL     1      99.983  57.608 222.018  1.00  0.00     0.000 C 
BRANCH   3   4
ATOM      4  C   UNL     1      98.782  57.973 221.125  1.00  0.00     0.000 C 
BRANCH   4   5
ATOM      5  C   UNL     1      98.528  57.009 219.951  1.00  0.00     0.000 C 
BRANCH   5   6
ATOM      6  C   UNL     1      98.934  57.602 218.591  1.00  0.00     0.000 C 
BRANCH   6   7
ATOM      7  C   UNL     1     100.458  57.749 218.427  1.00  0.00     0.006 C 
BRANCH   7   8
ATOM      8  C   UNL     1     100.918  59.194 218.166  1.00  0.00     0.053 C 
BRANCH   8   9
ATOM      9  C   UNL     1     101.513  59.837 219.382  1.00  0.00     0.041 C 
ATOM     10  O   UNL     1     102.389  59.230 220.054  1.00  0.00    -0.550 OA
ATOM     11  O   UNL     1     101.126  61.118 219.756  1.00  0.00    -0.550 OA
ENDBRANCH   8   9
ENDBRANCH   7   8
ENDBRANCH   6   7
ENDBRANCH   5   6
ENDBRANCH   4   5
ENDBRANCH   3   4
ENDBRANCH   2   3
ENDBRANCH   1   2
BRANCH   1  12
ATOM     12  C   UNL     1      99.084  54.793 222.968  1.00  0.00     0.000 C 
BRANCH  12  13
ATOM     13  C   UNL     1      97.638  54.460 223.382  1.00  0.00    -0.000 C 
BRANCH  13  14
ATOM     14  C   UNL     1      96.589  55.229 222.560  1.00  0.00    -0.000 C 
BRANCH  14  15
ATOM     15  C   UNL     1      95.636  56.064 223.435  1.00  0.00    -0.000 C 
BRANCH  15  16
ATOM     16  C   UNL     1      96.047  57.535 223.629  1.00  0.00    -0.000 C 
BRANCH  16  17
ATOM     17  C   UNL     1      96.292  57.896 225.104  1.00  0.00    -0.000 C 
BRANCH  17  18
ATOM     18  C   UNL     1      96.184  56.681 226.043  1.00  0.00    -0.000 C 
BRANCH  18  19
ATOM     19  C   UNL     1      97.502  56.276 226.726  1.00  0.00    -0.003 C 
ATOM     20  C   UNL     1      98.419  57.466 227.011  1.00  0.00     0.004 C 
ENDBRANCH  18  19
ENDBRANCH  17  18
ENDBRANCH  16  17
ENDBRANCH  15  16
ENDBRANCH  14  15
ENDBRANCH  13  14
ENDBRANCH  12  13
ENDBRANCH   1  12
TORSDOF 16
ENDMDL
MODEL 7
REMARK VINA RESULT:    -2.475      3.532      6.114
REMARK INTER + INTRA:          -7.915
REMARK INTER:                  -4.973
REMARK INTRA:                  -2.942
REMARK UNBOUND:                -3.125
REMARK SMILES CCCCCCCCCCCCCCCCCC(=O)[O-]
REMARK SMILES IDX 10 1 11 2 12 3 13 4 14 5 15 6 16 7 17 8 18 9 19 10 20 11
REMARK SMILES IDX 9 12 8 13 7 14 6 15 5 16 4 17 3 18 2 19 1 20
REMARK H PARENT
REMARK Flexibility Score: inf
ROOT
ATOM      1  C   UNL     1      99.635  66.198 229.450  1.00  0.00     0.000 C 
ENDROOT
BRANCH   1   2
ATOM      2  C   UNL     1     100.891  65.933 228.600  1.00  0.00     0.000 C 
BRANCH   2   3
ATOM      3  C   UNL     1     100.947  66.802 227.331  1.00  0.00     0.000 C 
BRANCH   3   4
ATOM      4  C   UNL     1     101.856  66.208 226.238  1.00  0.00     0.000 C 
BRANCH   4   5
ATOM      5  C   UNL     1     101.135  65.810 224.937  1.00  0.00     0.000 C 
BRANCH   5   6
ATOM      6  C   UNL     1     101.275  64.314 224.608  1.00  0.00     0.000 C 
BRANCH   6   7
ATOM      7  C   UNL     1     101.554  63.446 225.849  1.00  0.00     0.006 C 
BRANCH   7   8
ATOM      8  C   UNL     1     102.579  62.324 225.606  1.00  0.00     0.053 C 
BRANCH   8   9
ATOM      9  C   UNL     1     103.948  62.678 226.101  1.00  0.00     0.041 C 
ATOM     10  O   UNL     1     104.598  63.607 225.554  1.00  0.00    -0.550 OA
ATOM     11  O   UNL     1     104.495  62.003 227.186  1.00  0.00    -0.550 OA
ENDBRANCH   8   9
ENDBRANCH   7   8
ENDBRANCH   6   7
ENDBRANCH   5   6
ENDBRANCH   4   5
ENDBRANCH   3   4
ENDBRANCH   2   3
ENDBRANCH   1   2
BRANCH   1  12
ATOM     12  C   UNL     1      98.587  65.066 229.452  1.00  0.00     0.000 C 
BRANCH  12  13
ATOM     13  C   UNL     1      98.731  64.030 228.321  1.00  0.00    -0.000 C 
BRANCH  13  14
ATOM     14  C   UNL     1      97.513  63.998 227.382  1.00  0.00    -0.000 C 
BRANCH  14  15
ATOM     15  C   UNL     1      97.900  64.076 225.894  1.00  0.00    -0.000 C 
BRANCH  15  16
ATOM     16  C   UNL     1      96.987  64.964 225.028  1.00  0.00    -0.000 C 
BRANCH  16  17
ATOM     17  C   UNL     1      97.575  66.364 224.783  1.00  0.00    -0.000 C 
BRANCH  17  18
ATOM     18  C   UNL     1      96.819  67.470 225.542  1.00  0.00    -0.000 C 
BRANCH  18  19
ATOM     19  C   UNL     1      97.314  67.718 226.978  1.00  0.00    -0.003 C 
ATOM     20  C   UNL     1      96.227  67.497 228.031  1.00  0.00     0.004 C 
ENDBRANCH  18  19
ENDBRANCH  17  18
ENDBRANCH  16  17
ENDBRANCH  15  16
ENDBRANCH  14  15
ENDBRANCH  13  14
ENDBRANCH  12  13
ENDBRANCH   1  12
TORSDOF 16
ENDMDL
MODEL 8
REMARK VINA RESULT:    -2.441      2.798      4.523
REMARK INTER + INTRA:          -7.849
REMARK INTER:                  -5.230
REMARK INTRA:                  -2.619
REMARK UNBOUND:                -3.125
REMARK SMILES CCCCCCCCCCCCCCCCCC(=O)[O-]
REMARK SMILES IDX 10 1 11 2 12 3 13 4 14 5 15 6 16 7 17 8 18 9 19 10 20 11
REMARK SMILES IDX 9 12 8 13 7 14 6 15 5 16 4 17 3 18 2 19 1 20
REMARK H PARENT
REMARK Flexibility Score: inf
ROOT
ATOM      1  C   UNL     1      97.666  65.945 229.008  1.00  0.00     0.000 C 
ENDROOT
BRANCH   1   2
ATOM      2  C   UNL     1      96.466  66.353 228.134  1.00  0.00     0.000 C 
BRANCH   2   3
ATOM      3  C   UNL     1      95.992  65.221 227.206  1.00  0.00     0.000 C 
BRANCH   3   4
ATOM      4  C   UNL     1      96.228  65.530 225.715  1.00  0.00     0.000 C 
BRANCH   4   5
ATOM      5  C   UNL     1      97.191  64.568 224.996  1.00  0.00     0.000 C 
BRANCH   5   6
ATOM      6  C   UNL     1      98.664  64.802 225.373  1.00  0.00     0.000 C 
BRANCH   6   7
ATOM      7  C   UNL     1      99.064  66.289 225.349  1.00  0.00     0.006 C 
BRANCH   7   8
ATOM      8  C   UNL     1     100.271  66.622 226.243  1.00  0.00     0.053 C 
BRANCH   8   9
ATOM      9  C   UNL     1     101.578  66.277 225.598  1.00  0.00     0.041 C 
ATOM     10  O   UNL     1     102.609  66.112 226.303  1.00  0.00    -0.550 OA
ATOM     11  O   UNL     1     101.655  66.106 224.220  1.00  0.00    -0.550 OA
ENDBRANCH   8   9
ENDBRANCH   7   8
ENDBRANCH   6   7
ENDBRANCH   5   6
ENDBRANCH   4   5
ENDBRANCH   3   4
ENDBRANCH   2   3
ENDBRANCH   1   2
BRANCH   1  12
ATOM     12  C   UNL     1      97.690  64.467 229.450  1.00  0.00     0.000 C 
BRANCH  12  13
ATOM     13  C   UNL     1      98.925  63.663 228.999  1.00  0.00    -0.000 C 
BRANCH  13  14
ATOM     14  C   UNL     1      98.559  62.422 228.167  1.00  0.00    -0.000 C 
BRANCH  14  15
ATOM     15  C   UNL     1      99.769  61.814 227.433  1.00  0.00    -0.000 C 
BRANCH  15  16
ATOM     16  C   UNL     1     100.953  62.773 227.220  1.00  0.00    -0.000 C 
BRANCH  16  17
ATOM     17  C   UNL     1     101.662  62.558 225.872  1.00  0.00    -0.000 C 
BRANCH  17  18
ATOM     18  C   UNL     1     103.091  62.006 226.029  1.00  0.00    -0.000 C 
BRANCH  18  19
ATOM     19  C   UNL     1     104.205  63.061 225.909  1.00  0.00    -0.003 C 
ATOM     20  C   UNL     1     104.776  63.485 227.263  1.00  0.00     0.004 C 
ENDBRANCH  18  19
ENDBRANCH  17  18
ENDBRANCH  16  17
ENDBRANCH  15  16
ENDBRANCH  14  15
ENDBRANCH  13  14
ENDBRANCH  12  13
ENDBRANCH   1  12
TORSDOF 16
ENDMDL
MODEL 9
REMARK VINA RESULT:    -2.436      1.688      3.202
REMARK INTER + INTRA:          -7.839
REMARK INTER:                  -5.378
REMARK INTRA:                  -2.461
REMARK UNBOUND:                -3.125
REMARK SMILES CCCCCCCCCCCCCCCCCC(=O)[O-]
REMARK SMILES IDX 10 1 11 2 12 3 13 4 14 5 15 6 16 7 17 8 18 9 19 10 20 11
REMARK SMILES IDX 9 12 8 13 7 14 6 15 5 16 4 17 3 18 2 19 1 20
REMARK H PARENT
REMARK Flexibility Score: inf
ROOT
ATOM      1  C   UNL     1      98.843  63.804 226.629  1.00  0.00     0.000 C 
ENDROOT
BRANCH   1   2
ATOM      2  C   UNL     1      99.212  64.854 225.566  1.00  0.00     0.000 C 
BRANCH   2   3
ATOM      3  C   UNL     1      97.991  65.637 225.052  1.00  0.00     0.000 C 
BRANCH   3   4
ATOM      4  C   UNL     1      96.662  64.893 225.280  1.00  0.00     0.000 C 
BRANCH   4   5
ATOM      5  C   UNL     1      95.703  65.565 226.281  1.00  0.00     0.000 C 
BRANCH   5   6
ATOM      6  C   UNL     1      96.181  66.958 226.724  1.00  0.00     0.000 C 
BRANCH   6   7
ATOM      7  C   UNL     1      96.421  67.060 228.241  1.00  0.00     0.006 C 
BRANCH   7   8
ATOM      8  C   UNL     1      96.373  65.706 228.970  1.00  0.00     0.053 C 
BRANCH   8   9
ATOM      9  C   UNL     1      96.190  65.855 230.450  1.00  0.00     0.041 C 
ATOM     10  O   UNL     1      96.386  64.873 231.214  1.00  0.00    -0.550 OA
ATOM     11  O   UNL     1      95.833  67.085 230.990  1.00  0.00    -0.550 OA
ENDBRANCH   8   9
ENDBRANCH   7   8
ENDBRANCH   6   7
ENDBRANCH   5   6
ENDBRANCH   4   5
ENDBRANCH   3   4
ENDBRANCH   2   3
ENDBRANCH   1   2
BRANCH   1  12
ATOM     12  C   UNL     1      99.471  64.023 228.021  1.00  0.00     0.000 C 
BRANCH  12  13
ATOM     13  C   UNL     1     100.318  62.853 228.556  1.00  0.00    -0.000 C 
BRANCH  13  14
ATOM     14  C   UNL     1     100.241  61.603 227.663  1.00  0.00    -0.000 C 
BRANCH  14  15
ATOM     15  C   UNL     1     101.625  61.105 227.207  1.00  0.00    -0.000 C 
BRANCH  15  16
ATOM     16  C   UNL     1     101.933  61.309 225.713  1.00  0.00    -0.000 C 
BRANCH  16  17
ATOM     17  C   UNL     1     102.265  62.770 225.365  1.00  0.00    -0.000 C 
BRANCH  17  18
ATOM     18  C   UNL     1     103.699  63.168 225.761  1.00  0.00    -0.000 C 
BRANCH  18  19
ATOM     19  C   UNL     1     103.791  64.175 226.921  1.00  0.00    -0.003 C 
ATOM     20  C   UNL     1     102.717  65.262 226.855  1.00  0.00     0.004 C 
ENDBRANCH  18  19
ENDBRANCH  17  18
ENDBRANCH  16  17
ENDBRANCH  15  16
ENDBRANCH  14  15
ENDBRANCH  13  14
ENDBRANCH  12  13
ENDBRANCH   1  12
TORSDOF 16
ENDMDL
