MODEL 1
REMARK VINA RESULT:    -3.797      0.000      0.000
REMARK INTER + INTRA:         -14.866
REMARK INTER:                  -9.569
REMARK INTRA:                  -5.298
REMARK UNBOUND:                -5.298
REMARK SMILES CCCCCCCCCCCCCCCCCCCCCCCCCCCC(=O)[O-]
REMARK SMILES IDX 15 1 16 2 17 3 18 4 19 5 20 6 21 7 22 8 23 9 24 10 25 11
REMARK SMILES IDX 26 12 27 13 28 14 29 15 30 16 14 17 13 18 12 19 11 20 10 21
REMARK SMILES IDX 9 22 8 23 7 24 6 25 5 26 4 27 3 28 2 29 1 30
REMARK H PARENT
REMARK Flexibility Score: inf
ROOT
ATOM      1  C   UNL     1     164.637 163.379 182.260  1.00  0.00     0.000 C 
ENDROOT
BRANCH   1   2
ATOM      2  C   UNL     1     163.782 162.344 183.013  1.00  0.00     0.000 C 
BRANCH   2   3
ATOM      3  C   UNL     1     162.332 162.776 183.305  1.00  0.00     0.000 C 
BRANCH   3   4
ATOM      4  C   UNL     1     161.373 161.607 183.615  1.00  0.00     0.000 C 
BRANCH   4   5
ATOM      5  C   UNL     1     160.139 161.596 182.699  1.00  0.00     0.000 C 
BRANCH   5   6
ATOM      6  C   UNL     1     159.998 160.256 181.968  1.00  0.00     0.000 C 
BRANCH   6   7
ATOM      7  C   UNL     1     160.236 160.430 180.459  1.00  0.00     0.000 C 
BRANCH   7   8
ATOM      8  C   UNL     1     161.723 160.584 180.108  1.00  0.00     0.000 C 
BRANCH   8   9
ATOM      9  C   UNL     1     162.087 162.017 179.682  1.00  0.00     0.000 C 
BRANCH   9  10
ATOM     10  C   UNL     1     160.878 162.795 179.139  1.00  0.00     0.000 C 
BRANCH  10  11
ATOM     11  C   UNL     1     160.490 163.985 180.036  1.00  0.00     0.000 C 
BRANCH  11  12
ATOM     12  C   UNL     1     161.547 165.105 180.029  1.00  0.00     0.006 C 
BRANCH  12  13
ATOM     13  C   UNL     1     161.774 165.765 181.398  1.00  0.00     0.053 C 
BRANCH  13  14
ATOM     14  C   UNL     1     160.754 166.823 181.687  1.00  0.00     0.041 C 
ATOM     15  O   UNL     1     159.968 167.210 180.782  1.00  0.00    -0.550 OA
ATOM     16  O   UNL     1     160.689 167.402 182.947  1.00  0.00    -0.550 OA
ENDBRANCH  13  14
ENDBRANCH  12  13
ENDBRANCH  11  12
ENDBRANCH  10  11
ENDBRANCH   9  10
ENDBRANCH   8   9
ENDBRANCH   7   8
ENDBRANCH   6   7
ENDBRANCH   5   6
ENDBRANCH   4   5
ENDBRANCH   3   4
ENDBRANCH   2   3
ENDBRANCH   1   2
BRANCH   1  17
ATOM     17  C   UNL     1     166.000 163.695 182.904  1.00  0.00     0.000 C 
BRANCH  17  18
ATOM     18  C   UNL     1     166.128 163.234 184.374  1.00  0.00     0.000 C 
BRANCH  18  19
ATOM     19  C   UNL     1     167.323 162.301 184.678  1.00  0.00     0.000 C 
BRANCH  19  20
ATOM     20  C   UNL     1     167.139 160.803 184.343  1.00  0.00     0.000 C 
BRANCH  20  21
ATOM     21  C   UNL     1     168.059 160.256 183.228  1.00  0.00     0.000 C 
BRANCH  21  22
ATOM     22  C   UNL     1     167.590 160.602 181.802  1.00  0.00    -0.000 C 
BRANCH  22  23
ATOM     23  C   UNL     1     166.221 160.020 181.408  1.00  0.00    -0.000 C 
BRANCH  23  24
ATOM     24  C   UNL     1     165.737 160.399 179.995  1.00  0.00    -0.000 C 
BRANCH  24  25
ATOM     25  C   UNL     1     166.440 161.643 179.411  1.00  0.00    -0.000 C 
BRANCH  25  26
ATOM     26  C   UNL     1     165.631 162.292 178.276  1.00  0.00    -0.000 C 
BRANCH  26  27
ATOM     27  C   UNL     1     164.997 163.632 178.689  1.00  0.00    -0.000 C 
BRANCH  27  28
ATOM     28  C   UNL     1     164.311 164.373 177.520  1.00  0.00    -0.000 C 
BRANCH  28  29
ATOM     29  C   UNL     1     164.219 163.522 176.240  1.00  0.00    -0.003 C 
ATOM     30  C   UNL     1     162.817 162.954 176.021  1.00  0.00     0.004 C 
ENDBRANCH  28  29
ENDBRANCH  27  28
ENDBRANCH  26  27
ENDBRANCH  25  26
ENDBRANCH  24  25
ENDBRANCH  23  24
ENDBRANCH  22  23
ENDBRANCH  21  22
ENDBRANCH  20  21
ENDBRANCH  19  20
ENDBRANCH  18  19
ENDBRANCH  17  18
ENDBRANCH   1  17
TORSDOF 26
ENDMDL
MODEL 2
REMARK VINA RESULT:    -3.759      1.780      2.485
REMARK INTER + INTRA:         -14.769
REMARK INTER:                  -9.101
REMARK INTRA:                  -5.668
REMARK UNBOUND:                -5.298
REMARK SMILES CCCCCCCCCCCCCCCCCCCCCCCCCCCC(=O)[O-]
REMARK SMILES IDX 15 1 16 2 17 3 18 4 19 5 20 6 21 7 22 8 23 9 24 10 25 11
REMARK SMILES IDX 26 12 27 13 28 14 29 15 30 16 14 17 13 18 12 19 11 20 10 21
REMARK SMILES IDX 9 22 8 23 7 24 6 25 5 26 4 27 3 28 2 29 1 30
REMARK H PARENT
REMARK Flexibility Score: inf
ROOT
ATOM      1  C   UNL     1     164.216 162.590 182.741  1.00  0.00     0.000 C 
ENDROOT
BRANCH   1   2
ATOM      2  C   UNL     1     163.992 161.086 182.977  1.00  0.00     0.000 C 
BRANCH   2   3
ATOM      3  C   UNL     1     163.512 160.291 181.748  1.00  0.00     0.000 C 
BRANCH   3   4
ATOM      4  C   UNL     1     162.657 161.111 180.758  1.00  0.00     0.000 C 
BRANCH   4   5
ATOM      5  C   UNL     1     161.309 160.441 180.447  1.00  0.00     0.000 C 
BRANCH   5   6
ATOM      6  C   UNL     1     160.148 161.188 181.113  1.00  0.00     0.000 C 
BRANCH   6   7
ATOM      7  C   UNL     1     160.241 161.086 182.645  1.00  0.00     0.000 C 
BRANCH   7   8
ATOM      8  C   UNL     1     160.480 162.447 183.315  1.00  0.00     0.000 C 
BRANCH   8   9
ATOM      9  C   UNL     1     160.084 163.630 182.415  1.00  0.00     0.000 C 
BRANCH   9  10
ATOM     10  C   UNL     1     161.195 164.686 182.307  1.00  0.00     0.000 C 
BRANCH  10  11
ATOM     11  C   UNL     1     161.802 164.765 180.894  1.00  0.00     0.000 C 
BRANCH  11  12
ATOM     12  C   UNL     1     163.145 165.516 180.865  1.00  0.00     0.006 C 
BRANCH  12  13
ATOM     13  C   UNL     1     163.535 166.166 182.202  1.00  0.00     0.053 C 
BRANCH  13  14
ATOM     14  C   UNL     1     164.607 167.197 182.033  1.00  0.00     0.041 C 
ATOM     15  O   UNL     1     165.147 167.373 180.908  1.00  0.00    -0.550 OA
ATOM     16  O   UNL     1     165.031 167.945 183.122  1.00  0.00    -0.550 OA
ENDBRANCH  13  14
ENDBRANCH  12  13
ENDBRANCH  11  12
ENDBRANCH  10  11
ENDBRANCH   9  10
ENDBRANCH   8   9
ENDBRANCH   7   8
ENDBRANCH   6   7
ENDBRANCH   5   6
ENDBRANCH   4   5
ENDBRANCH   3   4
ENDBRANCH   2   3
ENDBRANCH   1   2
BRANCH   1  17
ATOM     17  C   UNL     1     165.118 163.288 183.776  1.00  0.00     0.000 C 
BRANCH  17  18
ATOM     18  C   UNL     1     166.549 163.584 183.271  1.00  0.00     0.000 C 
BRANCH  18  19
ATOM     19  C   UNL     1     167.684 162.849 184.020  1.00  0.00     0.000 C 
BRANCH  19  20
ATOM     20  C   UNL     1     167.375 161.420 184.524  1.00  0.00     0.000 C 
BRANCH  20  21
ATOM     21  C   UNL     1     167.705 160.282 183.531  1.00  0.00     0.000 C 
BRANCH  21  22
ATOM     22  C   UNL     1     168.808 160.636 182.515  1.00  0.00    -0.000 C 
BRANCH  22  23
ATOM     23  C   UNL     1     168.379 160.567 181.039  1.00  0.00    -0.000 C 
BRANCH  23  24
ATOM     24  C   UNL     1     166.915 160.149 180.807  1.00  0.00    -0.000 C 
BRANCH  24  25
ATOM     25  C   UNL     1     166.328 160.661 179.474  1.00  0.00    -0.000 C 
BRANCH  25  26
ATOM     26  C   UNL     1     165.953 162.151 179.534  1.00  0.00    -0.000 C 
BRANCH  26  27
ATOM     27  C   UNL     1     165.151 162.612 178.304  1.00  0.00    -0.000 C 
BRANCH  27  28
ATOM     28  C   UNL     1     164.413 161.460 177.586  1.00  0.00    -0.000 C 
BRANCH  28  29
ATOM     29  C   UNL     1     163.156 161.929 176.832  1.00  0.00    -0.003 C 
ATOM     30  C   UNL     1     162.338 162.936 177.640  1.00  0.00     0.004 C 
ENDBRANCH  28  29
ENDBRANCH  27  28
ENDBRANCH  26  27
ENDBRANCH  25  26
ENDBRANCH  24  25
ENDBRANCH  23  24
ENDBRANCH  22  23
ENDBRANCH  21  22
ENDBRANCH  20  21
ENDBRANCH  19  20
ENDBRANCH  18  19
ENDBRANCH  17  18
ENDBRANCH   1  17
TORSDOF 26
ENDMDL
MODEL 3
REMARK VINA RESULT:    -3.737      1.782      3.951
REMARK INTER + INTRA:         -14.715
REMARK INTER:                  -8.687
REMARK INTRA:                  -6.029
REMARK UNBOUND:                -5.298
REMARK SMILES CCCCCCCCCCCCCCCCCCCCCCCCCCCC(=O)[O-]
REMARK SMILES IDX 15 1 16 2 17 3 18 4 19 5 20 6 21 7 22 8 23 9 24 10 25 11
REMARK SMILES IDX 26 12 27 13 28 14 29 15 30 16 14 17 13 18 12 19 11 20 10 21
REMARK SMILES IDX 9 22 8 23 7 24 6 25 5 26 4 27 3 28 2 29 1 30
REMARK H PARENT
REMARK Flexibility Score: inf
ROOT
ATOM      1  C   UNL     1     166.290 160.612 179.304  1.00  0.00     0.000 C 
ENDROOT
BRANCH   1   2
ATOM      2  C   UNL     1     164.869 160.253 178.834  1.00  0.00     0.000 C 
BRANCH   2   3
ATOM      3  C   UNL     1     163.891 161.439 178.729  1.00  0.00     0.000 C 
BRANCH   3   4
ATOM      4  C   UNL     1     162.405 161.048 178.876  1.00  0.00     0.000 C 
BRANCH   4   5
ATOM      5  C   UNL     1     162.039 160.645 180.313  1.00  0.00     0.000 C 
BRANCH   5   6
ATOM      6  C   UNL     1     160.525 160.468 180.476  1.00  0.00     0.000 C 
BRANCH   6   7
ATOM      7  C   UNL     1     160.113 160.629 181.948  1.00  0.00     0.000 C 
BRANCH   7   8
ATOM      8  C   UNL     1     161.290 161.011 182.855  1.00  0.00     0.000 C 
BRANCH   8   9
ATOM      9  C   UNL     1     161.083 162.364 183.559  1.00  0.00     0.000 C 
BRANCH   9  10
ATOM     10  C   UNL     1     160.237 163.338 182.724  1.00  0.00     0.000 C 
BRANCH  10  11
ATOM     11  C   UNL     1     160.999 164.627 182.366  1.00  0.00     0.000 C 
BRANCH  11  12
ATOM     12  C   UNL     1     160.655 165.151 180.960  1.00  0.00     0.006 C 
BRANCH  12  13
ATOM     13  C   UNL     1     161.332 164.380 179.815  1.00  0.00     0.053 C 
BRANCH  13  14
ATOM     14  C   UNL     1     162.290 165.239 179.050  1.00  0.00     0.041 C 
ATOM     15  O   UNL     1     162.909 164.770 178.058  1.00  0.00    -0.550 OA
ATOM     16  O   UNL     1     162.522 166.548 179.449  1.00  0.00    -0.550 OA
ENDBRANCH  13  14
ENDBRANCH  12  13
ENDBRANCH  11  12
ENDBRANCH  10  11
ENDBRANCH   9  10
ENDBRANCH   8   9
ENDBRANCH   7   8
ENDBRANCH   6   7
ENDBRANCH   5   6
ENDBRANCH   4   5
ENDBRANCH   3   4
ENDBRANCH   2   3
ENDBRANCH   1   2
BRANCH   1  17
ATOM     17  C   UNL     1     166.696 160.025 180.669  1.00  0.00     0.000 C 
BRANCH  17  18
ATOM     18  C   UNL     1     168.154 160.334 181.083  1.00  0.00     0.000 C 
BRANCH  18  19
ATOM     19  C   UNL     1     168.400 160.463 182.604  1.00  0.00     0.000 C 
BRANCH  19  20
ATOM     20  C   UNL     1     167.159 160.703 183.493  1.00  0.00     0.000 C 
BRANCH  20  21
ATOM     21  C   UNL     1     167.102 162.080 184.193  1.00  0.00     0.000 C 
BRANCH  21  22
ATOM     22  C   UNL     1     165.795 162.857 183.944  1.00  0.00    -0.000 C 
BRANCH  22  23
ATOM     23  C   UNL     1     164.848 162.223 182.911  1.00  0.00    -0.000 C 
BRANCH  23  24
ATOM     24  C   UNL     1     164.283 163.200 181.863  1.00  0.00    -0.000 C 
BRANCH  24  25
ATOM     25  C   UNL     1     164.637 164.677 182.137  1.00  0.00    -0.000 C 
BRANCH  25  26
ATOM     26  C   UNL     1     165.457 165.303 180.996  1.00  0.00    -0.000 C 
BRANCH  26  27
ATOM     27  C   UNL     1     165.911 164.267 179.953  1.00  0.00    -0.000 C 
BRANCH  27  28
ATOM     28  C   UNL     1     167.445 164.106 179.876  1.00  0.00    -0.000 C 
BRANCH  28  29
ATOM     29  C   UNL     1     168.115 164.048 181.261  1.00  0.00    -0.003 C 
ATOM     30  C   UNL     1     169.112 165.187 181.470  1.00  0.00     0.004 C 
ENDBRANCH  28  29
ENDBRANCH  27  28
ENDBRANCH  26  27
ENDBRANCH  25  26
ENDBRANCH  24  25
ENDBRANCH  23  24
ENDBRANCH  22  23
ENDBRANCH  21  22
ENDBRANCH  20  21
ENDBRANCH  19  20
ENDBRANCH  18  19
ENDBRANCH  17  18
ENDBRANCH   1  17
TORSDOF 26
ENDMDL
MODEL 4
REMARK VINA RESULT:    -3.715      1.710      2.727
REMARK INTER + INTRA:         -14.659
REMARK INTER:                 -10.290
REMARK INTRA:                  -4.369
REMARK UNBOUND:                -5.298
REMARK SMILES CCCCCCCCCCCCCCCCCCCCCCCCCCCC(=O)[O-]
REMARK SMILES IDX 15 1 16 2 17 3 18 4 19 5 20 6 21 7 22 8 23 9 24 10 25 11
REMARK SMILES IDX 26 12 27 13 28 14 29 15 30 16 14 17 13 18 12 19 11 20 10 21
REMARK SMILES IDX 9 22 8 23 7 24 6 25 5 26 4 27 3 28 2 29 1 30
REMARK H PARENT
REMARK Flexibility Score: inf
ROOT
ATOM      1  C   UNL     1     164.046 160.597 182.868  1.00  0.00     0.000 C 
ENDROOT
BRANCH   1   2
ATOM      2  C   UNL     1     164.135 162.121 182.673  1.00  0.00     0.000 C 
BRANCH   2   3
ATOM      3  C   UNL     1     163.151 162.951 183.518  1.00  0.00     0.000 C 
BRANCH   3   4
ATOM      4  C   UNL     1     161.673 162.804 183.096  1.00  0.00     0.000 C 
BRANCH   4   5
ATOM      5  C   UNL     1     160.932 161.727 183.903  1.00  0.00     0.000 C 
BRANCH   5   6
ATOM      6  C   UNL     1     160.188 160.752 182.983  1.00  0.00     0.000 C 
BRANCH   6   7
ATOM      7  C   UNL     1     159.978 161.369 181.590  1.00  0.00     0.000 C 
BRANCH   7   8
ATOM      8  C   UNL     1     160.430 160.438 180.456  1.00  0.00     0.000 C 
BRANCH   8   9
ATOM      9  C   UNL     1     161.781 160.854 179.849  1.00  0.00     0.000 C 
BRANCH   9  10
ATOM     10  C   UNL     1     161.619 161.720 178.590  1.00  0.00     0.000 C 
BRANCH  10  11
ATOM     11  C   UNL     1     162.431 163.026 178.661  1.00  0.00     0.000 C 
BRANCH  11  12
ATOM     12  C   UNL     1     162.104 163.863 179.911  1.00  0.00     0.006 C 
BRANCH  12  13
ATOM     13  C   UNL     1     161.538 165.259 179.605  1.00  0.00     0.053 C 
BRANCH  13  14
ATOM     14  C   UNL     1     161.166 165.998 180.853  1.00  0.00     0.041 C 
ATOM     15  O   UNL     1     160.051 166.578 180.939  1.00  0.00    -0.550 OA
ATOM     16  O   UNL     1     162.061 166.072 181.912  1.00  0.00    -0.550 OA
ENDBRANCH  13  14
ENDBRANCH  12  13
ENDBRANCH  11  12
ENDBRANCH  10  11
ENDBRANCH   9  10
ENDBRANCH   8   9
ENDBRANCH   7   8
ENDBRANCH   6   7
ENDBRANCH   5   6
ENDBRANCH   4   5
ENDBRANCH   3   4
ENDBRANCH   2   3
ENDBRANCH   1   2
BRANCH   1  17
ATOM     17  C   UNL     1     165.399 159.875 183.017  1.00  0.00     0.000 C 
BRANCH  17  18
ATOM     18  C   UNL     1     166.539 160.771 183.555  1.00  0.00     0.000 C 
BRANCH  18  19
ATOM     19  C   UNL     1     167.858 160.725 182.750  1.00  0.00     0.000 C 
BRANCH  19  20
ATOM     20  C   UNL     1     167.732 160.616 181.213  1.00  0.00     0.000 C 
BRANCH  20  21
ATOM     21  C   UNL     1     167.354 161.926 180.485  1.00  0.00     0.000 C 
BRANCH  21  22
ATOM     22  C   UNL     1     166.059 161.831 179.655  1.00  0.00    -0.000 C 
BRANCH  22  23
ATOM     23  C   UNL     1     165.673 160.410 179.210  1.00  0.00    -0.000 C 
BRANCH  23  24
ATOM     24  C   UNL     1     165.690 160.180 177.687  1.00  0.00    -0.000 C 
BRANCH  24  25
ATOM     25  C   UNL     1     164.291 160.230 177.036  1.00  0.00    -0.000 C 
BRANCH  25  26
ATOM     26  C   UNL     1     164.304 160.943 175.674  1.00  0.00    -0.000 C 
BRANCH  26  27
ATOM     27  C   UNL     1     162.890 161.202 175.125  1.00  0.00    -0.000 C 
BRANCH  27  28
ATOM     28  C   UNL     1     162.740 160.855 173.627  1.00  0.00    -0.000 C 
BRANCH  28  29
ATOM     29  C   UNL     1     161.295 160.998 173.118  1.00  0.00    -0.003 C 
ATOM     30  C   UNL     1     160.276 160.995 174.258  1.00  0.00     0.004 C 
ENDBRANCH  28  29
ENDBRANCH  27  28
ENDBRANCH  26  27
ENDBRANCH  25  26
ENDBRANCH  24  25
ENDBRANCH  23  24
ENDBRANCH  22  23
ENDBRANCH  21  22
ENDBRANCH  20  21
ENDBRANCH  19  20
ENDBRANCH  18  19
ENDBRANCH  17  18
ENDBRANCH   1  17
TORSDOF 26
ENDMDL
MODEL 5
REMARK VINA RESULT:    -3.674      2.729      6.454
REMARK INTER + INTRA:         -14.557
REMARK INTER:                  -9.837
REMARK INTRA:                  -4.720
REMARK UNBOUND:                -5.298
REMARK SMILES CCCCCCCCCCCCCCCCCCCCCCCCCCCC(=O)[O-]
REMARK SMILES IDX 15 1 16 2 17 3 18 4 19 5 20 6 21 7 22 8 23 9 24 10 25 11
REMARK SMILES IDX 26 12 27 13 28 14 29 15 30 16 14 17 13 18 12 19 11 20 10 21
REMARK SMILES IDX 9 22 8 23 7 24 6 25 5 26 4 27 3 28 2 29 1 30
REMARK H PARENT
REMARK Flexibility Score: inf
ROOT
ATOM      1  C   UNL     1     163.720 162.088 183.061  1.00  0.00     0.000 C 
ENDROOT
BRANCH   1   2
ATOM      2  C   UNL     1     163.785 160.613 182.629  1.00  0.00     0.000 C 
BRANCH   2   3
ATOM      3  C   UNL     1     165.087 159.876 182.999  1.00  0.00     0.000 C 
BRANCH   3   4
ATOM      4  C   UNL     1     166.266 160.810 183.349  1.00  0.00     0.000 C 
BRANCH   4   5
ATOM      5  C   UNL     1     167.520 160.517 182.510  1.00  0.00     0.000 C 
BRANCH   5   6
ATOM      6  C   UNL     1     167.162 160.257 181.042  1.00  0.00     0.000 C 
BRANCH   6   7
ATOM      7  C   UNL     1     167.024 161.580 180.272  1.00  0.00     0.000 C 
BRANCH   7   8
ATOM      8  C   UNL     1     165.804 161.599 179.340  1.00  0.00     0.000 C 
BRANCH   8   9
ATOM      9  C   UNL     1     165.106 160.231 179.247  1.00  0.00     0.000 C 
BRANCH   9  10
ATOM     10  C   UNL     1     164.409 160.017 177.895  1.00  0.00     0.000 C 
BRANCH  10  11
ATOM     11  C   UNL     1     164.865 161.028 176.827  1.00  0.00     0.000 C 
BRANCH  11  12
ATOM     12  C   UNL     1     163.913 161.087 175.618  1.00  0.00     0.006 C 
BRANCH  12  13
ATOM     13  C   UNL     1     162.583 161.805 175.897  1.00  0.00     0.053 C 
BRANCH  13  14
ATOM     14  C   UNL     1     161.591 161.595 174.795  1.00  0.00     0.041 C 
ATOM     15  O   UNL     1     160.396 161.299 175.064  1.00  0.00    -0.550 OA
ATOM     16  O   UNL     1     161.991 161.697 173.470  1.00  0.00    -0.550 OA
ENDBRANCH  13  14
ENDBRANCH  12  13
ENDBRANCH  11  12
ENDBRANCH  10  11
ENDBRANCH   9  10
ENDBRANCH   8   9
ENDBRANCH   7   8
ENDBRANCH   6   7
ENDBRANCH   5   6
ENDBRANCH   4   5
ENDBRANCH   3   4
ENDBRANCH   2   3
ENDBRANCH   1   2
BRANCH   1  17
ATOM     17  C   UNL     1     162.300 162.640 183.297  1.00  0.00     0.000 C 
BRANCH  17  18
ATOM     18  C   UNL     1     161.206 161.552 183.387  1.00  0.00     0.000 C 
BRANCH  18  19
ATOM     19  C   UNL     1     160.164 161.560 182.245  1.00  0.00     0.000 C 
BRANCH  19  20
ATOM     20  C   UNL     1     160.188 160.360 181.271  1.00  0.00     0.000 C 
BRANCH  20  21
ATOM     21  C   UNL     1     161.181 160.483 180.093  1.00  0.00     0.000 C 
BRANCH  21  22
ATOM     22  C   UNL     1     161.142 161.849 179.380  1.00  0.00    -0.000 C 
BRANCH  22  23
ATOM     23  C   UNL     1     162.401 162.714 179.561  1.00  0.00    -0.000 C 
BRANCH  23  24
ATOM     24  C   UNL     1     162.233 164.194 179.173  1.00  0.00    -0.000 C 
BRANCH  24  25
ATOM     25  C   UNL     1     161.081 164.904 179.917  1.00  0.00    -0.000 C 
BRANCH  25  26
ATOM     26  C   UNL     1     161.453 165.261 181.366  1.00  0.00    -0.000 C 
BRANCH  26  27
ATOM     27  C   UNL     1     160.304 165.951 182.121  1.00  0.00    -0.000 C 
BRANCH  27  28
ATOM     28  C   UNL     1     160.664 167.366 182.627  1.00  0.00    -0.000 C 
BRANCH  28  29
ATOM     29  C   UNL     1     161.793 168.026 181.813  1.00  0.00    -0.003 C 
ATOM     30  C   UNL     1     161.268 169.105 180.866  1.00  0.00     0.004 C 
ENDBRANCH  28  29
ENDBRANCH  27  28
ENDBRANCH  26  27
ENDBRANCH  25  26
ENDBRANCH  24  25
ENDBRANCH  23  24
ENDBRANCH  22  23
ENDBRANCH  21  22
ENDBRANCH  20  21
ENDBRANCH  19  20
ENDBRANCH  18  19
ENDBRANCH  17  18
ENDBRANCH   1  17
TORSDOF 26
ENDMDL
MODEL 6
REMARK VINA RESULT:    -3.652      2.245      6.031
REMARK INTER + INTRA:         -14.501
REMARK INTER:                  -9.389
REMARK INTRA:                  -5.112
REMARK UNBOUND:                -5.298
REMARK SMILES CCCCCCCCCCCCCCCCCCCCCCCCCCCC(=O)[O-]
REMARK SMILES IDX 15 1 16 2 17 3 18 4 19 5 20 6 21 7 22 8 23 9 24 10 25 11
REMARK SMILES IDX 26 12 27 13 28 14 29 15 30 16 14 17 13 18 12 19 11 20 10 21
REMARK SMILES IDX 9 22 8 23 7 24 6 25 5 26 4 27 3 28 2 29 1 30
REMARK H PARENT
REMARK Flexibility Score: inf
ROOT
ATOM      1  C   UNL     1     164.491 164.115 182.696  1.00  0.00     0.000 C 
ENDROOT
BRANCH   1   2
ATOM      2  C   UNL     1     165.844 163.391 182.812  1.00  0.00     0.000 C 
BRANCH   2   3
ATOM      3  C   UNL     1     166.433 163.321 184.234  1.00  0.00     0.000 C 
BRANCH   3   4
ATOM      4  C   UNL     1     167.265 162.050 184.513  1.00  0.00     0.000 C 
BRANCH   4   5
ATOM      5  C   UNL     1     167.000 160.935 183.490  1.00  0.00     0.000 C 
BRANCH   5   6
ATOM      6  C   UNL     1     168.273 160.574 182.715  1.00  0.00     0.000 C 
BRANCH   6   7
ATOM      7  C   UNL     1     167.941 160.214 181.258  1.00  0.00     0.000 C 
BRANCH   7   8
ATOM      8  C   UNL     1     166.431 160.197 180.981  1.00  0.00     0.000 C 
BRANCH   8   9
ATOM      9  C   UNL     1     166.053 160.957 179.698  1.00  0.00     0.000 C 
BRANCH   9  10
ATOM     10  C   UNL     1     164.532 161.059 179.501  1.00  0.00     0.000 C 
BRANCH  10  11
ATOM     11  C   UNL     1     164.022 160.161 178.359  1.00  0.00     0.000 C 
BRANCH  11  12
ATOM     12  C   UNL     1     164.493 160.635 176.972  1.00  0.00     0.006 C 
BRANCH  12  13
ATOM     13  C   UNL     1     163.592 161.703 176.331  1.00  0.00     0.053 C 
BRANCH  13  14
ATOM     14  C   UNL     1     164.247 163.049 176.308  1.00  0.00     0.041 C 
ATOM     15  O   UNL     1     163.668 164.028 175.767  1.00  0.00    -0.550 OA
ATOM     16  O   UNL     1     165.511 163.217 176.858  1.00  0.00    -0.550 OA
ENDBRANCH  13  14
ENDBRANCH  12  13
ENDBRANCH  11  12
ENDBRANCH  10  11
ENDBRANCH   9  10
ENDBRANCH   8   9
ENDBRANCH   7   8
ENDBRANCH   6   7
ENDBRANCH   5   6
ENDBRANCH   4   5
ENDBRANCH   3   4
ENDBRANCH   2   3
ENDBRANCH   1   2
BRANCH   1  17
ATOM     17  C   UNL     1     163.258 163.260 183.043  1.00  0.00     0.000 C 
BRANCH  17  18
ATOM     18  C   UNL     1     163.460 161.742 182.832  1.00  0.00     0.000 C 
BRANCH  18  19
ATOM     19  C   UNL     1     162.262 160.850 183.229  1.00  0.00     0.000 C 
BRANCH  19  20
ATOM     20  C   UNL     1     160.850 161.412 182.946  1.00  0.00     0.000 C 
BRANCH  20  21
ATOM     21  C   UNL     1     160.098 160.752 181.768  1.00  0.00     0.000 C 
BRANCH  21  22
ATOM     22  C   UNL     1     160.928 160.645 180.474  1.00  0.00    -0.000 C 
BRANCH  22  23
ATOM     23  C   UNL     1     160.252 161.223 179.218  1.00  0.00    -0.000 C 
BRANCH  23  24
ATOM     24  C   UNL     1     160.981 162.422 178.583  1.00  0.00    -0.000 C 
BRANCH  24  25
ATOM     25  C   UNL     1     161.779 163.271 179.596  1.00  0.00    -0.000 C 
BRANCH  25  26
ATOM     26  C   UNL     1     161.065 164.588 179.946  1.00  0.00    -0.000 C 
BRANCH  26  27
ATOM     27  C   UNL     1     160.267 164.501 181.258  1.00  0.00    -0.000 C 
BRANCH  27  28
ATOM     28  C   UNL     1     160.286 165.813 182.075  1.00  0.00    -0.000 C 
BRANCH  28  29
ATOM     29  C   UNL     1     161.662 166.502 182.076  1.00  0.00    -0.003 C 
ATOM     30  C   UNL     1     161.590 167.938 181.555  1.00  0.00     0.004 C 
ENDBRANCH  28  29
ENDBRANCH  27  28
ENDBRANCH  26  27
ENDBRANCH  25  26
ENDBRANCH  24  25
ENDBRANCH  23  24
ENDBRANCH  22  23
ENDBRANCH  21  22
ENDBRANCH  20  21
ENDBRANCH  19  20
ENDBRANCH  18  19
ENDBRANCH  17  18
ENDBRANCH   1  17
TORSDOF 26
ENDMDL
MODEL 7
REMARK VINA RESULT:    -3.621      2.648      3.870
REMARK INTER + INTRA:         -14.423
REMARK INTER:                  -9.121
REMARK INTRA:                  -5.303
REMARK UNBOUND:                -5.298
REMARK SMILES CCCCCCCCCCCCCCCCCCCCCCCCCCCC(=O)[O-]
REMARK SMILES IDX 15 1 16 2 17 3 18 4 19 5 20 6 21 7 22 8 23 9 24 10 25 11
REMARK SMILES IDX 26 12 27 13 28 14 29 15 30 16 14 17 13 18 12 19 11 20 10 21
REMARK SMILES IDX 9 22 8 23 7 24 6 25 5 26 4 27 3 28 2 29 1 30
REMARK H PARENT
REMARK Flexibility Score: inf
ROOT
ATOM      1  C   UNL     1     165.808 163.400 182.870  1.00  0.00     0.000 C 
ENDROOT
BRANCH   1   2
ATOM      2  C   UNL     1     164.476 162.695 183.182  1.00  0.00     0.000 C 
BRANCH   2   3
ATOM      3  C   UNL     1     163.209 163.496 182.826  1.00  0.00     0.000 C 
BRANCH   3   4
ATOM      4  C   UNL     1     161.890 162.816 183.252  1.00  0.00     0.000 C 
BRANCH   4   5
ATOM      5  C   UNL     1     161.997 161.283 183.278  1.00  0.00     0.000 C 
BRANCH   5   6
ATOM      6  C   UNL     1     160.654 160.623 182.945  1.00  0.00     0.000 C 
BRANCH   6   7
ATOM      7  C   UNL     1     160.005 161.292 181.722  1.00  0.00     0.000 C 
BRANCH   7   8
ATOM      8  C   UNL     1     160.176 160.470 180.438  1.00  0.00     0.000 C 
BRANCH   8   9
ATOM      9  C   UNL     1     161.571 160.632 179.809  1.00  0.00     0.000 C 
BRANCH   9  10
ATOM     10  C   UNL     1     161.912 162.099 179.504  1.00  0.00     0.000 C 
BRANCH  10  11
ATOM     11  C   UNL     1     160.939 162.736 178.495  1.00  0.00     0.000 C 
BRANCH  11  12
ATOM     12  C   UNL     1     161.073 162.140 177.082  1.00  0.00     0.006 C 
BRANCH  12  13
ATOM     13  C   UNL     1     162.356 162.553 176.342  1.00  0.00     0.053 C 
BRANCH  13  14
ATOM     14  C   UNL     1     163.005 161.391 175.656  1.00  0.00     0.041 C 
ATOM     15  O   UNL     1     162.628 161.042 174.506  1.00  0.00    -0.550 OA
ATOM     16  O   UNL     1     164.008 160.677 176.297  1.00  0.00    -0.550 OA
ENDBRANCH  13  14
ENDBRANCH  12  13
ENDBRANCH  11  12
ENDBRANCH  10  11
ENDBRANCH   9  10
ENDBRANCH   8   9
ENDBRANCH   7   8
ENDBRANCH   6   7
ENDBRANCH   5   6
ENDBRANCH   4   5
ENDBRANCH   3   4
ENDBRANCH   2   3
ENDBRANCH   1   2
BRANCH   1  17
ATOM     17  C   UNL     1     167.018 162.906 183.687  1.00  0.00     0.000 C 
BRANCH  17  18
ATOM     18  C   UNL     1     166.801 161.539 184.376  1.00  0.00     0.000 C 
BRANCH  18  19
ATOM     19  C   UNL     1     167.418 160.322 183.649  1.00  0.00     0.000 C 
BRANCH  19  20
ATOM     20  C   UNL     1     168.345 160.624 182.449  1.00  0.00     0.000 C 
BRANCH  20  21
ATOM     21  C   UNL     1     167.758 160.289 181.059  1.00  0.00     0.000 C 
BRANCH  21  22
ATOM     22  C   UNL     1     166.263 159.918 181.082  1.00  0.00    -0.000 C 
BRANCH  22  23
ATOM     23  C   UNL     1     165.360 160.800 180.202  1.00  0.00    -0.000 C 
BRANCH  23  24
ATOM     24  C   UNL     1     166.107 161.815 179.317  1.00  0.00    -0.000 C 
BRANCH  24  25
ATOM     25  C   UNL     1     165.191 162.896 178.703  1.00  0.00    -0.000 C 
BRANCH  25  26
ATOM     26  C   UNL     1     165.373 164.267 179.376  1.00  0.00    -0.000 C 
BRANCH  26  27
ATOM     27  C   UNL     1     164.064 165.071 179.449  1.00  0.00    -0.000 C 
BRANCH  27  28
ATOM     28  C   UNL     1     164.098 166.203 180.501  1.00  0.00    -0.000 C 
BRANCH  28  29
ATOM     29  C   UNL     1     162.695 166.625 180.976  1.00  0.00    -0.003 C 
ATOM     30  C   UNL     1     161.586 165.853 180.261  1.00  0.00     0.004 C 
ENDBRANCH  28  29
ENDBRANCH  27  28
ENDBRANCH  26  27
ENDBRANCH  25  26
ENDBRANCH  24  25
ENDBRANCH  23  24
ENDBRANCH  22  23
ENDBRANCH  21  22
ENDBRANCH  20  21
ENDBRANCH  19  20
ENDBRANCH  18  19
ENDBRANCH  17  18
ENDBRANCH   1  17
TORSDOF 26
ENDMDL
MODEL 8
REMARK VINA RESULT:    -3.617      2.855      4.643
REMARK INTER + INTRA:         -14.412
REMARK INTER:                  -9.260
REMARK INTRA:                  -5.152
REMARK UNBOUND:                -5.298
REMARK SMILES CCCCCCCCCCCCCCCCCCCCCCCCCCCC(=O)[O-]
REMARK SMILES IDX 15 1 16 2 17 3 18 4 19 5 20 6 21 7 22 8 23 9 24 10 25 11
REMARK SMILES IDX 26 12 27 13 28 14 29 15 30 16 14 17 13 18 12 19 11 20 10 21
REMARK SMILES IDX 9 22 8 23 7 24 6 25 5 26 4 27 3 28 2 29 1 30
REMARK H PARENT
REMARK Flexibility Score: inf
ROOT
ATOM      1  C   UNL     1     164.997 163.675 181.712  1.00  0.00     0.000 C 
ENDROOT
BRANCH   1   2
ATOM      2  C   UNL     1     163.879 164.691 182.003  1.00  0.00     0.000 C 
BRANCH   2   3
ATOM      3  C   UNL     1     162.520 164.080 182.394  1.00  0.00     0.000 C 
BRANCH   3   4
ATOM      4  C   UNL     1     162.623 162.749 183.170  1.00  0.00     0.000 C 
BRANCH   4   5
ATOM      5  C   UNL     1     161.249 162.195 183.579  1.00  0.00     0.000 C 
BRANCH   5   6
ATOM      6  C   UNL     1     160.840 161.009 182.697  1.00  0.00     0.000 C 
BRANCH   6   7
ATOM      7  C   UNL     1     160.105 161.494 181.437  1.00  0.00     0.000 C 
BRANCH   7   8
ATOM      8  C   UNL     1     160.648 160.853 180.152  1.00  0.00     0.000 C 
BRANCH   8   9
ATOM      9  C   UNL     1     162.156 160.555 180.227  1.00  0.00     0.000 C 
BRANCH   9  10
ATOM     10  C   UNL     1     162.957 161.300 179.147  1.00  0.00     0.000 C 
BRANCH  10  11
ATOM     11  C   UNL     1     162.526 162.770 178.999  1.00  0.00     0.000 C 
BRANCH  11  12
ATOM     12  C   UNL     1     162.468 163.228 177.530  1.00  0.00     0.006 C 
BRANCH  12  13
ATOM     13  C   UNL     1     162.051 162.126 176.542  1.00  0.00     0.053 C 
BRANCH  13  14
ATOM     14  C   UNL     1     163.145 161.800 175.573  1.00  0.00     0.041 C 
ATOM     15  O   UNL     1     163.429 162.601 174.643  1.00  0.00    -0.550 OA
ATOM     16  O   UNL     1     163.833 160.599 175.679  1.00  0.00    -0.550 OA
ENDBRANCH  13  14
ENDBRANCH  12  13
ENDBRANCH  11  12
ENDBRANCH  10  11
ENDBRANCH   9  10
ENDBRANCH   8   9
ENDBRANCH   7   8
ENDBRANCH   6   7
ENDBRANCH   5   6
ENDBRANCH   4   5
ENDBRANCH   3   4
ENDBRANCH   2   3
ENDBRANCH   1   2
BRANCH   1  17
ATOM     17  C   UNL     1     166.428 164.184 181.969  1.00  0.00     0.000 C 
BRANCH  17  18
ATOM     18  C   UNL     1     166.910 164.011 183.428  1.00  0.00     0.000 C 
BRANCH  18  19
ATOM     19  C   UNL     1     166.314 162.803 184.186  1.00  0.00     0.000 C 
BRANCH  19  20
ATOM     20  C   UNL     1     167.275 161.632 184.496  1.00  0.00     0.000 C 
BRANCH  20  21
ATOM     21  C   UNL     1     166.789 160.238 184.040  1.00  0.00     0.000 C 
BRANCH  21  22
ATOM     22  C   UNL     1     165.354 160.226 183.479  1.00  0.00    -0.000 C 
BRANCH  22  23
ATOM     23  C   UNL     1     165.254 160.109 181.948  1.00  0.00    -0.000 C 
BRANCH  23  24
ATOM     24  C   UNL     1     166.599 159.917 181.223  1.00  0.00    -0.000 C 
BRANCH  24  25
ATOM     25  C   UNL     1     166.928 161.041 180.218  1.00  0.00    -0.000 C 
BRANCH  25  26
ATOM     26  C   UNL     1     168.427 161.100 179.877  1.00  0.00    -0.000 C 
BRANCH  26  27
ATOM     27  C   UNL     1     169.324 160.779 181.085  1.00  0.00    -0.000 C 
BRANCH  27  28
ATOM     28  C   UNL     1     169.725 162.029 181.901  1.00  0.00    -0.000 C 
BRANCH  28  29
ATOM     29  C   UNL     1     171.244 162.138 182.127  1.00  0.00    -0.003 C 
ATOM     30  C   UNL     1     172.041 161.826 180.860  1.00  0.00     0.004 C 
ENDBRANCH  28  29
ENDBRANCH  27  28
ENDBRANCH  26  27
ENDBRANCH  25  26
ENDBRANCH  24  25
ENDBRANCH  23  24
ENDBRANCH  22  23
ENDBRANCH  21  22
ENDBRANCH  20  21
ENDBRANCH  19  20
ENDBRANCH  18  19
ENDBRANCH  17  18
ENDBRANCH   1  17
TORSDOF 26
ENDMDL
MODEL 9
REMARK VINA RESULT:    -3.607      3.003      6.289
REMARK INTER + INTRA:         -14.387
REMARK INTER:                  -9.407
REMARK INTRA:                  -4.980
REMARK UNBOUND:                -5.298
REMARK SMILES CCCCCCCCCCCCCCCCCCCCCCCCCCCC(=O)[O-]
REMARK SMILES IDX 15 1 16 2 17 3 18 4 19 5 20 6 21 7 22 8 23 9 24 10 25 11
REMARK SMILES IDX 26 12 27 13 28 14 29 15 30 16 14 17 13 18 12 19 11 20 10 21
REMARK SMILES IDX 9 22 8 23 7 24 6 25 5 26 4 27 3 28 2 29 1 30
REMARK H PARENT
REMARK Flexibility Score: inf
ROOT
ATOM      1  C   UNL     1     161.003 164.226 182.477  1.00  0.00     0.000 C 
ENDROOT
BRANCH   1   2
ATOM      2  C   UNL     1     160.483 165.446 181.696  1.00  0.00     0.000 C 
BRANCH   2   3
ATOM      3  C   UNL     1     160.857 166.817 182.291  1.00  0.00     0.000 C 
BRANCH   3   4
ATOM      4  C   UNL     1     162.114 167.459 181.663  1.00  0.00     0.000 C 
BRANCH   4   5
ATOM      5  C   UNL     1     163.403 167.087 182.412  1.00  0.00     0.000 C 
BRANCH   5   6
ATOM      6  C   UNL     1     164.404 166.387 181.486  1.00  0.00     0.000 C 
BRANCH   6   7
ATOM      7  C   UNL     1     164.535 164.899 181.849  1.00  0.00     0.000 C 
BRANCH   7   8
ATOM      8  C   UNL     1     163.940 163.973 180.779  1.00  0.00     0.000 C 
BRANCH   8   9
ATOM      9  C   UNL     1     164.121 162.483 181.115  1.00  0.00     0.000 C 
BRANCH   9  10
ATOM     10  C   UNL     1     164.145 162.219 182.629  1.00  0.00     0.000 C 
BRANCH  10  11
ATOM     11  C   UNL     1     164.000 160.726 182.973  1.00  0.00     0.000 C 
BRANCH  11  12
ATOM     12  C   UNL     1     165.276 159.919 182.673  1.00  0.00     0.006 C 
BRANCH  12  13
ATOM     13  C   UNL     1     166.466 160.258 183.586  1.00  0.00     0.053 C 
BRANCH  13  14
ATOM     14  C   UNL     1     167.666 160.693 182.804  1.00  0.00     0.041 C 
ATOM     15  O   UNL     1     167.632 161.755 182.127  1.00  0.00    -0.550 OA
ATOM     16  O   UNL     1     168.814 159.912 182.799  1.00  0.00    -0.550 OA
ENDBRANCH  13  14
ENDBRANCH  12  13
ENDBRANCH  11  12
ENDBRANCH  10  11
ENDBRANCH   9  10
ENDBRANCH   8   9
ENDBRANCH   7   8
ENDBRANCH   6   7
ENDBRANCH   5   6
ENDBRANCH   4   5
ENDBRANCH   3   4
ENDBRANCH   2   3
ENDBRANCH   1   2
BRANCH   1  17
ATOM     17  C   UNL     1     159.944 163.157 182.803  1.00  0.00     0.000 C 
BRANCH  17  18
ATOM     18  C   UNL     1     160.532 161.801 183.257  1.00  0.00     0.000 C 
BRANCH  18  19
ATOM     19  C   UNL     1     160.189 160.592 182.357  1.00  0.00     0.000 C 
BRANCH  19  20
ATOM     20  C   UNL     1     160.979 160.462 181.034  1.00  0.00     0.000 C 
BRANCH  20  21
ATOM     21  C   UNL     1     160.269 161.025 179.782  1.00  0.00     0.000 C 
BRANCH  21  22
ATOM     22  C   UNL     1     160.917 162.303 179.215  1.00  0.00    -0.000 C 
BRANCH  22  23
ATOM     23  C   UNL     1     161.240 162.257 177.711  1.00  0.00    -0.000 C 
BRANCH  23  24
ATOM     24  C   UNL     1     162.700 162.589 177.351  1.00  0.00    -0.000 C 
BRANCH  24  25
ATOM     25  C   UNL     1     163.537 161.355 176.952  1.00  0.00    -0.000 C 
BRANCH  25  26
ATOM     26  C   UNL     1     163.880 160.466 178.160  1.00  0.00    -0.000 C 
BRANCH  26  27
ATOM     27  C   UNL     1     165.299 159.877 178.080  1.00  0.00    -0.000 C 
BRANCH  27  28
ATOM     28  C   UNL     1     166.263 160.450 179.142  1.00  0.00    -0.000 C 
BRANCH  28  29
ATOM     29  C   UNL     1     166.930 161.766 178.702  1.00  0.00    -0.003 C 
ATOM     30  C   UNL     1     167.596 161.647 177.331  1.00  0.00     0.004 C 
ENDBRANCH  28  29
ENDBRANCH  27  28
ENDBRANCH  26  27
ENDBRANCH  25  26
ENDBRANCH  24  25
ENDBRANCH  23  24
ENDBRANCH  22  23
ENDBRANCH  21  22
ENDBRANCH  20  21
ENDBRANCH  19  20
ENDBRANCH  18  19
ENDBRANCH  17  18
ENDBRANCH   1  17
TORSDOF 26
ENDMDL
