MODEL 1
REMARK VINA RESULT:    -3.555      0.000      0.000
REMARK INTER + INTRA:          -9.272
REMARK INTER:                  -6.879
REMARK INTRA:                  -2.393
REMARK UNBOUND:                -2.393
REMARK SMILES CCCCCCCCCCCCCCCCCC(=O)[O-]
REMARK SMILES IDX 10 1 11 2 12 3 13 4 14 5 15 6 16 7 17 8 18 9 19 10 20 11
REMARK SMILES IDX 9 12 8 13 7 14 6 15 5 16 4 17 3 18 2 19 1 20
REMARK H PARENT
REMARK Flexibility Score: inf
ROOT
ATOM      1  C   UNL     1      11.509   3.048  51.818  1.00  0.00     0.000 C 
ENDROOT
BRANCH   1   2
ATOM      2  C   UNL     1      11.733   3.853  50.518  1.00  0.00     0.000 C 
BRANCH   2   3
ATOM      3  C   UNL     1      11.482   5.359  50.708  1.00  0.00     0.000 C 
BRANCH   3   4
ATOM      4  C   UNL     1      10.081   5.798  50.244  1.00  0.00     0.000 C 
BRANCH   4   5
ATOM      5  C   UNL     1       9.080   6.082  51.380  1.00  0.00     0.000 C 
BRANCH   5   6
ATOM      6  C   UNL     1       9.665   5.817  52.775  1.00  0.00     0.000 C 
BRANCH   6   7
ATOM      7  C   UNL     1       8.780   4.851  53.571  1.00  0.00     0.006 C 
BRANCH   7   8
ATOM      8  C   UNL     1       8.461   5.416  54.958  1.00  0.00     0.053 C 
BRANCH   8   9
ATOM      9  C   UNL     1       7.268   4.728  55.543  1.00  0.00     0.041 C 
ATOM     10  O   UNL     1       6.237   4.542  54.843  1.00  0.00    -0.550 OA
ATOM     11  O   UNL     1       7.311   4.246  56.846  1.00  0.00    -0.550 OA
ENDBRANCH   8   9
ENDBRANCH   7   8
ENDBRANCH   6   7
ENDBRANCH   5   6
ENDBRANCH   4   5
ENDBRANCH   3   4
ENDBRANCH   2   3
ENDBRANCH   1   2
BRANCH   1  12
ATOM     12  C   UNL     1      10.378   2.007  51.715  1.00  0.00     0.000 C 
BRANCH  12  13
ATOM     13  C   UNL     1       9.555   2.072  50.415  1.00  0.00    -0.000 C 
BRANCH  13  14
ATOM     14  C   UNL     1       8.027   1.965  50.602  1.00  0.00    -0.000 C 
BRANCH  14  15
ATOM     15  C   UNL     1       7.248   3.272  50.375  1.00  0.00    -0.000 C 
BRANCH  15  16
ATOM     16  C   UNL     1       6.161   3.512  51.434  1.00  0.00    -0.000 C 
BRANCH  16  17
ATOM     17  C   UNL     1       5.638   4.954  51.368  1.00  0.00    -0.000 C 
BRANCH  17  18
ATOM     18  C   UNL     1       4.112   5.023  51.197  1.00  0.00    -0.000 C 
BRANCH  18  19
ATOM     19  C   UNL     1       3.637   6.377  50.651  1.00  0.00    -0.003 C 
ATOM     20  C   UNL     1       4.821   7.253  50.247  1.00  0.00     0.004 C 
ENDBRANCH  18  19
ENDBRANCH  17  18
ENDBRANCH  16  17
ENDBRANCH  15  16
ENDBRANCH  14  15
ENDBRANCH  13  14
ENDBRANCH  12  13
ENDBRANCH   1  12
TORSDOF 16
ENDMDL
MODEL 2
REMARK VINA RESULT:    -3.183      2.765      4.508
REMARK INTER + INTRA:          -8.554
REMARK INTER:                  -7.265
REMARK INTRA:                  -1.289
REMARK UNBOUND:                -2.393
REMARK SMILES CCCCCCCCCCCCCCCCCC(=O)[O-]
REMARK SMILES IDX 10 1 11 2 12 3 13 4 14 5 15 6 16 7 17 8 18 9 19 10 20 11
REMARK SMILES IDX 9 12 8 13 7 14 6 15 5 16 4 17 3 18 2 19 1 20
REMARK H PARENT
REMARK Flexibility Score: inf
ROOT
ATOM      1  C   UNL     1       7.543   4.504  54.113  1.00  0.00     0.000 C 
ENDROOT
BRANCH   1   2
ATOM      2  C   UNL     1       8.761   4.759  53.196  1.00  0.00     0.000 C 
BRANCH   2   3
ATOM      3  C   UNL     1       9.758   5.758  53.807  1.00  0.00     0.000 C 
BRANCH   3   4
ATOM      4  C   UNL     1      10.773   6.297  52.782  1.00  0.00     0.000 C 
BRANCH   4   5
ATOM      5  C   UNL     1      10.235   6.436  51.346  1.00  0.00     0.000 C 
BRANCH   5   6
ATOM      6  C   UNL     1      11.326   6.264  50.278  1.00  0.00     0.000 C 
BRANCH   6   7
ATOM      7  C   UNL     1      11.869   4.830  50.269  1.00  0.00     0.006 C 
BRANCH   7   8
ATOM      8  C   UNL     1      10.776   3.833  49.875  1.00  0.00     0.053 C 
BRANCH   8   9
ATOM      9  C   UNL     1      10.658   2.751  50.902  1.00  0.00     0.041 C 
ATOM     10  O   UNL     1       9.653   1.992  50.908  1.00  0.00    -0.550 OA
ATOM     11  O   UNL     1      11.680   2.547  51.821  1.00  0.00    -0.550 OA
ENDBRANCH   8   9
ENDBRANCH   7   8
ENDBRANCH   6   7
ENDBRANCH   5   6
ENDBRANCH   4   5
ENDBRANCH   3   4
ENDBRANCH   2   3
ENDBRANCH   1   2
BRANCH   1  12
ATOM     12  C   UNL     1       6.284   4.042  53.356  1.00  0.00     0.000 C 
BRANCH  12  13
ATOM     13  C   UNL     1       6.401   4.079  51.821  1.00  0.00    -0.000 C 
BRANCH  13  14
ATOM     14  C   UNL     1       5.744   5.300  51.144  1.00  0.00    -0.000 C 
BRANCH  14  15
ATOM     15  C   UNL     1       4.205   5.321  51.187  1.00  0.00    -0.000 C 
BRANCH  15  16
ATOM     16  C   UNL     1       3.571   4.109  50.489  1.00  0.00    -0.000 C 
BRANCH  16  17
ATOM     17  C   UNL     1       2.209   4.477  49.881  1.00  0.00    -0.000 C 
BRANCH  17  18
ATOM     18  C   UNL     1       1.102   4.600  50.940  1.00  0.00    -0.000 C 
BRANCH  18  19
ATOM     19  C   UNL     1      -0.174   5.256  50.391  1.00  0.00    -0.003 C 
ATOM     20  C   UNL     1      -1.269   4.216  50.161  1.00  0.00     0.004 C 
ENDBRANCH  18  19
ENDBRANCH  17  18
ENDBRANCH  16  17
ENDBRANCH  15  16
ENDBRANCH  14  15
ENDBRANCH  13  14
ENDBRANCH  12  13
ENDBRANCH   1  12
TORSDOF 16
ENDMDL
MODEL 3
REMARK VINA RESULT:    -3.098      5.631      9.139
REMARK INTER + INTRA:          -8.389
REMARK INTER:                  -7.524
REMARK INTRA:                  -0.865
REMARK UNBOUND:                -2.393
REMARK SMILES CCCCCCCCCCCCCCCCCC(=O)[O-]
REMARK SMILES IDX 10 1 11 2 12 3 13 4 14 5 15 6 16 7 17 8 18 9 19 10 20 11
REMARK SMILES IDX 9 12 8 13 7 14 6 15 5 16 4 17 3 18 2 19 1 20
REMARK H PARENT
REMARK Flexibility Score: inf
ROOT
ATOM      1  C   UNL     1       4.168   5.722  51.123  1.00  0.00     0.000 C 
ENDROOT
BRANCH   1   2
ATOM      2  C   UNL     1       3.015   4.707  50.951  1.00  0.00     0.000 C 
BRANCH   2   3
ATOM      3  C   UNL     1       1.759   5.343  50.331  1.00  0.00     0.000 C 
BRANCH   3   4
ATOM      4  C   UNL     1       0.700   4.303  49.920  1.00  0.00     0.000 C 
BRANCH   4   5
ATOM      5  C   UNL     1      -0.761   4.743  50.135  1.00  0.00     0.000 C 
BRANCH   5   6
ATOM      6  C   UNL     1      -1.726   3.560  50.297  1.00  0.00     0.000 C 
BRANCH   6   7
ATOM      7  C   UNL     1      -3.178   3.999  50.078  1.00  0.00     0.006 C 
BRANCH   7   8
ATOM      8  C   UNL     1      -4.153   3.015  50.732  1.00  0.00     0.053 C 
BRANCH   8   9
ATOM      9  C   UNL     1      -5.398   3.721  51.167  1.00  0.00     0.041 C 
ATOM     10  O   UNL     1      -6.088   3.262  52.116  1.00  0.00    -0.550 OA
ATOM     11  O   UNL     1      -5.772   4.913  50.558  1.00  0.00    -0.550 OA
ENDBRANCH   8   9
ENDBRANCH   7   8
ENDBRANCH   6   7
ENDBRANCH   5   6
ENDBRANCH   4   5
ENDBRANCH   3   4
ENDBRANCH   2   3
ENDBRANCH   1   2
BRANCH   1  12
ATOM     12  C   UNL     1       5.119   5.790  49.913  1.00  0.00     0.000 C 
BRANCH  12  13
ATOM     13  C   UNL     1       6.216   4.710  49.891  1.00  0.00    -0.000 C 
BRANCH  13  14
ATOM     14  C   UNL     1       7.577   5.147  50.474  1.00  0.00    -0.000 C 
BRANCH  14  15
ATOM     15  C   UNL     1       8.309   4.073  51.298  1.00  0.00    -0.000 C 
BRANCH  15  16
ATOM     16  C   UNL     1       7.409   3.410  52.351  1.00  0.00    -0.000 C 
BRANCH  16  17
ATOM     17  C   UNL     1       7.194   4.340  53.554  1.00  0.00    -0.000 C 
BRANCH  17  18
ATOM     18  C   UNL     1       8.499   4.993  54.038  1.00  0.00    -0.000 C 
BRANCH  18  19
ATOM     19  C   UNL     1       8.383   5.574  55.455  1.00  0.00    -0.003 C 
ATOM     20  C   UNL     1       7.795   4.548  56.422  1.00  0.00     0.004 C 
ENDBRANCH  18  19
ENDBRANCH  17  18
ENDBRANCH  16  17
ENDBRANCH  15  16
ENDBRANCH  14  15
ENDBRANCH  13  14
ENDBRANCH  12  13
ENDBRANCH   1  12
TORSDOF 16
ENDMDL
MODEL 4
REMARK VINA RESULT:    -3.024      3.374      6.621
REMARK INTER + INTRA:          -8.244
REMARK INTER:                  -7.232
REMARK INTRA:                  -1.012
REMARK UNBOUND:                -2.393
REMARK SMILES CCCCCCCCCCCCCCCCCC(=O)[O-]
REMARK SMILES IDX 10 1 11 2 12 3 13 4 14 5 15 6 16 7 17 8 18 9 19 10 20 11
REMARK SMILES IDX 9 12 8 13 7 14 6 15 5 16 4 17 3 18 2 19 1 20
REMARK H PARENT
REMARK Flexibility Score: inf
ROOT
ATOM      1  C   UNL     1       7.972   2.081  51.246  1.00  0.00     0.000 C 
ENDROOT
BRANCH   1   2
ATOM      2  C   UNL     1       6.552   2.617  50.956  1.00  0.00     0.000 C 
BRANCH   2   3
ATOM      3  C   UNL     1       6.055   3.584  52.044  1.00  0.00     0.000 C 
BRANCH   3   4
ATOM      4  C   UNL     1       5.160   4.707  51.487  1.00  0.00     0.000 C 
BRANCH   4   5
ATOM      5  C   UNL     1       4.008   4.232  50.582  1.00  0.00     0.000 C 
BRANCH   5   6
ATOM      6  C   UNL     1       2.827   5.214  50.549  1.00  0.00     0.000 C 
BRANCH   6   7
ATOM      7  C   UNL     1       1.566   4.541  49.997  1.00  0.00     0.006 C 
BRANCH   7   8
ATOM      8  C   UNL     1       0.321   5.000  50.761  1.00  0.00     0.053 C 
BRANCH   8   9
ATOM      9  C   UNL     1      -0.901   4.320  50.230  1.00  0.00     0.041 C 
ATOM     10  O   UNL     1      -0.933   3.065  50.124  1.00  0.00    -0.550 OA
ATOM     11  O   UNL     1      -2.026   5.067  49.898  1.00  0.00    -0.550 OA
ENDBRANCH   8   9
ENDBRANCH   7   8
ENDBRANCH   6   7
ENDBRANCH   5   6
ENDBRANCH   4   5
ENDBRANCH   3   4
ENDBRANCH   2   3
ENDBRANCH   1   2
BRANCH   1  12
ATOM     12  C   UNL     1       9.093   3.075  50.888  1.00  0.00     0.000 C 
BRANCH  12  13
ATOM     13  C   UNL     1      10.480   2.440  50.682  1.00  0.00    -0.000 C 
BRANCH  13  14
ATOM     14  C   UNL     1      11.423   2.518  51.902  1.00  0.00    -0.000 C 
BRANCH  14  15
ATOM     15  C   UNL     1      12.129   3.872  52.098  1.00  0.00    -0.000 C 
BRANCH  15  16
ATOM     16  C   UNL     1      11.916   4.832  50.918  1.00  0.00    -0.000 C 
BRANCH  16  17
ATOM     17  C   UNL     1      11.451   6.211  51.410  1.00  0.00    -0.000 C 
BRANCH  17  18
ATOM     18  C   UNL     1      10.756   6.147  52.779  1.00  0.00    -0.000 C 
BRANCH  18  19
ATOM     19  C   UNL     1       9.302   5.662  52.684  1.00  0.00    -0.003 C 
ATOM     20  C   UNL     1       8.815   5.123  54.027  1.00  0.00     0.004 C 
ENDBRANCH  18  19
ENDBRANCH  17  18
ENDBRANCH  16  17
ENDBRANCH  15  16
ENDBRANCH  14  15
ENDBRANCH  13  14
ENDBRANCH  12  13
ENDBRANCH   1  12
TORSDOF 16
ENDMDL
MODEL 5
REMARK VINA RESULT:    -2.998      4.549      6.827
REMARK INTER + INTRA:          -8.195
REMARK INTER:                  -7.306
REMARK INTRA:                  -0.889
REMARK UNBOUND:                -2.393
REMARK SMILES CCCCCCCCCCCCCCCCCC(=O)[O-]
REMARK SMILES IDX 10 1 11 2 12 3 13 4 14 5 15 6 16 7 17 8 18 9 19 10 20 11
REMARK SMILES IDX 9 12 8 13 7 14 6 15 5 16 4 17 3 18 2 19 1 20
REMARK H PARENT
REMARK Flexibility Score: inf
ROOT
ATOM      1  C   UNL     1       2.632   5.748  50.507  1.00  0.00     0.000 C 
ENDROOT
BRANCH   1   2
ATOM      2  C   UNL     1       4.078   6.119  50.107  1.00  0.00     0.000 C 
BRANCH   2   3
ATOM      3  C   UNL     1       5.127   5.272  50.847  1.00  0.00     0.000 C 
BRANCH   3   4
ATOM      4  C   UNL     1       6.574   5.686  50.518  1.00  0.00     0.000 C 
BRANCH   4   5
ATOM      5  C   UNL     1       7.650   4.658  50.914  1.00  0.00     0.000 C 
BRANCH   5   6
ATOM      6  C   UNL     1       9.016   5.299  51.201  1.00  0.00     0.000 C 
BRANCH   6   7
ATOM      7  C   UNL     1       9.272   5.401  52.709  1.00  0.00     0.006 C 
BRANCH   7   8
ATOM      8  C   UNL     1       8.517   4.306  53.467  1.00  0.00     0.053 C 
BRANCH   8   9
ATOM      9  C   UNL     1       7.900   4.860  54.712  1.00  0.00     0.041 C 
ATOM     10  O   UNL     1       8.548   5.658  55.439  1.00  0.00    -0.550 OA
ATOM     11  O   UNL     1       6.590   4.535  55.044  1.00  0.00    -0.550 OA
ENDBRANCH   8   9
ENDBRANCH   7   8
ENDBRANCH   6   7
ENDBRANCH   5   6
ENDBRANCH   4   5
ENDBRANCH   3   4
ENDBRANCH   2   3
ENDBRANCH   1   2
BRANCH   1  12
ATOM     12  C   UNL     1       2.453   4.265  50.880  1.00  0.00     0.000 C 
BRANCH  12  13
ATOM     13  C   UNL     1       1.076   3.670  50.533  1.00  0.00    -0.000 C 
BRANCH  13  14
ATOM     14  C   UNL     1      -0.080   4.692  50.469  1.00  0.00    -0.000 C 
BRANCH  14  15
ATOM     15  C   UNL     1      -1.479   4.083  50.265  1.00  0.00    -0.000 C 
BRANCH  15  16
ATOM     16  C   UNL     1      -1.635   2.707  50.928  1.00  0.00    -0.000 C 
BRANCH  16  17
ATOM     17  C   UNL     1      -3.101   2.249  50.905  1.00  0.00    -0.000 C 
BRANCH  17  18
ATOM     18  C   UNL     1      -3.997   3.177  50.070  1.00  0.00    -0.000 C 
BRANCH  18  19
ATOM     19  C   UNL     1      -5.160   3.767  50.880  1.00  0.00    -0.003 C 
ATOM     20  C   UNL     1      -5.477   5.190  50.428  1.00  0.00     0.004 C 
ENDBRANCH  18  19
ENDBRANCH  17  18
ENDBRANCH  16  17
ENDBRANCH  15  16
ENDBRANCH  14  15
ENDBRANCH  13  14
ENDBRANCH  12  13
ENDBRANCH   1  12
TORSDOF 16
ENDMDL
MODEL 6
REMARK VINA RESULT:    -2.987      4.059      7.352
REMARK INTER + INTRA:          -8.173
REMARK INTER:                  -6.906
REMARK INTRA:                  -1.267
REMARK UNBOUND:                -2.393
REMARK SMILES CCCCCCCCCCCCCCCCCC(=O)[O-]
REMARK SMILES IDX 10 1 11 2 12 3 13 4 14 5 15 6 16 7 17 8 18 9 19 10 20 11
REMARK SMILES IDX 9 12 8 13 7 14 6 15 5 16 4 17 3 18 2 19 1 20
REMARK H PARENT
REMARK Flexibility Score: inf
ROOT
ATOM      1  C   UNL     1       6.313   4.420  52.865  1.00  0.00     0.000 C 
ENDROOT
BRANCH   1   2
ATOM      2  C   UNL     1       5.707   3.352  51.927  1.00  0.00     0.000 C 
BRANCH   2   3
ATOM      3  C   UNL     1       4.873   3.971  50.792  1.00  0.00     0.000 C 
BRANCH   3   4
ATOM      4  C   UNL     1       3.860   5.018  51.293  1.00  0.00     0.000 C 
BRANCH   4   5
ATOM      5  C   UNL     1       2.567   5.120  50.462  1.00  0.00     0.000 C 
BRANCH   5   6
ATOM      6  C   UNL     1       1.568   3.994  50.766  1.00  0.00     0.000 C 
BRANCH   6   7
ATOM      7  C   UNL     1       0.151   4.381  50.329  1.00  0.00     0.006 C 
BRANCH   7   8
ATOM      8  C   UNL     1      -0.825   3.220  50.543  1.00  0.00     0.053 C 
BRANCH   8   9
ATOM      9  C   UNL     1      -2.232   3.666  50.301  1.00  0.00     0.041 C 
ATOM     10  O   UNL     1      -2.464   4.830  49.879  1.00  0.00    -0.550 OA
ATOM     11  O   UNL     1      -3.286   2.780  50.493  1.00  0.00    -0.550 OA
ENDBRANCH   8   9
ENDBRANCH   7   8
ENDBRANCH   6   7
ENDBRANCH   5   6
ENDBRANCH   4   5
ENDBRANCH   3   4
ENDBRANCH   2   3
ENDBRANCH   1   2
BRANCH   1  12
ATOM     12  C   UNL     1       7.854   4.427  52.881  1.00  0.00     0.000 C 
BRANCH  12  13
ATOM     13  C   UNL     1       8.512   3.122  52.399  1.00  0.00    -0.000 C 
BRANCH  13  14
ATOM     14  C   UNL     1       8.878   3.087  50.900  1.00  0.00    -0.000 C 
BRANCH  14  15
ATOM     15  C   UNL     1      10.377   2.916  50.597  1.00  0.00    -0.000 C 
BRANCH  15  16
ATOM     16  C   UNL     1      11.256   3.017  51.852  1.00  0.00    -0.000 C 
BRANCH  16  17
ATOM     17  C   UNL     1      12.230   4.200  51.747  1.00  0.00    -0.000 C 
BRANCH  17  18
ATOM     18  C   UNL     1      11.745   5.280  50.766  1.00  0.00    -0.000 C 
BRANCH  18  19
ATOM     19  C   UNL     1      10.950   6.396  51.459  1.00  0.00    -0.003 C 
ATOM     20  C   UNL     1       9.741   6.810  50.622  1.00  0.00     0.004 C 
ENDBRANCH  18  19
ENDBRANCH  17  18
ENDBRANCH  16  17
ENDBRANCH  15  16
ENDBRANCH  14  15
ENDBRANCH  13  14
ENDBRANCH  12  13
ENDBRANCH   1  12
TORSDOF 16
ENDMDL
MODEL 7
REMARK VINA RESULT:    -2.912      3.478      7.136
REMARK INTER + INTRA:          -8.028
REMARK INTER:                  -6.767
REMARK INTRA:                  -1.260
REMARK UNBOUND:                -2.393
REMARK SMILES CCCCCCCCCCCCCCCCCC(=O)[O-]
REMARK SMILES IDX 10 1 11 2 12 3 13 4 14 5 15 6 16 7 17 8 18 9 19 10 20 11
REMARK SMILES IDX 9 12 8 13 7 14 6 15 5 16 4 17 3 18 2 19 1 20
REMARK H PARENT
REMARK Flexibility Score: inf
ROOT
ATOM      1  C   UNL     1       6.368   4.327  53.410  1.00  0.00     0.000 C 
ENDROOT
BRANCH   1   2
ATOM      2  C   UNL     1       6.142   3.616  52.057  1.00  0.00     0.000 C 
BRANCH   2   3
ATOM      3  C   UNL     1       6.109   4.599  50.874  1.00  0.00     0.000 C 
BRANCH   3   4
ATOM      4  C   UNL     1       5.207   5.820  51.132  1.00  0.00     0.000 C 
BRANCH   4   5
ATOM      5  C   UNL     1       3.920   5.868  50.288  1.00  0.00     0.000 C 
BRANCH   5   6
ATOM      6  C   UNL     1       2.813   4.949  50.828  1.00  0.00     0.000 C 
BRANCH   6   7
ATOM      7  C   UNL     1       1.465   5.263  50.169  1.00  0.00     0.006 C 
BRANCH   7   8
ATOM      8  C   UNL     1       0.513   4.069  50.274  1.00  0.00     0.053 C 
BRANCH   8   9
ATOM      9  C   UNL     1      -0.904   4.535  50.391  1.00  0.00     0.041 C 
ATOM     10  O   UNL     1      -1.181   5.757  50.257  1.00  0.00    -0.550 OA
ATOM     11  O   UNL     1      -1.925   3.616  50.598  1.00  0.00    -0.550 OA
ENDBRANCH   8   9
ENDBRANCH   7   8
ENDBRANCH   6   7
ENDBRANCH   5   6
ENDBRANCH   4   5
ENDBRANCH   3   4
ENDBRANCH   2   3
ENDBRANCH   1   2
BRANCH   1  12
ATOM     12  C   UNL     1       7.799   4.170  53.959  1.00  0.00     0.000 C 
BRANCH  12  13
ATOM     13  C   UNL     1       8.645   5.456  53.936  1.00  0.00    -0.000 C 
BRANCH  13  14
ATOM     14  C   UNL     1       9.741   5.499  52.850  1.00  0.00    -0.000 C 
BRANCH  14  15
ATOM     15  C   UNL     1       9.766   4.288  51.899  1.00  0.00    -0.000 C 
BRANCH  15  16
ATOM     16  C   UNL     1      10.106   4.673  50.451  1.00  0.00    -0.000 C 
BRANCH  16  17
ATOM     17  C   UNL     1      11.215   5.734  50.411  1.00  0.00    -0.000 C 
BRANCH  17  18
ATOM     18  C   UNL     1      12.597   5.159  50.759  1.00  0.00    -0.000 C 
BRANCH  18  19
ATOM     19  C   UNL     1      13.740   5.877  50.027  1.00  0.00    -0.003 C 
ATOM     20  C   UNL     1      13.552   7.392  50.068  1.00  0.00     0.004 C 
ENDBRANCH  18  19
ENDBRANCH  17  18
ENDBRANCH  16  17
ENDBRANCH  15  16
ENDBRANCH  14  15
ENDBRANCH  13  14
ENDBRANCH  12  13
ENDBRANCH   1  12
TORSDOF 16
ENDMDL
MODEL 8
REMARK VINA RESULT:    -2.887      5.062      7.476
REMARK INTER + INTRA:          -7.981
REMARK INTER:                  -7.105
REMARK INTRA:                  -0.876
REMARK UNBOUND:                -2.393
REMARK SMILES CCCCCCCCCCCCCCCCCC(=O)[O-]
REMARK SMILES IDX 10 1 11 2 12 3 13 4 14 5 15 6 16 7 17 8 18 9 19 10 20 11
REMARK SMILES IDX 9 12 8 13 7 14 6 15 5 16 4 17 3 18 2 19 1 20
REMARK H PARENT
REMARK Flexibility Score: inf
ROOT
ATOM      1  C   UNL     1       2.566   5.381  50.582  1.00  0.00     0.000 C 
ENDROOT
BRANCH   1   2
ATOM      2  C   UNL     1       4.091   5.593  50.445  1.00  0.00     0.000 C 
BRANCH   2   3
ATOM      3  C   UNL     1       4.896   4.715  51.418  1.00  0.00     0.000 C 
BRANCH   3   4
ATOM      4  C   UNL     1       6.414   4.966  51.339  1.00  0.00     0.000 C 
BRANCH   4   5
ATOM      5  C   UNL     1       7.280   3.967  52.129  1.00  0.00     0.000 C 
BRANCH   5   6
ATOM      6  C   UNL     1       7.523   2.654  51.371  1.00  0.00     0.000 C 
BRANCH   6   7
ATOM      7  C   UNL     1       8.960   2.579  50.842  1.00  0.00     0.006 C 
BRANCH   7   8
ATOM      8  C   UNL     1       9.956   3.081  51.891  1.00  0.00     0.053 C 
BRANCH   8   9
ATOM      9  C   UNL     1      10.889   4.086  51.292  1.00  0.00     0.041 C 
ATOM     10  O   UNL     1      10.480   4.877  50.401  1.00  0.00    -0.550 OA
ATOM     11  O   UNL     1      12.197   4.183  51.751  1.00  0.00    -0.550 OA
ENDBRANCH   8   9
ENDBRANCH   7   8
ENDBRANCH   6   7
ENDBRANCH   5   6
ENDBRANCH   4   5
ENDBRANCH   3   4
ENDBRANCH   2   3
ENDBRANCH   1   2
BRANCH   1  12
ATOM     12  C   UNL     1       2.172   3.939  50.956  1.00  0.00     0.000 C 
BRANCH  12  13
ATOM     13  C   UNL     1       0.755   3.523  50.523  1.00  0.00    -0.000 C 
BRANCH  13  14
ATOM     14  C   UNL     1      -0.237   4.688  50.322  1.00  0.00    -0.000 C 
BRANCH  14  15
ATOM     15  C   UNL     1      -1.704   4.270  50.119  1.00  0.00    -0.000 C 
BRANCH  15  16
ATOM     16  C   UNL     1      -2.068   2.982  50.873  1.00  0.00    -0.000 C 
BRANCH  16  17
ATOM     17  C   UNL     1      -3.586   2.745  50.853  1.00  0.00    -0.000 C 
BRANCH  17  18
ATOM     18  C   UNL     1      -4.333   3.770  49.986  1.00  0.00    -0.000 C 
BRANCH  18  19
ATOM     19  C   UNL     1      -5.449   4.496  50.753  1.00  0.00    -0.003 C 
ATOM     20  C   UNL     1      -5.531   5.964  50.343  1.00  0.00     0.004 C 
ENDBRANCH  18  19
ENDBRANCH  17  18
ENDBRANCH  16  17
ENDBRANCH  15  16
ENDBRANCH  14  15
ENDBRANCH  13  14
ENDBRANCH  12  13
ENDBRANCH   1  12
TORSDOF 16
ENDMDL
MODEL 9
REMARK VINA RESULT:    -2.839      5.657      9.392
REMARK INTER + INTRA:          -7.888
REMARK INTER:                  -7.263
REMARK INTRA:                  -0.624
REMARK UNBOUND:                -2.393
REMARK SMILES CCCCCCCCCCCCCCCCCC(=O)[O-]
REMARK SMILES IDX 10 1 11 2 12 3 13 4 14 5 15 6 16 7 17 8 18 9 19 10 20 11
REMARK SMILES IDX 9 12 8 13 7 14 6 15 5 16 4 17 3 18 2 19 1 20
REMARK H PARENT
REMARK Flexibility Score: inf
ROOT
ATOM      1  C   UNL     1       4.071   5.765  51.090  1.00  0.00     0.000 C 
ENDROOT
BRANCH   1   2
ATOM      2  C   UNL     1       3.016   4.648  50.923  1.00  0.00     0.000 C 
BRANCH   2   3
ATOM      3  C   UNL     1       1.812   5.098  50.077  1.00  0.00     0.000 C 
BRANCH   3   4
ATOM      4  C   UNL     1       0.769   3.984  49.875  1.00  0.00     0.000 C 
BRANCH   4   5
ATOM      5  C   UNL     1      -0.695   4.421  50.069  1.00  0.00     0.000 C 
BRANCH   5   6
ATOM      6  C   UNL     1      -1.609   3.273  50.523  1.00  0.00     0.000 C 
BRANCH   6   7
ATOM      7  C   UNL     1      -3.085   3.624  50.305  1.00  0.00     0.006 C 
BRANCH   7   8
ATOM      8  C   UNL     1      -3.988   2.792  51.220  1.00  0.00     0.053 C 
BRANCH   8   9
ATOM      9  C   UNL     1      -5.376   3.350  51.237  1.00  0.00     0.041 C 
ATOM     10  O   UNL     1      -6.098   3.220  52.261  1.00  0.00    -0.550 OA
ATOM     11  O   UNL     1      -5.856   4.057  50.141  1.00  0.00    -0.550 OA
ENDBRANCH   8   9
ENDBRANCH   7   8
ENDBRANCH   6   7
ENDBRANCH   5   6
ENDBRANCH   4   5
ENDBRANCH   3   4
ENDBRANCH   2   3
ENDBRANCH   1   2
BRANCH   1  12
ATOM     12  C   UNL     1       5.044   5.879  49.901  1.00  0.00     0.000 C 
BRANCH  12  13
ATOM     13  C   UNL     1       6.232   4.900  49.940  1.00  0.00    -0.000 C 
BRANCH  13  14
ATOM     14  C   UNL     1       7.388   5.311  50.876  1.00  0.00    -0.000 C 
BRANCH  14  15
ATOM     15  C   UNL     1       7.844   4.225  51.867  1.00  0.00    -0.000 C 
BRANCH  15  16
ATOM     16  C   UNL     1       8.607   4.797  53.071  1.00  0.00    -0.000 C 
BRANCH  16  17
ATOM     17  C   UNL     1      10.013   5.259  52.661  1.00  0.00    -0.000 C 
BRANCH  17  18
ATOM     18  C   UNL     1      10.689   4.294  51.674  1.00  0.00    -0.000 C 
BRANCH  18  19
ATOM     19  C   UNL     1      11.883   3.553  52.292  1.00  0.00    -0.003 C 
ATOM     20  C   UNL     1      11.705   2.040  52.184  1.00  0.00     0.004 C 
ENDBRANCH  18  19
ENDBRANCH  17  18
ENDBRANCH  16  17
ENDBRANCH  15  16
ENDBRANCH  14  15
ENDBRANCH  13  14
ENDBRANCH  12  13
ENDBRANCH   1  12
TORSDOF 16
ENDMDL
