MODEL 1
REMARK VINA RESULT:    -5.478      0.000      0.000
REMARK INTER + INTRA:          -6.664
REMARK INTER:                  -6.439
REMARK INTRA:                  -0.225
REMARK UNBOUND:                -0.225
REMARK SMILES O=C([O-])C=Cc1ccc(O)c(O)c1
REMARK SMILES IDX 6 1 13 2 7 3 11 4 8 5 9 6 5 7 4 8 2 9 1 10 3 11 12 12 10 14
REMARK H PARENT 12 13 10 15
REMARK Flexibility Score: inf
ROOT
ATOM      1  C   UNL     1       9.793  51.264  24.957  1.00  0.00    -0.022 A 
ATOM      2  C   UNL     1      10.198  49.979  24.552  1.00  0.00     0.058 A 
ATOM      3  C   UNL     1      10.757  52.270  25.109  1.00  0.00     0.012 A 
ATOM      4  C   UNL     1      11.555  49.693  24.354  1.00  0.00     0.157 A 
ATOM      5  C   UNL     1      12.111  51.985  24.912  1.00  0.00     0.051 A 
ATOM      6  C   UNL     1      12.514  50.697  24.540  1.00  0.00     0.157 A 
ENDROOT
BRANCH   1   7
ATOM      7  C   UNL     1       8.364  51.602  25.119  1.00  0.00     0.010 C 
ATOM      8  C   UNL     1       7.563  52.075  24.153  1.00  0.00     0.025 C 
BRANCH   8   9
ATOM      9  C   UNL     1       7.908  52.161  22.721  1.00  0.00     0.064 C 
ATOM     10  O   UNL     1       7.379  51.356  21.911  1.00  0.00    -0.545 OA
ATOM     11  O   UNL     1       8.857  53.064  22.256  1.00  0.00    -0.545 OA
ENDBRANCH   8   9
ENDBRANCH   1   7
BRANCH   4  12
ATOM     12  O   UNL     1      11.958  48.415  23.970  1.00  0.00    -0.504 OA
ATOM     13  H   UNL     1      12.870  48.049  24.218  1.00  0.00     0.293 HD
ENDBRANCH   4  12
BRANCH   6  14
ATOM     14  O   UNL     1      13.865  50.407  24.346  1.00  0.00    -0.504 OA
ATOM     15  H   UNL     1      14.202  50.014  23.475  1.00  0.00     0.293 HD
ENDBRANCH   6  14
TORSDOF 4
ENDMDL
MODEL 2
REMARK VINA RESULT:    -4.867      3.159      6.626
REMARK INTER + INTRA:          -5.946
REMARK INTER:                  -5.769
REMARK INTRA:                  -0.177
REMARK UNBOUND:                -0.225
REMARK SMILES O=C([O-])C=Cc1ccc(O)c(O)c1
REMARK SMILES IDX 6 1 13 2 7 3 11 4 8 5 9 6 5 7 4 8 2 9 1 10 3 11 12 12 10 14
REMARK H PARENT 12 13 10 15
REMARK Flexibility Score: inf
ROOT
ATOM      1  C   UNL     1       7.473  53.171  20.797  1.00  0.00    -0.022 A 
ATOM      2  C   UNL     1       7.117  52.172  19.872  1.00  0.00     0.058 A 
ATOM      3  C   UNL     1       6.490  54.057  21.259  1.00  0.00     0.012 A 
ATOM      4  C   UNL     1       5.808  52.097  19.378  1.00  0.00     0.157 A 
ATOM      5  C   UNL     1       5.185  53.984  20.767  1.00  0.00     0.051 A 
ATOM      6  C   UNL     1       4.841  53.008  19.822  1.00  0.00     0.157 A 
ENDROOT
BRANCH   1   7
ATOM      7  C   UNL     1       8.832  53.235  21.370  1.00  0.00     0.010 C 
ATOM      8  C   UNL     1       9.209  52.692  22.538  1.00  0.00     0.025 C 
BRANCH   8   9
ATOM      9  C   UNL     1       8.393  51.779  23.360  1.00  0.00     0.064 C 
ATOM     10  O   UNL     1       8.705  50.561  23.421  1.00  0.00    -0.545 OA
ATOM     11  O   UNL     1       7.247  52.217  24.012  1.00  0.00    -0.545 OA
ENDBRANCH   8   9
ENDBRANCH   1   7
BRANCH   4  12
ATOM     12  O   UNL     1       5.459  51.119  18.449  1.00  0.00    -0.504 OA
ATOM     13  H   UNL     1       6.142  50.462  18.088  1.00  0.00     0.293 HD
ENDBRANCH   4  12
BRANCH   6  14
ATOM     14  O   UNL     1       3.539  52.933  19.326  1.00  0.00    -0.504 OA
ATOM     15  H   UNL     1       3.023  53.766  19.069  1.00  0.00     0.293 HD
ENDBRANCH   6  14
TORSDOF 4
ENDMDL
MODEL 3
REMARK VINA RESULT:    -4.797      1.645      4.911
REMARK INTER + INTRA:          -5.863
REMARK INTER:                  -5.989
REMARK INTRA:                   0.126
REMARK UNBOUND:                -0.225
REMARK SMILES O=C([O-])C=Cc1ccc(O)c(O)c1
REMARK SMILES IDX 6 1 13 2 7 3 11 4 8 5 9 6 5 7 4 8 2 9 1 10 3 11 12 12 10 14
REMARK H PARENT 12 13 10 15
REMARK Flexibility Score: inf
ROOT
ATOM      1  C   UNL     1       8.874  52.117  23.609  1.00  0.00    -0.022 A 
ATOM      2  C   UNL     1       9.701  52.868  22.752  1.00  0.00     0.058 A 
ATOM      3  C   UNL     1       7.601  51.732  23.167  1.00  0.00     0.012 A 
ATOM      4  C   UNL     1       9.237  53.269  21.492  1.00  0.00     0.157 A 
ATOM      5  C   UNL     1       7.138  52.132  21.911  1.00  0.00     0.051 A 
ATOM      6  C   UNL     1       7.951  52.905  21.073  1.00  0.00     0.157 A 
ENDROOT
BRANCH   1   7
ATOM      7  C   UNL     1       9.361  51.639  24.918  1.00  0.00     0.010 C 
ATOM      8  C   UNL     1      10.511  50.978  25.125  1.00  0.00     0.025 C 
BRANCH   8   9
ATOM      9  C   UNL     1      11.576  50.780  24.124  1.00  0.00     0.064 C 
ATOM     10  O   UNL     1      11.504  49.803  23.333  1.00  0.00    -0.545 OA
ATOM     11  O   UNL     1      12.693  51.606  24.079  1.00  0.00    -0.545 OA
ENDBRANCH   8   9
ENDBRANCH   1   7
BRANCH   4  12
ATOM     12  O   UNL     1      10.049  54.027  20.650  1.00  0.00    -0.504 OA
ATOM     13  H   UNL     1      10.424  54.923  20.940  1.00  0.00     0.293 HD
ENDBRANCH   4  12
BRANCH   6  14
ATOM     14  O   UNL     1       7.492  53.310  19.819  1.00  0.00    -0.504 OA
ATOM     15  H   UNL     1       6.932  54.146  19.706  1.00  0.00     0.293 HD
ENDBRANCH   6  14
TORSDOF 4
ENDMDL
MODEL 4
REMARK VINA RESULT:    -4.704      2.086      2.929
REMARK INTER + INTRA:          -5.754
REMARK INTER:                  -5.507
REMARK INTRA:                  -0.247
REMARK UNBOUND:                -0.225
REMARK SMILES O=C([O-])C=Cc1ccc(O)c(O)c1
REMARK SMILES IDX 6 1 13 2 7 3 11 4 8 5 9 6 5 7 4 8 2 9 1 10 3 11 12 12 10 14
REMARK H PARENT 12 13 10 15
REMARK Flexibility Score: inf
ROOT
ATOM      1  C   UNL     1       9.649  52.061  22.561  1.00  0.00    -0.022 A 
ATOM      2  C   UNL     1      10.975  51.858  22.137  1.00  0.00     0.058 A 
ATOM      3  C   UNL     1       9.091  51.186  23.504  1.00  0.00     0.012 A 
ATOM      4  C   UNL     1      11.713  50.765  22.611  1.00  0.00     0.157 A 
ATOM      5  C   UNL     1       9.825  50.095  23.977  1.00  0.00     0.051 A 
ATOM      6  C   UNL     1      11.135  49.879  23.529  1.00  0.00     0.157 A 
ENDROOT
BRANCH   1   7
ATOM      7  C   UNL     1       8.873  53.235  22.115  1.00  0.00     0.010 C 
ATOM      8  C   UNL     1       8.274  53.362  20.921  1.00  0.00     0.025 C 
BRANCH   8   9
ATOM      9  C   UNL     1       8.121  52.287  19.922  1.00  0.00     0.064 C 
ATOM     10  O   UNL     1       9.047  52.079  19.095  1.00  0.00    -0.545 OA
ATOM     11  O   UNL     1       6.949  51.546  19.826  1.00  0.00    -0.545 OA
ENDBRANCH   8   9
ENDBRANCH   1   7
BRANCH   4  12
ATOM     12  O   UNL     1      13.020  50.555  22.178  1.00  0.00    -0.504 OA
ATOM     13  H   UNL     1      13.240  50.424  21.197  1.00  0.00     0.293 HD
ENDBRANCH   4  12
BRANCH   6  14
ATOM     14  O   UNL     1      11.870  48.790  23.996  1.00  0.00    -0.504 OA
ATOM     15  H   UNL     1      11.418  47.987  24.418  1.00  0.00     0.293 HD
ENDBRANCH   6  14
TORSDOF 4
ENDMDL
MODEL 5
REMARK VINA RESULT:    -4.580      2.018      4.964
REMARK INTER + INTRA:          -5.608
REMARK INTER:                  -5.634
REMARK INTRA:                   0.026
REMARK UNBOUND:                -0.225
REMARK SMILES O=C([O-])C=Cc1ccc(O)c(O)c1
REMARK SMILES IDX 6 1 13 2 7 3 11 4 8 5 9 6 5 7 4 8 2 9 1 10 3 11 12 12 10 14
REMARK H PARENT 12 13 10 15
REMARK Flexibility Score: inf
ROOT
ATOM      1  C   UNL     1       8.185  52.150  22.916  1.00  0.00    -0.022 A 
ATOM      2  C   UNL     1       7.187  51.720  22.023  1.00  0.00     0.058 A 
ATOM      3  C   UNL     1       9.256  52.913  22.430  1.00  0.00     0.012 A 
ATOM      4  C   UNL     1       7.288  52.006  20.655  1.00  0.00     0.157 A 
ATOM      5  C   UNL     1       9.358  53.198  21.065  1.00  0.00     0.051 A 
ATOM      6  C   UNL     1       8.379  52.742  20.174  1.00  0.00     0.157 A 
ENDROOT
BRANCH   1   7
ATOM      7  C   UNL     1       8.072  51.905  24.368  1.00  0.00     0.010 C 
ATOM      8  C   UNL     1       8.990  51.285  25.125  1.00  0.00     0.025 C 
BRANCH   8   9
ATOM      9  C   UNL     1      10.348  50.912  24.688  1.00  0.00     0.064 C 
ATOM     10  O   UNL     1      11.325  51.623  25.041  1.00  0.00    -0.545 OA
ATOM     11  O   UNL     1      10.567  49.834  23.838  1.00  0.00    -0.545 OA
ENDBRANCH   8   9
ENDBRANCH   1   7
BRANCH   4  12
ATOM     12  O   UNL     1       6.308  51.565  19.768  1.00  0.00    -0.504 OA
ATOM     13  H   UNL     1       6.013  52.130  18.979  1.00  0.00     0.293 HD
ENDBRANCH   4  12
BRANCH   6  14
ATOM     14  O   UNL     1       8.478  53.021  18.811  1.00  0.00    -0.504 OA
ATOM     15  H   UNL     1       9.348  53.333  18.397  1.00  0.00     0.293 HD
ENDBRANCH   6  14
TORSDOF 4
ENDMDL
MODEL 6
REMARK VINA RESULT:    -4.545      4.107      7.026
REMARK INTER + INTRA:          -5.567
REMARK INTER:                  -5.409
REMARK INTRA:                  -0.158
REMARK UNBOUND:                -0.225
REMARK SMILES O=C([O-])C=Cc1ccc(O)c(O)c1
REMARK SMILES IDX 6 1 13 2 7 3 11 4 8 5 9 6 5 7 4 8 2 9 1 10 3 11 12 12 10 14
REMARK H PARENT 12 13 10 15
REMARK Flexibility Score: inf
ROOT
ATOM      1  C   UNL     1       6.953  52.815  20.908  1.00  0.00    -0.022 A 
ATOM      2  C   UNL     1       6.685  51.842  19.928  1.00  0.00     0.058 A 
ATOM      3  C   UNL     1       6.114  53.933  21.009  1.00  0.00     0.012 A 
ATOM      4  C   UNL     1       5.624  52.014  19.029  1.00  0.00     0.157 A 
ATOM      5  C   UNL     1       5.057  54.107  20.113  1.00  0.00     0.051 A 
ATOM      6  C   UNL     1       4.812  53.152  19.118  1.00  0.00     0.157 A 
ENDROOT
BRANCH   1   7
ATOM      7  C   UNL     1       8.032  52.627  21.899  1.00  0.00     0.010 C 
ATOM      8  C   UNL     1       9.341  52.553  21.616  1.00  0.00     0.025 C 
BRANCH   8   9
ATOM      9  C   UNL     1       9.950  52.834  20.302  1.00  0.00     0.064 C 
ATOM     10  O   UNL     1      10.096  54.029  19.934  1.00  0.00    -0.545 OA
ATOM     11  O   UNL     1      10.302  51.810  19.430  1.00  0.00    -0.545 OA
ENDBRANCH   8   9
ENDBRANCH   1   7
BRANCH   4  12
ATOM     12  O   UNL     1       5.370  51.059  18.046  1.00  0.00    -0.504 OA
ATOM     13  H   UNL     1       6.120  50.543  17.600  1.00  0.00     0.293 HD
ENDBRANCH   4  12
BRANCH   6  14
ATOM     14  O   UNL     1       3.759  53.322  18.218  1.00  0.00    -0.504 OA
ATOM     15  H   UNL     1       3.138  52.558  17.981  1.00  0.00     0.293 HD
ENDBRANCH   6  14
TORSDOF 4
ENDMDL
MODEL 7
REMARK VINA RESULT:    -4.534      1.605      1.890
REMARK INTER + INTRA:          -5.554
REMARK INTER:                  -5.500
REMARK INTRA:                  -0.053
REMARK UNBOUND:                -0.225
REMARK SMILES O=C([O-])C=Cc1ccc(O)c(O)c1
REMARK SMILES IDX 6 1 13 2 7 3 11 4 8 5 9 6 5 7 4 8 2 9 1 10 3 11 12 12 10 14
REMARK H PARENT 12 13 10 15
REMARK Flexibility Score: inf
ROOT
ATOM      1  C   UNL     1      10.302  50.570  24.313  1.00  0.00    -0.022 A 
ATOM      2  C   UNL     1      11.125  50.231  23.224  1.00  0.00     0.058 A 
ATOM      3  C   UNL     1      10.652  51.659  25.123  1.00  0.00     0.012 A 
ATOM      4  C   UNL     1      12.309  50.941  22.981  1.00  0.00     0.157 A 
ATOM      5  C   UNL     1      11.833  52.367  24.883  1.00  0.00     0.051 A 
ATOM      6  C   UNL     1      12.666  52.008  23.816  1.00  0.00     0.157 A 
ENDROOT
BRANCH   1   7
ATOM      7  C   UNL     1       9.025  49.870  24.555  1.00  0.00     0.010 C 
ATOM      8  C   UNL     1       7.806  50.425  24.470  1.00  0.00     0.025 C 
BRANCH   8   9
ATOM      9  C   UNL     1       7.514  51.770  23.938  1.00  0.00     0.064 C 
ATOM     10  O   UNL     1       6.823  52.567  24.625  1.00  0.00    -0.545 OA
ATOM     11  O   UNL     1       7.923  52.152  22.665  1.00  0.00    -0.545 OA
ENDBRANCH   8   9
ENDBRANCH   1   7
BRANCH   4  12
ATOM     12  O   UNL     1      13.133  50.595  21.913  1.00  0.00    -0.504 OA
ATOM     13  H   UNL     1      13.303  49.626  21.666  1.00  0.00     0.293 HD
ENDBRANCH   4  12
BRANCH   6  14
ATOM     14  O   UNL     1      13.847  52.710  23.574  1.00  0.00    -0.504 OA
ATOM     15  H   UNL     1      13.899  53.430  22.863  1.00  0.00     0.293 HD
ENDBRANCH   6  14
TORSDOF 4
ENDMDL
MODEL 8
REMARK VINA RESULT:    -4.433      2.704      5.776
REMARK INTER + INTRA:          -5.436
REMARK INTER:                  -5.149
REMARK INTRA:                  -0.287
REMARK UNBOUND:                -0.225
REMARK SMILES O=C([O-])C=Cc1ccc(O)c(O)c1
REMARK SMILES IDX 6 1 13 2 7 3 11 4 8 5 9 6 5 7 4 8 2 9 1 10 3 11 12 12 10 14
REMARK H PARENT 12 13 10 15
REMARK Flexibility Score: inf
ROOT
ATOM      1  C   UNL     1      13.638  52.039  23.655  1.00  0.00    -0.022 A 
ATOM      2  C   UNL     1      13.196  51.627  22.384  1.00  0.00     0.058 A 
ATOM      3  C   UNL     1      12.880  51.702  24.785  1.00  0.00     0.012 A 
ATOM      4  C   UNL     1      11.987  50.934  22.244  1.00  0.00     0.157 A 
ATOM      5  C   UNL     1      11.673  51.012  24.646  1.00  0.00     0.051 A 
ATOM      6  C   UNL     1      11.221  50.630  23.376  1.00  0.00     0.157 A 
ENDROOT
BRANCH   1   7
ATOM      7  C   UNL     1      14.934  52.724  23.832  1.00  0.00     0.010 C 
ATOM      8  C   UNL     1      16.106  52.117  24.073  1.00  0.00     0.025 C 
BRANCH   8   9
ATOM      9  C   UNL     1      16.345  50.662  24.014  1.00  0.00     0.064 C 
ATOM     10  O   UNL     1      16.735  50.146  22.935  1.00  0.00    -0.545 OA
ATOM     11  O   UNL     1      16.081  49.838  25.102  1.00  0.00    -0.545 OA
ENDBRANCH   8   9
ENDBRANCH   1   7
BRANCH   4  12
ATOM     12  O   UNL     1      11.541  50.541  20.983  1.00  0.00    -0.504 OA
ATOM     13  H   UNL     1      11.406  49.564  20.749  1.00  0.00     0.293 HD
ENDBRANCH   4  12
BRANCH   6  14
ATOM     14  O   UNL     1      10.015  49.943  23.232  1.00  0.00    -0.504 OA
ATOM     15  H   UNL     1       9.175  50.242  23.713  1.00  0.00     0.293 HD
ENDBRANCH   6  14
TORSDOF 4
ENDMDL
MODEL 9
REMARK VINA RESULT:    -4.396      2.313      5.068
REMARK INTER + INTRA:          -5.392
REMARK INTER:                  -5.501
REMARK INTRA:                   0.109
REMARK UNBOUND:                -0.225
REMARK SMILES O=C([O-])C=Cc1ccc(O)c(O)c1
REMARK SMILES IDX 6 1 13 2 7 3 11 4 8 5 9 6 5 7 4 8 2 9 1 10 3 11 12 12 10 14
REMARK H PARENT 12 13 10 15
REMARK Flexibility Score: inf
ROOT
ATOM      1  C   UNL     1       7.807  52.193  22.365  1.00  0.00    -0.022 A 
ATOM      2  C   UNL     1       8.955  52.977  22.145  1.00  0.00     0.058 A 
ATOM      3  C   UNL     1       7.075  51.728  21.264  1.00  0.00     0.012 A 
ATOM      4  C   UNL     1       9.332  53.332  20.843  1.00  0.00     0.157 A 
ATOM      5  C   UNL     1       7.449  52.083  19.965  1.00  0.00     0.051 A 
ATOM      6  C   UNL     1       8.575  52.889  19.751  1.00  0.00     0.157 A 
ENDROOT
BRANCH   1   7
ATOM      7  C   UNL     1       7.422  51.763  23.724  1.00  0.00     0.010 C 
ATOM      8  C   UNL     1       8.228  51.143  24.600  1.00  0.00     0.025 C 
BRANCH   8   9
ATOM      9  C   UNL     1       9.682  50.954  24.439  1.00  0.00     0.064 C 
ATOM     10  O   UNL     1      10.473  51.731  25.035  1.00  0.00    -0.545 OA
ATOM     11  O   UNL     1      10.198  49.982  23.590  1.00  0.00    -0.545 OA
ENDBRANCH   8   9
ENDBRANCH   1   7
BRANCH   4  12
ATOM     12  O   UNL     1      10.459  54.123  20.626  1.00  0.00    -0.504 OA
ATOM     13  H   UNL     1      11.147  53.884  19.922  1.00  0.00     0.293 HD
ENDBRANCH   4  12
BRANCH   6  14
ATOM     14  O   UNL     1       8.951  53.249  18.457  1.00  0.00    -0.504 OA
ATOM     15  H   UNL     1       9.691  52.761  17.967  1.00  0.00     0.293 HD
ENDBRANCH   6  14
TORSDOF 4
ENDMDL
