MODEL 1
REMARK VINA RESULT:    -3.175      0.000      0.000
REMARK INTER + INTRA:         -13.042
REMARK INTER:                  -8.000
REMARK INTRA:                  -5.042
REMARK UNBOUND:                -5.042
REMARK SMILES CCCCCCCCCCCCCCCCCCCCCCCCCCCC(=O)[O-]
REMARK SMILES IDX 15 1 16 2 17 3 18 4 19 5 20 6 21 7 22 8 23 9 24 10 25 11
REMARK SMILES IDX 26 12 27 13 28 14 29 15 30 16 14 17 13 18 12 19 11 20 10 21
REMARK SMILES IDX 9 22 8 23 7 24 6 25 5 26 4 27 3 28 2 29 1 30
REMARK H PARENT
REMARK Flexibility Score: inf
ROOT
ATOM      1  C   UNL     1      63.807  45.277  16.049  1.00  0.00     0.000 C 
ENDROOT
BRANCH   1   2
ATOM      2  C   UNL     1      62.482  44.550  16.340  1.00  0.00     0.000 C 
BRANCH   2   3
ATOM      3  C   UNL     1      61.484  45.419  17.120  1.00  0.00     0.000 C 
BRANCH   3   4
ATOM      4  C   UNL     1      60.073  44.804  17.173  1.00  0.00     0.000 C 
BRANCH   4   5
ATOM      5  C   UNL     1      59.287  45.238  18.424  1.00  0.00     0.000 C 
BRANCH   5   6
ATOM      6  C   UNL     1      58.951  44.083  19.392  1.00  0.00     0.000 C 
BRANCH   6   7
ATOM      7  C   UNL     1      59.354  42.688  18.877  1.00  0.00     0.000 C 
BRANCH   7   8
ATOM      8  C   UNL     1      58.189  41.677  18.814  1.00  0.00     0.000 C 
BRANCH   8   9
ATOM      9  C   UNL     1      57.626  41.476  17.390  1.00  0.00     0.000 C 
BRANCH   9  10
ATOM     10  C   UNL     1      56.674  42.594  16.923  1.00  0.00     0.000 C 
BRANCH  10  11
ATOM     11  C   UNL     1      57.152  43.354  15.670  1.00  0.00     0.000 C 
BRANCH  11  12
ATOM     12  C   UNL     1      56.305  44.606  15.381  1.00  0.00     0.006 C 
BRANCH  12  13
ATOM     13  C   UNL     1      57.170  45.830  15.048  1.00  0.00     0.053 C 
BRANCH  13  14
ATOM     14  C   UNL     1      56.522  46.708  14.021  1.00  0.00     0.041 C 
ATOM     15  O   UNL     1      57.228  47.383  13.224  1.00  0.00    -0.550 OA
ATOM     16  O   UNL     1      55.137  46.804  13.962  1.00  0.00    -0.550 OA
ENDBRANCH  13  14
ENDBRANCH  12  13
ENDBRANCH  11  12
ENDBRANCH  10  11
ENDBRANCH   9  10
ENDBRANCH   8   9
ENDBRANCH   7   8
ENDBRANCH   6   7
ENDBRANCH   5   6
ENDBRANCH   4   5
ENDBRANCH   3   4
ENDBRANCH   2   3
ENDBRANCH   1   2
BRANCH   1  17
ATOM     17  C   UNL     1      64.805  44.401  15.273  1.00  0.00     0.000 C 
BRANCH  17  18
ATOM     18  C   UNL     1      64.211  43.034  14.883  1.00  0.00     0.000 C 
BRANCH  18  19
ATOM     19  C   UNL     1      65.125  41.858  15.264  1.00  0.00     0.000 C 
BRANCH  19  20
ATOM     20  C   UNL     1      64.371  40.738  16.000  1.00  0.00     0.000 C 
BRANCH  20  21
ATOM     21  C   UNL     1      64.301  40.970  17.520  1.00  0.00     0.000 C 
BRANCH  21  22
ATOM     22  C   UNL     1      62.898  41.303  18.073  1.00  0.00    -0.000 C 
BRANCH  22  23
ATOM     23  C   UNL     1      62.874  42.273  19.269  1.00  0.00    -0.000 C 
BRANCH  23  24
ATOM     24  C   UNL     1      64.123  43.168  19.340  1.00  0.00    -0.000 C 
BRANCH  24  25
ATOM     25  C   UNL     1      63.843  44.539  19.984  1.00  0.00    -0.000 C 
BRANCH  25  26
ATOM     26  C   UNL     1      62.395  44.751  20.465  1.00  0.00    -0.000 C 
BRANCH  26  27
ATOM     27  C   UNL     1      62.311  45.199  21.933  1.00  0.00    -0.000 C 
BRANCH  27  28
ATOM     28  C   UNL     1      61.352  44.299  22.728  1.00  0.00    -0.000 C 
BRANCH  28  29
ATOM     29  C   UNL     1      61.789  42.827  22.726  1.00  0.00    -0.003 C 
ATOM     30  C   UNL     1      60.680  41.884  22.256  1.00  0.00     0.004 C 
ENDBRANCH  28  29
ENDBRANCH  27  28
ENDBRANCH  26  27
ENDBRANCH  25  26
ENDBRANCH  24  25
ENDBRANCH  23  24
ENDBRANCH  22  23
ENDBRANCH  21  22
ENDBRANCH  20  21
ENDBRANCH  19  20
ENDBRANCH  18  19
ENDBRANCH  17  18
ENDBRANCH   1  17
TORSDOF 26
ENDMDL
MODEL 2
REMARK VINA RESULT:    -3.028      7.079     10.821
REMARK INTER + INTRA:         -12.673
REMARK INTER:                  -7.392
REMARK INTRA:                  -5.282
REMARK UNBOUND:                -5.042
REMARK SMILES CCCCCCCCCCCCCCCCCCCCCCCCCCCC(=O)[O-]
REMARK SMILES IDX 15 1 16 2 17 3 18 4 19 5 20 6 21 7 22 8 23 9 24 10 25 11
REMARK SMILES IDX 26 12 27 13 28 14 29 15 30 16 14 17 13 18 12 19 11 20 10 21
REMARK SMILES IDX 9 22 8 23 7 24 6 25 5 26 4 27 3 28 2 29 1 30
REMARK H PARENT
REMARK Flexibility Score: inf
ROOT
ATOM      1  C   UNL     1      53.716  49.413  13.263  1.00  0.00     0.000 C 
ENDROOT
BRANCH   1   2
ATOM      2  C   UNL     1      52.951  48.077  13.222  1.00  0.00     0.000 C 
BRANCH   2   3
ATOM      3  C   UNL     1      51.770  48.096  12.240  1.00  0.00     0.000 C 
BRANCH   3   4
ATOM      4  C   UNL     1      51.410  49.516  11.769  1.00  0.00     0.000 C 
BRANCH   4   5
ATOM      5  C   UNL     1      50.215  50.108  12.539  1.00  0.00     0.000 C 
BRANCH   5   6
ATOM      6  C   UNL     1      49.392  49.067  13.328  1.00  0.00     0.000 C 
BRANCH   6   7
ATOM      7  C   UNL     1      49.389  49.287  14.853  1.00  0.00     0.000 C 
BRANCH   7   8
ATOM      8  C   UNL     1      49.443  47.984  15.679  1.00  0.00     0.000 C 
BRANCH   8   9
ATOM      9  C   UNL     1      49.702  46.725  14.825  1.00  0.00     0.000 C 
BRANCH   9  10
ATOM     10  C   UNL     1      48.571  45.679  14.882  1.00  0.00     0.000 C 
BRANCH  10  11
ATOM     11  C   UNL     1      49.047  44.220  14.736  1.00  0.00     0.000 C 
BRANCH  11  12
ATOM     12  C   UNL     1      49.530  43.620  16.069  1.00  0.00     0.006 C 
BRANCH  12  13
ATOM     13  C   UNL     1      48.763  42.344  16.444  1.00  0.00     0.053 C 
BRANCH  13  14
ATOM     14  C   UNL     1      47.664  42.623  17.425  1.00  0.00     0.041 C 
ATOM     15  O   UNL     1      47.374  41.777  18.313  1.00  0.00    -0.550 OA
ATOM     16  O   UNL     1      46.939  43.805  17.339  1.00  0.00    -0.550 OA
ENDBRANCH  13  14
ENDBRANCH  12  13
ENDBRANCH  11  12
ENDBRANCH  10  11
ENDBRANCH   9  10
ENDBRANCH   8   9
ENDBRANCH   7   8
ENDBRANCH   6   7
ENDBRANCH   5   6
ENDBRANCH   4   5
ENDBRANCH   3   4
ENDBRANCH   2   3
ENDBRANCH   1   2
BRANCH   1  17
ATOM     17  C   UNL     1      53.710  50.055  14.660  1.00  0.00     0.000 C 
BRANCH  17  18
ATOM     18  C   UNL     1      52.925  49.221  15.691  1.00  0.00     0.000 C 
BRANCH  18  19
ATOM     19  C   UNL     1      53.702  49.008  17.000  1.00  0.00     0.000 C 
BRANCH  19  20
ATOM     20  C   UNL     1      53.936  47.521  17.313  1.00  0.00     0.000 C 
BRANCH  20  21
ATOM     21  C   UNL     1      52.712  46.647  16.990  1.00  0.00     0.000 C 
BRANCH  21  22
ATOM     22  C   UNL     1      52.970  45.488  16.003  1.00  0.00    -0.000 C 
BRANCH  22  23
ATOM     23  C   UNL     1      53.447  44.171  16.642  1.00  0.00    -0.000 C 
BRANCH  23  24
ATOM     24  C   UNL     1      54.978  44.087  16.770  1.00  0.00    -0.000 C 
BRANCH  24  25
ATOM     25  C   UNL     1      55.699  44.173  15.411  1.00  0.00    -0.000 C 
BRANCH  25  26
ATOM     26  C   UNL     1      56.591  45.414  15.221  1.00  0.00    -0.000 C 
BRANCH  26  27
ATOM     27  C   UNL     1      56.042  46.393  14.170  1.00  0.00    -0.000 C 
BRANCH  27  28
ATOM     28  C   UNL     1      56.849  47.701  14.164  1.00  0.00    -0.000 C 
BRANCH  28  29
ATOM     29  C   UNL     1      57.042  48.280  15.574  1.00  0.00    -0.003 C 
ATOM     30  C   UNL     1      57.292  49.788  15.561  1.00  0.00     0.004 C 
ENDBRANCH  28  29
ENDBRANCH  27  28
ENDBRANCH  26  27
ENDBRANCH  25  26
ENDBRANCH  24  25
ENDBRANCH  23  24
ENDBRANCH  22  23
ENDBRANCH  21  22
ENDBRANCH  20  21
ENDBRANCH  19  20
ENDBRANCH  18  19
ENDBRANCH  17  18
ENDBRANCH   1  17
TORSDOF 26
ENDMDL
MODEL 3
REMARK VINA RESULT:    -3.012      7.279     13.127
REMARK INTER + INTRA:         -12.632
REMARK INTER:                  -7.818
REMARK INTRA:                  -4.813
REMARK UNBOUND:                -5.042
REMARK SMILES CCCCCCCCCCCCCCCCCCCCCCCCCCCC(=O)[O-]
REMARK SMILES IDX 15 1 16 2 17 3 18 4 19 5 20 6 21 7 22 8 23 9 24 10 25 11
REMARK SMILES IDX 26 12 27 13 28 14 29 15 30 16 14 17 13 18 12 19 11 20 10 21
REMARK SMILES IDX 9 22 8 23 7 24 6 25 5 26 4 27 3 28 2 29 1 30
REMARK H PARENT
REMARK Flexibility Score: inf
ROOT
ATOM      1  C   UNL     1      49.808  48.942  17.202  1.00  0.00     0.000 C 
ENDROOT
BRANCH   1   2
ATOM      2  C   UNL     1      49.898  49.580  15.804  1.00  0.00     0.000 C 
BRANCH   2   3
ATOM      3  C   UNL     1      49.291  48.696  14.704  1.00  0.00     0.000 C 
BRANCH   3   4
ATOM      4  C   UNL     1      48.995  49.474  13.410  1.00  0.00     0.000 C 
BRANCH   4   5
ATOM      5  C   UNL     1      50.150  49.393  12.395  1.00  0.00     0.000 C 
BRANCH   5   6
ATOM      6  C   UNL     1      51.201  48.309  12.718  1.00  0.00     0.000 C 
BRANCH   6   7
ATOM      7  C   UNL     1      52.637  48.676  12.300  1.00  0.00     0.000 C 
BRANCH   7   8
ATOM      8  C   UNL     1      53.705  48.376  13.374  1.00  0.00     0.000 C 
BRANCH   8   9
ATOM      9  C   UNL     1      53.381  48.996  14.751  1.00  0.00     0.000 C 
BRANCH   9  10
ATOM     10  C   UNL     1      53.365  47.982  15.912  1.00  0.00     0.000 C 
BRANCH  10  11
ATOM     11  C   UNL     1      54.393  46.841  15.773  1.00  0.00     0.000 C 
BRANCH  11  12
ATOM     12  C   UNL     1      54.280  45.805  16.906  1.00  0.00     0.006 C 
BRANCH  12  13
ATOM     13  C   UNL     1      55.370  44.727  16.820  1.00  0.00     0.053 C 
BRANCH  13  14
ATOM     14  C   UNL     1      54.785  43.355  16.673  1.00  0.00     0.041 C 
ATOM     15  O   UNL     1      53.686  43.192  16.079  1.00  0.00    -0.550 OA
ATOM     16  O   UNL     1      55.440  42.258  17.221  1.00  0.00    -0.550 OA
ENDBRANCH  13  14
ENDBRANCH  12  13
ENDBRANCH  11  12
ENDBRANCH  10  11
ENDBRANCH   9  10
ENDBRANCH   8   9
ENDBRANCH   7   8
ENDBRANCH   6   7
ENDBRANCH   5   6
ENDBRANCH   4   5
ENDBRANCH   3   4
ENDBRANCH   2   3
ENDBRANCH   1   2
BRANCH   1  17
ATOM     17  C   UNL     1      48.712  47.867  17.291  1.00  0.00     0.000 C 
BRANCH  17  18
ATOM     18  C   UNL     1      49.165  46.625  18.082  1.00  0.00     0.000 C 
BRANCH  18  19
ATOM     19  C   UNL     1      50.608  46.206  17.757  1.00  0.00     0.000 C 
BRANCH  19  20
ATOM     20  C   UNL     1      50.674  44.988  16.821  1.00  0.00     0.000 C 
BRANCH  20  21
ATOM     21  C   UNL     1      50.937  45.381  15.356  1.00  0.00     0.000 C 
BRANCH  21  22
ATOM     22  C   UNL     1      49.811  45.019  14.363  1.00  0.00    -0.000 C 
BRANCH  22  23
ATOM     23  C   UNL     1      48.657  44.184  14.950  1.00  0.00    -0.000 C 
BRANCH  23  24
ATOM     24  C   UNL     1      47.325  44.955  14.997  1.00  0.00    -0.000 C 
BRANCH  24  25
ATOM     25  C   UNL     1      46.575  44.773  16.330  1.00  0.00    -0.000 C 
BRANCH  25  26
ATOM     26  C   UNL     1      46.523  43.327  16.859  1.00  0.00    -0.000 C 
BRANCH  26  27
ATOM     27  C   UNL     1      45.136  42.682  16.704  1.00  0.00    -0.000 C 
BRANCH  27  28
ATOM     28  C   UNL     1      44.975  42.056  15.310  1.00  0.00    -0.000 C 
BRANCH  28  29
ATOM     29  C   UNL     1      46.102  41.068  14.974  1.00  0.00    -0.003 C 
ATOM     30  C   UNL     1      45.658  39.609  15.084  1.00  0.00     0.004 C 
ENDBRANCH  28  29
ENDBRANCH  27  28
ENDBRANCH  26  27
ENDBRANCH  25  26
ENDBRANCH  24  25
ENDBRANCH  23  24
ENDBRANCH  22  23
ENDBRANCH  21  22
ENDBRANCH  20  21
ENDBRANCH  19  20
ENDBRANCH  18  19
ENDBRANCH  17  18
ENDBRANCH   1  17
TORSDOF 26
ENDMDL
MODEL 4
REMARK VINA RESULT:    -2.967      6.087     10.169
REMARK INTER + INTRA:         -12.519
REMARK INTER:                  -7.999
REMARK INTRA:                  -4.520
REMARK UNBOUND:                -5.042
REMARK SMILES CCCCCCCCCCCCCCCCCCCCCCCCCCCC(=O)[O-]
REMARK SMILES IDX 15 1 16 2 17 3 18 4 19 5 20 6 21 7 22 8 23 9 24 10 25 11
REMARK SMILES IDX 26 12 27 13 28 14 29 15 30 16 14 17 13 18 12 19 11 20 10 21
REMARK SMILES IDX 9 22 8 23 7 24 6 25 5 26 4 27 3 28 2 29 1 30
REMARK H PARENT
REMARK Flexibility Score: inf
ROOT
ATOM      1  C   UNL     1      53.316  48.529  14.252  1.00  0.00     0.000 C 
ENDROOT
BRANCH   1   2
ATOM      2  C   UNL     1      52.805  47.835  12.976  1.00  0.00     0.000 C 
BRANCH   2   3
ATOM      3  C   UNL     1      51.924  48.750  12.112  1.00  0.00     0.000 C 
BRANCH   3   4
ATOM      4  C   UNL     1      51.406  49.978  12.881  1.00  0.00     0.000 C 
BRANCH   4   5
ATOM      5  C   UNL     1      49.875  50.119  12.807  1.00  0.00     0.000 C 
BRANCH   5   6
ATOM      6  C   UNL     1      49.100  48.929  13.413  1.00  0.00     0.000 C 
BRANCH   6   7
ATOM      7  C   UNL     1      49.385  48.683  14.907  1.00  0.00     0.000 C 
BRANCH   7   8
ATOM      8  C   UNL     1      49.386  47.193  15.313  1.00  0.00     0.000 C 
BRANCH   8   9
ATOM      9  C   UNL     1      50.112  46.281  14.302  1.00  0.00     0.000 C 
BRANCH   9  10
ATOM     10  C   UNL     1      49.797  44.781  14.465  1.00  0.00     0.000 C 
BRANCH  10  11
ATOM     11  C   UNL     1      49.692  44.309  15.930  1.00  0.00     0.000 C 
BRANCH  11  12
ATOM     12  C   UNL     1      48.268  43.857  16.302  1.00  0.00     0.006 C 
BRANCH  12  13
ATOM     13  C   UNL     1      48.064  42.350  16.093  1.00  0.00     0.053 C 
BRANCH  13  14
ATOM     14  C   UNL     1      46.848  42.063  15.264  1.00  0.00     0.041 C 
ATOM     15  O   UNL     1      45.714  41.977  15.807  1.00  0.00    -0.550 OA
ATOM     16  O   UNL     1      46.971  41.860  13.895  1.00  0.00    -0.550 OA
ENDBRANCH  13  14
ENDBRANCH  12  13
ENDBRANCH  11  12
ENDBRANCH  10  11
ENDBRANCH   9  10
ENDBRANCH   8   9
ENDBRANCH   7   8
ENDBRANCH   6   7
ENDBRANCH   5   6
ENDBRANCH   4   5
ENDBRANCH   3   4
ENDBRANCH   2   3
ENDBRANCH   1   2
BRANCH   1  17
ATOM     17  C   UNL     1      54.836  48.384  14.436  1.00  0.00     0.000 C 
BRANCH  17  18
ATOM     18  C   UNL     1      55.383  47.078  13.830  1.00  0.00     0.000 C 
BRANCH  18  19
ATOM     19  C   UNL     1      56.845  46.808  14.218  1.00  0.00     0.000 C 
BRANCH  19  20
ATOM     20  C   UNL     1      57.108  47.019  15.718  1.00  0.00     0.000 C 
BRANCH  20  21
ATOM     21  C   UNL     1      57.645  45.753  16.410  1.00  0.00     0.000 C 
BRANCH  21  22
ATOM     22  C   UNL     1      57.808  44.520  15.494  1.00  0.00    -0.000 C 
BRANCH  22  23
ATOM     23  C   UNL     1      56.851  43.350  15.787  1.00  0.00    -0.000 C 
BRANCH  23  24
ATOM     24  C   UNL     1      55.397  43.650  15.382  1.00  0.00    -0.000 C 
BRANCH  24  25
ATOM     25  C   UNL     1      54.366  43.032  16.346  1.00  0.00    -0.000 C 
BRANCH  25  26
ATOM     26  C   UNL     1      54.018  43.896  17.572  1.00  0.00    -0.000 C 
BRANCH  26  27
ATOM     27  C   UNL     1      54.124  45.404  17.292  1.00  0.00    -0.000 C 
BRANCH  27  28
ATOM     28  C   UNL     1      52.780  45.968  16.805  1.00  0.00    -0.000 C 
BRANCH  28  29
ATOM     29  C   UNL     1      52.334  47.199  17.608  1.00  0.00    -0.003 C 
ATOM     30  C   UNL     1      51.122  46.915  18.496  1.00  0.00     0.004 C 
ENDBRANCH  28  29
ENDBRANCH  27  28
ENDBRANCH  26  27
ENDBRANCH  25  26
ENDBRANCH  24  25
ENDBRANCH  23  24
ENDBRANCH  22  23
ENDBRANCH  21  22
ENDBRANCH  20  21
ENDBRANCH  19  20
ENDBRANCH  18  19
ENDBRANCH  17  18
ENDBRANCH   1  17
TORSDOF 26
ENDMDL
MODEL 5
REMARK VINA RESULT:    -2.961      1.498      3.378
REMARK INTER + INTRA:         -12.504
REMARK INTER:                  -7.930
REMARK INTRA:                  -4.574
REMARK UNBOUND:                -5.042
REMARK SMILES CCCCCCCCCCCCCCCCCCCCCCCCCCCC(=O)[O-]
REMARK SMILES IDX 15 1 16 2 17 3 18 4 19 5 20 6 21 7 22 8 23 9 24 10 25 11
REMARK SMILES IDX 26 12 27 13 28 14 29 15 30 16 14 17 13 18 12 19 11 20 10 21
REMARK SMILES IDX 9 22 8 23 7 24 6 25 5 26 4 27 3 28 2 29 1 30
REMARK H PARENT
REMARK Flexibility Score: inf
ROOT
ATOM      1  C   UNL     1      64.589  44.669  15.168  1.00  0.00     0.000 C 
ENDROOT
BRANCH   1   2
ATOM      2  C   UNL     1      63.666  45.460  16.113  1.00  0.00     0.000 C 
BRANCH   2   3
ATOM      3  C   UNL     1      62.308  44.776  16.331  1.00  0.00     0.000 C 
BRANCH   3   4
ATOM      4  C   UNL     1      61.379  45.578  17.260  1.00  0.00     0.000 C 
BRANCH   4   5
ATOM      5  C   UNL     1      62.097  46.075  18.529  1.00  0.00     0.000 C 
BRANCH   5   6
ATOM      6  C   UNL     1      61.330  45.799  19.839  1.00  0.00     0.000 C 
BRANCH   6   7
ATOM      7  C   UNL     1      59.801  45.952  19.722  1.00  0.00     0.000 C 
BRANCH   7   8
ATOM      8  C   UNL     1      59.015  44.645  19.960  1.00  0.00     0.000 C 
BRANCH   8   9
ATOM      9  C   UNL     1      57.986  44.337  18.852  1.00  0.00     0.000 C 
BRANCH   9  10
ATOM     10  C   UNL     1      58.523  43.434  17.723  1.00  0.00     0.000 C 
BRANCH  10  11
ATOM     11  C   UNL     1      58.121  43.884  16.304  1.00  0.00     0.000 C 
BRANCH  11  12
ATOM     12  C   UNL     1      57.694  45.361  16.253  1.00  0.00     0.006 C 
BRANCH  12  13
ATOM     13  C   UNL     1      56.764  45.657  15.067  1.00  0.00     0.053 C 
BRANCH  13  14
ATOM     14  C   UNL     1      56.953  47.049  14.546  1.00  0.00     0.041 C 
ATOM     15  O   UNL     1      57.250  47.241  13.336  1.00  0.00    -0.550 OA
ATOM     16  O   UNL     1      56.829  48.136  15.403  1.00  0.00    -0.550 OA
ENDBRANCH  13  14
ENDBRANCH  12  13
ENDBRANCH  11  12
ENDBRANCH  10  11
ENDBRANCH   9  10
ENDBRANCH   8   9
ENDBRANCH   7   8
ENDBRANCH   6   7
ENDBRANCH   5   6
ENDBRANCH   4   5
ENDBRANCH   3   4
ENDBRANCH   2   3
ENDBRANCH   1   2
BRANCH   1  17
ATOM     17  C   UNL     1      64.014  43.292  14.796  1.00  0.00     0.000 C 
BRANCH  17  18
ATOM     18  C   UNL     1      64.880  42.130  15.318  1.00  0.00     0.000 C 
BRANCH  18  19
ATOM     19  C   UNL     1      64.045  40.919  15.764  1.00  0.00     0.000 C 
BRANCH  19  20
ATOM     20  C   UNL     1      64.053  40.725  17.289  1.00  0.00     0.000 C 
BRANCH  20  21
ATOM     21  C   UNL     1      64.448  42.004  18.047  1.00  0.00     0.000 C 
BRANCH  21  22
ATOM     22  C   UNL     1      63.360  42.582  18.979  1.00  0.00    -0.000 C 
BRANCH  22  23
ATOM     23  C   UNL     1      61.948  41.995  18.788  1.00  0.00    -0.000 C 
BRANCH  23  24
ATOM     24  C   UNL     1      61.538  41.042  19.924  1.00  0.00    -0.000 C 
BRANCH  24  25
ATOM     25  C   UNL     1      60.199  41.431  20.579  1.00  0.00    -0.000 C 
BRANCH  25  26
ATOM     26  C   UNL     1      59.288  40.247  20.956  1.00  0.00    -0.000 C 
BRANCH  26  27
ATOM     27  C   UNL     1      58.512  39.682  19.756  1.00  0.00    -0.000 C 
BRANCH  27  28
ATOM     28  C   UNL     1      57.238  40.499  19.492  1.00  0.00    -0.000 C 
BRANCH  28  29
ATOM     29  C   UNL     1      56.666  40.260  18.087  1.00  0.00    -0.003 C 
ATOM     30  C   UNL     1      57.268  39.029  17.408  1.00  0.00     0.004 C 
ENDBRANCH  28  29
ENDBRANCH  27  28
ENDBRANCH  26  27
ENDBRANCH  25  26
ENDBRANCH  24  25
ENDBRANCH  23  24
ENDBRANCH  22  23
ENDBRANCH  21  22
ENDBRANCH  20  21
ENDBRANCH  19  20
ENDBRANCH  18  19
ENDBRANCH  17  18
ENDBRANCH   1  17
TORSDOF 26
ENDMDL
MODEL 6
REMARK VINA RESULT:    -2.947      7.087     11.661
REMARK INTER + INTRA:         -12.467
REMARK INTER:                  -7.697
REMARK INTRA:                  -4.770
REMARK UNBOUND:                -5.042
REMARK SMILES CCCCCCCCCCCCCCCCCCCCCCCCCCCC(=O)[O-]
REMARK SMILES IDX 15 1 16 2 17 3 18 4 19 5 20 6 21 7 22 8 23 9 24 10 25 11
REMARK SMILES IDX 26 12 27 13 28 14 29 15 30 16 14 17 13 18 12 19 11 20 10 21
REMARK SMILES IDX 9 22 8 23 7 24 6 25 5 26 4 27 3 28 2 29 1 30
REMARK H PARENT
REMARK Flexibility Score: inf
ROOT
ATOM      1  C   UNL     1      49.077  44.206  14.733  1.00  0.00     0.000 C 
ENDROOT
BRANCH   1   2
ATOM      2  C   UNL     1      47.681  44.823  14.937  1.00  0.00     0.000 C 
BRANCH   2   3
ATOM      3  C   UNL     1      46.544  43.869  14.543  1.00  0.00     0.000 C 
BRANCH   3   4
ATOM      4  C   UNL     1      47.023  42.419  14.347  1.00  0.00     0.000 C 
BRANCH   4   5
ATOM      5  C   UNL     1      46.071  41.391  14.984  1.00  0.00     0.000 C 
BRANCH   5   6
ATOM      6  C   UNL     1      46.508  40.904  16.383  1.00  0.00     0.000 C 
BRANCH   6   7
ATOM      7  C   UNL     1      47.890  41.419  16.829  1.00  0.00     0.000 C 
BRANCH   7   8
ATOM      8  C   UNL     1      47.855  42.326  18.077  1.00  0.00     0.000 C 
BRANCH   8   9
ATOM      9  C   UNL     1      49.235  42.904  18.456  1.00  0.00     0.000 C 
BRANCH   9  10
ATOM     10  C   UNL     1      49.408  44.398  18.118  1.00  0.00     0.000 C 
BRANCH  10  11
ATOM     11  C   UNL     1      50.866  44.896  18.167  1.00  0.00     0.000 C 
BRANCH  11  12
ATOM     12  C   UNL     1      51.885  43.750  18.033  1.00  0.00     0.006 C 
BRANCH  12  13
ATOM     13  C   UNL     1      52.308  43.517  16.575  1.00  0.00     0.053 C 
BRANCH  13  14
ATOM     14  C   UNL     1      53.288  42.389  16.454  1.00  0.00     0.041 C 
ATOM     15  O   UNL     1      54.527  42.619  16.464  1.00  0.00    -0.550 OA
ATOM     16  O   UNL     1      52.833  41.086  16.298  1.00  0.00    -0.550 OA
ENDBRANCH  13  14
ENDBRANCH  12  13
ENDBRANCH  11  12
ENDBRANCH  10  11
ENDBRANCH   9  10
ENDBRANCH   8   9
ENDBRANCH   7   8
ENDBRANCH   6   7
ENDBRANCH   5   6
ENDBRANCH   4   5
ENDBRANCH   3   4
ENDBRANCH   2   3
ENDBRANCH   1   2
BRANCH   1  17
ATOM     17  C   UNL     1      50.146  45.259  14.397  1.00  0.00     0.000 C 
BRANCH  17  18
ATOM     18  C   UNL     1      49.708  46.687  14.775  1.00  0.00     0.000 C 
BRANCH  18  19
ATOM     19  C   UNL     1      50.209  47.746  13.780  1.00  0.00     0.000 C 
BRANCH  19  20
ATOM     20  C   UNL     1      51.595  47.411  13.207  1.00  0.00     0.000 C 
BRANCH  20  21
ATOM     21  C   UNL     1      52.606  48.556  13.395  1.00  0.00     0.000 C 
BRANCH  21  22
ATOM     22  C   UNL     1      52.486  49.331  14.725  1.00  0.00    -0.000 C 
BRANCH  22  23
ATOM     23  C   UNL     1      53.497  48.932  15.815  1.00  0.00    -0.000 C 
BRANCH  23  24
ATOM     24  C   UNL     1      53.124  47.619  16.526  1.00  0.00    -0.000 C 
BRANCH  24  25
ATOM     25  C   UNL     1      54.304  46.633  16.622  1.00  0.00    -0.000 C 
BRANCH  25  26
ATOM     26  C   UNL     1      54.694  45.950  15.298  1.00  0.00    -0.000 C 
BRANCH  26  27
ATOM     27  C   UNL     1      56.213  45.769  15.143  1.00  0.00    -0.000 C 
BRANCH  27  28
ATOM     28  C   UNL     1      56.919  47.130  15.031  1.00  0.00    -0.000 C 
BRANCH  28  29
ATOM     29  C   UNL     1      56.849  47.714  13.612  1.00  0.00    -0.003 C 
ATOM     30  C   UNL     1      56.469  49.195  13.604  1.00  0.00     0.004 C 
ENDBRANCH  28  29
ENDBRANCH  27  28
ENDBRANCH  26  27
ENDBRANCH  25  26
ENDBRANCH  24  25
ENDBRANCH  23  24
ENDBRANCH  22  23
ENDBRANCH  21  22
ENDBRANCH  20  21
ENDBRANCH  19  20
ENDBRANCH  18  19
ENDBRANCH  17  18
ENDBRANCH   1  17
TORSDOF 26
ENDMDL
MODEL 7
REMARK VINA RESULT:    -2.921      6.355     12.176
REMARK INTER + INTRA:         -12.403
REMARK INTER:                  -6.996
REMARK INTRA:                  -5.408
REMARK UNBOUND:                -5.042
REMARK SMILES CCCCCCCCCCCCCCCCCCCCCCCCCCCC(=O)[O-]
REMARK SMILES IDX 15 1 16 2 17 3 18 4 19 5 20 6 21 7 22 8 23 9 24 10 25 11
REMARK SMILES IDX 26 12 27 13 28 14 29 15 30 16 14 17 13 18 12 19 11 20 10 21
REMARK SMILES IDX 9 22 8 23 7 24 6 25 5 26 4 27 3 28 2 29 1 30
REMARK H PARENT
REMARK Flexibility Score: inf
ROOT
ATOM      1  C   UNL     1      52.537  44.490  16.442  1.00  0.00     0.000 C 
ENDROOT
BRANCH   1   2
ATOM      2  C   UNL     1      53.194  45.530  17.369  1.00  0.00     0.000 C 
BRANCH   2   3
ATOM      3  C   UNL     1      53.047  46.968  16.850  1.00  0.00     0.000 C 
BRANCH   3   4
ATOM      4  C   UNL     1      51.697  47.604  17.228  1.00  0.00     0.000 C 
BRANCH   4   5
ATOM      5  C   UNL     1      51.451  48.941  16.506  1.00  0.00     0.000 C 
BRANCH   5   6
ATOM      6  C   UNL     1      52.320  49.149  15.247  1.00  0.00     0.000 C 
BRANCH   6   7
ATOM      7  C   UNL     1      51.746  48.510  13.968  1.00  0.00     0.000 C 
BRANCH   7   8
ATOM      8  C   UNL     1      52.781  47.727  13.133  1.00  0.00     0.000 C 
BRANCH   8   9
ATOM      9  C   UNL     1      54.225  48.247  13.300  1.00  0.00     0.000 C 
BRANCH   9  10
ATOM     10  C   UNL     1      55.246  47.161  13.694  1.00  0.00     0.000 C 
BRANCH  10  11
ATOM     11  C   UNL     1      56.168  47.551  14.867  1.00  0.00     0.000 C 
BRANCH  11  12
ATOM     12  C   UNL     1      56.803  46.327  15.550  1.00  0.00     0.006 C 
BRANCH  12  13
ATOM     13  C   UNL     1      56.079  45.021  15.192  1.00  0.00     0.053 C 
BRANCH  13  14
ATOM     14  C   UNL     1      56.593  43.862  15.992  1.00  0.00     0.041 C 
ATOM     15  O   UNL     1      57.357  43.012  15.461  1.00  0.00    -0.550 OA
ATOM     16  O   UNL     1      56.203  43.704  17.316  1.00  0.00    -0.550 OA
ENDBRANCH  13  14
ENDBRANCH  12  13
ENDBRANCH  11  12
ENDBRANCH  10  11
ENDBRANCH   9  10
ENDBRANCH   8   9
ENDBRANCH   7   8
ENDBRANCH   6   7
ENDBRANCH   5   6
ENDBRANCH   4   5
ENDBRANCH   3   4
ENDBRANCH   2   3
ENDBRANCH   1   2
BRANCH   1  17
ATOM     17  C   UNL     1      51.832  43.367  17.221  1.00  0.00     0.000 C 
BRANCH  17  18
ATOM     18  C   UNL     1      51.260  43.849  18.567  1.00  0.00     0.000 C 
BRANCH  18  19
ATOM     19  C   UNL     1      49.723  43.849  18.596  1.00  0.00     0.000 C 
BRANCH  19  20
ATOM     20  C   UNL     1      49.130  45.266  18.539  1.00  0.00     0.000 C 
BRANCH  20  21
ATOM     21  C   UNL     1      47.594  45.262  18.439  1.00  0.00     0.000 C 
BRANCH  21  22
ATOM     22  C   UNL     1      47.005  46.134  17.309  1.00  0.00    -0.000 C 
BRANCH  22  23
ATOM     23  C   UNL     1      48.013  47.045  16.584  1.00  0.00    -0.000 C 
BRANCH  23  24
ATOM     24  C   UNL     1      48.282  46.603  15.134  1.00  0.00    -0.000 C 
BRANCH  24  25
ATOM     25  C   UNL     1      49.599  45.820  14.981  1.00  0.00    -0.000 C 
BRANCH  25  26
ATOM     26  C   UNL     1      49.454  44.410  14.376  1.00  0.00    -0.000 C 
BRANCH  26  27
ATOM     27  C   UNL     1      48.603  43.470  15.244  1.00  0.00    -0.000 C 
BRANCH  27  28
ATOM     28  C   UNL     1      47.418  42.907  14.444  1.00  0.00    -0.000 C 
BRANCH  28  29
ATOM     29  C   UNL     1      46.097  43.624  14.766  1.00  0.00    -0.003 C 
ATOM     30  C   UNL     1      45.045  42.683  15.353  1.00  0.00     0.004 C 
ENDBRANCH  28  29
ENDBRANCH  27  28
ENDBRANCH  26  27
ENDBRANCH  25  26
ENDBRANCH  24  25
ENDBRANCH  23  24
ENDBRANCH  22  23
ENDBRANCH  21  22
ENDBRANCH  20  21
ENDBRANCH  19  20
ENDBRANCH  18  19
ENDBRANCH  17  18
ENDBRANCH   1  17
TORSDOF 26
ENDMDL
MODEL 8
REMARK VINA RESULT:    -2.916      6.390     12.216
REMARK INTER + INTRA:         -12.389
REMARK INTER:                  -8.266
REMARK INTRA:                  -4.123
REMARK UNBOUND:                -5.042
REMARK SMILES CCCCCCCCCCCCCCCCCCCCCCCCCCCC(=O)[O-]
REMARK SMILES IDX 15 1 16 2 17 3 18 4 19 5 20 6 21 7 22 8 23 9 24 10 25 11
REMARK SMILES IDX 26 12 27 13 28 14 29 15 30 16 14 17 13 18 12 19 11 20 10 21
REMARK SMILES IDX 9 22 8 23 7 24 6 25 5 26 4 27 3 28 2 29 1 30
REMARK H PARENT
REMARK Flexibility Score: inf
ROOT
ATOM      1  C   UNL     1      52.791  49.494  12.890  1.00  0.00     0.000 C 
ENDROOT
BRANCH   1   2
ATOM      2  C   UNL     1      53.046  49.081  14.352  1.00  0.00     0.000 C 
BRANCH   2   3
ATOM      3  C   UNL     1      53.748  47.720  14.473  1.00  0.00     0.000 C 
BRANCH   3   4
ATOM      4  C   UNL     1      54.731  47.452  13.320  1.00  0.00     0.000 C 
BRANCH   4   5
ATOM      5  C   UNL     1      56.088  46.916  13.813  1.00  0.00     0.000 C 
BRANCH   5   6
ATOM      6  C   UNL     1      56.608  47.597  15.097  1.00  0.00     0.000 C 
BRANCH   6   7
ATOM      7  C   UNL     1      56.871  46.629  16.266  1.00  0.00     0.000 C 
BRANCH   7   8
ATOM      8  C   UNL     1      57.482  45.276  15.841  1.00  0.00     0.000 C 
BRANCH   8   9
ATOM      9  C   UNL     1      56.738  44.056  16.424  1.00  0.00     0.000 C 
BRANCH   9  10
ATOM     10  C   UNL     1      55.278  43.919  15.948  1.00  0.00     0.000 C 
BRANCH  10  11
ATOM     11  C   UNL     1      54.228  44.394  16.972  1.00  0.00     0.000 C 
BRANCH  11  12
ATOM     12  C   UNL     1      52.865  44.691  16.324  1.00  0.00     0.006 C 
BRANCH  12  13
ATOM     13  C   UNL     1      51.915  43.487  16.388  1.00  0.00     0.053 C 
BRANCH  13  14
ATOM     14  C   UNL     1      51.635  43.073  17.801  1.00  0.00     0.041 C 
ATOM     15  O   UNL     1      51.183  43.907  18.630  1.00  0.00    -0.550 OA
ATOM     16  O   UNL     1      51.902  41.772  18.210  1.00  0.00    -0.550 OA
ENDBRANCH  13  14
ENDBRANCH  12  13
ENDBRANCH  11  12
ENDBRANCH  10  11
ENDBRANCH   9  10
ENDBRANCH   8   9
ENDBRANCH   7   8
ENDBRANCH   6   7
ENDBRANCH   5   6
ENDBRANCH   4   5
ENDBRANCH   3   4
ENDBRANCH   2   3
ENDBRANCH   1   2
BRANCH   1  17
ATOM     17  C   UNL     1      51.582  48.771  12.274  1.00  0.00     0.000 C 
BRANCH  17  18
ATOM     18  C   UNL     1      50.437  49.737  11.913  1.00  0.00     0.000 C 
BRANCH  18  19
ATOM     19  C   UNL     1      49.530  50.060  13.111  1.00  0.00     0.000 C 
BRANCH  19  20
ATOM     20  C   UNL     1      49.010  48.797  13.817  1.00  0.00     0.000 C 
BRANCH  20  21
ATOM     21  C   UNL     1      49.456  48.714  15.288  1.00  0.00     0.000 C 
BRANCH  21  22
ATOM     22  C   UNL     1      50.024  47.348  15.729  1.00  0.00    -0.000 C 
BRANCH  22  23
ATOM     23  C   UNL     1      50.019  46.251  14.648  1.00  0.00    -0.000 C 
BRANCH  23  24
ATOM     24  C   UNL     1      48.846  45.266  14.801  1.00  0.00    -0.000 C 
BRANCH  24  25
ATOM     25  C   UNL     1      48.477  44.997  16.272  1.00  0.00    -0.000 C 
BRANCH  25  26
ATOM     26  C   UNL     1      46.973  44.803  16.543  1.00  0.00    -0.000 C 
BRANCH  26  27
ATOM     27  C   UNL     1      46.184  44.404  15.286  1.00  0.00    -0.000 C 
BRANCH  27  28
ATOM     28  C   UNL     1      45.260  43.210  15.573  1.00  0.00    -0.000 C 
BRANCH  28  29
ATOM     29  C   UNL     1      45.755  41.913  14.915  1.00  0.00    -0.003 C 
ATOM     30  C   UNL     1      46.970  42.136  14.014  1.00  0.00     0.004 C 
ENDBRANCH  28  29
ENDBRANCH  27  28
ENDBRANCH  26  27
ENDBRANCH  25  26
ENDBRANCH  24  25
ENDBRANCH  23  24
ENDBRANCH  22  23
ENDBRANCH  21  22
ENDBRANCH  20  21
ENDBRANCH  19  20
ENDBRANCH  18  19
ENDBRANCH  17  18
ENDBRANCH   1  17
TORSDOF 26
ENDMDL
MODEL 9
REMARK VINA RESULT:    -2.913      2.022      2.896
REMARK INTER + INTRA:         -12.381
REMARK INTER:                  -7.142
REMARK INTRA:                  -5.240
REMARK UNBOUND:                -5.042
REMARK SMILES CCCCCCCCCCCCCCCCCCCCCCCCCCCC(=O)[O-]
REMARK SMILES IDX 15 1 16 2 17 3 18 4 19 5 20 6 21 7 22 8 23 9 24 10 25 11
REMARK SMILES IDX 26 12 27 13 28 14 29 15 30 16 14 17 13 18 12 19 11 20 10 21
REMARK SMILES IDX 9 22 8 23 7 24 6 25 5 26 4 27 3 28 2 29 1 30
REMARK H PARENT
REMARK Flexibility Score: inf
ROOT
ATOM      1  C   UNL     1      63.800  45.186  15.984  1.00  0.00     0.000 C 
ENDROOT
BRANCH   1   2
ATOM      2  C   UNL     1      62.483  44.490  16.376  1.00  0.00     0.000 C 
BRANCH   2   3
ATOM      3  C   UNL     1      61.512  45.424  17.115  1.00  0.00     0.000 C 
BRANCH   3   4
ATOM      4  C   UNL     1      60.080  44.864  17.180  1.00  0.00     0.000 C 
BRANCH   4   5
ATOM      5  C   UNL     1      59.513  44.858  18.611  1.00  0.00     0.000 C 
BRANCH   5   6
ATOM      6  C   UNL     1      58.422  43.793  18.855  1.00  0.00     0.000 C 
BRANCH   6   7
ATOM      7  C   UNL     1      58.508  42.573  17.920  1.00  0.00     0.000 C 
BRANCH   7   8
ATOM      8  C   UNL     1      57.228  42.317  17.095  1.00  0.00     0.000 C 
BRANCH   8   9
ATOM      9  C   UNL     1      57.249  42.990  15.706  1.00  0.00     0.000 C 
BRANCH   9  10
ATOM     10  C   UNL     1      56.386  44.265  15.609  1.00  0.00     0.000 C 
BRANCH  10  11
ATOM     11  C   UNL     1      57.182  45.548  15.298  1.00  0.00     0.000 C 
BRANCH  11  12
ATOM     12  C   UNL     1      56.575  46.794  15.969  1.00  0.00     0.006 C 
BRANCH  12  13
ATOM     13  C   UNL     1      57.629  47.621  16.720  1.00  0.00     0.053 C 
BRANCH  13  14
ATOM     14  C   UNL     1      57.263  47.813  18.160  1.00  0.00     0.041 C 
ATOM     15  O   UNL     1      57.609  48.860  18.771  1.00  0.00    -0.550 OA
ATOM     16  O   UNL     1      56.565  46.821  18.839  1.00  0.00    -0.550 OA
ENDBRANCH  13  14
ENDBRANCH  12  13
ENDBRANCH  11  12
ENDBRANCH  10  11
ENDBRANCH   9  10
ENDBRANCH   8   9
ENDBRANCH   7   8
ENDBRANCH   6   7
ENDBRANCH   5   6
ENDBRANCH   4   5
ENDBRANCH   3   4
ENDBRANCH   2   3
ENDBRANCH   1   2
BRANCH   1  17
ATOM     17  C   UNL     1      64.756  44.255  15.220  1.00  0.00     0.000 C 
BRANCH  17  18
ATOM     18  C   UNL     1      64.148  42.862  14.967  1.00  0.00     0.000 C 
BRANCH  18  19
ATOM     19  C   UNL     1      65.006  41.725  15.544  1.00  0.00     0.000 C 
BRANCH  19  20
ATOM     20  C   UNL     1      64.203  40.784  16.457  1.00  0.00     0.000 C 
BRANCH  20  21
ATOM     21  C   UNL     1      63.911  41.401  17.836  1.00  0.00     0.000 C 
BRANCH  21  22
ATOM     22  C   UNL     1      62.447  41.285  18.314  1.00  0.00    -0.000 C 
BRANCH  22  23
ATOM     23  C   UNL     1      62.088  42.132  19.550  1.00  0.00    -0.000 C 
BRANCH  23  24
ATOM     24  C   UNL     1      63.059  43.304  19.775  1.00  0.00    -0.000 C 
BRANCH  24  25
ATOM     25  C   UNL     1      62.449  44.433  20.627  1.00  0.00    -0.000 C 
BRANCH  25  26
ATOM     26  C   UNL     1      63.351  45.667  20.820  1.00  0.00    -0.000 C 
BRANCH  26  27
ATOM     27  C   UNL     1      64.204  45.985  19.582  1.00  0.00    -0.000 C 
BRANCH  27  28
ATOM     28  C   UNL     1      63.892  47.391  19.046  1.00  0.00    -0.000 C 
BRANCH  28  29
ATOM     29  C   UNL     1      62.738  48.066  19.804  1.00  0.00    -0.003 C 
ATOM     30  C   UNL     1      61.640  48.576  18.870  1.00  0.00     0.004 C 
ENDBRANCH  28  29
ENDBRANCH  27  28
ENDBRANCH  26  27
ENDBRANCH  25  26
ENDBRANCH  24  25
ENDBRANCH  23  24
ENDBRANCH  22  23
ENDBRANCH  21  22
ENDBRANCH  20  21
ENDBRANCH  19  20
ENDBRANCH  18  19
ENDBRANCH  17  18
ENDBRANCH   1  17
TORSDOF 26
ENDMDL
