MODEL 1
REMARK VINA RESULT:    -8.179      0.000      0.000
REMARK INTER + INTRA:         -11.361
REMARK INTER:                 -10.808
REMARK INTRA:                  -0.553
REMARK UNBOUND:                -0.553
REMARK SMILES CC[C@H](C=C[C@H](C)[C@@H]1CC[C@@H]2C3=CC[C@@H]4C[C@@H](O)CC[C@@]4(C)[C@@H]3CC[C@]21C)C(C)C
REMARK SMILES IDX 6 1 7 2 5 3 4 4 3 5 2 6 1 7 28 8 29 9 30 10 8 11 9 12 26 13
REMARK SMILES IDX 10 14 11 15 25 16 27 17 12 18 24 19 23 20 13 21 21 22 14 23
REMARK SMILES IDX 15 24 20 25 22 26 16 27 19 28 17 29 18 30
REMARK H PARENT 18 31
REMARK Flexibility Score: inf
ROOT
ATOM      1  C   UNL     1     109.719 116.523 126.188  1.00  0.00     0.012 C 
ATOM      2  C   UNL     1     110.018 115.517 125.069  1.00  0.00     0.012 C 
ENDROOT
BRANCH   1   3
ATOM      3  C   UNL     1     110.783 116.364 127.253  1.00  0.00    -0.028 C 
ATOM      4  C   UNL     1     110.494 115.916 128.485  1.00  0.00    -0.027 C 
BRANCH   4   5
ATOM      5  C   UNL     1     111.569 115.713 129.534  1.00  0.00     0.014 C 
BRANCH   5   6
ATOM      6  C   UNL     1     112.959 115.982 128.903  1.00  0.00     0.004 C 
ATOM      7  C   UNL     1     114.055 115.084 129.481  1.00  0.00     0.004 C 
ENDBRANCH   5   6
BRANCH   5   8
ATOM      8  C   UNL     1     111.287 116.637 130.759  1.00  0.00    -0.011 C 
ATOM      9  C   UNL     1     109.824 117.114 130.807  1.00  0.00     0.008 C 
ATOM     10  C   UNL     1     112.211 117.870 130.751  1.00  0.00     0.008 C 
ENDBRANCH   5   8
ENDBRANCH   4   5
ENDBRANCH   1   3
BRANCH   1  11
ATOM     11  C   UNL     1     109.701 118.002 125.688  1.00  0.00     0.002 C 
ATOM     12  C   UNL     1     109.757 118.085 124.138  1.00  0.00     0.005 C 
ATOM     13  C   UNL     1     110.847 118.950 126.153  1.00  0.00    -0.023 C 
ATOM     14  C   UNL     1     110.583 119.325 123.776  1.00  0.00     0.009 C 
ATOM     15  C   UNL     1     110.740 120.059 125.100  1.00  0.00     0.021 C 
ATOM     16  C   UNL     1     110.630 119.625 127.533  1.00  0.00     0.008 C 
ATOM     17  C   UNL     1     112.229 118.225 126.097  1.00  0.00     0.012 C 
ATOM     18  C   UNL     1     111.815 121.113 125.277  1.00  0.00    -0.067 C 
ATOM     19  C   UNL     1     111.714 120.692 127.812  1.00  0.00     0.009 C 
ATOM     20  C   UNL     1     111.876 121.749 126.670  1.00  0.00     0.021 C 
ATOM     21  C   UNL     1     112.408 121.689 124.208  1.00  0.00    -0.027 C 
ATOM     22  C   UNL     1     113.113 122.704 126.873  1.00  0.00    -0.023 C 
ATOM     23  C   UNL     1     113.381 122.828 124.321  1.00  0.00     0.031 C 
ATOM     24  C   UNL     1     113.196 123.634 125.619  1.00  0.00     0.002 C 
ATOM     25  C   UNL     1     112.896 123.573 128.169  1.00  0.00     0.010 C 
ATOM     26  C   UNL     1     114.428 121.876 127.011  1.00  0.00     0.012 C 
ATOM     27  C   UNL     1     114.287 124.735 125.729  1.00  0.00     0.036 C 
ATOM     28  C   UNL     1     113.239 125.067 128.016  1.00  0.00     0.032 C 
ATOM     29  C   UNL     1     114.490 125.272 127.164  1.00  0.00     0.114 C 
BRANCH  29  30
ATOM     30  O   UNL     1     114.802 126.640 127.127  1.00  0.00    -0.393 OA
ATOM     31  H   UNL     1     115.718 126.713 126.748  1.00  0.00     0.210 HD
ENDBRANCH  29  30
ENDBRANCH   1  11
TORSDOF 6
ENDMDL
MODEL 2
REMARK VINA RESULT:    -7.826      2.216      3.875
REMARK INTER + INTRA:         -10.895
REMARK INTER:                  -9.651
REMARK INTRA:                  -1.245
REMARK UNBOUND:                -0.553
REMARK SMILES CC[C@H](C=C[C@H](C)[C@@H]1CC[C@@H]2C3=CC[C@@H]4C[C@@H](O)CC[C@@]4(C)[C@@H]3CC[C@]21C)C(C)C
REMARK SMILES IDX 6 1 7 2 5 3 4 4 3 5 2 6 1 7 28 8 29 9 30 10 8 11 9 12 26 13
REMARK SMILES IDX 10 14 11 15 25 16 27 17 12 18 24 19 23 20 13 21 21 22 14 23
REMARK SMILES IDX 15 24 20 25 22 26 16 27 19 28 17 29 18 30
REMARK H PARENT 18 31
REMARK Flexibility Score: inf
ROOT
ATOM      1  C   UNL     1     110.631 118.824 126.695  1.00  0.00     0.012 C 
ATOM      2  C   UNL     1     109.518 119.014 127.734  1.00  0.00     0.012 C 
ENDROOT
BRANCH   1   3
ATOM      3  C   UNL     1     110.210 117.706 125.763  1.00  0.00    -0.028 C 
ATOM      4  C   UNL     1     110.904 116.561 125.668  1.00  0.00    -0.027 C 
BRANCH   4   5
ATOM      5  C   UNL     1     110.454 115.426 124.770  1.00  0.00     0.014 C 
BRANCH   5   6
ATOM      6  C   UNL     1     109.483 115.977 123.695  1.00  0.00     0.004 C 
ATOM      7  C   UNL     1     110.203 116.432 122.424  1.00  0.00     0.004 C 
ENDBRANCH   5   6
BRANCH   5   8
ATOM      8  C   UNL     1     111.701 114.730 124.140  1.00  0.00    -0.011 C 
ATOM      9  C   UNL     1     111.556 113.198 124.097  1.00  0.00     0.008 C 
ATOM     10  C   UNL     1     112.986 115.086 124.912  1.00  0.00     0.008 C 
ENDBRANCH   5   8
ENDBRANCH   4   5
ENDBRANCH   1   3
BRANCH   1  11
ATOM     11  C   UNL     1     110.916 120.114 125.864  1.00  0.00     0.002 C 
ATOM     12  C   UNL     1     111.187 119.787 124.370  1.00  0.00     0.005 C 
ATOM     13  C   UNL     1     112.129 121.001 126.276  1.00  0.00    -0.023 C 
ATOM     14  C   UNL     1     112.242 120.780 123.868  1.00  0.00     0.009 C 
ATOM     15  C   UNL     1     112.341 121.805 124.988  1.00  0.00     0.021 C 
ATOM     16  C   UNL     1     111.846 122.030 127.401  1.00  0.00     0.008 C 
ATOM     17  C   UNL     1     113.373 120.122 126.624  1.00  0.00     0.012 C 
ATOM     18  C   UNL     1     113.539 122.728 125.087  1.00  0.00    -0.067 C 
ATOM     19  C   UNL     1     113.042 122.991 127.597  1.00  0.00     0.009 C 
ATOM     20  C   UNL     1     113.519 123.689 126.281  1.00  0.00     0.021 C 
ATOM     21  C   UNL     1     114.352 122.931 124.027  1.00  0.00    -0.027 C 
ATOM     22  C   UNL     1     114.857 124.504 126.456  1.00  0.00    -0.023 C 
ATOM     23  C   UNL     1     115.472 123.932 124.027  1.00  0.00     0.031 C 
ATOM     24  C   UNL     1     115.251 125.062 125.049  1.00  0.00     0.002 C 
ATOM     25  C   UNL     1     114.616 125.699 127.454  1.00  0.00     0.010 C 
ATOM     26  C   UNL     1     115.992 123.585 127.002  1.00  0.00     0.012 C 
ATOM     27  C   UNL     1     116.481 126.011 125.076  1.00  0.00     0.036 C 
ATOM     28  C   UNL     1     115.211 127.048 127.012  1.00  0.00     0.032 C 
ATOM     29  C   UNL     1     116.579 126.871 126.357  1.00  0.00     0.114 C 
BRANCH  29  30
ATOM     30  O   UNL     1     117.110 128.133 126.050  1.00  0.00    -0.393 OA
ATOM     31  H   UNL     1     116.806 128.354 125.129  1.00  0.00     0.210 HD
ENDBRANCH  29  30
ENDBRANCH   1  11
TORSDOF 6
ENDMDL
MODEL 3
REMARK VINA RESULT:    -7.286      2.124      3.679
REMARK INTER + INTRA:         -10.181
REMARK INTER:                  -8.814
REMARK INTRA:                  -1.367
REMARK UNBOUND:                -0.553
REMARK SMILES CC[C@H](C=C[C@H](C)[C@@H]1CC[C@@H]2C3=CC[C@@H]4C[C@@H](O)CC[C@@]4(C)[C@@H]3CC[C@]21C)C(C)C
REMARK SMILES IDX 6 1 7 2 5 3 4 4 3 5 2 6 1 7 28 8 29 9 30 10 8 11 9 12 26 13
REMARK SMILES IDX 10 14 11 15 25 16 27 17 12 18 24 19 23 20 13 21 21 22 14 23
REMARK SMILES IDX 15 24 20 25 22 26 16 27 19 28 17 29 18 30
REMARK H PARENT 18 31
REMARK Flexibility Score: inf
ROOT
ATOM      1  C   UNL     1     110.944 116.675 126.295  1.00  0.00     0.012 C 
ATOM      2  C   UNL     1     109.630 116.142 126.879  1.00  0.00     0.012 C 
ENDROOT
BRANCH   1   3
ATOM      3  C   UNL     1     111.382 115.728 125.197  1.00  0.00    -0.028 C 
ATOM      4  C   UNL     1     112.646 115.287 125.102  1.00  0.00    -0.027 C 
BRANCH   4   5
ATOM      5  C   UNL     1     113.070 114.302 124.030  1.00  0.00     0.014 C 
BRANCH   5   6
ATOM      6  C   UNL     1     111.852 113.439 123.616  1.00  0.00     0.004 C 
ATOM      7  C   UNL     1     112.191 111.951 123.503  1.00  0.00     0.004 C 
ENDBRANCH   5   6
BRANCH   5   8
ATOM      8  C   UNL     1     113.685 115.076 122.822  1.00  0.00    -0.011 C 
ATOM      9  C   UNL     1     114.593 114.182 121.957  1.00  0.00     0.008 C 
ATOM     10  C   UNL     1     114.497 116.296 123.298  1.00  0.00     0.008 C 
ENDBRANCH   5   8
ENDBRANCH   4   5
ENDBRANCH   1   3
BRANCH   1  11
ATOM     11  C   UNL     1     110.812 118.119 125.715  1.00  0.00     0.002 C 
ATOM     12  C   UNL     1     110.926 118.128 124.166  1.00  0.00     0.005 C 
ATOM     13  C   UNL     1     111.847 119.191 126.170  1.00  0.00    -0.023 C 
ATOM     14  C   UNL     1     111.650 119.419 123.768  1.00  0.00     0.009 C 
ATOM     15  C   UNL     1     111.685 120.231 125.055  1.00  0.00     0.021 C 
ATOM     16  C   UNL     1     111.513 119.912 127.502  1.00  0.00     0.008 C 
ATOM     17  C   UNL     1     113.291 118.596 126.205  1.00  0.00     0.012 C 
ATOM     18  C   UNL     1     112.651 121.388 125.214  1.00  0.00    -0.067 C 
ATOM     19  C   UNL     1     112.483 121.088 127.763  1.00  0.00     0.009 C 
ATOM     20  C   UNL     1     112.596 122.096 126.572  1.00  0.00     0.021 C 
ATOM     21  C   UNL     1     113.234 121.961 124.138  1.00  0.00    -0.027 C 
ATOM     22  C   UNL     1     113.731 123.171 126.768  1.00  0.00    -0.023 C 
ATOM     23  C   UNL     1     114.093 123.190 124.225  1.00  0.00     0.031 C 
ATOM     24  C   UNL     1     113.782 124.040 125.469  1.00  0.00     0.002 C 
ATOM     25  C   UNL     1     113.382 124.081 128.006  1.00  0.00     0.010 C 
ATOM     26  C   UNL     1     115.109 122.477 127.000  1.00  0.00     0.012 C 
ATOM     27  C   UNL     1     114.762 125.242 125.560  1.00  0.00     0.036 C 
ATOM     28  C   UNL     1     113.594 125.591 127.785  1.00  0.00     0.032 C 
ATOM     29  C   UNL     1     114.856 125.867 126.970  1.00  0.00     0.114 C 
BRANCH  29  30
ATOM     30  O   UNL     1     115.044 127.255 126.870  1.00  0.00    -0.393 OA
ATOM     31  H   UNL     1     114.683 127.529 125.986  1.00  0.00     0.210 HD
ENDBRANCH  29  30
ENDBRANCH   1  11
TORSDOF 6
ENDMDL
MODEL 4
REMARK VINA RESULT:    -7.109      2.460      4.492
REMARK INTER + INTRA:          -9.948
REMARK INTER:                  -8.469
REMARK INTRA:                  -1.479
REMARK UNBOUND:                -0.553
REMARK SMILES CC[C@H](C=C[C@H](C)[C@@H]1CC[C@@H]2C3=CC[C@@H]4C[C@@H](O)CC[C@@]4(C)[C@@H]3CC[C@]21C)C(C)C
REMARK SMILES IDX 6 1 7 2 5 3 4 4 3 5 2 6 1 7 28 8 29 9 30 10 8 11 9 12 26 13
REMARK SMILES IDX 10 14 11 15 25 16 27 17 12 18 24 19 23 20 13 21 21 22 14 23
REMARK SMILES IDX 15 24 20 25 22 26 16 27 19 28 17 29 18 30
REMARK H PARENT 18 31
REMARK Flexibility Score: inf
ROOT
ATOM      1  C   UNL     1     114.287 117.185 123.678  1.00  0.00     0.012 C 
ATOM      2  C   UNL     1     115.396 116.223 123.232  1.00  0.00     0.012 C 
ENDROOT
BRANCH   1   3
ATOM      3  C   UNL     1     113.094 116.353 124.101  1.00  0.00    -0.028 C 
ATOM      4  C   UNL     1     111.933 116.383 123.428  1.00  0.00    -0.027 C 
BRANCH   4   5
ATOM      5  C   UNL     1     110.756 115.514 123.825  1.00  0.00     0.014 C 
BRANCH   5   6
ATOM      6  C   UNL     1     111.254 114.359 124.730  1.00  0.00     0.004 C 
ATOM      7  C   UNL     1     111.486 113.059 123.956  1.00  0.00     0.004 C 
ENDBRANCH   5   6
BRANCH   5   8
ATOM      8  C   UNL     1     109.672 116.390 124.528  1.00  0.00    -0.011 C 
ATOM      9  C   UNL     1     109.621 117.821 123.963  1.00  0.00     0.008 C 
ATOM     10  C   UNL     1     109.915 116.464 126.048  1.00  0.00     0.008 C 
ENDBRANCH   5   8
ENDBRANCH   4   5
ENDBRANCH   1   3
BRANCH   1  11
ATOM     11  C   UNL     1     114.721 118.110 124.859  1.00  0.00     0.002 C 
ATOM     12  C   UNL     1     113.982 117.745 126.176  1.00  0.00     0.005 C 
ATOM     13  C   UNL     1     114.488 119.644 124.715  1.00  0.00    -0.023 C 
ATOM     14  C   UNL     1     113.732 119.052 126.937  1.00  0.00     0.009 C 
ATOM     15  C   UNL     1     114.564 120.080 126.182  1.00  0.00     0.021 C 
ATOM     16  C   UNL     1     115.604 120.416 123.964  1.00  0.00     0.008 C 
ATOM     17  C   UNL     1     113.087 119.941 124.091  1.00  0.00     0.012 C 
ATOM     18  C   UNL     1     114.296 121.562 126.348  1.00  0.00    -0.067 C 
ATOM     19  C   UNL     1     115.384 121.944 124.048  1.00  0.00     0.009 C 
ATOM     20  C   UNL     1     115.190 122.480 125.505  1.00  0.00     0.021 C 
ATOM     21  C   UNL     1     113.594 122.030 127.403  1.00  0.00    -0.027 C 
ATOM     22  C   UNL     1     114.767 123.997 125.563  1.00  0.00    -0.023 C 
ATOM     23  C   UNL     1     113.412 123.494 127.688  1.00  0.00     0.031 C 
ATOM     24  C   UNL     1     114.524 124.358 127.066  1.00  0.00     0.002 C 
ATOM     25  C   UNL     1     115.930 124.887 124.983  1.00  0.00     0.010 C 
ATOM     26  C   UNL     1     113.464 124.234 124.740  1.00  0.00     0.012 C 
ATOM     27  C   UNL     1     114.234 125.864 127.306  1.00  0.00     0.036 C 
ATOM     28  C   UNL     1     116.259 126.147 125.805  1.00  0.00     0.032 C 
ATOM     29  C   UNL     1     114.995 126.808 126.348  1.00  0.00     0.114 C 
BRANCH  29  30
ATOM     30  O   UNL     1     115.346 127.992 127.017  1.00  0.00    -0.393 OA
ATOM     31  H   UNL     1     114.627 128.170 127.679  1.00  0.00     0.210 HD
ENDBRANCH  29  30
ENDBRANCH   1  11
TORSDOF 6
ENDMDL
MODEL 5
REMARK VINA RESULT:    -7.022      1.367      2.382
REMARK INTER + INTRA:          -9.833
REMARK INTER:                  -9.508
REMARK INTRA:                  -0.325
REMARK UNBOUND:                -0.553
REMARK SMILES CC[C@H](C=C[C@H](C)[C@@H]1CC[C@@H]2C3=CC[C@@H]4C[C@@H](O)CC[C@@]4(C)[C@@H]3CC[C@]21C)C(C)C
REMARK SMILES IDX 6 1 7 2 5 3 4 4 3 5 2 6 1 7 28 8 29 9 30 10 8 11 9 12 26 13
REMARK SMILES IDX 10 14 11 15 25 16 27 17 12 18 24 19 23 20 13 21 21 22 14 23
REMARK SMILES IDX 15 24 20 25 22 26 16 27 19 28 17 29 18 30
REMARK H PARENT 18 31
REMARK Flexibility Score: inf
ROOT
ATOM      1  C   UNL     1     110.514 118.292 126.361  1.00  0.00     0.012 C 
ATOM      2  C   UNL     1     111.270 117.125 125.713  1.00  0.00     0.012 C 
ENDROOT
BRANCH   1   3
ATOM      3  C   UNL     1     110.983 118.411 127.796  1.00  0.00    -0.028 C 
ATOM      4  C   UNL     1     111.615 117.406 128.422  1.00  0.00    -0.027 C 
BRANCH   4   5
ATOM      5  C   UNL     1     112.126 117.546 129.842  1.00  0.00     0.014 C 
BRANCH   5   6
ATOM      6  C   UNL     1     111.402 116.521 130.751  1.00  0.00     0.004 C 
ATOM      7  C   UNL     1     109.897 116.779 130.853  1.00  0.00     0.004 C 
ENDBRANCH   5   6
BRANCH   5   8
ATOM      8  C   UNL     1     113.676 117.363 129.862  1.00  0.00    -0.011 C 
ATOM      9  C   UNL     1     114.195 116.637 128.607  1.00  0.00     0.008 C 
ATOM     10  C   UNL     1     114.129 116.581 131.111  1.00  0.00     0.008 C 
ENDBRANCH   5   8
ENDBRANCH   4   5
ENDBRANCH   1   3
BRANCH   1  11
ATOM     11  C   UNL     1     110.742 119.649 125.624  1.00  0.00     0.002 C 
ATOM     12  C   UNL     1     110.971 119.445 124.101  1.00  0.00     0.005 C 
ATOM     13  C   UNL     1     111.948 120.532 126.066  1.00  0.00    -0.023 C 
ATOM     14  C   UNL     1     111.986 120.500 123.646  1.00  0.00     0.009 C 
ATOM     15  C   UNL     1     112.099 121.438 124.839  1.00  0.00     0.021 C 
ATOM     16  C   UNL     1     111.679 121.464 127.276  1.00  0.00     0.008 C 
ATOM     17  C   UNL     1     113.222 119.660 126.305  1.00  0.00     0.012 C 
ATOM     18  C   UNL     1     113.279 122.380 124.972  1.00  0.00    -0.067 C 
ATOM     19  C   UNL     1     112.859 122.436 127.509  1.00  0.00     0.009 C 
ATOM     20  C   UNL     1     113.277 123.246 126.237  1.00  0.00     0.021 C 
ATOM     21  C   UNL     1     114.051 122.684 123.906  1.00  0.00    -0.027 C 
ATOM     22  C   UNL     1     114.601 124.078 126.433  1.00  0.00    -0.023 C 
ATOM     23  C   UNL     1     115.148 123.710 123.949  1.00  0.00     0.031 C 
ATOM     24  C   UNL     1     114.936 124.752 125.062  1.00  0.00     0.002 C 
ATOM     25  C   UNL     1     114.366 125.185 127.528  1.00  0.00     0.010 C 
ATOM     26  C   UNL     1     115.774 123.147 126.870  1.00  0.00     0.012 C 
ATOM     27  C   UNL     1     116.144 125.726 125.125  1.00  0.00     0.036 C 
ATOM     28  C   UNL     1     114.917 126.579 127.174  1.00  0.00     0.032 C 
ATOM     29  C   UNL     1     116.265 126.487 126.465  1.00  0.00     0.114 C 
BRANCH  29  30
ATOM     30  O   UNL     1     116.757 127.782 126.241  1.00  0.00    -0.393 OA
ATOM     31  H   UNL     1     117.564 127.884 126.812  1.00  0.00     0.210 HD
ENDBRANCH  29  30
ENDBRANCH   1  11
TORSDOF 6
ENDMDL
MODEL 6
REMARK VINA RESULT:    -7.009      2.299      4.295
REMARK INTER + INTRA:          -9.815
REMARK INTER:                  -9.675
REMARK INTRA:                  -0.140
REMARK UNBOUND:                -0.553
REMARK SMILES CC[C@H](C=C[C@H](C)[C@@H]1CC[C@@H]2C3=CC[C@@H]4C[C@@H](O)CC[C@@]4(C)[C@@H]3CC[C@]21C)C(C)C
REMARK SMILES IDX 6 1 7 2 5 3 4 4 3 5 2 6 1 7 28 8 29 9 30 10 8 11 9 12 26 13
REMARK SMILES IDX 10 14 11 15 25 16 27 17 12 18 24 19 23 20 13 21 21 22 14 23
REMARK SMILES IDX 15 24 20 25 22 26 16 27 19 28 17 29 18 30
REMARK H PARENT 18 31
REMARK Flexibility Score: inf
ROOT
ATOM      1  C   UNL     1     110.170 117.487 123.956  1.00  0.00     0.012 C 
ATOM      2  C   UNL     1     109.883 118.442 122.791  1.00  0.00     0.012 C 
ENDROOT
BRANCH   1   3
ATOM      3  C   UNL     1     110.845 116.255 123.391  1.00  0.00    -0.028 C 
ATOM      4  C   UNL     1     112.163 116.042 123.528  1.00  0.00    -0.027 C 
BRANCH   4   5
ATOM      5  C   UNL     1     112.828 114.785 123.003  1.00  0.00     0.014 C 
BRANCH   5   6
ATOM      6  C   UNL     1     114.265 115.122 122.532  1.00  0.00     0.004 C 
ATOM      7  C   UNL     1     114.827 116.380 123.200  1.00  0.00     0.004 C 
ENDBRANCH   5   6
BRANCH   5   8
ATOM      8  C   UNL     1     112.811 113.683 124.108  1.00  0.00    -0.011 C 
ATOM      9  C   UNL     1     114.023 112.740 124.012  1.00  0.00     0.008 C 
ATOM     10  C   UNL     1     111.521 112.843 124.036  1.00  0.00     0.008 C 
ENDBRANCH   5   8
ENDBRANCH   4   5
ENDBRANCH   1   3
BRANCH   1  11
ATOM     11  C   UNL     1     111.079 118.122 125.055  1.00  0.00     0.002 C 
ATOM     12  C   UNL     1     110.450 117.990 126.468  1.00  0.00     0.005 C 
ATOM     13  C   UNL     1     111.421 119.638 124.940  1.00  0.00    -0.023 C 
ATOM     14  C   UNL     1     110.818 119.254 127.253  1.00  0.00     0.009 C 
ATOM     15  C   UNL     1     111.860 119.937 126.378  1.00  0.00     0.021 C 
ATOM     16  C   UNL     1     112.629 119.978 124.028  1.00  0.00     0.008 C 
ATOM     17  C   UNL     1     110.162 120.466 124.531  1.00  0.00     0.012 C 
ATOM     18  C   UNL     1     112.194 121.403 126.575  1.00  0.00    -0.067 C 
ATOM     19  C   UNL     1     113.012 121.472 124.138  1.00  0.00     0.009 C 
ATOM     20  C   UNL     1     113.239 121.965 125.605  1.00  0.00     0.021 C 
ATOM     21  C   UNL     1     111.874 122.042 127.722  1.00  0.00    -0.027 C 
ATOM     22  C   UNL     1     113.429 123.525 125.719  1.00  0.00    -0.023 C 
ATOM     23  C   UNL     1     112.296 123.452 128.024  1.00  0.00     0.031 C 
ATOM     24  C   UNL     1     113.552 123.872 127.239  1.00  0.00     0.002 C 
ATOM     25  C   UNL     1     114.748 123.948 124.968  1.00  0.00     0.010 C 
ATOM     26  C   UNL     1     112.209 124.272 125.098  1.00  0.00     0.012 C 
ATOM     27  C   UNL     1     113.885 125.364 127.514  1.00  0.00     0.036 C 
ATOM     28  C   UNL     1     115.637 124.951 125.726  1.00  0.00     0.032 C 
ATOM     29  C   UNL     1     114.803 126.006 126.449  1.00  0.00     0.114 C 
BRANCH  29  30
ATOM     30  O   UNL     1     115.662 126.937 127.053  1.00  0.00    -0.393 OA
ATOM     31  H   UNL     1     116.401 127.103 126.409  1.00  0.00     0.210 HD
ENDBRANCH  29  30
ENDBRANCH   1  11
TORSDOF 6
ENDMDL
MODEL 7
REMARK VINA RESULT:    -6.974      4.514      6.215
REMARK INTER + INTRA:          -9.769
REMARK INTER:                  -8.372
REMARK INTRA:                  -1.397
REMARK UNBOUND:                -0.553
REMARK SMILES CC[C@H](C=C[C@H](C)[C@@H]1CC[C@@H]2C3=CC[C@@H]4C[C@@H](O)CC[C@@]4(C)[C@@H]3CC[C@]21C)C(C)C
REMARK SMILES IDX 6 1 7 2 5 3 4 4 3 5 2 6 1 7 28 8 29 9 30 10 8 11 9 12 26 13
REMARK SMILES IDX 10 14 11 15 25 16 27 17 12 18 24 19 23 20 13 21 21 22 14 23
REMARK SMILES IDX 15 24 20 25 22 26 16 27 19 28 17 29 18 30
REMARK H PARENT 18 31
REMARK Flexibility Score: inf
ROOT
ATOM      1  C   UNL     1     112.590 121.552 127.390  1.00  0.00     0.012 C 
ATOM      2  C   UNL     1     112.188 122.971 127.810  1.00  0.00     0.012 C 
ENDROOT
BRANCH   1   3
ATOM      3  C   UNL     1     111.343 120.693 127.401  1.00  0.00    -0.028 C 
ATOM      4  C   UNL     1     111.349 119.438 127.877  1.00  0.00    -0.027 C 
BRANCH   4   5
ATOM      5  C   UNL     1     110.088 118.597 127.931  1.00  0.00     0.014 C 
BRANCH   5   6
ATOM      6  C   UNL     1     109.082 119.114 126.871  1.00  0.00     0.004 C 
ATOM      7  C   UNL     1     109.157 118.336 125.555  1.00  0.00     0.004 C 
ENDBRANCH   5   6
BRANCH   5   8
ATOM      8  C   UNL     1     110.451 117.094 127.719  1.00  0.00    -0.011 C 
ATOM      9  C   UNL     1     109.799 116.181 128.772  1.00  0.00     0.008 C 
ATOM     10  C   UNL     1     111.977 116.880 127.753  1.00  0.00     0.008 C 
ENDBRANCH   5   8
ENDBRANCH   4   5
ENDBRANCH   1   3
BRANCH   1  11
ATOM     11  C   UNL     1     113.246 121.498 125.974  1.00  0.00     0.002 C 
ATOM     12  C   UNL     1     112.423 120.619 124.993  1.00  0.00     0.005 C 
ATOM     13  C   UNL     1     114.693 120.932 125.855  1.00  0.00    -0.023 C 
ATOM     14  C   UNL     1     113.419 119.908 124.069  1.00  0.00     0.009 C 
ATOM     15  C   UNL     1     114.744 120.600 124.359  1.00  0.00     0.021 C 
ATOM     16  C   UNL     1     115.829 121.955 126.121  1.00  0.00     0.008 C 
ATOM     17  C   UNL     1     114.871 119.658 126.741  1.00  0.00     0.012 C 
ATOM     18  C   UNL     1     116.056 119.951 123.967  1.00  0.00    -0.067 C 
ATOM     19  C   UNL     1     117.214 121.356 125.784  1.00  0.00     0.009 C 
ATOM     20  C   UNL     1     117.311 120.746 124.347  1.00  0.00     0.021 C 
ATOM     21  C   UNL     1     116.096 118.957 123.053  1.00  0.00    -0.027 C 
ATOM     22  C   UNL     1     118.654 119.963 124.089  1.00  0.00    -0.023 C 
ATOM     23  C   UNL     1     117.376 118.370 122.530  1.00  0.00     0.031 C 
ATOM     24  C   UNL     1     118.565 119.340 122.657  1.00  0.00     0.002 C 
ATOM     25  C   UNL     1     119.866 120.967 124.158  1.00  0.00     0.010 C 
ATOM     26  C   UNL     1     118.845 118.837 125.151  1.00  0.00     0.012 C 
ATOM     27  C   UNL     1     119.876 118.648 122.195  1.00  0.00     0.036 C 
ATOM     28  C   UNL     1     120.911 120.805 123.038  1.00  0.00     0.032 C 
ATOM     29  C   UNL     1     121.161 119.335 122.712  1.00  0.00     0.114 C 
BRANCH  29  30
ATOM     30  O   UNL     1     122.177 119.244 121.748  1.00  0.00    -0.393 OA
ATOM     31  H   UNL     1     121.738 118.990 120.893  1.00  0.00     0.210 HD
ENDBRANCH  29  30
ENDBRANCH   1  11
TORSDOF 6
ENDMDL
MODEL 8
REMARK VINA RESULT:    -6.952      2.487      4.562
REMARK INTER + INTRA:          -9.740
REMARK INTER:                  -9.273
REMARK INTRA:                  -0.467
REMARK UNBOUND:                -0.553
REMARK SMILES CC[C@H](C=C[C@H](C)[C@@H]1CC[C@@H]2C3=CC[C@@H]4C[C@@H](O)CC[C@@]4(C)[C@@H]3CC[C@]21C)C(C)C
REMARK SMILES IDX 6 1 7 2 5 3 4 4 3 5 2 6 1 7 28 8 29 9 30 10 8 11 9 12 26 13
REMARK SMILES IDX 10 14 11 15 25 16 27 17 12 18 24 19 23 20 13 21 21 22 14 23
REMARK SMILES IDX 15 24 20 25 22 26 16 27 19 28 17 29 18 30
REMARK H PARENT 18 31
REMARK Flexibility Score: inf
ROOT
ATOM      1  C   UNL     1     110.269 115.580 125.452  1.00  0.00     0.012 C 
ATOM      2  C   UNL     1     109.399 116.251 124.381  1.00  0.00     0.012 C 
ENDROOT
BRANCH   1   3
ATOM      3  C   UNL     1     111.434 114.912 124.753  1.00  0.00    -0.028 C 
ATOM      4  C   UNL     1     111.644 115.048 123.434  1.00  0.00    -0.027 C 
BRANCH   4   5
ATOM      5  C   UNL     1     112.839 114.418 122.746  1.00  0.00     0.014 C 
BRANCH   5   6
ATOM      6  C   UNL     1     114.059 114.454 123.701  1.00  0.00     0.004 C 
ATOM      7  C   UNL     1     115.062 115.553 123.338  1.00  0.00     0.004 C 
ENDBRANCH   5   6
BRANCH   5   8
ATOM      8  C   UNL     1     112.480 112.965 122.301  1.00  0.00    -0.011 C 
ATOM      9  C   UNL     1     112.912 111.912 123.338  1.00  0.00     0.008 C 
ATOM     10  C   UNL     1     113.128 112.622 120.945  1.00  0.00     0.008 C 
ENDBRANCH   5   8
ENDBRANCH   4   5
ENDBRANCH   1   3
BRANCH   1  11
ATOM     11  C   UNL     1     110.808 116.586 126.517  1.00  0.00     0.002 C 
ATOM     12  C   UNL     1     109.663 117.165 127.392  1.00  0.00     0.005 C 
ATOM     13  C   UNL     1     111.568 117.851 126.016  1.00  0.00    -0.023 C 
ATOM     14  C   UNL     1     110.023 118.620 127.712  1.00  0.00     0.009 C 
ATOM     15  C   UNL     1     111.468 118.749 127.253  1.00  0.00     0.021 C 
ATOM     16  C   UNL     1     113.080 117.648 125.735  1.00  0.00     0.008 C 
ATOM     17  C   UNL     1     110.851 118.481 124.780  1.00  0.00     0.012 C 
ATOM     18  C   UNL     1     112.085 120.113 127.015  1.00  0.00    -0.067 C 
ATOM     19  C   UNL     1     113.782 118.994 125.440  1.00  0.00     0.009 C 
ATOM     20  C   UNL     1     113.538 120.091 126.528  1.00  0.00     0.021 C 
ATOM     21  C   UNL     1     111.527 121.230 127.533  1.00  0.00    -0.027 C 
ATOM     22  C   UNL     1     114.087 121.510 126.118  1.00  0.00    -0.023 C 
ATOM     23  C   UNL     1     112.165 122.587 127.440  1.00  0.00     0.031 C 
ATOM     24  C   UNL     1     113.691 122.510 127.254  1.00  0.00     0.002 C 
ATOM     25  C   UNL     1     115.656 121.447 125.987  1.00  0.00     0.010 C 
ATOM     26  C   UNL     1     113.465 121.968 124.763  1.00  0.00     0.012 C 
ATOM     27  C   UNL     1     114.283 123.934 127.067  1.00  0.00     0.036 C 
ATOM     28  C   UNL     1     116.412 122.623 126.633  1.00  0.00     0.032 C 
ATOM     29  C   UNL     1     115.684 123.947 126.413  1.00  0.00     0.114 C 
BRANCH  29  30
ATOM     30  O   UNL     1     116.455 124.991 126.949  1.00  0.00    -0.393 OA
ATOM     31  H   UNL     1     117.165 125.192 126.282  1.00  0.00     0.210 HD
ENDBRANCH  29  30
ENDBRANCH   1  11
TORSDOF 6
ENDMDL
MODEL 9
REMARK VINA RESULT:    -6.903      2.160      4.135
REMARK INTER + INTRA:          -9.675
REMARK INTER:                  -9.312
REMARK INTRA:                  -0.364
REMARK UNBOUND:                -0.553
REMARK SMILES CC[C@H](C=C[C@H](C)[C@@H]1CC[C@@H]2C3=CC[C@@H]4C[C@@H](O)CC[C@@]4(C)[C@@H]3CC[C@]21C)C(C)C
REMARK SMILES IDX 6 1 7 2 5 3 4 4 3 5 2 6 1 7 28 8 29 9 30 10 8 11 9 12 26 13
REMARK SMILES IDX 10 14 11 15 25 16 27 17 12 18 24 19 23 20 13 21 21 22 14 23
REMARK SMILES IDX 15 24 20 25 22 26 16 27 19 28 17 29 18 30
REMARK H PARENT 18 31
REMARK Flexibility Score: inf
ROOT
ATOM      1  C   UNL     1     110.246 117.089 124.525  1.00  0.00     0.012 C 
ATOM      2  C   UNL     1     110.173 117.817 123.177  1.00  0.00     0.012 C 
ENDROOT
BRANCH   1   3
ATOM      3  C   UNL     1     110.830 115.713 124.280  1.00  0.00    -0.028 C 
ATOM      4  C   UNL     1     112.091 115.405 124.620  1.00  0.00    -0.027 C 
BRANCH   4   5
ATOM      5  C   UNL     1     112.657 114.014 124.416  1.00  0.00     0.014 C 
BRANCH   5   6
ATOM      6  C   UNL     1     111.830 113.278 123.331  1.00  0.00     0.004 C 
ATOM      7  C   UNL     1     112.648 112.960 122.077  1.00  0.00     0.004 C 
ENDBRANCH   5   6
BRANCH   5   8
ATOM      8  C   UNL     1     114.169 114.113 124.042  1.00  0.00    -0.011 C 
ATOM      9  C   UNL     1     115.075 113.435 125.086  1.00  0.00     0.008 C 
ATOM     10  C   UNL     1     114.608 115.581 123.882  1.00  0.00     0.008 C 
ENDBRANCH   5   8
ENDBRANCH   4   5
ENDBRANCH   1   3
BRANCH   1  11
ATOM     11  C   UNL     1     111.117 117.843 125.579  1.00  0.00     0.002 C 
ATOM     12  C   UNL     1     110.423 117.894 126.967  1.00  0.00     0.005 C 
ATOM     13  C   UNL     1     111.492 119.329 125.295  1.00  0.00    -0.023 C 
ATOM     14  C   UNL     1     110.778 119.241 127.607  1.00  0.00     0.009 C 
ATOM     15  C   UNL     1     111.870 119.798 126.705  1.00  0.00     0.021 C 
ATOM     16  C   UNL     1     112.745 119.538 124.406  1.00  0.00     0.008 C 
ATOM     17  C   UNL     1     110.268 120.116 124.729  1.00  0.00     0.012 C 
ATOM     18  C   UNL     1     112.222 121.272 126.736  1.00  0.00    -0.067 C 
ATOM     19  C   UNL     1     113.151 121.029 124.349  1.00  0.00     0.009 C 
ATOM     20  C   UNL     1     113.321 121.696 125.754  1.00  0.00     0.021 C 
ATOM     21  C   UNL     1     111.863 122.052 127.779  1.00  0.00    -0.027 C 
ATOM     22  C   UNL     1     113.534 123.256 125.684  1.00  0.00    -0.023 C 
ATOM     23  C   UNL     1     112.297 123.482 127.925  1.00  0.00     0.031 C 
ATOM     24  C   UNL     1     113.595 123.786 127.154  1.00  0.00     0.002 C 
ATOM     25  C   UNL     1     114.892 123.566 124.949  1.00  0.00     0.010 C 
ATOM     26  C   UNL     1     112.357 123.937 124.920  1.00  0.00     0.012 C 
ATOM     27  C   UNL     1     113.942 125.296 127.259  1.00  0.00     0.036 C 
ATOM     28  C   UNL     1     115.765 124.644 125.620  1.00  0.00     0.032 C 
ATOM     29  C   UNL     1     114.919 125.790 126.168  1.00  0.00     0.114 C 
BRANCH  29  30
ATOM     30  O   UNL     1     115.767 126.778 126.692  1.00  0.00    -0.393 OA
ATOM     31  H   UNL     1     115.254 127.630 126.683  1.00  0.00     0.210 HD
ENDBRANCH  29  30
ENDBRANCH   1  11
TORSDOF 6
ENDMDL
