MODEL 1
REMARK VINA RESULT:    -4.091      0.000      0.000
REMARK INTER + INTRA:          -9.217
REMARK INTER:                  -6.961
REMARK INTRA:                  -2.256
REMARK UNBOUND:                -2.256
REMARK SMILES CCCCCCCCCCCCCC(=O)[O-]
REMARK SMILES IDX 8 1 9 2 10 3 11 4 12 5 13 6 14 7 15 8 16 9 7 10 6 11 5 12
REMARK SMILES IDX 4 13 3 14 2 15 1 16
REMARK H PARENT
REMARK Flexibility Score: inf
ROOT
ATOM      1  C   UNL     1      18.266 -31.888  22.943  1.00  0.00     0.000 C 
ENDROOT
BRANCH   1   2
ATOM      2  C   UNL     1      17.482 -33.072  23.530  1.00  0.00     0.000 C 
BRANCH   2   3
ATOM      3  C   UNL     1      16.028 -32.675  23.824  1.00  0.00     0.000 C 
BRANCH   3   4
ATOM      4  C   UNL     1      15.009 -33.584  23.118  1.00  0.00     0.000 C 
BRANCH   4   5
ATOM      5  C   UNL     1      15.649 -34.443  22.014  1.00  0.00     0.006 C 
BRANCH   5   6
ATOM      6  C   UNL     1      15.157 -34.050  20.615  1.00  0.00     0.053 C 
BRANCH   6   7
ATOM      7  C   UNL     1      16.019 -34.630  19.536  1.00  0.00     0.041 C 
ATOM      8  O   UNL     1      16.579 -33.874  18.698  1.00  0.00    -0.550 OA
ATOM      9  O   UNL     1      16.183 -36.006  19.438  1.00  0.00    -0.550 OA
ENDBRANCH   6   7
ENDBRANCH   5   6
ENDBRANCH   4   5
ENDBRANCH   3   4
ENDBRANCH   2   3
ENDBRANCH   1   2
BRANCH   1  10
ATOM     10  C   UNL     1      18.263 -31.876  21.407  1.00  0.00     0.000 C 
BRANCH  10  11
ATOM     11  C   UNL     1      17.215 -30.915  20.824  1.00  0.00    -0.000 C 
BRANCH  11  12
ATOM     12  C   UNL     1      16.976 -29.728  21.769  1.00  0.00    -0.000 C 
BRANCH  12  13
ATOM     13  C   UNL     1      15.484 -29.480  22.044  1.00  0.00    -0.000 C 
BRANCH  13  14
ATOM     14  C   UNL     1      14.570 -30.393  21.213  1.00  0.00    -0.000 C 
BRANCH  14  15
ATOM     15  C   UNL     1      13.192 -30.535  21.874  1.00  0.00    -0.003 C 
ATOM     16  C   UNL     1      13.256 -30.194  23.360  1.00  0.00     0.004 C 
ENDBRANCH  14  15
ENDBRANCH  13  14
ENDBRANCH  12  13
ENDBRANCH  11  12
ENDBRANCH  10  11
ENDBRANCH   1  10
TORSDOF 12
ENDMDL
MODEL 2
REMARK VINA RESULT:    -4.086      3.801      6.132
REMARK INTER + INTRA:          -9.209
REMARK INTER:                  -7.772
REMARK INTRA:                  -1.437
REMARK UNBOUND:                -2.256
REMARK SMILES CCCCCCCCCCCCCC(=O)[O-]
REMARK SMILES IDX 8 1 9 2 10 3 11 4 12 5 13 6 14 7 15 8 16 9 7 10 6 11 5 12
REMARK SMILES IDX 4 13 3 14 2 15 1 16
REMARK H PARENT
REMARK Flexibility Score: inf
ROOT
ATOM      1  C   UNL     1      15.737 -31.078  23.142  1.00  0.00     0.000 C 
ENDROOT
BRANCH   1   2
ATOM      2  C   UNL     1      15.657 -30.762  21.641  1.00  0.00     0.000 C 
BRANCH   2   3
ATOM      3  C   UNL     1      14.315 -30.102  21.290  1.00  0.00     0.000 C 
BRANCH   3   4
ATOM      4  C   UNL     1      13.118 -30.802  21.952  1.00  0.00     0.000 C 
BRANCH   4   5
ATOM      5  C   UNL     1      12.131 -29.809  22.590  1.00  0.00     0.006 C 
BRANCH   5   6
ATOM      6  C   UNL     1      12.711 -29.140  23.842  1.00  0.00     0.053 C 
BRANCH   6   7
ATOM      7  C   UNL     1      12.198 -27.743  24.017  1.00  0.00     0.041 C 
ATOM      8  O   UNL     1      11.201 -27.347  23.356  1.00  0.00    -0.550 OA
ATOM      9  O   UNL     1      12.837 -26.869  24.887  1.00  0.00    -0.550 OA
ENDBRANCH   6   7
ENDBRANCH   5   6
ENDBRANCH   4   5
ENDBRANCH   3   4
ENDBRANCH   2   3
ENDBRANCH   1   2
BRANCH   1  10
ATOM     10  C   UNL     1      16.476 -32.393  23.434  1.00  0.00     0.000 C 
BRANCH  10  11
ATOM     11  C   UNL     1      15.592 -33.631  23.216  1.00  0.00    -0.000 C 
BRANCH  11  12
ATOM     12  C   UNL     1      16.065 -34.433  21.994  1.00  0.00    -0.000 C 
BRANCH  12  13
ATOM     13  C   UNL     1      15.091 -34.336  20.808  1.00  0.00    -0.000 C 
BRANCH  13  14
ATOM     14  C   UNL     1      15.799 -34.007  19.486  1.00  0.00    -0.000 C 
BRANCH  14  15
ATOM     15  C   UNL     1      17.210 -33.461  19.742  1.00  0.00    -0.003 C 
ATOM     16  C   UNL     1      18.260 -34.276  18.993  1.00  0.00     0.004 C 
ENDBRANCH  14  15
ENDBRANCH  13  14
ENDBRANCH  12  13
ENDBRANCH  11  12
ENDBRANCH  10  11
ENDBRANCH   1  10
TORSDOF 12
ENDMDL
MODEL 3
REMARK VINA RESULT:    -4.006      3.708      6.075
REMARK INTER + INTRA:          -9.072
REMARK INTER:                  -7.885
REMARK INTRA:                  -1.188
REMARK UNBOUND:                -2.256
REMARK SMILES CCCCCCCCCCCCCC(=O)[O-]
REMARK SMILES IDX 8 1 9 2 10 3 11 4 12 5 13 6 14 7 15 8 16 9 7 10 6 11 5 12
REMARK SMILES IDX 4 13 3 14 2 15 1 16
REMARK H PARENT
REMARK Flexibility Score: inf
ROOT
ATOM      1  C   UNL     1      14.946 -33.931  21.154  1.00  0.00     0.000 C 
ENDROOT
BRANCH   1   2
ATOM      2  C   UNL     1      14.148 -32.745  20.592  1.00  0.00     0.000 C 
BRANCH   2   3
ATOM      3  C   UNL     1      13.786 -31.750  21.704  1.00  0.00     0.000 C 
BRANCH   3   4
ATOM      4  C   UNL     1      14.170 -30.304  21.356  1.00  0.00     0.000 C 
BRANCH   4   5
ATOM      5  C   UNL     1      14.184 -29.382  22.588  1.00  0.00     0.006 C 
BRANCH   5   6
ATOM      6  C   UNL     1      13.019 -29.673  23.542  1.00  0.00     0.053 C 
BRANCH   6   7
ATOM      7  C   UNL     1      12.179 -28.456  23.785  1.00  0.00     0.041 C 
ATOM      8  O   UNL     1      12.536 -27.599  24.635  1.00  0.00    -0.550 OA
ATOM      9  O   UNL     1      10.987 -28.282  23.093  1.00  0.00    -0.550 OA
ENDBRANCH   6   7
ENDBRANCH   5   6
ENDBRANCH   4   5
ENDBRANCH   3   4
ENDBRANCH   2   3
ENDBRANCH   1   2
BRANCH   1  10
ATOM     10  C   UNL     1      15.403 -34.911  20.063  1.00  0.00     0.000 C 
BRANCH  10  11
ATOM     11  C   UNL     1      16.808 -35.475  20.322  1.00  0.00    -0.000 C 
BRANCH  11  12
ATOM     12  C   UNL     1      17.762 -35.119  19.171  1.00  0.00    -0.000 C 
BRANCH  12  13
ATOM     13  C   UNL     1      18.343 -33.702  19.300  1.00  0.00    -0.000 C 
BRANCH  13  14
ATOM     14  C   UNL     1      19.113 -33.494  20.612  1.00  0.00    -0.000 C 
BRANCH  14  15
ATOM     15  C   UNL     1      18.860 -32.092  21.180  1.00  0.00    -0.003 C 
ATOM     16  C   UNL     1      17.648 -31.441  20.520  1.00  0.00     0.004 C 
ENDBRANCH  14  15
ENDBRANCH  13  14
ENDBRANCH  12  13
ENDBRANCH  11  12
ENDBRANCH  10  11
ENDBRANCH   1  10
TORSDOF 12
ENDMDL
MODEL 4
REMARK VINA RESULT:    -4.000      2.717      4.456
REMARK INTER + INTRA:          -9.062
REMARK INTER:                  -7.551
REMARK INTRA:                  -1.511
REMARK UNBOUND:                -2.256
REMARK SMILES CCCCCCCCCCCCCC(=O)[O-]
REMARK SMILES IDX 8 1 9 2 10 3 11 4 12 5 13 6 14 7 15 8 16 9 7 10 6 11 5 12
REMARK SMILES IDX 4 13 3 14 2 15 1 16
REMARK H PARENT
REMARK Flexibility Score: inf
ROOT
ATOM      1  C   UNL     1      16.120 -35.025  19.759  1.00  0.00     0.000 C 
ENDROOT
BRANCH   1   2
ATOM      2  C   UNL     1      16.962 -33.971  19.024  1.00  0.00     0.000 C 
BRANCH   2   3
ATOM      3  C   UNL     1      18.434 -34.046  19.457  1.00  0.00     0.000 C 
BRANCH   3   4
ATOM      4  C   UNL     1      18.871 -32.831  20.290  1.00  0.00     0.000 C 
BRANCH   4   5
ATOM      5  C   UNL     1      17.737 -31.808  20.483  1.00  0.00     0.006 C 
BRANCH   5   6
ATOM      6  C   UNL     1      17.976 -30.901  21.697  1.00  0.00     0.053 C 
BRANCH   6   7
ATOM      7  C   UNL     1      17.662 -29.468  21.394  1.00  0.00     0.041 C 
ATOM      8  O   UNL     1      18.586 -28.668  21.087  1.00  0.00    -0.550 OA
ATOM      9  O   UNL     1      16.354 -29.008  21.476  1.00  0.00    -0.550 OA
ENDBRANCH   6   7
ENDBRANCH   5   6
ENDBRANCH   4   5
ENDBRANCH   3   4
ENDBRANCH   2   3
ENDBRANCH   1   2
BRANCH   1  10
ATOM     10  C   UNL     1      15.097 -34.402  20.722  1.00  0.00     0.000 C 
BRANCH  10  11
ATOM     11  C   UNL     1      14.242 -33.314  20.056  1.00  0.00    -0.000 C 
BRANCH  11  12
ATOM     12  C   UNL     1      14.028 -32.127  21.008  1.00  0.00    -0.000 C 
BRANCH  12  13
ATOM     13  C   UNL     1      14.449 -32.443  22.453  1.00  0.00    -0.000 C 
BRANCH  13  14
ATOM     14  C   UNL     1      14.480 -31.194  23.347  1.00  0.00    -0.000 C 
BRANCH  14  15
ATOM     15  C   UNL     1      13.118 -30.489  23.349  1.00  0.00    -0.003 C 
ATOM     16  C   UNL     1      13.282 -28.974  23.281  1.00  0.00     0.004 C 
ENDBRANCH  14  15
ENDBRANCH  13  14
ENDBRANCH  12  13
ENDBRANCH  11  12
ENDBRANCH  10  11
ENDBRANCH   1  10
TORSDOF 12
ENDMDL
MODEL 5
REMARK VINA RESULT:    -3.995      2.345      4.679
REMARK INTER + INTRA:          -9.053
REMARK INTER:                  -7.117
REMARK INTRA:                  -1.936
REMARK UNBOUND:                -2.256
REMARK SMILES CCCCCCCCCCCCCC(=O)[O-]
REMARK SMILES IDX 8 1 9 2 10 3 11 4 12 5 13 6 14 7 15 8 16 9 7 10 6 11 5 12
REMARK SMILES IDX 4 13 3 14 2 15 1 16
REMARK H PARENT
REMARK Flexibility Score: inf
ROOT
ATOM      1  C   UNL     1      18.144 -33.884  19.194  1.00  0.00     0.000 C 
ENDROOT
BRANCH   1   2
ATOM      2  C   UNL     1      18.994 -33.627  20.448  1.00  0.00     0.000 C 
BRANCH   2   3
ATOM      3  C   UNL     1      19.202 -32.121  20.669  1.00  0.00     0.000 C 
BRANCH   3   4
ATOM      4  C   UNL     1      18.176 -31.516  21.640  1.00  0.00     0.000 C 
BRANCH   4   5
ATOM      5  C   UNL     1      17.092 -30.696  20.920  1.00  0.00     0.006 C 
BRANCH   5   6
ATOM      6  C   UNL     1      16.480 -29.620  21.827  1.00  0.00     0.053 C 
BRANCH   6   7
ATOM      7  C   UNL     1      14.983 -29.675  21.827  1.00  0.00     0.041 C 
ATOM      8  O   UNL     1      14.368 -30.182  20.852  1.00  0.00    -0.550 OA
ATOM      9  O   UNL     1      14.265 -29.141  22.889  1.00  0.00    -0.550 OA
ENDBRANCH   6   7
ENDBRANCH   5   6
ENDBRANCH   4   5
ENDBRANCH   3   4
ENDBRANCH   2   3
ENDBRANCH   1   2
BRANCH   1  10
ATOM     10  C   UNL     1      17.589 -35.316  19.136  1.00  0.00     0.000 C 
BRANCH  10  11
ATOM     11  C   UNL     1      16.251 -35.464  19.875  1.00  0.00    -0.000 C 
BRANCH  11  12
ATOM     12  C   UNL     1      15.418 -34.177  19.762  1.00  0.00    -0.000 C 
BRANCH  12  13
ATOM     13  C   UNL     1      14.922 -33.670  21.126  1.00  0.00    -0.000 C 
BRANCH  13  14
ATOM     14  C   UNL     1      15.723 -34.251  22.300  1.00  0.00    -0.000 C 
BRANCH  14  15
ATOM     15  C   UNL     1      15.653 -33.325  23.522  1.00  0.00    -0.003 C 
ATOM     16  C   UNL     1      14.260 -32.723  23.677  1.00  0.00     0.004 C 
ENDBRANCH  14  15
ENDBRANCH  13  14
ENDBRANCH  12  13
ENDBRANCH  11  12
ENDBRANCH  10  11
ENDBRANCH   1  10
TORSDOF 12
ENDMDL
MODEL 6
REMARK VINA RESULT:    -3.983      2.989      4.995
REMARK INTER + INTRA:          -9.033
REMARK INTER:                  -6.997
REMARK INTRA:                  -2.037
REMARK UNBOUND:                -2.256
REMARK SMILES CCCCCCCCCCCCCC(=O)[O-]
REMARK SMILES IDX 8 1 9 2 10 3 11 4 12 5 13 6 14 7 15 8 16 9 7 10 6 11 5 12
REMARK SMILES IDX 4 13 3 14 2 15 1 16
REMARK H PARENT
REMARK Flexibility Score: inf
ROOT
ATOM      1  C   UNL     1      18.838 -33.877  22.598  1.00  0.00     0.000 C 
ENDROOT
BRANCH   1   2
ATOM      2  C   UNL     1      17.575 -34.696  22.904  1.00  0.00     0.000 C 
BRANCH   2   3
ATOM      3  C   UNL     1      16.314 -33.827  22.780  1.00  0.00     0.000 C 
BRANCH   3   4
ATOM      4  C   UNL     1      16.624 -32.323  22.810  1.00  0.00     0.000 C 
BRANCH   4   5
ATOM      5  C   UNL     1      15.671 -31.505  21.921  1.00  0.00     0.006 C 
BRANCH   5   6
ATOM      6  C   UNL     1      14.221 -31.995  22.021  1.00  0.00     0.053 C 
BRANCH   6   7
ATOM      7  C   UNL     1      13.562 -31.537  23.286  1.00  0.00     0.041 C 
ATOM      8  O   UNL     1      13.163 -30.348  23.398  1.00  0.00    -0.550 OA
ATOM      9  O   UNL     1      13.415 -32.414  24.353  1.00  0.00    -0.550 OA
ENDBRANCH   6   7
ENDBRANCH   5   6
ENDBRANCH   4   5
ENDBRANCH   3   4
ENDBRANCH   2   3
ENDBRANCH   1   2
BRANCH   1  10
ATOM     10  C   UNL     1      19.452 -34.221  21.232  1.00  0.00     0.000 C 
BRANCH  10  11
ATOM     11  C   UNL     1      18.971 -33.285  20.113  1.00  0.00    -0.000 C 
BRANCH  11  12
ATOM     12  C   UNL     1      18.328 -34.085  18.970  1.00  0.00    -0.000 C 
BRANCH  12  13
ATOM     13  C   UNL     1      16.793 -34.102  19.049  1.00  0.00    -0.000 C 
BRANCH  13  14
ATOM     14  C   UNL     1      16.237 -35.473  19.462  1.00  0.00    -0.000 C 
BRANCH  14  15
ATOM     15  C   UNL     1      17.231 -36.591  19.122  1.00  0.00    -0.003 C 
ATOM     16  C   UNL     1      17.618 -37.381  20.369  1.00  0.00     0.004 C 
ENDBRANCH  14  15
ENDBRANCH  13  14
ENDBRANCH  12  13
ENDBRANCH  11  12
ENDBRANCH  10  11
ENDBRANCH   1  10
TORSDOF 12
ENDMDL
MODEL 7
REMARK VINA RESULT:    -3.974      2.437      4.510
REMARK INTER + INTRA:          -9.018
REMARK INTER:                  -7.203
REMARK INTRA:                  -1.816
REMARK UNBOUND:                -2.256
REMARK SMILES CCCCCCCCCCCCCC(=O)[O-]
REMARK SMILES IDX 8 1 9 2 10 3 11 4 12 5 13 6 14 7 15 8 16 9 7 10 6 11 5 12
REMARK SMILES IDX 4 13 3 14 2 15 1 16
REMARK H PARENT
REMARK Flexibility Score: inf
ROOT
ATOM      1  C   UNL     1      19.068 -32.157  20.512  1.00  0.00     0.000 C 
ENDROOT
BRANCH   1   2
ATOM      2  C   UNL     1      18.508 -31.559  21.811  1.00  0.00     0.000 C 
BRANCH   2   3
ATOM      3  C   UNL     1      17.463 -30.474  21.510  1.00  0.00     0.000 C 
BRANCH   3   4
ATOM      4  C   UNL     1      16.470 -30.268  22.664  1.00  0.00     0.000 C 
BRANCH   4   5
ATOM      5  C   UNL     1      15.163 -29.596  22.207  1.00  0.00     0.006 C 
BRANCH   5   6
ATOM      6  C   UNL     1      14.413 -30.436  21.165  1.00  0.00     0.053 C 
BRANCH   6   7
ATOM      7  C   UNL     1      13.089 -30.911  21.679  1.00  0.00     0.041 C 
ATOM      8  O   UNL     1      12.965 -31.259  22.883  1.00  0.00    -0.550 OA
ATOM      9  O   UNL     1      11.998 -30.997  20.822  1.00  0.00    -0.550 OA
ENDBRANCH   6   7
ENDBRANCH   5   6
ENDBRANCH   4   5
ENDBRANCH   3   4
ENDBRANCH   2   3
ENDBRANCH   1   2
BRANCH   1  10
ATOM     10  C   UNL     1      18.783 -33.661  20.378  1.00  0.00     0.000 C 
BRANCH  10  11
ATOM     11  C   UNL     1      18.235 -34.040  18.994  1.00  0.00    -0.000 C 
BRANCH  11  12
ATOM     12  C   UNL     1      16.703 -34.152  19.024  1.00  0.00    -0.000 C 
BRANCH  12  13
ATOM     13  C   UNL     1      16.186 -34.880  20.276  1.00  0.00    -0.000 C 
BRANCH  13  14
ATOM     14  C   UNL     1      15.052 -34.117  20.977  1.00  0.00    -0.000 C 
BRANCH  14  15
ATOM     15  C   UNL     1      15.413 -33.822  22.439  1.00  0.00    -0.003 C 
ATOM     16  C   UNL     1      16.561 -34.709  22.913  1.00  0.00     0.004 C 
ENDBRANCH  14  15
ENDBRANCH  13  14
ENDBRANCH  12  13
ENDBRANCH  11  12
ENDBRANCH  10  11
ENDBRANCH   1  10
TORSDOF 12
ENDMDL
MODEL 8
REMARK VINA RESULT:    -3.941      3.753      5.698
REMARK INTER + INTRA:          -8.961
REMARK INTER:                  -7.506
REMARK INTRA:                  -1.455
REMARK UNBOUND:                -2.256
REMARK SMILES CCCCCCCCCCCCCC(=O)[O-]
REMARK SMILES IDX 8 1 9 2 10 3 11 4 12 5 13 6 14 7 15 8 16 9 7 10 6 11 5 12
REMARK SMILES IDX 4 13 3 14 2 15 1 16
REMARK H PARENT
REMARK Flexibility Score: inf
ROOT
ATOM      1  C   UNL     1      16.736 -30.492  22.881  1.00  0.00     0.000 C 
ENDROOT
BRANCH   1   2
ATOM      2  C   UNL     1      16.056 -31.674  23.590  1.00  0.00     0.000 C 
BRANCH   2   3
ATOM      3  C   UNL     1      14.761 -32.074  22.869  1.00  0.00     0.000 C 
BRANCH   3   4
ATOM      4  C   UNL     1      13.505 -31.491  23.535  1.00  0.00     0.000 C 
BRANCH   4   5
ATOM      5  C   UNL     1      12.903 -30.320  22.739  1.00  0.00     0.006 C 
BRANCH   5   6
ATOM      6  C   UNL     1      13.361 -28.958  23.275  1.00  0.00     0.053 C 
BRANCH   6   7
ATOM      7  C   UNL     1      12.221 -28.167  23.840  1.00  0.00     0.041 C 
ATOM      8  O   UNL     1      11.068 -28.277  23.345  1.00  0.00    -0.550 OA
ATOM      9  O   UNL     1      12.436 -27.288  24.893  1.00  0.00    -0.550 OA
ENDBRANCH   6   7
ENDBRANCH   5   6
ENDBRANCH   4   5
ENDBRANCH   3   4
ENDBRANCH   2   3
ENDBRANCH   1   2
BRANCH   1  10
ATOM     10  C   UNL     1      16.461 -30.468  21.370  1.00  0.00     0.000 C 
BRANCH  10  11
ATOM     11  C   UNL     1      17.653 -30.972  20.542  1.00  0.00    -0.000 C 
BRANCH  11  12
ATOM     12  C   UNL     1      17.521 -32.474  20.249  1.00  0.00    -0.000 C 
BRANCH  12  13
ATOM     13  C   UNL     1      18.883 -33.176  20.122  1.00  0.00    -0.000 C 
BRANCH  13  14
ATOM     14  C   UNL     1      18.986 -34.433  20.999  1.00  0.00    -0.000 C 
BRANCH  14  15
ATOM     15  C   UNL     1      18.380 -34.183  22.386  1.00  0.00    -0.003 C 
ATOM     16  C   UNL     1      17.265 -35.180  22.688  1.00  0.00     0.004 C 
ENDBRANCH  14  15
ENDBRANCH  13  14
ENDBRANCH  12  13
ENDBRANCH  11  12
ENDBRANCH  10  11
ENDBRANCH   1  10
TORSDOF 12
ENDMDL
MODEL 9
REMARK VINA RESULT:    -3.899      3.578      5.546
REMARK INTER + INTRA:          -8.890
REMARK INTER:                  -7.576
REMARK INTRA:                  -1.314
REMARK UNBOUND:                -2.256
REMARK SMILES CCCCCCCCCCCCCC(=O)[O-]
REMARK SMILES IDX 8 1 9 2 10 3 11 4 12 5 13 6 14 7 15 8 16 9 7 10 6 11 5 12
REMARK SMILES IDX 4 13 3 14 2 15 1 16
REMARK H PARENT
REMARK Flexibility Score: inf
ROOT
ATOM      1  C   UNL     1      14.984 -34.376  19.843  1.00  0.00     0.000 C 
ENDROOT
BRANCH   1   2
ATOM      2  C   UNL     1      15.047 -33.568  21.147  1.00  0.00     0.000 C 
BRANCH   2   3
ATOM      3  C   UNL     1      14.169 -32.311  21.057  1.00  0.00     0.000 C 
BRANCH   3   4
ATOM      4  C   UNL     1      13.733 -31.790  22.435  1.00  0.00     0.000 C 
BRANCH   4   5
ATOM      5  C   UNL     1      12.901 -30.499  22.344  1.00  0.00     0.006 C 
BRANCH   5   6
ATOM      6  C   UNL     1      13.280 -29.488  23.434  1.00  0.00     0.053 C 
BRANCH   6   7
ATOM      7  C   UNL     1      12.189 -28.489  23.672  1.00  0.00     0.041 C 
ATOM      8  O   UNL     1      12.352 -27.560  24.508  1.00  0.00    -0.550 OA
ATOM      9  O   UNL     1      10.982 -28.598  22.993  1.00  0.00    -0.550 OA
ENDBRANCH   6   7
ENDBRANCH   5   6
ENDBRANCH   4   5
ENDBRANCH   3   4
ENDBRANCH   2   3
ENDBRANCH   1   2
BRANCH   1  10
ATOM     10  C   UNL     1      16.332 -35.014  19.472  1.00  0.00     0.000 C 
BRANCH  10  11
ATOM     11  C   UNL     1      17.409 -33.971  19.138  1.00  0.00    -0.000 C 
BRANCH  11  12
ATOM     12  C   UNL     1      18.509 -33.958  20.211  1.00  0.00    -0.000 C 
BRANCH  12  13
ATOM     13  C   UNL     1      19.065 -32.548  20.473  1.00  0.00    -0.000 C 
BRANCH  13  14
ATOM     14  C   UNL     1      17.966 -31.476  20.510  1.00  0.00    -0.000 C 
BRANCH  14  15
ATOM     15  C   UNL     1      17.804 -30.907  21.926  1.00  0.00    -0.003 C 
ATOM     16  C   UNL     1      16.772 -29.784  21.954  1.00  0.00     0.004 C 
ENDBRANCH  14  15
ENDBRANCH  13  14
ENDBRANCH  12  13
ENDBRANCH  11  12
ENDBRANCH  10  11
ENDBRANCH   1  10
TORSDOF 12
ENDMDL
