MODEL 1
REMARK VINA RESULT:    -5.785      0.000      0.000
REMARK INTER + INTRA:          -6.123
REMARK INTER:                  -6.123
REMARK INTRA:                   0.000
REMARK UNBOUND:                 0.000
REMARK SMILES O=c1ccc2cc(O)c(O)cc2o1
REMARK SMILES IDX 4 1 3 2 2 3 1 4 13 5 12 6 11 7 9 8 7 9 6 10 5 11 8 12 10 14
REMARK H PARENT 8 13 10 15
REMARK Flexibility Score: inf
ROOT
ATOM      1  C   UNL     1      30.787  22.723  48.654  1.00  0.00     0.019 A 
ATOM      2  C   UNL     1      31.157  23.563  47.604  1.00  0.00     0.094 A 
ATOM      3  C   UNL     1      30.220  24.473  47.102  1.00  0.00     0.336 A 
ATOM      4  O   UNL     1      30.533  25.240  46.156  1.00  0.00    -0.246 OA
ATOM      5  O   UNL     1      28.995  24.532  47.621  1.00  0.00    -0.423 OA
ATOM      6  C   UNL     1      28.603  23.749  48.622  1.00  0.00     0.142 A 
ATOM      7  C   UNL     1      27.304  23.856  49.125  1.00  0.00     0.098 A 
ATOM      8  C   UNL     1      26.876  23.038  50.179  1.00  0.00     0.161 A 
ATOM      9  C   UNL     1      27.770  22.093  50.739  1.00  0.00     0.158 A 
ATOM     10  C   UNL     1      29.073  21.987  50.231  1.00  0.00     0.062 A 
ATOM     11  C   UNL     1      29.493  22.809  49.178  1.00  0.00     0.022 A 
ENDROOT
BRANCH   9  12
ATOM     12  O   UNL     1      27.412  21.246  51.789  1.00  0.00    -0.504 OA
ATOM     13  H   UNL     1      28.001  20.506  52.144  1.00  0.00     0.293 HD
ENDBRANCH   9  12
BRANCH   8  14
ATOM     14  O   UNL     1      25.566  23.197  50.635  1.00  0.00    -0.504 OA
ATOM     15  H   UNL     1      25.321  23.645  51.506  1.00  0.00     0.293 HD
ENDBRANCH   8  14
TORSDOF 2
ENDMDL
MODEL 2
REMARK VINA RESULT:    -5.595      2.223      2.632
REMARK INTER + INTRA:          -5.922
REMARK INTER:                  -5.922
REMARK INTRA:                   0.000
REMARK UNBOUND:                 0.000
REMARK SMILES O=c1ccc2cc(O)c(O)cc2o1
REMARK SMILES IDX 4 1 3 2 2 3 1 4 13 5 12 6 11 7 9 8 7 9 6 10 5 11 8 12 10 14
REMARK H PARENT 8 13 10 15
REMARK Flexibility Score: inf
ROOT
ATOM      1  C   UNL     1      30.935  22.775  51.247  1.00  0.00     0.019 A 
ATOM      2  C   UNL     1      31.607  22.125  50.213  1.00  0.00     0.094 A 
ATOM      3  C   UNL     1      30.942  21.911  49.001  1.00  0.00     0.336 A 
ATOM      4  O   UNL     1      31.531  21.328  48.055  1.00  0.00    -0.246 OA
ATOM      5  O   UNL     1      29.686  22.322  48.842  1.00  0.00    -0.423 OA
ATOM      6  C   UNL     1      29.009  22.945  49.804  1.00  0.00     0.142 A 
ATOM      7  C   UNL     1      27.692  23.352  49.579  1.00  0.00     0.098 A 
ATOM      8  C   UNL     1      26.966  24.009  50.581  1.00  0.00     0.161 A 
ATOM      9  C   UNL     1      27.575  24.262  51.835  1.00  0.00     0.158 A 
ATOM     10  C   UNL     1      28.896  23.851  52.058  1.00  0.00     0.062 A 
ATOM     11  C   UNL     1      29.615  23.195  51.050  1.00  0.00     0.022 A 
ENDROOT
BRANCH   9  12
ATOM     12  O   UNL     1      26.912  24.910  52.878  1.00  0.00    -0.504 OA
ATOM     13  H   UNL     1      25.995  24.650  53.213  1.00  0.00     0.293 HD
ENDBRANCH   9  12
BRANCH   8  14
ATOM     14  O   UNL     1      25.654  24.391  50.290  1.00  0.00    -0.504 OA
ATOM     15  H   UNL     1      24.896  24.357  50.955  1.00  0.00     0.293 HD
ENDBRANCH   8  14
TORSDOF 2
ENDMDL
MODEL 3
REMARK VINA RESULT:    -5.553      2.167      2.430
REMARK INTER + INTRA:          -5.878
REMARK INTER:                  -5.878
REMARK INTRA:                   0.000
REMARK UNBOUND:                 0.000
REMARK SMILES O=c1ccc2cc(O)c(O)cc2o1
REMARK SMILES IDX 4 1 3 2 2 3 1 4 13 5 12 6 11 7 9 8 7 9 6 10 5 11 8 12 10 14
REMARK H PARENT 8 13 10 15
REMARK Flexibility Score: inf
ROOT
ATOM      1  C   UNL     1      29.488  23.837  48.595  1.00  0.00     0.019 A 
ATOM      2  C   UNL     1      28.919  23.898  47.323  1.00  0.00     0.094 A 
ATOM      3  C   UNL     1      27.536  24.074  47.207  1.00  0.00     0.336 A 
ATOM      4  O   UNL     1      27.004  24.132  46.069  1.00  0.00    -0.246 OA
ATOM      5  O   UNL     1      26.778  24.180  48.296  1.00  0.00    -0.423 OA
ATOM      6  C   UNL     1      27.281  24.127  49.527  1.00  0.00     0.142 A 
ATOM      7  C   UNL     1      26.435  24.244  50.633  1.00  0.00     0.098 A 
ATOM      8  C   UNL     1      26.949  24.190  51.935  1.00  0.00     0.161 A 
ATOM      9  C   UNL     1      28.341  24.015  52.131  1.00  0.00     0.158 A 
ATOM     10  C   UNL     1      29.187  23.896  51.019  1.00  0.00     0.062 A 
ATOM     11  C   UNL     1      28.665  23.952  49.721  1.00  0.00     0.022 A 
ENDROOT
BRANCH   9  12
ATOM     12  O   UNL     1      28.922  23.951  53.399  1.00  0.00    -0.504 OA
ATOM     13  H   UNL     1      28.410  24.067  54.261  1.00  0.00     0.293 HD
ENDBRANCH   9  12
BRANCH   8  14
ATOM     14  O   UNL     1      26.049  24.315  52.996  1.00  0.00    -0.504 OA
ATOM     15  H   UNL     1      25.077  24.052  52.945  1.00  0.00     0.293 HD
ENDBRANCH   8  14
TORSDOF 2
ENDMDL
MODEL 4
REMARK VINA RESULT:    -5.464      2.206      3.033
REMARK INTER + INTRA:          -5.783
REMARK INTER:                  -5.783
REMARK INTRA:                   0.000
REMARK UNBOUND:                 0.000
REMARK SMILES O=c1ccc2cc(O)c(O)cc2o1
REMARK SMILES IDX 4 1 3 2 2 3 1 4 13 5 12 6 11 7 9 8 7 9 6 10 5 11 8 12 10 14
REMARK H PARENT 8 13 10 15
REMARK Flexibility Score: inf
ROOT
ATOM      1  C   UNL     1      26.689  22.294  49.203  1.00  0.00     0.019 A 
ATOM      2  C   UNL     1      27.278  22.737  48.020  1.00  0.00     0.094 A 
ATOM      3  C   UNL     1      28.138  23.840  48.063  1.00  0.00     0.336 A 
ATOM      4  O   UNL     1      28.680  24.255  47.007  1.00  0.00    -0.246 OA
ATOM      5  O   UNL     1      28.386  24.454  49.218  1.00  0.00    -0.423 OA
ATOM      6  C   UNL     1      27.845  24.063  50.368  1.00  0.00     0.142 A 
ATOM      7  C   UNL     1      28.142  24.748  51.549  1.00  0.00     0.098 A 
ATOM      8  C   UNL     1      27.580  24.348  52.768  1.00  0.00     0.161 A 
ATOM      9  C   UNL     1      26.700  23.239  52.803  1.00  0.00     0.158 A 
ATOM     10  C   UNL     1      26.402  22.554  51.616  1.00  0.00     0.062 A 
ATOM     11  C   UNL     1      26.969  22.960  50.401  1.00  0.00     0.022 A 
ENDROOT
BRANCH   9  12
ATOM     12  O   UNL     1      26.103  22.786  53.980  1.00  0.00    -0.504 OA
ATOM     13  H   UNL     1      25.444  23.326  54.523  1.00  0.00     0.293 HD
ENDBRANCH   9  12
BRANCH   8  14
ATOM     14  O   UNL     1      27.920  25.075  53.911  1.00  0.00    -0.504 OA
ATOM     15  H   UNL     1      28.343  24.670  54.733  1.00  0.00     0.293 HD
ENDBRANCH   8  14
TORSDOF 2
ENDMDL
MODEL 5
REMARK VINA RESULT:    -5.454      2.500      3.585
REMARK INTER + INTRA:          -5.773
REMARK INTER:                  -5.773
REMARK INTRA:                   0.000
REMARK UNBOUND:                 0.000
REMARK SMILES O=c1ccc2cc(O)c(O)cc2o1
REMARK SMILES IDX 4 1 3 2 2 3 1 4 13 5 12 6 11 7 9 8 7 9 6 10 5 11 8 12 10 14
REMARK H PARENT 8 13 10 15
REMARK Flexibility Score: inf
ROOT
ATOM      1  C   UNL     1      27.845  24.532  50.371  1.00  0.00     0.019 A 
ATOM      2  C   UNL     1      27.914  24.229  49.012  1.00  0.00     0.094 A 
ATOM      3  C   UNL     1      27.334  23.042  48.552  1.00  0.00     0.336 A 
ATOM      4  O   UNL     1      27.385  22.750  47.329  1.00  0.00    -0.246 OA
ATOM      5  O   UNL     1      26.726  22.217  49.402  1.00  0.00    -0.423 OA
ATOM      6  C   UNL     1      26.639  22.469  50.706  1.00  0.00     0.142 A 
ATOM      7  C   UNL     1      25.989  21.565  51.550  1.00  0.00     0.098 A 
ATOM      8  C   UNL     1      25.889  21.816  52.924  1.00  0.00     0.161 A 
ATOM      9  C   UNL     1      26.452  22.999  53.463  1.00  0.00     0.158 A 
ATOM     10  C   UNL     1      27.105  23.904  52.613  1.00  0.00     0.062 A 
ATOM     11  C   UNL     1      27.200  23.646  51.240  1.00  0.00     0.022 A 
ENDROOT
BRANCH   9  12
ATOM     12  O   UNL     1      26.391  23.313  54.821  1.00  0.00    -0.504 OA
ATOM     13  H   UNL     1      26.991  22.905  55.523  1.00  0.00     0.293 HD
ENDBRANCH   9  12
BRANCH   8  14
ATOM     14  O   UNL     1      25.226  20.872  53.712  1.00  0.00    -0.504 OA
ATOM     15  H   UNL     1      24.402  21.072  54.258  1.00  0.00     0.293 HD
ENDBRANCH   8  14
TORSDOF 2
ENDMDL
MODEL 6
REMARK VINA RESULT:    -5.437      2.097      2.950
REMARK INTER + INTRA:          -5.755
REMARK INTER:                  -5.755
REMARK INTRA:                   0.000
REMARK UNBOUND:                 0.000
REMARK SMILES O=c1ccc2cc(O)c(O)cc2o1
REMARK SMILES IDX 4 1 3 2 2 3 1 4 13 5 12 6 11 7 9 8 7 9 6 10 5 11 8 12 10 14
REMARK H PARENT 8 13 10 15
REMARK Flexibility Score: inf
ROOT
ATOM      1  C   UNL     1      28.463  24.259  48.652  1.00  0.00     0.019 A 
ATOM      2  C   UNL     1      29.550  23.787  47.916  1.00  0.00     0.094 A 
ATOM      3  C   UNL     1      30.505  22.989  48.555  1.00  0.00     0.336 A 
ATOM      4  O   UNL     1      31.493  22.553  47.909  1.00  0.00    -0.246 OA
ATOM      5  O   UNL     1      30.376  22.688  49.845  1.00  0.00    -0.423 OA
ATOM      6  C   UNL     1      29.355  23.118  50.582  1.00  0.00     0.142 A 
ATOM      7  C   UNL     1      29.273  22.770  51.933  1.00  0.00     0.098 A 
ATOM      8  C   UNL     1      28.205  23.215  52.722  1.00  0.00     0.161 A 
ATOM      9  C   UNL     1      27.198  24.027  52.143  1.00  0.00     0.158 A 
ATOM     10  C   UNL     1      27.283  24.375  50.788  1.00  0.00     0.062 A 
ATOM     11  C   UNL     1      28.355  23.926  50.006  1.00  0.00     0.022 A 
ENDROOT
BRANCH   9  12
ATOM     12  O   UNL     1      26.106  24.506  52.869  1.00  0.00    -0.504 OA
ATOM     13  H   UNL     1      25.718  24.043  53.678  1.00  0.00     0.293 HD
ENDBRANCH   9  12
BRANCH   8  14
ATOM     14  O   UNL     1      28.182  22.830  54.064  1.00  0.00    -0.504 OA
ATOM     15  H   UNL     1      28.262  21.875  54.379  1.00  0.00     0.293 HD
ENDBRANCH   8  14
TORSDOF 2
ENDMDL
MODEL 7
REMARK VINA RESULT:    -5.360      1.335      2.382
REMARK INTER + INTRA:          -5.673
REMARK INTER:                  -5.673
REMARK INTRA:                   0.000
REMARK UNBOUND:                 0.000
REMARK SMILES O=c1ccc2cc(O)c(O)cc2o1
REMARK SMILES IDX 4 1 3 2 2 3 1 4 13 5 12 6 11 7 9 8 7 9 6 10 5 11 8 12 10 14
REMARK H PARENT 8 13 10 15
REMARK Flexibility Score: inf
ROOT
ATOM      1  C   UNL     1      27.192  23.587  47.523  1.00  0.00     0.019 A 
ATOM      2  C   UNL     1      28.237  24.250  46.881  1.00  0.00     0.094 A 
ATOM      3  C   UNL     1      29.511  24.225  47.458  1.00  0.00     0.336 A 
ATOM      4  O   UNL     1      30.468  24.816  46.894  1.00  0.00    -0.246 OA
ATOM      5  O   UNL     1      29.719  23.578  48.603  1.00  0.00    -0.423 OA
ATOM      6  C   UNL     1      28.749  22.934  49.247  1.00  0.00     0.142 A 
ATOM      7  C   UNL     1      29.027  22.273  50.446  1.00  0.00     0.098 A 
ATOM      8  C   UNL     1      28.017  21.590  51.136  1.00  0.00     0.161 A 
ATOM      9  C   UNL     1      26.701  21.571  50.612  1.00  0.00     0.158 A 
ATOM     10  C   UNL     1      26.425  22.236  49.410  1.00  0.00     0.062 A 
ATOM     11  C   UNL     1      27.440  22.916  48.725  1.00  0.00     0.022 A 
ENDROOT
BRANCH   9  12
ATOM     12  O   UNL     1      25.646  20.912  51.246  1.00  0.00    -0.504 OA
ATOM     13  H   UNL     1      25.756  20.080  51.808  1.00  0.00     0.293 HD
ENDBRANCH   9  12
BRANCH   8  14
ATOM     14  O   UNL     1      28.362  20.949  52.328  1.00  0.00    -0.504 OA
ATOM     15  H   UNL     1      28.249  21.359  53.243  1.00  0.00     0.293 HD
ENDBRANCH   8  14
TORSDOF 2
ENDMDL
MODEL 8
REMARK VINA RESULT:    -5.348     11.466     12.880
REMARK INTER + INTRA:          -5.660
REMARK INTER:                  -5.660
REMARK INTRA:                   0.000
REMARK UNBOUND:                 0.000
REMARK SMILES O=c1ccc2cc(O)c(O)cc2o1
REMARK SMILES IDX 4 1 3 2 2 3 1 4 13 5 12 6 11 7 9 8 7 9 6 10 5 11 8 12 10 14
REMARK H PARENT 8 13 10 15
REMARK Flexibility Score: inf
ROOT
ATOM      1  C   UNL     1      15.969  25.384  45.065  1.00  0.00     0.019 A 
ATOM      2  C   UNL     1      15.937  24.214  44.307  1.00  0.00     0.094 A 
ATOM      3  C   UNL     1      17.015  23.922  43.465  1.00  0.00     0.336 A 
ATOM      4  O   UNL     1      17.005  22.871  42.774  1.00  0.00    -0.246 OA
ATOM      5  O   UNL     1      18.053  24.751  43.390  1.00  0.00    -0.423 OA
ATOM      6  C   UNL     1      18.123  25.877  44.095  1.00  0.00     0.142 A 
ATOM      7  C   UNL     1      19.239  26.709  43.974  1.00  0.00     0.098 A 
ATOM      8  C   UNL     1      19.328  27.898  44.710  1.00  0.00     0.161 A 
ATOM      9  C   UNL     1      18.274  28.259  45.585  1.00  0.00     0.158 A 
ATOM     10  C   UNL     1      17.155  27.423  45.703  1.00  0.00     0.062 A 
ATOM     11  C   UNL     1      17.074  26.236  44.965  1.00  0.00     0.022 A 
ENDROOT
BRANCH   9  12
ATOM     12  O   UNL     1      18.294  29.428  46.348  1.00  0.00    -0.504 OA
ATOM     13  H   UNL     1      18.882  30.224  46.146  1.00  0.00     0.293 HD
ENDBRANCH   9  12
BRANCH   8  14
ATOM     14  O   UNL     1      20.470  28.683  44.543  1.00  0.00    -0.504 OA
ATOM     15  H   UNL     1      20.825  28.982  43.647  1.00  0.00     0.293 HD
ENDBRANCH   8  14
TORSDOF 2
ENDMDL
MODEL 9
REMARK VINA RESULT:    -5.105      2.015      3.548
REMARK INTER + INTRA:          -5.404
REMARK INTER:                  -5.404
REMARK INTRA:                   0.000
REMARK UNBOUND:                 0.000
REMARK SMILES O=c1ccc2cc(O)c(O)cc2o1
REMARK SMILES IDX 4 1 3 2 2 3 1 4 13 5 12 6 11 7 9 8 7 9 6 10 5 11 8 12 10 14
REMARK H PARENT 8 13 10 15
REMARK Flexibility Score: inf
ROOT
ATOM      1  C   UNL     1      31.025  22.384  49.025  1.00  0.00     0.019 A 
ATOM      2  C   UNL     1      31.826  21.946  50.080  1.00  0.00     0.094 A 
ATOM      3  C   UNL     1      31.336  22.039  51.387  1.00  0.00     0.336 A 
ATOM      4  O   UNL     1      32.042  21.648  52.351  1.00  0.00    -0.246 OA
ATOM      5  O   UNL     1      30.125  22.541  51.617  1.00  0.00    -0.423 OA
ATOM      6  C   UNL     1      29.330  22.971  50.640  1.00  0.00     0.142 A 
ATOM      7  C   UNL     1      28.068  23.488  50.943  1.00  0.00     0.098 A 
ATOM      8  C   UNL     1      27.220  23.945  49.926  1.00  0.00     0.161 A 
ATOM      9  C   UNL     1      27.647  23.881  48.577  1.00  0.00     0.158 A 
ATOM     10  C   UNL     1      28.915  23.362  48.276  1.00  0.00     0.062 A 
ATOM     11  C   UNL     1      29.757  22.907  49.299  1.00  0.00     0.022 A 
ENDROOT
BRANCH   9  12
ATOM     12  O   UNL     1      26.856  24.318  47.513  1.00  0.00    -0.504 OA
ATOM     13  H   UNL     1      26.629  23.751  46.708  1.00  0.00     0.293 HD
ENDBRANCH   9  12
BRANCH   8  14
ATOM     14  O   UNL     1      25.972  24.449  50.297  1.00  0.00    -0.504 OA
ATOM     15  H   UNL     1      25.316  23.958  50.886  1.00  0.00     0.293 HD
ENDBRANCH   8  14
TORSDOF 2
ENDMDL
