MODEL 1
REMARK VINA RESULT:    -7.493      0.000      0.000
REMARK INTER + INTRA:          -9.355
REMARK INTER:                  -9.026
REMARK INTRA:                  -0.329
REMARK UNBOUND:                -0.329
REMARK SMILES O=c1c(O)c(-c2ccc(O)c(O)c2)oc2cc(O)cc(O)c12
REMARK SMILES IDX 5 1 3 2 2 3 1 4 22 5 20 6 19 7 17 8 16 9 15 10 14 11 6 12
REMARK SMILES IDX 7 13 8 14 9 15 13 16 11 17 10 18 12 20 4 22 21 24 18 26
REMARK H PARENT 10 19 12 21 4 23 21 25 18 27
REMARK Flexibility Score: inf
ROOT
ATOM      1  C   UNL     1      18.472 -11.281  18.961  1.00  0.00     0.180 A 
ATOM      2  C   UNL     1      17.871 -10.093  18.510  1.00  0.00     0.208 A 
ATOM      3  C   UNL     1      17.942  -8.945  19.315  1.00  0.00     0.238 A 
ATOM      4  O   UNL     1      17.356  -7.900  18.930  1.00  0.00    -0.285 OA
ATOM      5  C   UNL     1      18.626  -8.994  20.554  1.00  0.00     0.111 A 
ATOM      6  C   UNL     1      18.793  -7.883  21.432  1.00  0.00     0.134 A 
ATOM      7  C   UNL     1      19.373  -8.077  22.691  1.00  0.00     0.093 A 
ATOM      8  C   UNL     1      19.852  -9.333  23.077  1.00  0.00     0.123 A 
ATOM      9  C   UNL     1      19.746 -10.412  22.203  1.00  0.00     0.094 A 
ATOM     10  C   UNL     1      19.139 -10.256  20.955  1.00  0.00     0.146 A 
ATOM     11  O   UNL     1      19.049 -11.313  20.156  1.00  0.00    -0.452 OA
ENDROOT
BRANCH   1  12
ATOM     12  C   UNL     1      18.462 -12.524  18.157  1.00  0.00     0.025 A 
ATOM     13  C   UNL     1      17.417 -13.444  18.321  1.00  0.00     0.016 A 
ATOM     14  C   UNL     1      17.397 -14.631  17.588  1.00  0.00     0.051 A 
ATOM     15  C   UNL     1      18.427 -14.932  16.689  1.00  0.00     0.157 A 
ATOM     16  C   UNL     1      19.509 -12.833  17.271  1.00  0.00     0.062 A 
ATOM     17  C   UNL     1      19.500 -14.024  16.534  1.00  0.00     0.158 A 
BRANCH  15  18
ATOM     18  O   UNL     1      18.344 -16.133  15.980  1.00  0.00    -0.504 OA
ATOM     19  H   UNL     1      18.939 -16.931  16.152  1.00  0.00     0.293 HD
ENDBRANCH  15  18
BRANCH  17  20
ATOM     20  O   UNL     1      20.572 -14.264  15.671  1.00  0.00    -0.504 OA
ATOM     21  H   UNL     1      20.785 -15.167  15.273  1.00  0.00     0.293 HD
ENDBRANCH  17  20
ENDBRANCH   1  12
BRANCH   2  22
ATOM     22  O   UNL     1      17.183 -10.072  17.293  1.00  0.00    -0.502 OA
ATOM     23  H   UNL     1      17.657 -10.125  16.399  1.00  0.00     0.293 HD
ENDBRANCH   2  22
BRANCH   6  24
ATOM     24  O   UNL     1      18.435  -6.571  21.106  1.00  0.00    -0.507 OA
ATOM     25  H   UNL     1      19.087  -5.813  20.975  1.00  0.00     0.293 HD
ENDBRANCH   6  24
BRANCH   8  26
ATOM     26  O   UNL     1      20.441  -9.515  24.326  1.00  0.00    -0.508 OA
ATOM     27  H   UNL     1      19.931  -9.931  25.097  1.00  0.00     0.293 HD
ENDBRANCH   8  26
TORSDOF 6
ENDMDL
MODEL 2
REMARK VINA RESULT:    -6.950      1.693      7.294
REMARK INTER + INTRA:          -8.701
REMARK INTER:                  -8.384
REMARK INTRA:                  -0.317
REMARK UNBOUND:                -0.329
REMARK SMILES O=c1c(O)c(-c2ccc(O)c(O)c2)oc2cc(O)cc(O)c12
REMARK SMILES IDX 5 1 3 2 2 3 1 4 22 5 20 6 19 7 17 8 16 9 15 10 14 11 6 12
REMARK SMILES IDX 7 13 8 14 9 15 13 16 11 17 10 18 12 20 4 22 21 24 18 26
REMARK H PARENT 10 19 12 21 4 23 21 25 18 27
REMARK Flexibility Score: inf
ROOT
ATOM      1  C   UNL     1      18.506 -11.541  18.081  1.00  0.00     0.180 A 
ATOM      2  C   UNL     1      17.809 -12.679  18.521  1.00  0.00     0.208 A 
ATOM      3  C   UNL     1      17.839 -13.842  17.735  1.00  0.00     0.238 A 
ATOM      4  O   UNL     1      17.169 -14.841  18.107  1.00  0.00    -0.285 OA
ATOM      5  C   UNL     1      18.579 -13.858  16.528  1.00  0.00     0.111 A 
ATOM      6  C   UNL     1      18.712 -14.993  15.673  1.00  0.00     0.134 A 
ATOM      7  C   UNL     1      19.359 -14.857  14.439  1.00  0.00     0.093 A 
ATOM      8  C   UNL     1      19.936 -13.642  14.058  1.00  0.00     0.123 A 
ATOM      9  C   UNL     1      19.863 -12.544  14.912  1.00  0.00     0.094 A 
ATOM     10  C   UNL     1      19.192 -12.639  16.134  1.00  0.00     0.146 A 
ATOM     11  O   UNL     1      19.136 -11.566  16.913  1.00  0.00    -0.452 OA
ENDROOT
BRANCH   1  12
ATOM     12  C   UNL     1      18.542 -10.286  18.868  1.00  0.00     0.025 A 
ATOM     13  C   UNL     1      17.719  -9.215  18.495  1.00  0.00     0.016 A 
ATOM     14  C   UNL     1      17.750  -8.017  19.210  1.00  0.00     0.051 A 
ATOM     15  C   UNL     1      18.615  -7.858  20.299  1.00  0.00     0.157 A 
ATOM     16  C   UNL     1      19.427 -10.124  19.947  1.00  0.00     0.062 A 
ATOM     17  C   UNL     1      19.469  -8.923  20.668  1.00  0.00     0.158 A 
BRANCH  15  18
ATOM     18  O   UNL     1      18.593  -6.637  20.977  1.00  0.00    -0.504 OA
ATOM     19  H   UNL     1      18.825  -6.530  21.954  1.00  0.00     0.293 HD
ENDBRANCH  15  18
BRANCH  17  20
ATOM     20  O   UNL     1      20.371  -8.833  21.731  1.00  0.00    -0.504 OA
ATOM     21  H   UNL     1      21.301  -9.229  21.717  1.00  0.00     0.293 HD
ENDBRANCH  17  20
ENDBRANCH   1  12
BRANCH   2  22
ATOM     22  O   UNL     1      17.067 -12.636  19.705  1.00  0.00    -0.502 OA
ATOM     23  H   UNL     1      16.752 -11.766  20.117  1.00  0.00     0.293 HD
ENDBRANCH   2  22
BRANCH   6  24
ATOM     24  O   UNL     1      18.254 -16.273  15.999  1.00  0.00    -0.507 OA
ATOM     25  H   UNL     1      17.385 -16.671  15.677  1.00  0.00     0.293 HD
ENDBRANCH   6  24
BRANCH   8  26
ATOM     26  O   UNL     1      20.591 -13.519  12.836  1.00  0.00    -0.508 OA
ATOM     27  H   UNL     1      21.500 -13.076  12.764  1.00  0.00     0.293 HD
ENDBRANCH   8  26
TORSDOF 6
ENDMDL
MODEL 3
REMARK VINA RESULT:    -6.873      1.975      7.453
REMARK INTER + INTRA:          -8.608
REMARK INTER:                  -8.287
REMARK INTRA:                  -0.322
REMARK UNBOUND:                -0.329
REMARK SMILES O=c1c(O)c(-c2ccc(O)c(O)c2)oc2cc(O)cc(O)c12
REMARK SMILES IDX 5 1 3 2 2 3 1 4 22 5 20 6 19 7 17 8 16 9 15 10 14 11 6 12
REMARK SMILES IDX 7 13 8 14 9 15 13 16 11 17 10 18 12 20 4 22 21 24 18 26
REMARK H PARENT 10 19 12 21 4 23 21 25 18 27
REMARK Flexibility Score: inf
ROOT
ATOM      1  C   UNL     1      18.237 -11.828  17.763  1.00  0.00     0.180 A 
ATOM      2  C   UNL     1      17.636 -13.022  18.199  1.00  0.00     0.208 A 
ATOM      3  C   UNL     1      17.800 -14.187  17.432  1.00  0.00     0.238 A 
ATOM      4  O   UNL     1      17.215 -15.239  17.799  1.00  0.00    -0.285 OA
ATOM      5  C   UNL     1      18.576 -14.148  16.249  1.00  0.00     0.111 A 
ATOM      6  C   UNL     1      18.842 -15.276  15.417  1.00  0.00     0.134 A 
ATOM      7  C   UNL     1      19.513 -15.095  14.201  1.00  0.00     0.093 A 
ATOM      8  C   UNL     1      19.984 -13.836  13.819  1.00  0.00     0.123 A 
ATOM      9  C   UNL     1      19.781 -12.739  14.653  1.00  0.00     0.094 A 
ATOM     10  C   UNL     1      19.084 -12.882  15.855  1.00  0.00     0.146 A 
ATOM     11  O   UNL     1      18.903 -11.809  16.614  1.00  0.00    -0.452 OA
ENDROOT
BRANCH   1  12
ATOM     12  C   UNL     1      18.129 -10.566  18.530  1.00  0.00     0.025 A 
ATOM     13  C   UNL     1      19.044 -10.304  19.559  1.00  0.00     0.016 A 
ATOM     14  C   UNL     1      18.949  -9.130  20.307  1.00  0.00     0.051 A 
ATOM     15  C   UNL     1      17.931  -8.203  20.056  1.00  0.00     0.157 A 
ATOM     16  C   UNL     1      17.092  -9.649  18.288  1.00  0.00     0.062 A 
ATOM     17  C   UNL     1      16.986  -8.470  19.038  1.00  0.00     0.158 A 
BRANCH  15  18
ATOM     18  O   UNL     1      17.895  -7.045  20.836  1.00  0.00    -0.504 OA
ATOM     19  H   UNL     1      17.246  -6.285  20.689  1.00  0.00     0.293 HD
ENDBRANCH  15  18
BRANCH  17  20
ATOM     20  O   UNL     1      15.932  -7.602  18.741  1.00  0.00    -0.504 OA
ATOM     21  H   UNL     1      14.961  -7.810  18.928  1.00  0.00     0.293 HD
ENDBRANCH  17  20
ENDBRANCH   1  12
BRANCH   2  22
ATOM     22  O   UNL     1      16.856 -13.033  19.359  1.00  0.00    -0.502 OA
ATOM     23  H   UNL     1      16.996 -13.708  20.101  1.00  0.00     0.293 HD
ENDBRANCH   2  22
BRANCH   6  24
ATOM     24  O   UNL     1      18.496 -16.589  15.749  1.00  0.00    -0.507 OA
ATOM     25  H   UNL     1      18.948 -17.139  16.463  1.00  0.00     0.293 HD
ENDBRANCH   6  24
BRANCH   8  26
ATOM     26  O   UNL     1      20.663 -13.667  12.615  1.00  0.00    -0.508 OA
ATOM     27  H   UNL     1      20.225 -13.877  11.725  1.00  0.00     0.293 HD
ENDBRANCH   8  26
TORSDOF 6
ENDMDL
MODEL 4
REMARK VINA RESULT:    -6.576      1.665      3.363
REMARK INTER + INTRA:          -8.250
REMARK INTER:                  -7.972
REMARK INTRA:                  -0.278
REMARK UNBOUND:                -0.329
REMARK SMILES O=c1c(O)c(-c2ccc(O)c(O)c2)oc2cc(O)cc(O)c12
REMARK SMILES IDX 5 1 3 2 2 3 1 4 22 5 20 6 19 7 17 8 16 9 15 10 14 11 6 12
REMARK SMILES IDX 7 13 8 14 9 15 13 16 11 17 10 18 12 20 4 22 21 24 18 26
REMARK H PARENT 10 19 12 21 4 23 21 25 18 27
REMARK Flexibility Score: inf
ROOT
ATOM      1  C   UNL     1      19.789 -12.172  18.566  1.00  0.00     0.180 A 
ATOM      2  C   UNL     1      20.706 -12.531  19.570  1.00  0.00     0.208 A 
ATOM      3  C   UNL     1      20.780 -11.751  20.735  1.00  0.00     0.238 A 
ATOM      4  O   UNL     1      21.639 -12.047  21.606  1.00  0.00    -0.285 OA
ATOM      5  C   UNL     1      19.928 -10.632  20.889  1.00  0.00     0.111 A 
ATOM      6  C   UNL     1      19.890  -9.795  22.044  1.00  0.00     0.134 A 
ATOM      7  C   UNL     1      19.101  -8.638  22.034  1.00  0.00     0.093 A 
ATOM      8  C   UNL     1      18.297  -8.324  20.934  1.00  0.00     0.123 A 
ATOM      9  C   UNL     1      18.282  -9.167  19.826  1.00  0.00     0.094 A 
ATOM     10  C   UNL     1      19.087 -10.308  19.792  1.00  0.00     0.146 A 
ATOM     11  O   UNL     1      19.051 -11.078  18.711  1.00  0.00    -0.452 OA
ENDROOT
BRANCH   1  12
ATOM     12  C   UNL     1      19.635 -12.959  17.321  1.00  0.00     0.025 A 
ATOM     13  C   UNL     1      20.108 -12.436  16.110  1.00  0.00     0.016 A 
ATOM     14  C   UNL     1      19.956 -13.152  14.922  1.00  0.00     0.051 A 
ATOM     15  C   UNL     1      19.315 -14.396  14.916  1.00  0.00     0.157 A 
ATOM     16  C   UNL     1      18.971 -14.198  17.316  1.00  0.00     0.062 A 
ATOM     17  C   UNL     1      18.810 -14.922  16.128  1.00  0.00     0.158 A 
BRANCH  15  18
ATOM     18  O   UNL     1      19.201 -15.066  13.696  1.00  0.00    -0.504 OA
ATOM     19  H   UNL     1      18.691 -14.707  12.901  1.00  0.00     0.293 HD
ENDBRANCH  15  18
BRANCH  17  20
ATOM     20  O   UNL     1      18.142 -16.148  16.198  1.00  0.00    -0.504 OA
ATOM     21  H   UNL     1      18.606 -17.037  16.315  1.00  0.00     0.293 HD
ENDBRANCH  17  20
ENDBRANCH   1  12
BRANCH   2  22
ATOM     22  O   UNL     1      21.553 -13.628  19.388  1.00  0.00    -0.502 OA
ATOM     23  H   UNL     1      21.674 -14.345  20.094  1.00  0.00     0.293 HD
ENDBRANCH   2  22
BRANCH   6  24
ATOM     24  O   UNL     1      20.582 -10.067  23.228  1.00  0.00    -0.507 OA
ATOM     25  H   UNL     1      21.547  -9.828  23.397  1.00  0.00     0.293 HD
ENDBRANCH   6  24
BRANCH   8  26
ATOM     26  O   UNL     1      17.503  -7.180  20.938  1.00  0.00    -0.508 OA
ATOM     27  H   UNL     1      17.694  -6.401  20.318  1.00  0.00     0.293 HD
ENDBRANCH   8  26
TORSDOF 6
ENDMDL
MODEL 5
REMARK VINA RESULT:    -6.551      1.858      7.048
REMARK INTER + INTRA:          -8.221
REMARK INTER:                  -7.892
REMARK INTRA:                  -0.329
REMARK UNBOUND:                -0.329
REMARK SMILES O=c1c(O)c(-c2ccc(O)c(O)c2)oc2cc(O)cc(O)c12
REMARK SMILES IDX 5 1 3 2 2 3 1 4 22 5 20 6 19 7 17 8 16 9 15 10 14 11 6 12
REMARK SMILES IDX 7 13 8 14 9 15 13 16 11 17 10 18 12 20 4 22 21 24 18 26
REMARK H PARENT 10 19 12 21 4 23 21 25 18 27
REMARK Flexibility Score: inf
ROOT
ATOM      1  C   UNL     1      19.652 -11.139  18.194  1.00  0.00     0.180 A 
ATOM      2  C   UNL     1      20.345 -10.642  17.077  1.00  0.00     0.208 A 
ATOM      3  C   UNL     1      20.472 -11.451  15.937  1.00  0.00     0.238 A 
ATOM      4  O   UNL     1      21.139 -11.021  14.961  1.00  0.00    -0.285 OA
ATOM      5  C   UNL     1      19.890 -12.742  15.922  1.00  0.00     0.111 A 
ATOM      6  C   UNL     1      19.923 -13.633  14.808  1.00  0.00     0.134 A 
ATOM      7  C   UNL     1      19.429 -14.935  14.949  1.00  0.00     0.093 A 
ATOM      8  C   UNL     1      18.845 -15.358  16.147  1.00  0.00     0.123 A 
ATOM      9  C   UNL     1      18.755 -14.476  17.221  1.00  0.00     0.094 A 
ATOM     10  C   UNL     1      19.272 -13.183  17.122  1.00  0.00     0.146 A 
ATOM     11  O   UNL     1      19.175 -12.378  18.173  1.00  0.00    -0.452 OA
ENDROOT
BRANCH   1  12
ATOM     12  C   UNL     1      19.455 -10.335  19.422  1.00  0.00     0.025 A 
ATOM     13  C   UNL     1      20.396 -10.416  20.458  1.00  0.00     0.016 A 
ATOM     14  C   UNL     1      20.220  -9.682  21.631  1.00  0.00     0.051 A 
ATOM     15  C   UNL     1      19.095  -8.866  21.802  1.00  0.00     0.157 A 
ATOM     16  C   UNL     1      18.313  -9.535  19.598  1.00  0.00     0.062 A 
ATOM     17  C   UNL     1      18.126  -8.798  20.775  1.00  0.00     0.158 A 
BRANCH  15  18
ATOM     18  O   UNL     1      18.982  -8.152  22.997  1.00  0.00    -0.504 OA
ATOM     19  H   UNL     1      18.206  -7.546  23.221  1.00  0.00     0.293 HD
ENDBRANCH  15  18
BRANCH  17  20
ATOM     20  O   UNL     1      16.969  -8.022  20.880  1.00  0.00    -0.504 OA
ATOM     21  H   UNL     1      16.972  -7.022  21.020  1.00  0.00     0.293 HD
ENDBRANCH  17  20
ENDBRANCH   1  12
BRANCH   2  22
ATOM     22  O   UNL     1      20.929  -9.372  17.121  1.00  0.00    -0.502 OA
ATOM     23  H   UNL     1      21.499  -9.009  16.366  1.00  0.00     0.293 HD
ENDBRANCH   2  22
BRANCH   6  24
ATOM     24  O   UNL     1      20.400 -13.281  13.542  1.00  0.00    -0.507 OA
ATOM     25  H   UNL     1      20.344 -12.356  13.143  1.00  0.00     0.293 HD
ENDBRANCH   6  24
BRANCH   8  26
ATOM     26  O   UNL     1      18.343 -16.651  16.274  1.00  0.00    -0.508 OA
ATOM     27  H   UNL     1      18.380 -17.312  15.507  1.00  0.00     0.293 HD
ENDBRANCH   8  26
TORSDOF 6
ENDMDL
MODEL 6
REMARK VINA RESULT:    -6.453      1.742      3.172
REMARK INTER + INTRA:          -8.102
REMARK INTER:                  -7.816
REMARK INTRA:                  -0.286
REMARK UNBOUND:                -0.329
REMARK SMILES O=c1c(O)c(-c2ccc(O)c(O)c2)oc2cc(O)cc(O)c12
REMARK SMILES IDX 5 1 3 2 2 3 1 4 22 5 20 6 19 7 17 8 16 9 15 10 14 11 6 12
REMARK SMILES IDX 7 13 8 14 9 15 13 16 11 17 10 18 12 20 4 22 21 24 18 26
REMARK H PARENT 10 19 12 21 4 23 21 25 18 27
REMARK Flexibility Score: inf
ROOT
ATOM      1  C   UNL     1      19.185 -11.848  19.482  1.00  0.00     0.180 A 
ATOM      2  C   UNL     1      19.075 -11.918  20.881  1.00  0.00     0.208 A 
ATOM      3  C   UNL     1      19.306 -10.761  21.642  1.00  0.00     0.238 A 
ATOM      4  O   UNL     1      19.259 -10.843  22.897  1.00  0.00    -0.285 OA
ATOM      5  C   UNL     1      19.630  -9.545  20.993  1.00  0.00     0.111 A 
ATOM      6  C   UNL     1      19.846  -8.303  21.661  1.00  0.00     0.134 A 
ATOM      7  C   UNL     1      20.290  -7.193  20.931  1.00  0.00     0.093 A 
ATOM      8  C   UNL     1      20.461  -7.265  19.546  1.00  0.00     0.123 A 
ATOM      9  C   UNL     1      20.195  -8.457  18.877  1.00  0.00     0.094 A 
ATOM     10  C   UNL     1      19.787  -9.591  19.583  1.00  0.00     0.146 A 
ATOM     11  O   UNL     1      19.555 -10.710  18.908  1.00  0.00    -0.452 OA
ENDROOT
BRANCH   1  12
ATOM     12  C   UNL     1      18.931 -13.019  18.612  1.00  0.00     0.025 A 
ATOM     13  C   UNL     1      20.010 -13.669  17.996  1.00  0.00     0.016 A 
ATOM     14  C   UNL     1      19.791 -14.762  17.156  1.00  0.00     0.051 A 
ATOM     15  C   UNL     1      18.493 -15.218  16.902  1.00  0.00     0.157 A 
ATOM     16  C   UNL     1      17.624 -13.461  18.341  1.00  0.00     0.062 A 
ATOM     17  C   UNL     1      17.395 -14.555  17.497  1.00  0.00     0.158 A 
BRANCH  15  18
ATOM     18  O   UNL     1      18.343 -16.322  16.058  1.00  0.00    -0.504 OA
ATOM     19  H   UNL     1      17.514 -16.898  16.025  1.00  0.00     0.293 HD
ENDBRANCH  15  18
BRANCH  17  20
ATOM     20  O   UNL     1      16.071 -14.940  17.275  1.00  0.00    -0.504 OA
ATOM     21  H   UNL     1      15.574 -15.607  17.849  1.00  0.00     0.293 HD
ENDBRANCH  17  20
ENDBRANCH   1  12
BRANCH   2  22
ATOM     22  O   UNL     1      18.775 -13.134  21.503  1.00  0.00    -0.502 OA
ATOM     23  H   UNL     1      19.423 -13.600  22.127  1.00  0.00     0.293 HD
ENDBRANCH   2  22
BRANCH   6  24
ATOM     24  O   UNL     1      19.616  -8.100  23.025  1.00  0.00    -0.507 OA
ATOM     25  H   UNL     1      18.738  -8.270  23.491  1.00  0.00     0.293 HD
ENDBRANCH   6  24
BRANCH   8  26
ATOM     26  O   UNL     1      20.888  -6.152  18.825  1.00  0.00    -0.508 OA
ATOM     27  H   UNL     1      20.269  -5.371  18.641  1.00  0.00     0.293 HD
ENDBRANCH   8  26
TORSDOF 6
ENDMDL
MODEL 7
REMARK VINA RESULT:    -6.399      2.050      3.845
REMARK INTER + INTRA:          -8.036
REMARK INTER:                  -8.049
REMARK INTRA:                   0.013
REMARK UNBOUND:                -0.329
REMARK SMILES O=c1c(O)c(-c2ccc(O)c(O)c2)oc2cc(O)cc(O)c12
REMARK SMILES IDX 5 1 3 2 2 3 1 4 22 5 20 6 19 7 17 8 16 9 15 10 14 11 6 12
REMARK SMILES IDX 7 13 8 14 9 15 13 16 11 17 10 18 12 20 4 22 21 24 18 26
REMARK H PARENT 10 19 12 21 4 23 21 25 18 27
REMARK Flexibility Score: inf
ROOT
ATOM      1  C   UNL     1      19.450 -12.109  17.257  1.00  0.00     0.180 A 
ATOM      2  C   UNL     1      20.181 -12.097  18.457  1.00  0.00     0.208 A 
ATOM      3  C   UNL     1      19.843 -11.166  19.452  1.00  0.00     0.238 A 
ATOM      4  O   UNL     1      20.536 -11.126  20.502  1.00  0.00    -0.285 OA
ATOM      5  C   UNL     1      18.769 -10.269  19.241  1.00  0.00     0.111 A 
ATOM      6  C   UNL     1      18.314  -9.311  20.196  1.00  0.00     0.134 A 
ATOM      7  C   UNL     1      17.328  -8.385  19.831  1.00  0.00     0.093 A 
ATOM      8  C   UNL     1      16.735  -8.427  18.566  1.00  0.00     0.123 A 
ATOM      9  C   UNL     1      17.130  -9.397  17.648  1.00  0.00     0.094 A 
ATOM     10  C   UNL     1      18.137 -10.310  17.970  1.00  0.00     0.146 A 
ATOM     11  O   UNL     1      18.491 -11.211  17.062  1.00  0.00    -0.452 OA
ENDROOT
BRANCH   1  12
ATOM     12  C   UNL     1      19.731 -13.077  16.172  1.00  0.00     0.025 A 
ATOM     13  C   UNL     1      19.789 -12.630  14.845  1.00  0.00     0.016 A 
ATOM     14  C   UNL     1      20.033 -13.529  13.806  1.00  0.00     0.051 A 
ATOM     15  C   UNL     1      20.207 -14.892  14.067  1.00  0.00     0.157 A 
ATOM     16  C   UNL     1      19.883 -14.449  16.437  1.00  0.00     0.062 A 
ATOM     17  C   UNL     1      20.124 -15.359  15.400  1.00  0.00     0.158 A 
BRANCH  15  18
ATOM     18  O   UNL     1      20.454 -15.738  12.984  1.00  0.00    -0.504 OA
ATOM     19  H   UNL     1      19.793 -15.911  12.240  1.00  0.00     0.293 HD
ENDBRANCH  15  18
BRANCH  17  20
ATOM     20  O   UNL     1      20.268 -16.707  15.737  1.00  0.00    -0.504 OA
ATOM     21  H   UNL     1      19.710 -17.177  16.436  1.00  0.00     0.293 HD
ENDBRANCH  17  20
ENDBRANCH   1  12
BRANCH   2  22
ATOM     22  O   UNL     1      21.252 -12.979  18.636  1.00  0.00    -0.502 OA
ATOM     23  H   UNL     1      21.121 -13.944  18.915  1.00  0.00     0.293 HD
ENDBRANCH   2  22
BRANCH   6  24
ATOM     24  O   UNL     1      18.775  -9.243  21.514  1.00  0.00    -0.507 OA
ATOM     25  H   UNL     1      19.353  -9.941  21.957  1.00  0.00     0.293 HD
ENDBRANCH   6  24
BRANCH   8  26
ATOM     26  O   UNL     1      15.744  -7.513  18.216  1.00  0.00    -0.508 OA
ATOM     27  H   UNL     1      15.913  -6.786  17.531  1.00  0.00     0.293 HD
ENDBRANCH   8  26
TORSDOF 6
ENDMDL
MODEL 8
REMARK VINA RESULT:    -6.383      1.873      6.955
REMARK INTER + INTRA:          -8.018
REMARK INTER:                  -8.024
REMARK INTRA:                   0.007
REMARK UNBOUND:                -0.329
REMARK SMILES O=c1c(O)c(-c2ccc(O)c(O)c2)oc2cc(O)cc(O)c12
REMARK SMILES IDX 5 1 3 2 2 3 1 4 22 5 20 6 19 7 17 8 16 9 15 10 14 11 6 12
REMARK SMILES IDX 7 13 8 14 9 15 13 16 11 17 10 18 12 20 4 22 21 24 18 26
REMARK H PARENT 10 19 12 21 4 23 21 25 18 27
REMARK Flexibility Score: inf
ROOT
ATOM      1  C   UNL     1      19.110 -11.787  17.747  1.00  0.00     0.180 A 
ATOM      2  C   UNL     1      19.017 -11.458  16.384  1.00  0.00     0.208 A 
ATOM      3  C   UNL     1      19.250 -12.456  15.424  1.00  0.00     0.238 A 
ATOM      4  O   UNL     1      19.218 -12.141  14.206  1.00  0.00    -0.285 OA
ATOM      5  C   UNL     1      19.557 -13.774  15.839  1.00  0.00     0.111 A 
ATOM      6  C   UNL     1      19.772 -14.872  14.954  1.00  0.00     0.134 A 
ATOM      7  C   UNL     1      20.199 -16.102  15.470  1.00  0.00     0.093 A 
ATOM      8  C   UNL     1      20.354 -16.291  16.846  1.00  0.00     0.123 A 
ATOM      9  C   UNL     1      20.088 -15.241  17.722  1.00  0.00     0.094 A 
ATOM     10  C   UNL     1      19.697 -13.992  17.235  1.00  0.00     0.146 A 
ATOM     11  O   UNL     1      19.464 -13.016  18.103  1.00  0.00    -0.452 OA
ENDROOT
BRANCH   1  12
ATOM     12  C   UNL     1      18.853 -10.796  18.817  1.00  0.00     0.025 A 
ATOM     13  C   UNL     1      17.678 -10.033  18.784  1.00  0.00     0.016 A 
ATOM     14  C   UNL     1      17.425  -9.079  19.771  1.00  0.00     0.051 A 
ATOM     15  C   UNL     1      18.347  -8.856  20.800  1.00  0.00     0.157 A 
ATOM     16  C   UNL     1      19.792 -10.559  19.836  1.00  0.00     0.062 A 
ATOM     17  C   UNL     1      19.549  -9.601  20.829  1.00  0.00     0.158 A 
BRANCH  15  18
ATOM     18  O   UNL     1      18.032  -7.892  21.760  1.00  0.00    -0.504 OA
ATOM     19  H   UNL     1      18.610  -7.683  22.561  1.00  0.00     0.293 HD
ENDBRANCH  15  18
BRANCH  17  20
ATOM     20  O   UNL     1      20.525  -9.421  21.812  1.00  0.00    -0.504 OA
ATOM     21  H   UNL     1      20.878  -8.518  22.098  1.00  0.00     0.293 HD
ENDBRANCH  17  20
ENDBRANCH   1  12
BRANCH   2  22
ATOM     22  O   UNL     1      18.733 -10.145  15.996  1.00  0.00    -0.502 OA
ATOM     23  H   UNL     1      18.345  -9.918  15.089  1.00  0.00     0.293 HD
ENDBRANCH   2  22
BRANCH   6  24
ATOM     24  O   UNL     1      19.557 -14.816  13.574  1.00  0.00    -0.507 OA
ATOM     25  H   UNL     1      18.972 -14.138  13.111  1.00  0.00     0.293 HD
ENDBRANCH   6  24
BRANCH   8  26
ATOM     26  O   UNL     1      20.763 -17.522  17.353  1.00  0.00    -0.508 OA
ATOM     27  H   UNL     1      20.094 -18.230  17.630  1.00  0.00     0.293 HD
ENDBRANCH   8  26
TORSDOF 6
ENDMDL
MODEL 9
REMARK VINA RESULT:    -5.895      2.381      7.207
REMARK INTER + INTRA:          -7.429
REMARK INTER:                  -7.166
REMARK INTRA:                  -0.264
REMARK UNBOUND:                -0.329
REMARK SMILES O=c1c(O)c(-c2ccc(O)c(O)c2)oc2cc(O)cc(O)c12
REMARK SMILES IDX 5 1 3 2 2 3 1 4 22 5 20 6 19 7 17 8 16 9 15 10 14 11 6 12
REMARK SMILES IDX 7 13 8 14 9 15 13 16 11 17 10 18 12 20 4 22 21 24 18 26
REMARK H PARENT 10 19 12 21 4 23 21 25 18 27
REMARK Flexibility Score: inf
ROOT
ATOM      1  C   UNL     1      20.220  -9.895  19.743  1.00  0.00     0.180 A 
ATOM      2  C   UNL     1      20.639 -10.799  20.735  1.00  0.00     0.208 A 
ATOM      3  C   UNL     1      20.653 -12.172  20.444  1.00  0.00     0.238 A 
ATOM      4  O   UNL     1      20.978 -12.979  21.354  1.00  0.00    -0.285 OA
ATOM      5  C   UNL     1      20.264 -12.624  19.160  1.00  0.00     0.111 A 
ATOM      6  C   UNL     1      20.277 -13.988  18.743  1.00  0.00     0.134 A 
ATOM      7  C   UNL     1      19.746 -14.334  17.494  1.00  0.00     0.093 A 
ATOM      8  C   UNL     1      19.262 -13.356  16.621  1.00  0.00     0.123 A 
ATOM      9  C   UNL     1      19.300 -12.015  16.996  1.00  0.00     0.094 A 
ATOM     10  C   UNL     1      19.790 -11.643  18.250  1.00  0.00     0.146 A 
ATOM     11  O   UNL     1      19.798 -10.355  18.572  1.00  0.00    -0.452 OA
ENDROOT
BRANCH   1  12
ATOM     12  C   UNL     1      20.203  -8.431  19.967  1.00  0.00     0.025 A 
ATOM     13  C   UNL     1      19.172  -7.862  20.727  1.00  0.00     0.016 A 
ATOM     14  C   UNL     1      19.125  -6.482  20.934  1.00  0.00     0.051 A 
ATOM     15  C   UNL     1      20.095  -5.643  20.374  1.00  0.00     0.157 A 
ATOM     16  C   UNL     1      21.167  -7.590  19.385  1.00  0.00     0.062 A 
ATOM     17  C   UNL     1      21.125  -6.204  19.583  1.00  0.00     0.158 A 
BRANCH  15  18
ATOM     18  O   UNL     1      19.995  -4.273  20.625  1.00  0.00    -0.504 OA
ATOM     19  H   UNL     1      19.186  -3.714  20.395  1.00  0.00     0.293 HD
ENDBRANCH  15  18
BRANCH  17  20
ATOM     20  O   UNL     1      22.117  -5.429  18.977  1.00  0.00    -0.504 OA
ATOM     21  H   UNL     1      22.847  -5.806  18.389  1.00  0.00     0.293 HD
ENDBRANCH  17  20
ENDBRANCH   1  12
BRANCH   2  22
ATOM     22  O   UNL     1      21.000 -10.333  22.003  1.00  0.00    -0.502 OA
ATOM     23  H   UNL     1      20.351  -9.842  22.607  1.00  0.00     0.293 HD
ENDBRANCH   2  22
BRANCH   6  24
ATOM     24  O   UNL     1      20.820 -15.030  19.500  1.00  0.00    -0.507 OA
ATOM     25  H   UNL     1      20.422 -15.387  20.355  1.00  0.00     0.293 HD
ENDBRANCH   6  24
BRANCH   8  26
ATOM     26  O   UNL     1      18.750 -13.707  15.375  1.00  0.00    -0.508 OA
ATOM     27  H   UNL     1      18.833 -13.090  14.575  1.00  0.00     0.293 HD
ENDBRANCH   8  26
TORSDOF 6
ENDMDL
