MODEL 1
REMARK VINA RESULT:    -4.974      0.000      0.000
REMARK INTER + INTRA:         -18.623
REMARK INTER:                 -13.116
REMARK INTRA:                  -5.507
REMARK UNBOUND:                -5.507
REMARK SMILES CCCCCCCCCCCCCCCCCCCCCCCCCCCCCC(=O)[O-]
REMARK SMILES IDX 16 1 17 2 18 3 19 4 20 5 21 6 22 7 23 8 24 9 25 10 26 11
REMARK SMILES IDX 27 12 28 13 29 14 30 15 31 16 32 17 15 18 14 19 13 20 12 21
REMARK SMILES IDX 11 22 10 23 9 24 8 25 7 26 6 27 5 28 4 29 3 30 2 31 1 32
REMARK H PARENT
REMARK Flexibility Score: inf
ROOT
ATOM      1  C   UNL     1      14.118 -30.168  23.649  1.00  0.00     0.000 C 
ENDROOT
BRANCH   1   2
ATOM      2  C   UNL     1      13.541 -31.565  23.345  1.00  0.00     0.000 C 
BRANCH   2   3
ATOM      3  C   UNL     1      14.398 -32.749  23.825  1.00  0.00     0.000 C 
BRANCH   3   4
ATOM      4  C   UNL     1      15.195 -33.410  22.687  1.00  0.00     0.000 C 
BRANCH   4   5
ATOM      5  C   UNL     1      16.499 -34.070  23.173  1.00  0.00     0.000 C 
BRANCH   5   6
ATOM      6  C   UNL     1      16.962 -33.660  24.584  1.00  0.00     0.000 C 
BRANCH   6   7
ATOM      7  C   UNL     1      18.357 -33.012  24.593  1.00  0.00     0.000 C 
BRANCH   7   8
ATOM      8  C   UNL     1      18.309 -31.476  24.515  1.00  0.00     0.000 C 
BRANCH   8   9
ATOM      9  C   UNL     1      19.645 -30.796  24.154  1.00  0.00     0.000 C 
BRANCH   9  10
ATOM     10  C   UNL     1      20.511 -31.552  23.125  1.00  0.00     0.000 C 
BRANCH  10  11
ATOM     11  C   UNL     1      21.535 -30.684  22.367  1.00  0.00     0.000 C 
BRANCH  11  12
ATOM     12  C   UNL     1      21.207 -29.181  22.321  1.00  0.00     0.000 C 
BRANCH  12  13
ATOM     13  C   UNL     1      21.073 -28.643  20.885  1.00  0.00     0.006 C 
BRANCH  13  14
ATOM     14  C   UNL     1      20.815 -27.131  20.861  1.00  0.00     0.053 C 
BRANCH  14  15
ATOM     15  C   UNL     1      21.994 -26.370  20.333  1.00  0.00     0.041 C 
ATOM     16  O   UNL     1      21.995 -25.111  20.355  1.00  0.00    -0.550 OA
ATOM     17  O   UNL     1      23.075 -27.051  19.786  1.00  0.00    -0.550 OA
ENDBRANCH  14  15
ENDBRANCH  13  14
ENDBRANCH  12  13
ENDBRANCH  11  12
ENDBRANCH  10  11
ENDBRANCH   9  10
ENDBRANCH   8   9
ENDBRANCH   7   8
ENDBRANCH   6   7
ENDBRANCH   5   6
ENDBRANCH   4   5
ENDBRANCH   3   4
ENDBRANCH   2   3
ENDBRANCH   1   2
BRANCH   1  18
ATOM     18  C   UNL     1      14.344 -29.273  22.418  1.00  0.00     0.000 C 
BRANCH  18  19
ATOM     19  C   UNL     1      15.362 -29.856  21.426  1.00  0.00     0.000 C 
BRANCH  19  20
ATOM     20  C   UNL     1      16.797 -29.639  21.926  1.00  0.00     0.000 C 
BRANCH  20  21
ATOM     21  C   UNL     1      17.812 -30.361  21.025  1.00  0.00     0.000 C 
BRANCH  21  22
ATOM     22  C   UNL     1      17.303 -31.723  20.514  1.00  0.00     0.000 C 
BRANCH  22  23
ATOM     23  C   UNL     1      18.401 -32.780  20.250  1.00  0.00     0.000 C 
BRANCH  23  24
ATOM     24  C   UNL     1      18.033 -33.855  19.207  1.00  0.00    -0.000 C 
BRANCH  24  25
ATOM     25  C   UNL     1      16.524 -34.157  19.169  1.00  0.00    -0.000 C 
BRANCH  25  26
ATOM     26  C   UNL     1      16.208 -35.569  19.696  1.00  0.00    -0.000 C 
BRANCH  26  27
ATOM     27  C   UNL     1      17.247 -36.599  19.213  1.00  0.00    -0.000 C 
BRANCH  27  28
ATOM     28  C   UNL     1      17.882 -37.394  20.372  1.00  0.00    -0.000 C 
BRANCH  28  29
ATOM     29  C   UNL     1      18.125 -36.559  21.642  1.00  0.00    -0.000 C 
BRANCH  29  30
ATOM     30  C   UNL     1      19.589 -36.583  22.136  1.00  0.00    -0.000 C 
BRANCH  30  31
ATOM     31  C   UNL     1      20.228 -35.185  22.232  1.00  0.00    -0.003 C 
ATOM     32  C   UNL     1      21.581 -35.208  22.945  1.00  0.00     0.004 C 
ENDBRANCH  30  31
ENDBRANCH  29  30
ENDBRANCH  28  29
ENDBRANCH  27  28
ENDBRANCH  26  27
ENDBRANCH  25  26
ENDBRANCH  24  25
ENDBRANCH  23  24
ENDBRANCH  22  23
ENDBRANCH  21  22
ENDBRANCH  20  21
ENDBRANCH  19  20
ENDBRANCH  18  19
ENDBRANCH   1  18
TORSDOF 28
ENDMDL
MODEL 2
REMARK VINA RESULT:    -4.838      1.553      4.144
REMARK INTER + INTRA:         -18.264
REMARK INTER:                 -13.082
REMARK INTRA:                  -5.182
REMARK UNBOUND:                -5.507
REMARK SMILES CCCCCCCCCCCCCCCCCCCCCCCCCCCCCC(=O)[O-]
REMARK SMILES IDX 16 1 17 2 18 3 19 4 20 5 21 6 22 7 23 8 24 9 25 10 26 11
REMARK SMILES IDX 27 12 28 13 29 14 30 15 31 16 32 17 15 18 14 19 13 20 12 21
REMARK SMILES IDX 11 22 10 23 9 24 8 25 7 26 6 27 5 28 4 29 3 30 2 31 1 32
REMARK H PARENT
REMARK Flexibility Score: inf
ROOT
ATOM      1  C   UNL     1      14.618 -33.250  21.568  1.00  0.00     0.000 C 
ENDROOT
BRANCH   1   2
ATOM      2  C   UNL     1      13.848 -32.305  20.624  1.00  0.00     0.000 C 
BRANCH   2   3
ATOM      3  C   UNL     1      13.184 -31.095  21.303  1.00  0.00     0.000 C 
BRANCH   3   4
ATOM      4  C   UNL     1      13.560 -30.962  22.789  1.00  0.00     0.000 C 
BRANCH   4   5
ATOM      5  C   UNL     1      14.483 -29.761  23.068  1.00  0.00     0.000 C 
BRANCH   5   6
ATOM      6  C   UNL     1      15.993 -30.066  23.043  1.00  0.00     0.000 C 
BRANCH   6   7
ATOM      7  C   UNL     1      16.675 -29.612  21.742  1.00  0.00     0.000 C 
BRANCH   7   8
ATOM      8  C   UNL     1      17.275 -30.779  20.937  1.00  0.00     0.000 C 
BRANCH   8   9
ATOM      9  C   UNL     1      17.940 -31.885  21.781  1.00  0.00     0.000 C 
BRANCH   9  10
ATOM     10  C   UNL     1      19.467 -32.016  21.610  1.00  0.00     0.000 C 
BRANCH  10  11
ATOM     11  C   UNL     1      20.310 -31.252  22.649  1.00  0.00     0.000 C 
BRANCH  11  12
ATOM     12  C   UNL     1      21.344 -30.277  22.060  1.00  0.00     0.000 C 
BRANCH  12  13
ATOM     13  C   UNL     1      20.881 -29.646  20.735  1.00  0.00     0.006 C 
BRANCH  13  14
ATOM     14  C   UNL     1      20.193 -28.292  20.954  1.00  0.00     0.053 C 
BRANCH  14  15
ATOM     15  C   UNL     1      21.173 -27.157  20.937  1.00  0.00     0.041 C 
ATOM     16  O   UNL     1      20.913 -26.088  21.551  1.00  0.00    -0.550 OA
ATOM     17  O   UNL     1      22.355 -27.267  20.215  1.00  0.00    -0.550 OA
ENDBRANCH  14  15
ENDBRANCH  13  14
ENDBRANCH  12  13
ENDBRANCH  11  12
ENDBRANCH  10  11
ENDBRANCH   9  10
ENDBRANCH   8   9
ENDBRANCH   7   8
ENDBRANCH   6   7
ENDBRANCH   5   6
ENDBRANCH   4   5
ENDBRANCH   3   4
ENDBRANCH   2   3
ENDBRANCH   1   2
BRANCH   1  18
ATOM     18  C   UNL     1      15.348 -34.413  20.874  1.00  0.00     0.000 C 
BRANCH  18  19
ATOM     19  C   UNL     1      15.935 -34.028  19.507  1.00  0.00     0.000 C 
BRANCH  19  20
ATOM     20  C   UNL     1      17.058 -34.994  19.105  1.00  0.00     0.000 C 
BRANCH  20  21
ATOM     21  C   UNL     1      16.716 -36.438  19.505  1.00  0.00     0.000 C 
BRANCH  21  22
ATOM     22  C   UNL     1      17.938 -37.231  20.006  1.00  0.00     0.000 C 
BRANCH  22  23
ATOM     23  C   UNL     1      18.222 -37.117  21.523  1.00  0.00     0.000 C 
BRANCH  23  24
ATOM     24  C   UNL     1      19.084 -35.906  21.936  1.00  0.00    -0.000 C 
BRANCH  24  25
ATOM     25  C   UNL     1      20.468 -36.314  22.471  1.00  0.00    -0.000 C 
BRANCH  25  26
ATOM     26  C   UNL     1      20.375 -37.472  23.481  1.00  0.00    -0.000 C 
BRANCH  26  27
ATOM     27  C   UNL     1      20.069 -36.960  24.902  1.00  0.00    -0.000 C 
BRANCH  27  28
ATOM     28  C   UNL     1      18.779 -37.566  25.491  1.00  0.00    -0.000 C 
BRANCH  28  29
ATOM     29  C   UNL     1      17.568 -36.617  25.448  1.00  0.00    -0.000 C 
BRANCH  29  30
ATOM     30  C   UNL     1      17.924 -35.137  25.715  1.00  0.00    -0.000 C 
BRANCH  30  31
ATOM     31  C   UNL     1      17.577 -34.200  24.542  1.00  0.00    -0.003 C 
ATOM     32  C   UNL     1      16.167 -33.620  24.654  1.00  0.00     0.004 C 
ENDBRANCH  30  31
ENDBRANCH  29  30
ENDBRANCH  28  29
ENDBRANCH  27  28
ENDBRANCH  26  27
ENDBRANCH  25  26
ENDBRANCH  24  25
ENDBRANCH  23  24
ENDBRANCH  22  23
ENDBRANCH  21  22
ENDBRANCH  20  21
ENDBRANCH  19  20
ENDBRANCH  18  19
ENDBRANCH   1  18
TORSDOF 28
ENDMDL
MODEL 3
REMARK VINA RESULT:    -4.808      1.425      3.867
REMARK INTER + INTRA:         -18.185
REMARK INTER:                 -13.785
REMARK INTRA:                  -4.401
REMARK UNBOUND:                -5.507
REMARK SMILES CCCCCCCCCCCCCCCCCCCCCCCCCCCCCC(=O)[O-]
REMARK SMILES IDX 16 1 17 2 18 3 19 4 20 5 21 6 22 7 23 8 24 9 25 10 26 11
REMARK SMILES IDX 27 12 28 13 29 14 30 15 31 16 32 17 15 18 14 19 13 20 12 21
REMARK SMILES IDX 11 22 10 23 9 24 8 25 7 26 6 27 5 28 4 29 3 30 2 31 1 32
REMARK H PARENT
REMARK Flexibility Score: inf
ROOT
ATOM      1  C   UNL     1      13.070 -31.141  22.381  1.00  0.00     0.000 C 
ENDROOT
BRANCH   1   2
ATOM      2  C   UNL     1      13.571 -29.704  22.630  1.00  0.00     0.000 C 
BRANCH   2   3
ATOM      3  C   UNL     1      15.073 -29.575  22.935  1.00  0.00     0.000 C 
BRANCH   3   4
ATOM      4  C   UNL     1      15.901 -29.180  21.700  1.00  0.00     0.000 C 
BRANCH   4   5
ATOM      5  C   UNL     1      17.321 -29.777  21.714  1.00  0.00     0.000 C 
BRANCH   5   6
ATOM      6  C   UNL     1      17.454 -31.181  21.095  1.00  0.00     0.000 C 
BRANCH   6   7
ATOM      7  C   UNL     1      18.895 -31.519  20.679  1.00  0.00     0.000 C 
BRANCH   7   8
ATOM      8  C   UNL     1      19.891 -31.459  21.851  1.00  0.00     0.000 C 
BRANCH   8   9
ATOM      9  C   UNL     1      20.940 -30.332  21.763  1.00  0.00     0.000 C 
BRANCH   9  10
ATOM     10  C   UNL     1      20.697 -29.293  20.649  1.00  0.00     0.000 C 
BRANCH  10  11
ATOM     11  C   UNL     1      20.530 -27.840  21.134  1.00  0.00     0.000 C 
BRANCH  11  12
ATOM     12  C   UNL     1      19.817 -26.902  20.145  1.00  0.00     0.000 C 
BRANCH  12  13
ATOM     13  C   UNL     1      20.485 -25.518  20.048  1.00  0.00     0.006 C 
BRANCH  13  14
ATOM     14  C   UNL     1      20.659 -24.867  21.426  1.00  0.00     0.053 C 
BRANCH  14  15
ATOM     15  C   UNL     1      22.089 -24.513  21.701  1.00  0.00     0.041 C 
ATOM     16  O   UNL     1      22.920 -24.454  20.756  1.00  0.00    -0.550 OA
ATOM     17  O   UNL     1      22.512 -24.280  23.005  1.00  0.00    -0.550 OA
ENDBRANCH  14  15
ENDBRANCH  13  14
ENDBRANCH  12  13
ENDBRANCH  11  12
ENDBRANCH  10  11
ENDBRANCH   9  10
ENDBRANCH   8   9
ENDBRANCH   7   8
ENDBRANCH   6   7
ENDBRANCH   5   6
ENDBRANCH   4   5
ENDBRANCH   3   4
ENDBRANCH   2   3
ENDBRANCH   1   2
BRANCH   1  18
ATOM     18  C   UNL     1      13.506 -31.760  21.042  1.00  0.00     0.000 C 
BRANCH  18  19
ATOM     19  C   UNL     1      14.466 -32.948  21.209  1.00  0.00     0.000 C 
BRANCH  19  20
ATOM     20  C   UNL     1      14.630 -33.707  19.886  1.00  0.00     0.000 C 
BRANCH  20  21
ATOM     21  C   UNL     1      15.372 -35.037  20.099  1.00  0.00     0.000 C 
BRANCH  21  22
ATOM     22  C   UNL     1      16.712 -35.108  19.341  1.00  0.00     0.000 C 
BRANCH  22  23
ATOM     23  C   UNL     1      17.362 -36.511  19.280  1.00  0.00     0.000 C 
BRANCH  23  24
ATOM     24  C   UNL     1      17.711 -37.127  20.649  1.00  0.00    -0.000 C 
BRANCH  24  25
ATOM     25  C   UNL     1      18.743 -36.296  21.432  1.00  0.00    -0.000 C 
BRANCH  25  26
ATOM     26  C   UNL     1      18.219 -35.893  22.823  1.00  0.00    -0.000 C 
BRANCH  26  27
ATOM     27  C   UNL     1      17.543 -34.508  22.792  1.00  0.00    -0.000 C 
BRANCH  27  28
ATOM     28  C   UNL     1      16.879 -34.139  24.134  1.00  0.00    -0.000 C 
BRANCH  28  29
ATOM     29  C   UNL     1      16.569 -32.638  24.284  1.00  0.00    -0.000 C 
BRANCH  29  30
ATOM     30  C   UNL     1      17.774 -31.796  24.761  1.00  0.00    -0.000 C 
BRANCH  30  31
ATOM     31  C   UNL     1      18.708 -32.551  25.726  1.00  0.00    -0.003 C 
ATOM     32  C   UNL     1      19.985 -31.770  26.035  1.00  0.00     0.004 C 
ENDBRANCH  30  31
ENDBRANCH  29  30
ENDBRANCH  28  29
ENDBRANCH  27  28
ENDBRANCH  26  27
ENDBRANCH  25  26
ENDBRANCH  24  25
ENDBRANCH  23  24
ENDBRANCH  22  23
ENDBRANCH  21  22
ENDBRANCH  20  21
ENDBRANCH  19  20
ENDBRANCH  18  19
ENDBRANCH   1  18
TORSDOF 28
ENDMDL
MODEL 4
REMARK VINA RESULT:    -4.806      3.447      5.775
REMARK INTER + INTRA:         -18.180
REMARK INTER:                 -12.897
REMARK INTRA:                  -5.283
REMARK UNBOUND:                -5.507
REMARK SMILES CCCCCCCCCCCCCCCCCCCCCCCCCCCCCC(=O)[O-]
REMARK SMILES IDX 16 1 17 2 18 3 19 4 20 5 21 6 22 7 23 8 24 9 25 10 26 11
REMARK SMILES IDX 27 12 28 13 29 14 30 15 31 16 32 17 15 18 14 19 13 20 12 21
REMARK SMILES IDX 11 22 10 23 9 24 8 25 7 26 6 27 5 28 4 29 3 30 2 31 1 32
REMARK H PARENT
REMARK Flexibility Score: inf
ROOT
ATOM      1  C   UNL     1      16.694 -33.132  23.313  1.00  0.00     0.000 C 
ENDROOT
BRANCH   1   2
ATOM      2  C   UNL     1      17.176 -33.597  24.702  1.00  0.00     0.000 C 
BRANCH   2   3
ATOM      3  C   UNL     1      18.358 -32.805  25.287  1.00  0.00     0.000 C 
BRANCH   3   4
ATOM      4  C   UNL     1      18.559 -31.440  24.606  1.00  0.00     0.000 C 
BRANCH   4   5
ATOM      5  C   UNL     1      19.959 -31.281  23.983  1.00  0.00     0.000 C 
BRANCH   5   6
ATOM      6  C   UNL     1      20.409 -32.433  23.064  1.00  0.00     0.000 C 
BRANCH   6   7
ATOM      7  C   UNL     1      19.625 -32.486  21.742  1.00  0.00     0.000 C 
BRANCH   7   8
ATOM      8  C   UNL     1      19.385 -31.096  21.127  1.00  0.00     0.000 C 
BRANCH   8   9
ATOM      9  C   UNL     1      17.906 -30.733  20.883  1.00  0.00     0.000 C 
BRANCH   9  10
ATOM     10  C   UNL     1      17.502 -29.304  21.299  1.00  0.00     0.000 C 
BRANCH  10  11
ATOM     11  C   UNL     1      16.031 -29.139  21.728  1.00  0.00     0.000 C 
BRANCH  11  12
ATOM     12  C   UNL     1      15.621 -29.947  22.971  1.00  0.00     0.000 C 
BRANCH  12  13
ATOM     13  C   UNL     1      14.099 -29.953  23.204  1.00  0.00     0.006 C 
BRANCH  13  14
ATOM     14  C   UNL     1      13.521 -28.534  23.255  1.00  0.00     0.053 C 
BRANCH  14  15
ATOM     15  C   UNL     1      12.024 -28.542  23.345  1.00  0.00     0.041 C 
ATOM     16  O   UNL     1      11.342 -29.150  22.478  1.00  0.00    -0.550 OA
ATOM     17  O   UNL     1      11.383 -27.849  24.364  1.00  0.00    -0.550 OA
ENDBRANCH  14  15
ENDBRANCH  13  14
ENDBRANCH  12  13
ENDBRANCH  11  12
ENDBRANCH  10  11
ENDBRANCH   9  10
ENDBRANCH   8   9
ENDBRANCH   7   8
ENDBRANCH   6   7
ENDBRANCH   5   6
ENDBRANCH   4   5
ENDBRANCH   3   4
ENDBRANCH   2   3
ENDBRANCH   1   2
BRANCH   1  18
ATOM     18  C   UNL     1      15.550 -33.963  22.708  1.00  0.00     0.000 C 
BRANCH  18  19
ATOM     19  C   UNL     1      14.992 -33.365  21.407  1.00  0.00     0.000 C 
BRANCH  19  20
ATOM     20  C   UNL     1      15.320 -34.265  20.208  1.00  0.00     0.000 C 
BRANCH  20  21
ATOM     21  C   UNL     1      16.604 -33.800  19.502  1.00  0.00     0.000 C 
BRANCH  21  22
ATOM     22  C   UNL     1      17.541 -34.964  19.125  1.00  0.00     0.000 C 
BRANCH  22  23
ATOM     23  C   UNL     1      17.028 -36.374  19.505  1.00  0.00     0.000 C 
BRANCH  23  24
ATOM     24  C   UNL     1      17.947 -37.168  20.455  1.00  0.00    -0.000 C 
BRANCH  24  25
ATOM     25  C   UNL     1      18.010 -36.562  21.869  1.00  0.00    -0.000 C 
BRANCH  25  26
ATOM     26  C   UNL     1      19.405 -35.995  22.189  1.00  0.00    -0.000 C 
BRANCH  26  27
ATOM     27  C   UNL     1      20.076 -36.764  23.343  1.00  0.00    -0.000 C 
BRANCH  27  28
ATOM     28  C   UNL     1      19.993 -36.014  24.688  1.00  0.00    -0.000 C 
BRANCH  28  29
ATOM     29  C   UNL     1      19.676 -36.922  25.890  1.00  0.00    -0.000 C 
BRANCH  29  30
ATOM     30  C   UNL     1      18.361 -37.720  25.742  1.00  0.00    -0.000 C 
BRANCH  30  31
ATOM     31  C   UNL     1      17.118 -36.952  26.231  1.00  0.00    -0.003 C 
ATOM     32  C   UNL     1      16.468 -37.607  27.450  1.00  0.00     0.004 C 
ENDBRANCH  30  31
ENDBRANCH  29  30
ENDBRANCH  28  29
ENDBRANCH  27  28
ENDBRANCH  26  27
ENDBRANCH  25  26
ENDBRANCH  24  25
ENDBRANCH  23  24
ENDBRANCH  22  23
ENDBRANCH  21  22
ENDBRANCH  20  21
ENDBRANCH  19  20
ENDBRANCH  18  19
ENDBRANCH   1  18
TORSDOF 28
ENDMDL
MODEL 5
REMARK VINA RESULT:    -4.774      1.321      3.240
REMARK INTER + INTRA:         -18.095
REMARK INTER:                 -12.561
REMARK INTRA:                  -5.534
REMARK UNBOUND:                -5.507
REMARK SMILES CCCCCCCCCCCCCCCCCCCCCCCCCCCCCC(=O)[O-]
REMARK SMILES IDX 16 1 17 2 18 3 19 4 20 5 21 6 22 7 23 8 24 9 25 10 26 11
REMARK SMILES IDX 27 12 28 13 29 14 30 15 31 16 32 17 15 18 14 19 13 20 12 21
REMARK SMILES IDX 11 22 10 23 9 24 8 25 7 26 6 27 5 28 4 29 3 30 2 31 1 32
REMARK H PARENT
REMARK Flexibility Score: inf
ROOT
ATOM      1  C   UNL     1      13.132 -30.061  23.658  1.00  0.00     0.000 C 
ENDROOT
BRANCH   1   2
ATOM      2  C   UNL     1      14.151 -28.990  23.220  1.00  0.00     0.000 C 
BRANCH   2   3
ATOM      3  C   UNL     1      14.607 -29.076  21.753  1.00  0.00     0.000 C 
BRANCH   3   4
ATOM      4  C   UNL     1      16.124 -29.289  21.610  1.00  0.00     0.000 C 
BRANCH   4   5
ATOM      5  C   UNL     1      16.751 -29.977  22.837  1.00  0.00     0.000 C 
BRANCH   5   6
ATOM      6  C   UNL     1      17.587 -31.236  22.534  1.00  0.00     0.000 C 
BRANCH   6   7
ATOM      7  C   UNL     1      18.009 -31.335  21.059  1.00  0.00     0.000 C 
BRANCH   7   8
ATOM      8  C   UNL     1      19.310 -32.130  20.856  1.00  0.00     0.000 C 
BRANCH   8   9
ATOM      9  C   UNL     1      20.178 -32.302  22.119  1.00  0.00     0.000 C 
BRANCH   9  10
ATOM     10  C   UNL     1      21.386 -31.348  22.222  1.00  0.00     0.000 C 
BRANCH  10  11
ATOM     11  C   UNL     1      21.187 -30.138  23.156  1.00  0.00     0.000 C 
BRANCH  11  12
ATOM     12  C   UNL     1      21.718 -28.801  22.611  1.00  0.00     0.000 C 
BRANCH  12  13
ATOM     13  C   UNL     1      20.872 -28.251  21.450  1.00  0.00     0.006 C 
BRANCH  13  14
ATOM     14  C   UNL     1      21.718 -27.987  20.197  1.00  0.00     0.053 C 
BRANCH  14  15
ATOM     15  C   UNL     1      22.543 -26.743  20.331  1.00  0.00     0.041 C 
ATOM     16  O   UNL     1      23.736 -26.815  20.729  1.00  0.00    -0.550 OA
ATOM     17  O   UNL     1      21.985 -25.502  20.049  1.00  0.00    -0.550 OA
ENDBRANCH  14  15
ENDBRANCH  13  14
ENDBRANCH  12  13
ENDBRANCH  11  12
ENDBRANCH  10  11
ENDBRANCH   9  10
ENDBRANCH   8   9
ENDBRANCH   7   8
ENDBRANCH   6   7
ENDBRANCH   5   6
ENDBRANCH   4   5
ENDBRANCH   3   4
ENDBRANCH   2   3
ENDBRANCH   1   2
BRANCH   1  18
ATOM     18  C   UNL     1      13.194 -31.381  22.870  1.00  0.00     0.000 C 
BRANCH  18  19
ATOM     19  C   UNL     1      14.135 -32.418  23.502  1.00  0.00     0.000 C 
BRANCH  19  20
ATOM     20  C   UNL     1      14.785 -33.294  22.422  1.00  0.00     0.000 C 
BRANCH  20  21
ATOM     21  C   UNL     1      14.427 -32.793  21.014  1.00  0.00     0.000 C 
BRANCH  21  22
ATOM     22  C   UNL     1      14.972 -33.700  19.894  1.00  0.00     0.000 C 
BRANCH  22  23
ATOM     23  C   UNL     1      15.330 -35.141  20.328  1.00  0.00     0.000 C 
BRANCH  23  24
ATOM     24  C   UNL     1      16.467 -35.801  19.522  1.00  0.00    -0.000 C 
BRANCH  24  25
ATOM     25  C   UNL     1      17.862 -35.483  20.088  1.00  0.00    -0.000 C 
BRANCH  25  26
ATOM     26  C   UNL     1      18.077 -36.114  21.475  1.00  0.00    -0.000 C 
BRANCH  26  27
ATOM     27  C   UNL     1      17.945 -35.068  22.599  1.00  0.00    -0.000 C 
BRANCH  27  28
ATOM     28  C   UNL     1      18.137 -35.674  24.004  1.00  0.00    -0.000 C 
BRANCH  28  29
ATOM     29  C   UNL     1      17.158 -35.125  25.058  1.00  0.00    -0.000 C 
BRANCH  29  30
ATOM     30  C   UNL     1      17.301 -33.608  25.314  1.00  0.00    -0.000 C 
BRANCH  30  31
ATOM     31  C   UNL     1      18.706 -33.196  25.793  1.00  0.00    -0.003 C 
ATOM     32  C   UNL     1      18.940 -31.689  25.690  1.00  0.00     0.004 C 
ENDBRANCH  30  31
ENDBRANCH  29  30
ENDBRANCH  28  29
ENDBRANCH  27  28
ENDBRANCH  26  27
ENDBRANCH  25  26
ENDBRANCH  24  25
ENDBRANCH  23  24
ENDBRANCH  22  23
ENDBRANCH  21  22
ENDBRANCH  20  21
ENDBRANCH  19  20
ENDBRANCH  18  19
ENDBRANCH   1  18
TORSDOF 28
ENDMDL
MODEL 6
REMARK VINA RESULT:    -4.753      3.198      5.906
REMARK INTER + INTRA:         -18.040
REMARK INTER:                 -13.078
REMARK INTRA:                  -4.963
REMARK UNBOUND:                -5.507
REMARK SMILES CCCCCCCCCCCCCCCCCCCCCCCCCCCCCC(=O)[O-]
REMARK SMILES IDX 16 1 17 2 18 3 19 4 20 5 21 6 22 7 23 8 24 9 25 10 26 11
REMARK SMILES IDX 27 12 28 13 29 14 30 15 31 16 32 17 15 18 14 19 13 20 12 21
REMARK SMILES IDX 11 22 10 23 9 24 8 25 7 26 6 27 5 28 4 29 3 30 2 31 1 32
REMARK H PARENT
REMARK Flexibility Score: inf
ROOT
ATOM      1  C   UNL     1      19.267 -30.683  21.729  1.00  0.00     0.000 C 
ENDROOT
BRANCH   1   2
ATOM      2  C   UNL     1      20.392 -30.668  22.783  1.00  0.00     0.000 C 
BRANCH   2   3
ATOM      3  C   UNL     1      20.185 -31.614  23.979  1.00  0.00     0.000 C 
BRANCH   3   4
ATOM      4  C   UNL     1      19.446 -30.943  25.149  1.00  0.00     0.000 C 
BRANCH   4   5
ATOM      5  C   UNL     1      18.723 -31.954  26.060  1.00  0.00     0.000 C 
BRANCH   5   6
ATOM      6  C   UNL     1      18.695 -33.406  25.545  1.00  0.00     0.000 C 
BRANCH   6   7
ATOM      7  C   UNL     1      17.269 -33.954  25.370  1.00  0.00     0.000 C 
BRANCH   7   8
ATOM      8  C   UNL     1      16.836 -34.049  23.897  1.00  0.00     0.000 C 
BRANCH   8   9
ATOM      9  C   UNL     1      15.706 -33.086  23.481  1.00  0.00     0.000 C 
BRANCH   9  10
ATOM     10  C   UNL     1      16.045 -31.586  23.595  1.00  0.00     0.000 C 
BRANCH  10  11
ATOM     11  C   UNL     1      15.284 -30.667  22.620  1.00  0.00     0.000 C 
BRANCH  11  12
ATOM     12  C   UNL     1      13.891 -31.170  22.204  1.00  0.00     0.000 C 
BRANCH  12  13
ATOM     13  C   UNL     1      12.794 -30.104  22.379  1.00  0.00     0.006 C 
BRANCH  13  14
ATOM     14  C   UNL     1      12.841 -29.456  23.769  1.00  0.00     0.053 C 
BRANCH  14  15
ATOM     15  C   UNL     1      12.704 -27.965  23.696  1.00  0.00     0.041 C 
ATOM     16  O   UNL     1      13.540 -27.284  23.046  1.00  0.00    -0.550 OA
ATOM     17  O   UNL     1      11.673 -27.326  24.375  1.00  0.00    -0.550 OA
ENDBRANCH  14  15
ENDBRANCH  13  14
ENDBRANCH  12  13
ENDBRANCH  11  12
ENDBRANCH  10  11
ENDBRANCH   9  10
ENDBRANCH   8   9
ENDBRANCH   7   8
ENDBRANCH   6   7
ENDBRANCH   5   6
ENDBRANCH   4   5
ENDBRANCH   3   4
ENDBRANCH   2   3
ENDBRANCH   1   2
BRANCH   1  18
ATOM     18  C   UNL     1      18.870 -32.078  21.218  1.00  0.00     0.000 C 
BRANCH  18  19
ATOM     19  C   UNL     1      17.700 -32.046  20.221  1.00  0.00     0.000 C 
BRANCH  19  20
ATOM     20  C   UNL     1      17.477 -33.431  19.598  1.00  0.00     0.000 C 
BRANCH  20  21
ATOM     21  C   UNL     1      16.204 -34.089  20.155  1.00  0.00     0.000 C 
BRANCH  21  22
ATOM     22  C   UNL     1      16.076 -35.576  19.771  1.00  0.00     0.000 C 
BRANCH  22  23
ATOM     23  C   UNL     1      17.334 -36.200  19.121  1.00  0.00     0.000 C 
BRANCH  23  24
ATOM     24  C   UNL     1      17.933 -37.401  19.881  1.00  0.00    -0.000 C 
BRANCH  24  25
ATOM     25  C   UNL     1      18.003 -37.170  21.402  1.00  0.00    -0.000 C 
BRANCH  25  26
ATOM     26  C   UNL     1      19.142 -36.207  21.784  1.00  0.00    -0.000 C 
BRANCH  26  27
ATOM     27  C   UNL     1      20.150 -36.876  22.739  1.00  0.00    -0.000 C 
BRANCH  27  28
ATOM     28  C   UNL     1      19.829 -36.613  24.224  1.00  0.00    -0.000 C 
BRANCH  28  29
ATOM     29  C   UNL     1      18.743 -37.540  24.800  1.00  0.00    -0.000 C 
BRANCH  29  30
ATOM     30  C   UNL     1      18.469 -37.321  26.306  1.00  0.00    -0.000 C 
BRANCH  30  31
ATOM     31  C   UNL     1      17.173 -37.993  26.798  1.00  0.00    -0.003 C 
ATOM     32  C   UNL     1      16.495 -37.204  27.918  1.00  0.00     0.004 C 
ENDBRANCH  30  31
ENDBRANCH  29  30
ENDBRANCH  28  29
ENDBRANCH  27  28
ENDBRANCH  26  27
ENDBRANCH  25  26
ENDBRANCH  24  25
ENDBRANCH  23  24
ENDBRANCH  22  23
ENDBRANCH  21  22
ENDBRANCH  20  21
ENDBRANCH  19  20
ENDBRANCH  18  19
ENDBRANCH   1  18
TORSDOF 28
ENDMDL
MODEL 7
REMARK VINA RESULT:    -4.753      1.489      3.153
REMARK INTER + INTRA:         -18.040
REMARK INTER:                 -13.791
REMARK INTRA:                  -4.249
REMARK UNBOUND:                -5.507
REMARK SMILES CCCCCCCCCCCCCCCCCCCCCCCCCCCCCC(=O)[O-]
REMARK SMILES IDX 16 1 17 2 18 3 19 4 20 5 21 6 22 7 23 8 24 9 25 10 26 11
REMARK SMILES IDX 27 12 28 13 29 14 30 15 31 16 32 17 15 18 14 19 13 20 12 21
REMARK SMILES IDX 11 22 10 23 9 24 8 25 7 26 6 27 5 28 4 29 3 30 2 31 1 32
REMARK H PARENT
REMARK Flexibility Score: inf
ROOT
ATOM      1  C   UNL     1      13.675 -30.021  23.629  1.00  0.00     0.000 C 
ENDROOT
BRANCH   1   2
ATOM      2  C   UNL     1      14.762 -29.246  22.858  1.00  0.00     0.000 C 
BRANCH   2   3
ATOM      3  C   UNL     1      16.152 -29.904  22.842  1.00  0.00     0.000 C 
BRANCH   3   4
ATOM      4  C   UNL     1      16.971 -29.542  21.591  1.00  0.00     0.000 C 
BRANCH   4   5
ATOM      5  C   UNL     1      17.392 -30.777  20.772  1.00  0.00     0.000 C 
BRANCH   5   6
ATOM      6  C   UNL     1      17.813 -32.008  21.599  1.00  0.00     0.000 C 
BRANCH   6   7
ATOM      7  C   UNL     1      19.211 -32.530  21.227  1.00  0.00     0.000 C 
BRANCH   7   8
ATOM      8  C   UNL     1      20.322 -31.981  22.139  1.00  0.00     0.000 C 
BRANCH   8   9
ATOM      9  C   UNL     1      21.023 -30.706  21.625  1.00  0.00     0.000 C 
BRANCH   9  10
ATOM     10  C   UNL     1      20.930 -29.483  22.560  1.00  0.00     0.000 C 
BRANCH  10  11
ATOM     11  C   UNL     1      21.931 -28.350  22.257  1.00  0.00     0.000 C 
BRANCH  11  12
ATOM     12  C   UNL     1      21.735 -27.655  20.899  1.00  0.00     0.000 C 
BRANCH  12  13
ATOM     13  C   UNL     1      22.830 -26.616  20.597  1.00  0.00     0.006 C 
BRANCH  13  14
ATOM     14  C   UNL     1      22.250 -25.332  19.989  1.00  0.00     0.053 C 
BRANCH  14  15
ATOM     15  C   UNL     1      23.260 -24.225  19.950  1.00  0.00     0.041 C 
ATOM     16  O   UNL     1      23.525 -23.574  20.996  1.00  0.00    -0.550 OA
ATOM     17  O   UNL     1      23.882 -23.889  18.754  1.00  0.00    -0.550 OA
ENDBRANCH  14  15
ENDBRANCH  13  14
ENDBRANCH  12  13
ENDBRANCH  11  12
ENDBRANCH  10  11
ENDBRANCH   9  10
ENDBRANCH   8   9
ENDBRANCH   7   8
ENDBRANCH   6   7
ENDBRANCH   5   6
ENDBRANCH   4   5
ENDBRANCH   3   4
ENDBRANCH   2   3
ENDBRANCH   1   2
BRANCH   1  18
ATOM     18  C   UNL     1      13.138 -31.274  22.916  1.00  0.00     0.000 C 
BRANCH  18  19
ATOM     19  C   UNL     1      12.509 -30.968  21.548  1.00  0.00     0.000 C 
BRANCH  19  20
ATOM     20  C   UNL     1      13.339 -31.587  20.416  1.00  0.00     0.000 C 
BRANCH  20  21
ATOM     21  C   UNL     1      14.267 -32.691  20.950  1.00  0.00     0.000 C 
BRANCH  21  22
ATOM     22  C   UNL     1      14.502 -33.825  19.934  1.00  0.00     0.000 C 
BRANCH  22  23
ATOM     23  C   UNL     1      15.696 -34.757  20.250  1.00  0.00     0.000 C 
BRANCH  23  24
ATOM     24  C   UNL     1      16.825 -34.749  19.199  1.00  0.00    -0.000 C 
BRANCH  24  25
ATOM     25  C   UNL     1      17.860 -35.865  19.427  1.00  0.00    -0.000 C 
BRANCH  25  26
ATOM     26  C   UNL     1      17.423 -36.835  20.539  1.00  0.00    -0.000 C 
BRANCH  26  27
ATOM     27  C   UNL     1      18.539 -37.037  21.583  1.00  0.00    -0.000 C 
BRANCH  27  28
ATOM     28  C   UNL     1      18.852 -35.754  22.378  1.00  0.00    -0.000 C 
BRANCH  28  29
ATOM     29  C   UNL     1      18.926 -35.967  23.902  1.00  0.00    -0.000 C 
BRANCH  29  30
ATOM     30  C   UNL     1      17.602 -35.663  24.640  1.00  0.00    -0.000 C 
BRANCH  30  31
ATOM     31  C   UNL     1      17.305 -34.157  24.774  1.00  0.00    -0.003 C 
ATOM     32  C   UNL     1      16.092 -33.725  23.950  1.00  0.00     0.004 C 
ENDBRANCH  30  31
ENDBRANCH  29  30
ENDBRANCH  28  29
ENDBRANCH  27  28
ENDBRANCH  26  27
ENDBRANCH  25  26
ENDBRANCH  24  25
ENDBRANCH  23  24
ENDBRANCH  22  23
ENDBRANCH  21  22
ENDBRANCH  20  21
ENDBRANCH  19  20
ENDBRANCH  18  19
ENDBRANCH   1  18
TORSDOF 28
ENDMDL
MODEL 8
REMARK VINA RESULT:    -4.732      1.650      4.374
REMARK INTER + INTRA:         -17.984
REMARK INTER:                 -13.495
REMARK INTRA:                  -4.489
REMARK UNBOUND:                -5.507
REMARK SMILES CCCCCCCCCCCCCCCCCCCCCCCCCCCCCC(=O)[O-]
REMARK SMILES IDX 16 1 17 2 18 3 19 4 20 5 21 6 22 7 23 8 24 9 25 10 26 11
REMARK SMILES IDX 27 12 28 13 29 14 30 15 31 16 32 17 15 18 14 19 13 20 12 21
REMARK SMILES IDX 11 22 10 23 9 24 8 25 7 26 6 27 5 28 4 29 3 30 2 31 1 32
REMARK H PARENT
REMARK Flexibility Score: inf
ROOT
ATOM      1  C   UNL     1      14.904 -33.513  20.130  1.00  0.00     0.000 C 
ENDROOT
BRANCH   1   2
ATOM      2  C   UNL     1      14.308 -32.763  21.337  1.00  0.00     0.000 C 
BRANCH   2   3
ATOM      3  C   UNL     1      13.301 -31.653  20.989  1.00  0.00     0.000 C 
BRANCH   3   4
ATOM      4  C   UNL     1      13.581 -30.337  21.735  1.00  0.00     0.000 C 
BRANCH   4   5
ATOM      5  C   UNL     1      14.307 -30.550  23.077  1.00  0.00     0.000 C 
BRANCH   5   6
ATOM      6  C   UNL     1      15.707 -29.915  23.179  1.00  0.00     0.000 C 
BRANCH   6   7
ATOM      7  C   UNL     1      16.306 -29.559  21.809  1.00  0.00     0.000 C 
BRANCH   7   8
ATOM      8  C   UNL     1      17.375 -30.561  21.339  1.00  0.00     0.000 C 
BRANCH   8   9
ATOM      9  C   UNL     1      18.784 -30.342  21.927  1.00  0.00     0.000 C 
BRANCH   9  10
ATOM     10  C   UNL     1      19.902 -30.120  20.889  1.00  0.00     0.000 C 
BRANCH  10  11
ATOM     11  C   UNL     1      20.459 -28.684  20.823  1.00  0.00     0.000 C 
BRANCH  11  12
ATOM     12  C   UNL     1      19.454 -27.616  20.361  1.00  0.00     0.000 C 
BRANCH  12  13
ATOM     13  C   UNL     1      19.928 -26.182  20.656  1.00  0.00     0.006 C 
BRANCH  13  14
ATOM     14  C   UNL     1      21.372 -25.948  20.193  1.00  0.00     0.053 C 
BRANCH  14  15
ATOM     15  C   UNL     1      22.022 -24.821  20.937  1.00  0.00     0.041 C 
ATOM     16  O   UNL     1      23.264 -24.633  20.841  1.00  0.00    -0.550 OA
ATOM     17  O   UNL     1      21.264 -24.000  21.763  1.00  0.00    -0.550 OA
ENDBRANCH  14  15
ENDBRANCH  13  14
ENDBRANCH  12  13
ENDBRANCH  11  12
ENDBRANCH  10  11
ENDBRANCH   9  10
ENDBRANCH   8   9
ENDBRANCH   7   8
ENDBRANCH   6   7
ENDBRANCH   5   6
ENDBRANCH   4   5
ENDBRANCH   3   4
ENDBRANCH   2   3
ENDBRANCH   1   2
BRANCH   1  18
ATOM     18  C   UNL     1      15.426 -34.928  20.434  1.00  0.00     0.000 C 
BRANCH  18  19
ATOM     19  C   UNL     1      16.542 -35.379  19.478  1.00  0.00     0.000 C 
BRANCH  19  20
ATOM     20  C   UNL     1      17.546 -34.244  19.237  1.00  0.00     0.000 C 
BRANCH  20  21
ATOM     21  C   UNL     1      18.373 -33.960  20.501  1.00  0.00     0.000 C 
BRANCH  21  22
ATOM     22  C   UNL     1      18.914 -35.239  21.169  1.00  0.00     0.000 C 
BRANCH  22  23
ATOM     23  C   UNL     1      20.148 -35.038  22.080  1.00  0.00     0.000 C 
BRANCH  23  24
ATOM     24  C   UNL     1      20.418 -33.578  22.498  1.00  0.00    -0.000 C 
BRANCH  24  25
ATOM     25  C   UNL     1      20.732 -33.435  23.998  1.00  0.00    -0.000 C 
BRANCH  25  26
ATOM     26  C   UNL     1      19.838 -32.379  24.673  1.00  0.00    -0.000 C 
BRANCH  26  27
ATOM     27  C   UNL     1      18.687 -33.033  25.461  1.00  0.00    -0.000 C 
BRANCH  27  28
ATOM     28  C   UNL     1      17.370 -33.087  24.660  1.00  0.00    -0.000 C 
BRANCH  28  29
ATOM     29  C   UNL     1      17.053 -34.475  24.075  1.00  0.00    -0.000 C 
BRANCH  29  30
ATOM     30  C   UNL     1      17.707 -35.643  24.847  1.00  0.00    -0.000 C 
BRANCH  30  31
ATOM     31  C   UNL     1      16.912 -36.078  26.092  1.00  0.00    -0.003 C 
ATOM     32  C   UNL     1      17.150 -37.544  26.456  1.00  0.00     0.004 C 
ENDBRANCH  30  31
ENDBRANCH  29  30
ENDBRANCH  28  29
ENDBRANCH  27  28
ENDBRANCH  26  27
ENDBRANCH  25  26
ENDBRANCH  24  25
ENDBRANCH  23  24
ENDBRANCH  22  23
ENDBRANCH  21  22
ENDBRANCH  20  21
ENDBRANCH  19  20
ENDBRANCH  18  19
ENDBRANCH   1  18
TORSDOF 28
ENDMDL
MODEL 9
REMARK VINA RESULT:    -4.695      1.384      5.193
REMARK INTER + INTRA:         -17.887
REMARK INTER:                 -13.150
REMARK INTRA:                  -4.738
REMARK UNBOUND:                -5.507
REMARK SMILES CCCCCCCCCCCCCCCCCCCCCCCCCCCCCC(=O)[O-]
REMARK SMILES IDX 16 1 17 2 18 3 19 4 20 5 21 6 22 7 23 8 24 9 25 10 26 11
REMARK SMILES IDX 27 12 28 13 29 14 30 15 31 16 32 17 15 18 14 19 13 20 12 21
REMARK SMILES IDX 11 22 10 23 9 24 8 25 7 26 6 27 5 28 4 29 3 30 2 31 1 32
REMARK H PARENT
REMARK Flexibility Score: inf
ROOT
ATOM      1  C   UNL     1      18.766 -35.752  21.434  1.00  0.00     0.000 C 
ENDROOT
BRANCH   1   2
ATOM      2  C   UNL     1      18.104 -35.029  22.625  1.00  0.00     0.000 C 
BRANCH   2   3
ATOM      3  C   UNL     1      18.937 -34.993  23.918  1.00  0.00     0.000 C 
BRANCH   3   4
ATOM      4  C   UNL     1      20.420 -34.668  23.664  1.00  0.00     0.000 C 
BRANCH   4   5
ATOM      5  C   UNL     1      20.782 -33.211  24.011  1.00  0.00     0.000 C 
BRANCH   5   6
ATOM      6  C   UNL     1      20.931 -32.262  22.807  1.00  0.00     0.000 C 
BRANCH   6   7
ATOM      7  C   UNL     1      22.169 -31.356  22.907  1.00  0.00     0.000 C 
BRANCH   7   8
ATOM      8  C   UNL     1      21.852 -29.872  22.647  1.00  0.00     0.000 C 
BRANCH   8   9
ATOM      9  C   UNL     1      20.420 -29.584  22.153  1.00  0.00     0.000 C 
BRANCH   9  10
ATOM     10  C   UNL     1      20.320 -29.013  20.724  1.00  0.00     0.000 C 
BRANCH  10  11
ATOM     11  C   UNL     1      19.560 -27.677  20.604  1.00  0.00     0.000 C 
BRANCH  11  12
ATOM     12  C   UNL     1      20.441 -26.451  20.313  1.00  0.00     0.000 C 
BRANCH  12  13
ATOM     13  C   UNL     1      21.194 -25.948  21.557  1.00  0.00     0.006 C 
BRANCH  13  14
ATOM     14  C   UNL     1      22.714 -25.952  21.349  1.00  0.00     0.053 C 
BRANCH  14  15
ATOM     15  C   UNL     1      23.088 -25.572  19.949  1.00  0.00     0.041 C 
ATOM     16  O   UNL     1      23.421 -26.460  19.119  1.00  0.00    -0.550 OA
ATOM     17  O   UNL     1      23.104 -24.235  19.568  1.00  0.00    -0.550 OA
ENDBRANCH  14  15
ENDBRANCH  13  14
ENDBRANCH  12  13
ENDBRANCH  11  12
ENDBRANCH  10  11
ENDBRANCH   9  10
ENDBRANCH   8   9
ENDBRANCH   7   8
ENDBRANCH   6   7
ENDBRANCH   5   6
ENDBRANCH   4   5
ENDBRANCH   3   4
ENDBRANCH   2   3
ENDBRANCH   1   2
BRANCH   1  18
ATOM     18  C   UNL     1      18.014 -36.993  20.925  1.00  0.00     0.000 C 
BRANCH  18  19
ATOM     19  C   UNL     1      16.888 -36.655  19.935  1.00  0.00     0.000 C 
BRANCH  19  20
ATOM     20  C   UNL     1      17.210 -35.368  19.163  1.00  0.00     0.000 C 
BRANCH  20  21
ATOM     21  C   UNL     1      16.042 -34.371  19.239  1.00  0.00     0.000 C 
BRANCH  21  22
ATOM     22  C   UNL     1      15.069 -34.668  20.395  1.00  0.00     0.000 C 
BRANCH  22  23
ATOM     23  C   UNL     1      14.631 -33.436  21.222  1.00  0.00     0.000 C 
BRANCH  23  24
ATOM     24  C   UNL     1      13.748 -32.423  20.465  1.00  0.00    -0.000 C 
BRANCH  24  25
ATOM     25  C   UNL     1      13.356 -31.210  21.329  1.00  0.00    -0.000 C 
BRANCH  25  26
ATOM     26  C   UNL     1      13.512 -31.502  22.832  1.00  0.00    -0.000 C 
BRANCH  26  27
ATOM     27  C   UNL     1      14.173 -30.323  23.572  1.00  0.00    -0.000 C 
BRANCH  27  28
ATOM     28  C   UNL     1      15.404 -29.766  22.828  1.00  0.00    -0.000 C 
BRANCH  28  29
ATOM     29  C   UNL     1      16.746 -30.310  23.351  1.00  0.00    -0.000 C 
BRANCH  29  30
ATOM     30  C   UNL     1      17.292 -31.509  22.542  1.00  0.00    -0.000 C 
BRANCH  30  31
ATOM     31  C   UNL     1      17.372 -31.243  21.027  1.00  0.00    -0.003 C 
ATOM     32  C   UNL     1      18.438 -32.094  20.338  1.00  0.00     0.004 C 
ENDBRANCH  30  31
ENDBRANCH  29  30
ENDBRANCH  28  29
ENDBRANCH  27  28
ENDBRANCH  26  27
ENDBRANCH  25  26
ENDBRANCH  24  25
ENDBRANCH  23  24
ENDBRANCH  22  23
ENDBRANCH  21  22
ENDBRANCH  20  21
ENDBRANCH  19  20
ENDBRANCH  18  19
ENDBRANCH   1  18
TORSDOF 28
ENDMDL
