MODEL 1
REMARK VINA RESULT:    -3.929      0.000      0.000
REMARK INTER + INTRA:          -9.008
REMARK INTER:                  -7.144
REMARK INTRA:                  -1.864
REMARK UNBOUND:                -1.864
REMARK SMILES CCCCCCCCCCCCCCCC(=O)[O-]
REMARK SMILES IDX 9 1 10 2 11 3 12 4 13 5 14 6 15 7 16 8 17 9 18 10 8 11 7 12
REMARK SMILES IDX 6 13 5 14 4 15 3 16 2 17 1 18
REMARK H PARENT
REMARK Flexibility Score: inf
ROOT
ATOM      1  C   UNL     1      25.469  11.873  20.406  1.00  0.00     0.000 C 
ENDROOT
BRANCH   1   2
ATOM      2  C   UNL     1      25.794  12.620  21.709  1.00  0.00     0.000 C 
BRANCH   2   3
ATOM      3  C   UNL     1      26.886  11.921  22.533  1.00  0.00     0.000 C 
BRANCH   3   4
ATOM      4  C   UNL     1      26.973  10.417  22.239  1.00  0.00     0.000 C 
BRANCH   4   5
ATOM      5  C   UNL     1      28.433   9.953  22.163  1.00  0.00     0.000 C 
BRANCH   5   6
ATOM      6  C   UNL     1      28.712   9.229  20.842  1.00  0.00     0.006 C 
BRANCH   6   7
ATOM      7  C   UNL     1      30.180   9.379  20.431  1.00  0.00     0.053 C 
BRANCH   7   8
ATOM      8  C   UNL     1      30.313   9.338  18.942  1.00  0.00     0.041 C 
ATOM      9  O   UNL     1      29.285   9.312  18.213  1.00  0.00    -0.550 OA
ATOM     10  O   UNL     1      31.571   9.267  18.358  1.00  0.00    -0.550 OA
ENDBRANCH   7   8
ENDBRANCH   6   7
ENDBRANCH   5   6
ENDBRANCH   4   5
ENDBRANCH   3   4
ENDBRANCH   2   3
ENDBRANCH   1   2
BRANCH   1  11
ATOM     11  C   UNL     1      23.965  11.591  20.241  1.00  0.00     0.000 C 
BRANCH  11  12
ATOM     12  C   UNL     1      23.140  11.677  21.541  1.00  0.00    -0.000 C 
BRANCH  12  13
ATOM     13  C   UNL     1      22.633  10.329  22.084  1.00  0.00    -0.000 C 
BRANCH  13  14
ATOM     14  C   UNL     1      22.484  10.319  23.613  1.00  0.00    -0.000 C 
BRANCH  14  15
ATOM     15  C   UNL     1      23.583  11.161  24.279  1.00  0.00    -0.000 C 
BRANCH  15  16
ATOM     16  C   UNL     1      24.567  10.296  25.095  1.00  0.00    -0.000 C 
BRANCH  16  17
ATOM     17  C   UNL     1      25.496  11.114  26.008  1.00  0.00    -0.003 C 
ATOM     18  C   UNL     1      26.933  10.599  26.017  1.00  0.00     0.004 C 
ENDBRANCH  16  17
ENDBRANCH  15  16
ENDBRANCH  14  15
ENDBRANCH  13  14
ENDBRANCH  12  13
ENDBRANCH  11  12
ENDBRANCH   1  11
TORSDOF 14
ENDMDL
MODEL 2
REMARK VINA RESULT:    -3.922      3.236      6.234
REMARK INTER + INTRA:          -8.996
REMARK INTER:                  -7.203
REMARK INTRA:                  -1.793
REMARK UNBOUND:                -1.864
REMARK SMILES CCCCCCCCCCCCCCCC(=O)[O-]
REMARK SMILES IDX 9 1 10 2 11 3 12 4 13 5 14 6 15 7 16 8 17 9 18 10 8 11 7 12
REMARK SMILES IDX 6 13 5 14 4 15 3 16 2 17 1 18
REMARK H PARENT
REMARK Flexibility Score: inf
ROOT
ATOM      1  C   UNL     1      24.111  12.390  20.138  1.00  0.00     0.000 C 
ENDROOT
BRANCH   1   2
ATOM      2  C   UNL     1      23.273  11.132  20.415  1.00  0.00     0.000 C 
BRANCH   2   3
ATOM      3  C   UNL     1      22.315  11.312  21.604  1.00  0.00     0.000 C 
BRANCH   3   4
ATOM      4  C   UNL     1      22.243  10.064  22.496  1.00  0.00     0.000 C 
BRANCH   4   5
ATOM      5  C   UNL     1      22.450  10.429  23.971  1.00  0.00     0.000 C 
BRANCH   5   6
ATOM      6  C   UNL     1      23.905  10.833  24.238  1.00  0.00     0.006 C 
BRANCH   6   7
ATOM      7  C   UNL     1      23.975  12.096  25.101  1.00  0.00     0.053 C 
BRANCH   7   8
ATOM      8  C   UNL     1      24.819  13.137  24.436  1.00  0.00     0.041 C 
ATOM      9  O   UNL     1      25.935  13.458  24.927  1.00  0.00    -0.550 OA
ATOM     10  O   UNL     1      24.349  13.797  23.308  1.00  0.00    -0.550 OA
ENDBRANCH   7   8
ENDBRANCH   6   7
ENDBRANCH   5   6
ENDBRANCH   4   5
ENDBRANCH   3   4
ENDBRANCH   2   3
ENDBRANCH   1   2
BRANCH   1  11
ATOM     11  C   UNL     1      25.621  12.149  20.309  1.00  0.00     0.000 C 
BRANCH  11  12
ATOM     12  C   UNL     1      25.992  11.020  21.293  1.00  0.00    -0.000 C 
BRANCH  12  13
ATOM     13  C   UNL     1      27.139  11.350  22.264  1.00  0.00    -0.000 C 
BRANCH  13  14
ATOM     14  C   UNL     1      27.733  10.101  22.933  1.00  0.00    -0.000 C 
BRANCH  14  15
ATOM     15  C   UNL     1      28.237   9.101  21.881  1.00  0.00    -0.000 C 
BRANCH  15  16
ATOM     16  C   UNL     1      29.495   9.610  21.146  1.00  0.00    -0.000 C 
BRANCH  16  17
ATOM     17  C   UNL     1      29.753   8.903  19.803  1.00  0.00    -0.003 C 
ATOM     18  C   UNL     1      28.738   9.276  18.726  1.00  0.00     0.004 C 
ENDBRANCH  16  17
ENDBRANCH  15  16
ENDBRANCH  14  15
ENDBRANCH  13  14
ENDBRANCH  12  13
ENDBRANCH  11  12
ENDBRANCH   1  11
TORSDOF 14
ENDMDL
MODEL 3
REMARK VINA RESULT:    -3.862      2.491      3.177
REMARK INTER + INTRA:          -8.887
REMARK INTER:                  -6.515
REMARK INTRA:                  -2.372
REMARK UNBOUND:                -1.864
REMARK SMILES CCCCCCCCCCCCCCCC(=O)[O-]
REMARK SMILES IDX 9 1 10 2 11 3 12 4 13 5 14 6 15 7 16 8 17 9 18 10 8 11 7 12
REMARK SMILES IDX 6 13 5 14 4 15 3 16 2 17 1 18
REMARK H PARENT
REMARK Flexibility Score: inf
ROOT
ATOM      1  C   UNL     1      23.011  12.140  20.104  1.00  0.00     0.000 C 
ENDROOT
BRANCH   1   2
ATOM      2  C   UNL     1      24.304  12.957  19.953  1.00  0.00     0.000 C 
BRANCH   2   3
ATOM      3  C   UNL     1      25.523  12.252  20.570  1.00  0.00     0.000 C 
BRANCH   3   4
ATOM      4  C   UNL     1      26.004  12.931  21.860  1.00  0.00     0.000 C 
BRANCH   4   5
ATOM      5  C   UNL     1      26.964  12.020  22.636  1.00  0.00     0.000 C 
BRANCH   5   6
ATOM      6  C   UNL     1      26.764  10.551  22.247  1.00  0.00     0.006 C 
BRANCH   6   7
ATOM      7  C   UNL     1      28.100   9.805  22.211  1.00  0.00     0.053 C 
BRANCH   7   8
ATOM      8  C   UNL     1      28.468   9.324  23.579  1.00  0.00     0.041 C 
ATOM      9  O   UNL     1      27.569   9.039  24.414  1.00  0.00    -0.550 OA
ATOM     10  O   UNL     1      29.804   9.247  23.952  1.00  0.00    -0.550 OA
ENDBRANCH   7   8
ENDBRANCH   6   7
ENDBRANCH   5   6
ENDBRANCH   4   5
ENDBRANCH   3   4
ENDBRANCH   2   3
ENDBRANCH   1   2
BRANCH   1  11
ATOM     11  C   UNL     1      23.269  10.697  20.568  1.00  0.00     0.000 C 
BRANCH  11  12
ATOM     12  C   UNL     1      22.605  10.316  21.908  1.00  0.00    -0.000 C 
BRANCH  12  13
ATOM     13  C   UNL     1      22.931  11.248  23.088  1.00  0.00    -0.000 C 
BRANCH  13  14
ATOM     14  C   UNL     1      23.630  10.521  24.247  1.00  0.00    -0.000 C 
BRANCH  14  15
ATOM     15  C   UNL     1      24.158  11.522  25.286  1.00  0.00    -0.000 C 
BRANCH  15  16
ATOM     16  C   UNL     1      23.824  12.982  24.914  1.00  0.00    -0.000 C 
BRANCH  16  17
ATOM     17  C   UNL     1      24.985  13.962  25.156  1.00  0.00    -0.003 C 
ATOM     18  C   UNL     1      26.095  13.372  26.021  1.00  0.00     0.004 C 
ENDBRANCH  16  17
ENDBRANCH  15  16
ENDBRANCH  14  15
ENDBRANCH  13  14
ENDBRANCH  12  13
ENDBRANCH  11  12
ENDBRANCH   1  11
TORSDOF 14
ENDMDL
MODEL 4
REMARK VINA RESULT:    -3.784      2.374      4.070
REMARK INTER + INTRA:          -8.744
REMARK INTER:                  -6.054
REMARK INTRA:                  -2.690
REMARK UNBOUND:                -1.864
REMARK SMILES CCCCCCCCCCCCCCCC(=O)[O-]
REMARK SMILES IDX 9 1 10 2 11 3 12 4 13 5 14 6 15 7 16 8 17 9 18 10 8 11 7 12
REMARK SMILES IDX 6 13 5 14 4 15 3 16 2 17 1 18
REMARK H PARENT
REMARK Flexibility Score: inf
ROOT
ATOM      1  C   UNL     1      23.154  10.406  20.794  1.00  0.00     0.000 C 
ENDROOT
BRANCH   1   2
ATOM      2  C   UNL     1      22.893  11.877  20.432  1.00  0.00     0.000 C 
BRANCH   2   3
ATOM      3  C   UNL     1      24.189  12.657  20.160  1.00  0.00     0.000 C 
BRANCH   3   4
ATOM      4  C   UNL     1      25.432  11.941  20.707  1.00  0.00     0.000 C 
BRANCH   4   5
ATOM      5  C   UNL     1      26.071  12.741  21.849  1.00  0.00     0.000 C 
BRANCH   5   6
ATOM      6  C   UNL     1      26.752  11.810  22.859  1.00  0.00     0.006 C 
BRANCH   6   7
ATOM      7  C   UNL     1      27.061  10.449  22.230  1.00  0.00     0.053 C 
BRANCH   7   8
ATOM      8  C   UNL     1      28.428   9.988  22.626  1.00  0.00     0.041 C 
ATOM      9  O   UNL     1      28.635   9.537  23.785  1.00  0.00    -0.550 OA
ATOM     10  O   UNL     1      29.488  10.112  21.737  1.00  0.00    -0.550 OA
ENDBRANCH   7   8
ENDBRANCH   6   7
ENDBRANCH   5   6
ENDBRANCH   4   5
ENDBRANCH   3   4
ENDBRANCH   2   3
ENDBRANCH   1   2
BRANCH   1  11
ATOM     11  C   UNL     1      22.290   9.920  21.970  1.00  0.00     0.000 C 
BRANCH  11  12
ATOM     12  C   UNL     1      22.151  10.923  23.134  1.00  0.00    -0.000 C 
BRANCH  12  13
ATOM     13  C   UNL     1      23.355  10.986  24.091  1.00  0.00    -0.000 C 
BRANCH  13  14
ATOM     14  C   UNL     1      23.616  12.401  24.629  1.00  0.00    -0.000 C 
BRANCH  14  15
ATOM     15  C   UNL     1      22.723  13.433  23.921  1.00  0.00    -0.000 C 
BRANCH  15  16
ATOM     16  C   UNL     1      23.497  14.712  23.541  1.00  0.00    -0.000 C 
BRANCH  16  17
ATOM     17  C   UNL     1      22.966  15.401  22.272  1.00  0.00    -0.003 C 
ATOM     18  C   UNL     1      24.048  16.155  21.503  1.00  0.00     0.004 C 
ENDBRANCH  16  17
ENDBRANCH  15  16
ENDBRANCH  14  15
ENDBRANCH  13  14
ENDBRANCH  12  13
ENDBRANCH  11  12
ENDBRANCH   1  11
TORSDOF 14
ENDMDL
MODEL 5
REMARK VINA RESULT:    -3.698      1.283      2.117
REMARK INTER + INTRA:          -8.589
REMARK INTER:                  -6.707
REMARK INTRA:                  -1.882
REMARK UNBOUND:                -1.864
REMARK SMILES CCCCCCCCCCCCCCCC(=O)[O-]
REMARK SMILES IDX 9 1 10 2 11 3 12 4 13 5 14 6 15 7 16 8 17 9 18 10 8 11 7 12
REMARK SMILES IDX 6 13 5 14 4 15 3 16 2 17 1 18
REMARK H PARENT
REMARK Flexibility Score: inf
ROOT
ATOM      1  C   UNL     1      25.895  12.650  21.763  1.00  0.00     0.000 C 
ENDROOT
BRANCH   1   2
ATOM      2  C   UNL     1      26.799  11.966  22.802  1.00  0.00     0.000 C 
BRANCH   2   3
ATOM      3  C   UNL     1      26.499  10.466  22.949  1.00  0.00     0.000 C 
BRANCH   3   4
ATOM      4  C   UNL     1      27.772   9.625  23.119  1.00  0.00     0.000 C 
BRANCH   4   5
ATOM      5  C   UNL     1      28.978  10.313  22.466  1.00  0.00     0.000 C 
BRANCH   5   6
ATOM      6  C   UNL     1      29.735   9.344  21.551  1.00  0.00     0.006 C 
BRANCH   6   7
ATOM      7  C   UNL     1      28.994   9.149  20.225  1.00  0.00     0.053 C 
BRANCH   7   8
ATOM      8  C   UNL     1      29.939   9.287  19.073  1.00  0.00     0.041 C 
ATOM      9  O   UNL     1      31.166   9.487  19.280  1.00  0.00    -0.550 OA
ATOM     10  O   UNL     1      29.457   9.254  17.771  1.00  0.00    -0.550 OA
ENDBRANCH   7   8
ENDBRANCH   6   7
ENDBRANCH   5   6
ENDBRANCH   4   5
ENDBRANCH   3   4
ENDBRANCH   2   3
ENDBRANCH   1   2
BRANCH   1  11
ATOM     11  C   UNL     1      25.605  11.755  20.546  1.00  0.00     0.000 C 
BRANCH  11  12
ATOM     12  C   UNL     1      24.127  11.349  20.374  1.00  0.00    -0.000 C 
BRANCH  12  13
ATOM     13  C   UNL     1      23.103  12.432  20.759  1.00  0.00    -0.000 C 
BRANCH  13  14
ATOM     14  C   UNL     1      22.081  11.945  21.797  1.00  0.00    -0.000 C 
BRANCH  14  15
ATOM     15  C   UNL     1      22.388  10.505  22.238  1.00  0.00    -0.000 C 
BRANCH  15  16
ATOM     16  C   UNL     1      22.850  10.429  23.708  1.00  0.00    -0.000 C 
BRANCH  16  17
ATOM     17  C   UNL     1      23.230  11.795  24.306  1.00  0.00    -0.003 C 
ATOM     18  C   UNL     1      22.649  12.020  25.700  1.00  0.00     0.004 C 
ENDBRANCH  16  17
ENDBRANCH  15  16
ENDBRANCH  14  15
ENDBRANCH  13  14
ENDBRANCH  12  13
ENDBRANCH  11  12
ENDBRANCH   1  11
TORSDOF 14
ENDMDL
MODEL 6
REMARK VINA RESULT:    -3.692      2.486      4.868
REMARK INTER + INTRA:          -8.578
REMARK INTER:                  -6.028
REMARK INTRA:                  -2.551
REMARK UNBOUND:                -1.864
REMARK SMILES CCCCCCCCCCCCCCCC(=O)[O-]
REMARK SMILES IDX 9 1 10 2 11 3 12 4 13 5 14 6 15 7 16 8 17 9 18 10 8 11 7 12
REMARK SMILES IDX 6 13 5 14 4 15 3 16 2 17 1 18
REMARK H PARENT
REMARK Flexibility Score: inf
ROOT
ATOM      1  C   UNL     1      22.957  10.984  24.186  1.00  0.00     0.000 C 
ENDROOT
BRANCH   1   2
ATOM      2  C   UNL     1      23.683  12.234  24.712  1.00  0.00     0.000 C 
BRANCH   2   3
ATOM      3  C   UNL     1      23.613  13.414  23.729  1.00  0.00     0.000 C 
BRANCH   3   4
ATOM      4  C   UNL     1      25.000  13.975  23.385  1.00  0.00     0.000 C 
BRANCH   4   5
ATOM      5  C   UNL     1      26.095  12.930  23.637  1.00  0.00     0.000 C 
BRANCH   5   6
ATOM      6  C   UNL     1      26.624  12.358  22.316  1.00  0.00     0.006 C 
BRANCH   6   7
ATOM      7  C   UNL     1      26.397  10.846  22.242  1.00  0.00     0.053 C 
BRANCH   7   8
ATOM      8  C   UNL     1      27.677  10.112  22.491  1.00  0.00     0.041 C 
ATOM      9  O   UNL     1      28.260   9.516  21.545  1.00  0.00    -0.550 OA
ATOM     10  O   UNL     1      28.196  10.035  23.776  1.00  0.00    -0.550 OA
ENDBRANCH   7   8
ENDBRANCH   6   7
ENDBRANCH   5   6
ENDBRANCH   4   5
ENDBRANCH   3   4
ENDBRANCH   2   3
ENDBRANCH   1   2
BRANCH   1  11
ATOM     11  C   UNL     1      22.333  11.199  22.797  1.00  0.00     0.000 C 
BRANCH  11  12
ATOM     12  C   UNL     1      22.756  10.172  21.727  1.00  0.00    -0.000 C 
BRANCH  12  13
ATOM     13  C   UNL     1      23.266  10.775  20.406  1.00  0.00    -0.000 C 
BRANCH  13  14
ATOM     14  C   UNL     1      22.973  12.278  20.284  1.00  0.00    -0.000 C 
BRANCH  14  15
ATOM     15  C   UNL     1      24.164  13.021  19.658  1.00  0.00    -0.000 C 
BRANCH  15  16
ATOM     16  C   UNL     1      23.816  14.480  19.296  1.00  0.00    -0.000 C 
BRANCH  16  17
ATOM     17  C   UNL     1      22.996  15.206  20.377  1.00  0.00    -0.003 C 
ATOM     18  C   UNL     1      23.681  16.466  20.902  1.00  0.00     0.004 C 
ENDBRANCH  16  17
ENDBRANCH  15  16
ENDBRANCH  14  15
ENDBRANCH  13  14
ENDBRANCH  12  13
ENDBRANCH  11  12
ENDBRANCH   1  11
TORSDOF 14
ENDMDL
MODEL 7
REMARK VINA RESULT:    -3.670     15.173     16.593
REMARK INTER + INTRA:          -8.537
REMARK INTER:                  -6.286
REMARK INTRA:                  -2.251
REMARK UNBOUND:                -1.864
REMARK SMILES CCCCCCCCCCCCCCCC(=O)[O-]
REMARK SMILES IDX 9 1 10 2 11 3 12 4 13 5 14 6 15 7 16 8 17 9 18 10 8 11 7 12
REMARK SMILES IDX 6 13 5 14 4 15 3 16 2 17 1 18
REMARK H PARENT
REMARK Flexibility Score: inf
ROOT
ATOM      1  C   UNL     1      26.886  25.789  22.519  1.00  0.00     0.000 C 
ENDROOT
BRANCH   1   2
ATOM      2  C   UNL     1      26.979  27.256  22.969  1.00  0.00     0.000 C 
BRANCH   2   3
ATOM      3  C   UNL     1      28.426  27.771  23.005  1.00  0.00     0.000 C 
BRANCH   3   4
ATOM      4  C   UNL     1      28.891  28.316  21.647  1.00  0.00     0.000 C 
BRANCH   4   5
ATOM      5  C   UNL     1      27.738  29.009  20.909  1.00  0.00     0.000 C 
BRANCH   5   6
ATOM      6  C   UNL     1      27.591  28.462  19.484  1.00  0.00     0.006 C 
BRANCH   6   7
ATOM      7  C   UNL     1      28.539  27.283  19.247  1.00  0.00     0.053 C 
BRANCH   7   8
ATOM      8  C   UNL     1      27.934  26.312  18.283  1.00  0.00     0.041 C 
ATOM      9  O   UNL     1      27.946  25.077  18.536  1.00  0.00    -0.550 OA
ATOM     10  O   UNL     1      27.410  26.762  17.079  1.00  0.00    -0.550 OA
ENDBRANCH   7   8
ENDBRANCH   6   7
ENDBRANCH   5   6
ENDBRANCH   4   5
ENDBRANCH   3   4
ENDBRANCH   2   3
ENDBRANCH   1   2
BRANCH   1  11
ATOM     11  C   UNL     1      25.823  25.567  21.429  1.00  0.00     0.000 C 
BRANCH  11  12
ATOM     12  C   UNL     1      24.811  26.719  21.263  1.00  0.00    -0.000 C 
BRANCH  12  13
ATOM     13  C   UNL     1      23.340  26.339  21.509  1.00  0.00    -0.000 C 
BRANCH  13  14
ATOM     14  C   UNL     1      22.432  27.562  21.705  1.00  0.00    -0.000 C 
BRANCH  14  15
ATOM     15  C   UNL     1      22.352  27.957  23.188  1.00  0.00    -0.000 C 
BRANCH  15  16
ATOM     16  C   UNL     1      22.491  26.739  24.125  1.00  0.00    -0.000 C 
BRANCH  16  17
ATOM     17  C   UNL     1      23.700  26.824  25.073  1.00  0.00    -0.003 C 
ATOM     18  C   UNL     1      24.434  25.495  25.229  1.00  0.00     0.004 C 
ENDBRANCH  16  17
ENDBRANCH  15  16
ENDBRANCH  14  15
ENDBRANCH  13  14
ENDBRANCH  12  13
ENDBRANCH  11  12
ENDBRANCH   1  11
TORSDOF 14
ENDMDL
MODEL 8
REMARK VINA RESULT:    -3.636      3.289      5.775
REMARK INTER + INTRA:          -8.476
REMARK INTER:                  -6.303
REMARK INTRA:                  -2.173
REMARK UNBOUND:                -1.864
REMARK SMILES CCCCCCCCCCCCCCCC(=O)[O-]
REMARK SMILES IDX 9 1 10 2 11 3 12 4 13 5 14 6 15 7 16 8 17 9 18 10 8 11 7 12
REMARK SMILES IDX 6 13 5 14 4 15 3 16 2 17 1 18
REMARK H PARENT
REMARK Flexibility Score: inf
ROOT
ATOM      1  C   UNL     1      23.091  12.178  20.009  1.00  0.00     0.000 C 
ENDROOT
BRANCH   1   2
ATOM      2  C   UNL     1      23.032  10.890  20.847  1.00  0.00     0.000 C 
BRANCH   2   3
ATOM      3  C   UNL     1      22.253  11.076  22.159  1.00  0.00     0.000 C 
BRANCH   3   4
ATOM      4  C   UNL     1      22.966  10.440  23.361  1.00  0.00     0.000 C 
BRANCH   4   5
ATOM      5  C   UNL     1      23.379  11.507  24.383  1.00  0.00     0.000 C 
BRANCH   5   6
ATOM      6  C   UNL     1      23.642  10.879  25.757  1.00  0.00     0.006 C 
BRANCH   6   7
ATOM      7  C   UNL     1      24.778   9.855  25.685  1.00  0.00     0.053 C 
BRANCH   7   8
ATOM      8  C   UNL     1      25.911  10.267  26.572  1.00  0.00     0.041 C 
ATOM      9  O   UNL     1      26.435  11.406  26.443  1.00  0.00    -0.550 OA
ATOM     10  O   UNL     1      26.428   9.373  27.500  1.00  0.00    -0.550 OA
ENDBRANCH   7   8
ENDBRANCH   6   7
ENDBRANCH   5   6
ENDBRANCH   4   5
ENDBRANCH   3   4
ENDBRANCH   2   3
ENDBRANCH   1   2
BRANCH   1  11
ATOM     11  C   UNL     1      24.527  12.693  19.809  1.00  0.00     0.000 C 
BRANCH  11  12
ATOM     12  C   UNL     1      25.587  12.032  20.715  1.00  0.00    -0.000 C 
BRANCH  12  13
ATOM     13  C   UNL     1      26.028  12.873  21.927  1.00  0.00    -0.000 C 
BRANCH  13  14
ATOM     14  C   UNL     1      26.721  12.036  23.012  1.00  0.00    -0.000 C 
BRANCH  14  15
ATOM     15  C   UNL     1      26.724  10.545  22.641  1.00  0.00    -0.000 C 
BRANCH  15  16
ATOM     16  C   UNL     1      27.830   9.762  23.378  1.00  0.00    -0.000 C 
BRANCH  16  17
ATOM     17  C   UNL     1      28.681   8.876  22.451  1.00  0.00    -0.003 C 
ATOM     18  C   UNL     1      28.730   9.388  21.013  1.00  0.00     0.004 C 
ENDBRANCH  16  17
ENDBRANCH  15  16
ENDBRANCH  14  15
ENDBRANCH  13  14
ENDBRANCH  12  13
ENDBRANCH  11  12
ENDBRANCH   1  11
TORSDOF 14
ENDMDL
MODEL 9
REMARK VINA RESULT:    -3.616      3.407      5.812
REMARK INTER + INTRA:          -8.439
REMARK INTER:                  -5.809
REMARK INTRA:                  -2.630
REMARK UNBOUND:                -1.864
REMARK SMILES CCCCCCCCCCCCCCCC(=O)[O-]
REMARK SMILES IDX 9 1 10 2 11 3 12 4 13 5 14 6 15 7 16 8 17 9 18 10 8 11 7 12
REMARK SMILES IDX 6 13 5 14 4 15 3 16 2 17 1 18
REMARK H PARENT
REMARK Flexibility Score: inf
ROOT
ATOM      1  C   UNL     1      23.746  11.968  20.118  1.00  0.00     0.000 C 
ENDROOT
BRANCH   1   2
ATOM      2  C   UNL     1      23.154  10.790  20.909  1.00  0.00     0.000 C 
BRANCH   2   3
ATOM      3  C   UNL     1      22.253  11.250  22.066  1.00  0.00     0.000 C 
BRANCH   3   4
ATOM      4  C   UNL     1      22.336  10.317  23.282  1.00  0.00     0.000 C 
BRANCH   4   5
ATOM      5  C   UNL     1      23.033  11.008  24.461  1.00  0.00     0.000 C 
BRANCH   5   6
ATOM      6  C   UNL     1      23.853  10.005  25.280  1.00  0.00     0.006 C 
BRANCH   6   7
ATOM      7  C   UNL     1      24.995  10.704  26.023  1.00  0.00     0.053 C 
BRANCH   7   8
ATOM      8  C   UNL     1      26.108   9.743  26.295  1.00  0.00     0.041 C 
ATOM      9  O   UNL     1      26.772   9.254  25.341  1.00  0.00    -0.550 OA
ATOM     10  O   UNL     1      26.376   9.339  27.596  1.00  0.00    -0.550 OA
ENDBRANCH   7   8
ENDBRANCH   6   7
ENDBRANCH   5   6
ENDBRANCH   4   5
ENDBRANCH   3   4
ENDBRANCH   2   3
ENDBRANCH   1   2
BRANCH   1  11
ATOM     11  C   UNL     1      25.251  12.158  20.370  1.00  0.00     0.000 C 
BRANCH  11  12
ATOM     12  C   UNL     1      25.890  11.118  21.314  1.00  0.00    -0.000 C 
BRANCH  12  13
ATOM     13  C   UNL     1      26.294  11.653  22.699  1.00  0.00    -0.000 C 
BRANCH  13  14
ATOM     14  C   UNL     1      26.387  13.186  22.743  1.00  0.00    -0.000 C 
BRANCH  14  15
ATOM     15  C   UNL     1      25.589  13.752  23.928  1.00  0.00    -0.000 C 
BRANCH  15  16
ATOM     16  C   UNL     1      24.180  14.224  23.512  1.00  0.00    -0.000 C 
BRANCH  16  17
ATOM     17  C   UNL     1      24.180  15.173  22.301  1.00  0.00    -0.003 C 
ATOM     18  C   UNL     1      22.830  15.235  21.589  1.00  0.00     0.004 C 
ENDBRANCH  16  17
ENDBRANCH  15  16
ENDBRANCH  14  15
ENDBRANCH  13  14
ENDBRANCH  12  13
ENDBRANCH  11  12
ENDBRANCH   1  11
TORSDOF 14
ENDMDL
