MODEL 1
REMARK VINA RESULT:    -7.668      0.000      0.000
REMARK INTER + INTRA:          -9.366
REMARK INTER:                  -9.237
REMARK INTRA:                  -0.129
REMARK UNBOUND:                -0.129
REMARK SMILES O=c1c(O)c(-c2ccc(O)c(O)c2)oc2cc(O)cc(O)c12
REMARK SMILES IDX 5 1 3 2 2 3 1 4 22 5 20 6 19 7 17 8 16 9 15 10 14 11 6 12
REMARK SMILES IDX 7 13 8 14 9 15 13 16 11 17 10 18 12 20 4 22 21 24 18 26
REMARK H PARENT 10 19 12 21 4 23 21 25 18 27
REMARK Flexibility Score: inf
ROOT
ATOM      1  C   UNL     1      -8.030  49.518  54.999  1.00  0.00     0.180 A 
ATOM      2  C   UNL     1      -7.492  49.521  56.300  1.00  0.00     0.208 A 
ATOM      3  C   UNL     1      -6.097  49.532  56.457  1.00  0.00     0.238 A 
ATOM      4  O   UNL     1      -5.604  49.546  57.617  1.00  0.00    -0.285 OA
ATOM      5  C   UNL     1      -5.267  49.519  55.317  1.00  0.00     0.111 A 
ATOM      6  C   UNL     1      -3.853  49.524  55.388  1.00  0.00     0.134 A 
ATOM      7  C   UNL     1      -3.096  49.501  54.207  1.00  0.00     0.093 A 
ATOM      8  C   UNL     1      -3.724  49.472  52.960  1.00  0.00     0.123 A 
ATOM      9  C   UNL     1      -5.120  49.467  52.882  1.00  0.00     0.094 A 
ATOM     10  C   UNL     1      -5.892  49.491  54.049  1.00  0.00     0.146 A 
ATOM     11  O   UNL     1      -7.216  49.490  53.947  1.00  0.00    -0.452 OA
ENDROOT
BRANCH   1  12
ATOM     12  C   UNL     1      -9.490  49.526  54.751  1.00  0.00     0.025 A 
ATOM     13  C   UNL     1     -10.268  48.438  55.178  1.00  0.00     0.016 A 
ATOM     14  C   UNL     1     -11.643  48.414  54.936  1.00  0.00     0.051 A 
ATOM     15  C   UNL     1     -12.260  49.470  54.252  1.00  0.00     0.157 A 
ATOM     16  C   UNL     1     -10.108  50.574  54.046  1.00  0.00     0.062 A 
ATOM     17  C   UNL     1     -11.486  50.553  53.802  1.00  0.00     0.158 A 
BRANCH  15  18
ATOM     18  O   UNL     1     -13.633  49.445  54.015  1.00  0.00    -0.504 OA
ATOM     19  H   UNL     1     -14.272  50.043  54.527  1.00  0.00     0.293 HD
ENDBRANCH  15  18
BRANCH  17  20
ATOM     20  O   UNL     1     -12.066  51.612  53.105  1.00  0.00    -0.504 OA
ATOM     21  H   UNL     1     -11.672  52.545  53.118  1.00  0.00     0.293 HD
ENDBRANCH  17  20
ENDBRANCH   1  12
BRANCH   2  22
ATOM     22  O   UNL     1      -8.336  49.483  57.413  1.00  0.00    -0.502 OA
ATOM     23  H   UNL     1      -9.265  49.885  57.402  1.00  0.00     0.293 HD
ENDBRANCH   2  22
BRANCH   6  24
ATOM     24  O   UNL     1      -3.196  49.553  56.620  1.00  0.00    -0.507 OA
ATOM     25  H   UNL     1      -2.652  50.355  56.914  1.00  0.00     0.293 HD
ENDBRANCH   6  24
BRANCH   8  26
ATOM     26  O   UNL     1      -2.950  49.449  51.802  1.00  0.00    -0.508 OA
ATOM     27  H   UNL     1      -3.317  49.095  50.926  1.00  0.00     0.293 HD
ENDBRANCH   8  26
TORSDOF 6
ENDMDL
MODEL 2
REMARK VINA RESULT:    -7.638      1.810      6.891
REMARK INTER + INTRA:          -9.330
REMARK INTER:                  -8.999
REMARK INTRA:                  -0.331
REMARK UNBOUND:                -0.129
REMARK SMILES O=c1c(O)c(-c2ccc(O)c(O)c2)oc2cc(O)cc(O)c12
REMARK SMILES IDX 5 1 3 2 2 3 1 4 22 5 20 6 19 7 17 8 16 9 15 10 14 11 6 12
REMARK SMILES IDX 7 13 8 14 9 15 13 16 11 17 10 18 12 20 4 22 21 24 18 26
REMARK H PARENT 10 19 12 21 4 23 21 25 18 27
REMARK Flexibility Score: inf
ROOT
ATOM      1  C   UNL     1      -8.481  49.410  55.821  1.00  0.00     0.180 A 
ATOM      2  C   UNL     1      -9.203  48.225  56.061  1.00  0.00     0.208 A 
ATOM      3  C   UNL     1     -10.483  48.085  55.502  1.00  0.00     0.238 A 
ATOM      4  O   UNL     1     -11.134  47.023  55.701  1.00  0.00    -0.285 OA
ATOM      5  C   UNL     1     -11.027  49.134  54.734  1.00  0.00     0.111 A 
ATOM      6  C   UNL     1     -12.311  49.075  54.140  1.00  0.00     0.134 A 
ATOM      7  C   UNL     1     -12.785  50.166  53.396  1.00  0.00     0.093 A 
ATOM      8  C   UNL     1     -12.003  51.313  53.237  1.00  0.00     0.123 A 
ATOM      9  C   UNL     1     -10.734  51.378  53.820  1.00  0.00     0.094 A 
ATOM     10  C   UNL     1     -10.243  50.299  54.564  1.00  0.00     0.146 A 
ATOM     11  O   UNL     1      -9.033  50.385  55.104  1.00  0.00    -0.452 OA
ENDROOT
BRANCH   1  12
ATOM     12  C   UNL     1      -7.119  49.624  56.359  1.00  0.00     0.025 A 
ATOM     13  C   UNL     1      -6.960  50.252  57.604  1.00  0.00     0.016 A 
ATOM     14  C   UNL     1      -5.683  50.484  58.122  1.00  0.00     0.051 A 
ATOM     15  C   UNL     1      -4.547  50.104  57.396  1.00  0.00     0.157 A 
ATOM     16  C   UNL     1      -5.976  49.264  55.624  1.00  0.00     0.062 A 
ATOM     17  C   UNL     1      -4.695  49.495  56.139  1.00  0.00     0.158 A 
BRANCH  15  18
ATOM     18  O   UNL     1      -3.274  50.334  57.916  1.00  0.00    -0.504 OA
ATOM     19  H   UNL     1      -3.058  51.175  58.439  1.00  0.00     0.293 HD
ENDBRANCH  15  18
BRANCH  17  20
ATOM     20  O   UNL     1      -3.584  49.120  55.385  1.00  0.00    -0.504 OA
ATOM     21  H   UNL     1      -2.656  49.479  55.577  1.00  0.00     0.293 HD
ENDBRANCH  17  20
ENDBRANCH   1  12
BRANCH   2  22
ATOM     22  O   UNL     1      -8.662  47.220  56.867  1.00  0.00    -0.502 OA
ATOM     23  H   UNL     1      -9.232  46.496  57.287  1.00  0.00     0.293 HD
ENDBRANCH   2  22
BRANCH   6  24
ATOM     24  O   UNL     1     -13.116  47.944  54.282  1.00  0.00    -0.507 OA
ATOM     25  H   UNL     1     -13.633  47.761  55.134  1.00  0.00     0.293 HD
ENDBRANCH   6  24
BRANCH   8  26
ATOM     26  O   UNL     1     -12.498  52.383  52.495  1.00  0.00    -0.508 OA
ATOM     27  H   UNL     1     -13.387  52.326  52.011  1.00  0.00     0.293 HD
ENDBRANCH   8  26
TORSDOF 6
ENDMDL
MODEL 3
REMARK VINA RESULT:    -7.117     19.230     21.640
REMARK INTER + INTRA:          -8.702
REMARK INTER:                  -8.379
REMARK INTRA:                  -0.323
REMARK UNBOUND:                -0.129
REMARK SMILES O=c1c(O)c(-c2ccc(O)c(O)c2)oc2cc(O)cc(O)c12
REMARK SMILES IDX 5 1 3 2 2 3 1 4 22 5 20 6 19 7 17 8 16 9 15 10 14 11 6 12
REMARK SMILES IDX 7 13 8 14 9 15 13 16 11 17 10 18 12 20 4 22 21 24 18 26
REMARK H PARENT 10 19 12 21 4 23 21 25 18 27
REMARK Flexibility Score: inf
ROOT
ATOM      1  C   UNL     1     -11.005  63.155  39.710  1.00  0.00     0.180 A 
ATOM      2  C   UNL     1     -10.867  61.794  40.045  1.00  0.00     0.208 A 
ATOM      3  C   UNL     1     -11.959  60.933  39.853  1.00  0.00     0.238 A 
ATOM      4  O   UNL     1     -11.843  59.711  40.139  1.00  0.00    -0.285 OA
ATOM      5  C   UNL     1     -13.172  61.448  39.352  1.00  0.00     0.111 A 
ATOM      6  C   UNL     1     -14.321  60.651  39.134  1.00  0.00     0.134 A 
ATOM      7  C   UNL     1     -15.495  61.240  38.641  1.00  0.00     0.093 A 
ATOM      8  C   UNL     1     -15.542  62.608  38.363  1.00  0.00     0.123 A 
ATOM      9  C   UNL     1     -14.411  63.401  38.575  1.00  0.00     0.094 A 
ATOM     10  C   UNL     1     -13.231  62.832  39.065  1.00  0.00     0.146 A 
ATOM     11  O   UNL     1     -12.169  63.608  39.254  1.00  0.00    -0.452 OA
ENDROOT
BRANCH   1  12
ATOM     12  C   UNL     1      -9.893  64.120  39.865  1.00  0.00     0.025 A 
ATOM     13  C   UNL     1      -8.955  64.264  38.830  1.00  0.00     0.016 A 
ATOM     14  C   UNL     1      -7.886  65.153  38.963  1.00  0.00     0.051 A 
ATOM     15  C   UNL     1      -7.730  65.900  40.138  1.00  0.00     0.157 A 
ATOM     16  C   UNL     1      -9.721  64.855  41.051  1.00  0.00     0.062 A 
ATOM     17  C   UNL     1      -8.650  65.746  41.188  1.00  0.00     0.158 A 
BRANCH  15  18
ATOM     18  O   UNL     1      -6.663  66.788  40.267  1.00  0.00    -0.504 OA
ATOM     19  H   UNL     1      -6.812  67.776  40.438  1.00  0.00     0.293 HD
ENDBRANCH  15  18
BRANCH  17  20
ATOM     20  O   UNL     1      -8.513  66.463  42.377  1.00  0.00    -0.504 OA
ATOM     21  H   UNL     1      -7.679  66.995  42.591  1.00  0.00     0.293 HD
ENDBRANCH  17  20
ENDBRANCH   1  12
BRANCH   2  22
ATOM     22  O   UNL     1      -9.669  61.318  40.586  1.00  0.00    -0.502 OA
ATOM     23  H   UNL     1      -8.976  60.836  40.028  1.00  0.00     0.293 HD
ENDBRANCH   2  22
BRANCH   6  24
ATOM     24  O   UNL     1     -14.305  59.281  39.402  1.00  0.00    -0.507 OA
ATOM     25  H   UNL     1     -13.499  58.706  39.190  1.00  0.00     0.293 HD
ENDBRANCH   6  24
BRANCH   8  26
ATOM     26  O   UNL     1     -16.720  63.168  37.875  1.00  0.00    -0.508 OA
ATOM     27  H   UNL     1     -17.563  63.205  38.438  1.00  0.00     0.293 HD
ENDBRANCH   8  26
TORSDOF 6
ENDMDL
MODEL 4
REMARK VINA RESULT:    -6.614      3.616      6.255
REMARK INTER + INTRA:          -8.097
REMARK INTER:                  -7.929
REMARK INTRA:                  -0.168
REMARK UNBOUND:                -0.129
REMARK SMILES O=c1c(O)c(-c2ccc(O)c(O)c2)oc2cc(O)cc(O)c12
REMARK SMILES IDX 5 1 3 2 2 3 1 4 22 5 20 6 19 7 17 8 16 9 15 10 14 11 6 12
REMARK SMILES IDX 7 13 8 14 9 15 13 16 11 17 10 18 12 20 4 22 21 24 18 26
REMARK H PARENT 10 19 12 21 4 23 21 25 18 27
REMARK Flexibility Score: inf
ROOT
ATOM      1  C   UNL     1     -13.417  48.854  53.716  1.00  0.00     0.180 A 
ATOM      2  C   UNL     1     -12.848  50.060  53.262  1.00  0.00     0.208 A 
ATOM      3  C   UNL     1     -11.551  50.398  53.679  1.00  0.00     0.238 A 
ATOM      4  O   UNL     1     -11.028  51.469  53.269  1.00  0.00    -0.285 OA
ATOM      5  C   UNL     1     -10.855  49.540  54.555  1.00  0.00     0.111 A 
ATOM      6  C   UNL     1      -9.548  49.810  55.026  1.00  0.00     0.134 A 
ATOM      7  C   UNL     1      -8.925  48.910  55.905  1.00  0.00     0.093 A 
ATOM      8  C   UNL     1      -9.583  47.751  56.321  1.00  0.00     0.123 A 
ATOM      9  C   UNL     1     -10.874  47.479  55.859  1.00  0.00     0.094 A 
ATOM     10  C   UNL     1     -11.511  48.362  54.982  1.00  0.00     0.146 A 
ATOM     11  O   UNL     1     -12.736  48.078  54.555  1.00  0.00    -0.452 OA
ENDROOT
BRANCH   1  12
ATOM     12  C   UNL     1     -14.771  48.419  53.305  1.00  0.00     0.025 A 
ATOM     13  C   UNL     1     -14.913  47.291  52.482  1.00  0.00     0.016 A 
ATOM     14  C   UNL     1     -16.179  46.875  52.064  1.00  0.00     0.051 A 
ATOM     15  C   UNL     1     -17.321  47.589  52.452  1.00  0.00     0.157 A 
ATOM     16  C   UNL     1     -15.917  49.146  53.674  1.00  0.00     0.062 A 
ATOM     17  C   UNL     1     -17.188  48.732  53.257  1.00  0.00     0.158 A 
BRANCH  15  18
ATOM     18  O   UNL     1     -18.584  47.169  52.036  1.00  0.00    -0.504 OA
ATOM     19  H   UNL     1     -19.346  47.825  51.908  1.00  0.00     0.293 HD
ENDBRANCH  15  18
BRANCH  17  20
ATOM     20  O   UNL     1     -18.303  49.473  53.646  1.00  0.00    -0.504 OA
ATOM     21  H   UNL     1     -19.246  49.117  53.548  1.00  0.00     0.293 HD
ENDBRANCH  17  20
ENDBRANCH   1  12
BRANCH   2  22
ATOM     22  O   UNL     1     -13.578  50.916  52.433  1.00  0.00    -0.502 OA
ATOM     23  H   UNL     1     -14.387  51.429  52.762  1.00  0.00     0.293 HD
ENDBRANCH   2  22
BRANCH   6  24
ATOM     24  O   UNL     1      -8.864  50.960  54.629  1.00  0.00    -0.507 OA
ATOM     25  H   UNL     1      -8.011  50.911  54.084  1.00  0.00     0.293 HD
ENDBRANCH   6  24
BRANCH   8  26
ATOM     26  O   UNL     1      -8.943  46.875  57.195  1.00  0.00    -0.508 OA
ATOM     27  H   UNL     1      -9.137  45.880  57.185  1.00  0.00     0.293 HD
ENDBRANCH   8  26
TORSDOF 6
ENDMDL
MODEL 5
REMARK VINA RESULT:    -6.137      4.681     10.801
REMARK INTER + INTRA:          -7.521
REMARK INTER:                  -7.218
REMARK INTRA:                  -0.303
REMARK UNBOUND:                -0.129
REMARK SMILES O=c1c(O)c(-c2ccc(O)c(O)c2)oc2cc(O)cc(O)c12
REMARK SMILES IDX 5 1 3 2 2 3 1 4 22 5 20 6 19 7 17 8 16 9 15 10 14 11 6 12
REMARK SMILES IDX 7 13 8 14 9 15 13 16 11 17 10 18 12 20 4 22 21 24 18 26
REMARK H PARENT 10 19 12 21 4 23 21 25 18 27
REMARK Flexibility Score: inf
ROOT
ATOM      1  C   UNL     1     -15.153  48.631  53.561  1.00  0.00     0.180 A 
ATOM      2  C   UNL     1     -15.569  47.815  52.491  1.00  0.00     0.208 A 
ATOM      3  C   UNL     1     -16.942  47.595  52.299  1.00  0.00     0.238 A 
ATOM      4  O   UNL     1     -17.327  46.875  51.338  1.00  0.00    -0.285 OA
ATOM      5  C   UNL     1     -17.872  48.174  53.188  1.00  0.00     0.111 A 
ATOM      6  C   UNL     1     -19.271  47.998  53.068  1.00  0.00     0.134 A 
ATOM      7  C   UNL     1     -20.131  48.600  53.999  1.00  0.00     0.093 A 
ATOM      8  C   UNL     1     -19.620  49.371  55.045  1.00  0.00     0.123 A 
ATOM      9  C   UNL     1     -18.239  49.549  55.169  1.00  0.00     0.094 A 
ATOM     10  C   UNL     1     -17.365  48.959  54.250  1.00  0.00     0.146 A 
ATOM     11  O   UNL     1     -16.058  49.147  54.388  1.00  0.00    -0.452 OA
ENDROOT
BRANCH   1  12
ATOM     12  C   UNL     1     -13.725  48.926  53.816  1.00  0.00     0.025 A 
ATOM     13  C   UNL     1     -12.947  48.002  54.533  1.00  0.00     0.016 A 
ATOM     14  C   UNL     1     -11.603  48.269  54.804  1.00  0.00     0.051 A 
ATOM     15  C   UNL     1     -11.020  49.469  54.375  1.00  0.00     0.157 A 
ATOM     16  C   UNL     1     -13.143  50.138  53.407  1.00  0.00     0.062 A 
ATOM     17  C   UNL     1     -11.796  50.410  53.677  1.00  0.00     0.158 A 
BRANCH  15  18
ATOM     18  O   UNL     1      -9.678  49.732  54.645  1.00  0.00    -0.504 OA
ATOM     19  H   UNL     1      -9.037  50.025  53.917  1.00  0.00     0.293 HD
ENDBRANCH  15  18
BRANCH  17  20
ATOM     20  O   UNL     1     -11.250  51.620  53.251  1.00  0.00    -0.504 OA
ATOM     21  H   UNL     1     -10.296  51.692  52.920  1.00  0.00     0.293 HD
ENDBRANCH  17  20
ENDBRANCH   1  12
BRANCH   2  22
ATOM     22  O   UNL     1     -14.625  47.213  51.654  1.00  0.00    -0.502 OA
ATOM     23  H   UNL     1     -13.846  46.677  52.014  1.00  0.00     0.293 HD
ENDBRANCH   2  22
BRANCH   6  24
ATOM     24  O   UNL     1     -19.812  47.232  52.034  1.00  0.00    -0.507 OA
ATOM     25  H   UNL     1     -20.383  47.647  51.307  1.00  0.00     0.293 HD
ENDBRANCH   6  24
BRANCH   8  26
ATOM     26  O   UNL     1     -20.495  49.957  55.956  1.00  0.00    -0.508 OA
ATOM     27  H   UNL     1     -21.331  50.444  55.652  1.00  0.00     0.293 HD
ENDBRANCH   8  26
TORSDOF 6
ENDMDL
MODEL 6
REMARK VINA RESULT:    -5.936      2.600      6.872
REMARK INTER + INTRA:          -7.280
REMARK INTER:                  -7.391
REMARK INTRA:                   0.111
REMARK UNBOUND:                -0.129
REMARK SMILES O=c1c(O)c(-c2ccc(O)c(O)c2)oc2cc(O)cc(O)c12
REMARK SMILES IDX 5 1 3 2 2 3 1 4 22 5 20 6 19 7 17 8 16 9 15 10 14 11 6 12
REMARK SMILES IDX 7 13 8 14 9 15 13 16 11 17 10 18 12 20 4 22 21 24 18 26
REMARK H PARENT 10 19 12 21 4 23 21 25 18 27
REMARK Flexibility Score: inf
ROOT
ATOM      1  C   UNL     1      -9.231  49.074  55.272  1.00  0.00     0.180 A 
ATOM      2  C   UNL     1     -10.346  48.213  55.272  1.00  0.00     0.208 A 
ATOM      3  C   UNL     1     -11.537  48.644  54.666  1.00  0.00     0.238 A 
ATOM      4  O   UNL     1     -12.537  47.877  54.651  1.00  0.00    -0.285 OA
ATOM      5  C   UNL     1     -11.600  49.929  54.090  1.00  0.00     0.111 A 
ATOM      6  C   UNL     1     -12.762  50.441  53.465  1.00  0.00     0.134 A 
ATOM      7  C   UNL     1     -12.748  51.735  52.923  1.00  0.00     0.093 A 
ATOM      8  C   UNL     1     -11.599  52.525  52.995  1.00  0.00     0.123 A 
ATOM      9  C   UNL     1     -10.448  52.026  53.612  1.00  0.00     0.094 A 
ATOM     10  C   UNL     1     -10.441  50.737  54.156  1.00  0.00     0.146 A 
ATOM     11  O   UNL     1      -9.333  50.285  54.732  1.00  0.00    -0.452 OA
ENDROOT
BRANCH   1  12
ATOM     12  C   UNL     1      -7.936  48.684  55.873  1.00  0.00     0.025 A 
ATOM     13  C   UNL     1      -7.429  47.395  55.644  1.00  0.00     0.016 A 
ATOM     14  C   UNL     1      -6.220  46.998  56.219  1.00  0.00     0.051 A 
ATOM     15  C   UNL     1      -5.506  47.879  57.043  1.00  0.00     0.157 A 
ATOM     16  C   UNL     1      -7.229  49.557  56.718  1.00  0.00     0.062 A 
ATOM     17  C   UNL     1      -6.016  49.162  57.297  1.00  0.00     0.158 A 
BRANCH  15  18
ATOM     18  O   UNL     1      -4.298  47.481  57.613  1.00  0.00    -0.504 OA
ATOM     19  H   UNL     1      -3.790  48.079  58.254  1.00  0.00     0.293 HD
ENDBRANCH  15  18
BRANCH  17  20
ATOM     20  O   UNL     1      -5.338  50.056  58.125  1.00  0.00    -0.504 OA
ATOM     21  H   UNL     1      -4.755  50.797  57.754  1.00  0.00     0.293 HD
ENDBRANCH  17  20
ENDBRANCH   1  12
BRANCH   2  22
ATOM     22  O   UNL     1     -10.272  46.963  55.893  1.00  0.00    -0.502 OA
ATOM     23  H   UNL     1      -9.970  46.131  55.402  1.00  0.00     0.293 HD
ENDBRANCH   2  22
BRANCH   6  24
ATOM     24  O   UNL     1     -13.926  49.676  53.376  1.00  0.00    -0.507 OA
ATOM     25  H   UNL     1     -14.345  49.445  52.483  1.00  0.00     0.293 HD
ENDBRANCH   6  24
BRANCH   8  26
ATOM     26  O   UNL     1     -11.612  53.807  52.450  1.00  0.00    -0.508 OA
ATOM     27  H   UNL     1     -10.970  54.077  51.714  1.00  0.00     0.293 HD
ENDBRANCH   8  26
TORSDOF 6
ENDMDL
MODEL 7
REMARK VINA RESULT:    -5.739     18.668     20.617
REMARK INTER + INTRA:          -7.042
REMARK INTER:                  -7.471
REMARK INTRA:                   0.429
REMARK UNBOUND:                -0.129
REMARK SMILES O=c1c(O)c(-c2ccc(O)c(O)c2)oc2cc(O)cc(O)c12
REMARK SMILES IDX 5 1 3 2 2 3 1 4 22 5 20 6 19 7 17 8 16 9 15 10 14 11 6 12
REMARK SMILES IDX 7 13 8 14 9 15 13 16 11 17 10 18 12 20 4 22 21 24 18 26
REMARK H PARENT 10 19 12 21 4 23 21 25 18 27
REMARK Flexibility Score: inf
ROOT
ATOM      1  C   UNL     1     -13.340  61.888  39.370  1.00  0.00     0.180 A 
ATOM      2  C   UNL     1     -12.731  61.104  40.370  1.00  0.00     0.208 A 
ATOM      3  C   UNL     1     -11.392  61.354  40.706  1.00  0.00     0.238 A 
ATOM      4  O   UNL     1     -10.841  60.666  41.608  1.00  0.00    -0.285 OA
ATOM      5  C   UNL     1     -10.679  62.364  40.028  1.00  0.00     0.111 A 
ATOM      6  C   UNL     1      -9.327  62.676  40.304  1.00  0.00     0.134 A 
ATOM      7  C   UNL     1      -8.684  63.690  39.578  1.00  0.00     0.093 A 
ATOM      8  C   UNL     1      -9.366  64.396  38.584  1.00  0.00     0.123 A 
ATOM      9  C   UNL     1     -10.702  64.093  38.307  1.00  0.00     0.094 A 
ATOM     10  C   UNL     1     -11.361  63.086  39.021  1.00  0.00     0.146 A 
ATOM     11  O   UNL     1     -12.632  62.822  38.741  1.00  0.00    -0.452 OA
ENDROOT
BRANCH   1  12
ATOM     12  C   UNL     1     -14.753  61.698  38.973  1.00  0.00     0.025 A 
ATOM     13  C   UNL     1     -15.407  62.707  38.248  1.00  0.00     0.016 A 
ATOM     14  C   UNL     1     -16.747  62.559  37.881  1.00  0.00     0.051 A 
ATOM     15  C   UNL     1     -17.457  61.407  38.246  1.00  0.00     0.157 A 
ATOM     16  C   UNL     1     -15.475  60.554  39.357  1.00  0.00     0.062 A 
ATOM     17  C   UNL     1     -16.818  60.402  38.991  1.00  0.00     0.158 A 
BRANCH  15  18
ATOM     18  O   UNL     1     -18.793  61.261  37.877  1.00  0.00    -0.504 OA
ATOM     19  H   UNL     1     -19.548  61.450  38.526  1.00  0.00     0.293 HD
ENDBRANCH  15  18
BRANCH  17  20
ATOM     20  O   UNL     1     -17.501  59.252  39.384  1.00  0.00    -0.504 OA
ATOM     21  H   UNL     1     -18.143  58.770  38.766  1.00  0.00     0.293 HD
ENDBRANCH  17  20
ENDBRANCH   1  12
BRANCH   2  22
ATOM     22  O   UNL     1     -13.445  60.076  40.992  1.00  0.00    -0.502 OA
ATOM     23  H   UNL     1     -14.451  60.107  41.106  1.00  0.00     0.293 HD
ENDBRANCH   2  22
BRANCH   6  24
ATOM     24  O   UNL     1      -8.618  61.988  41.291  1.00  0.00    -0.507 OA
ATOM     25  H   UNL     1      -7.608  62.043  41.357  1.00  0.00     0.293 HD
ENDBRANCH   6  24
BRANCH   8  26
ATOM     26  O   UNL     1      -8.704  65.397  37.877  1.00  0.00    -0.508 OA
ATOM     27  H   UNL     1      -8.491  65.298  36.891  1.00  0.00     0.293 HD
ENDBRANCH   8  26
TORSDOF 6
ENDMDL
