MODEL 1
REMARK VINA RESULT:    -7.103      0.000      0.000
REMARK INTER + INTRA:          -7.227
REMARK INTER:                  -7.726
REMARK INTRA:                   0.500
REMARK UNBOUND:                 0.500
REMARK SMILES C[C@H]1[C@H](C)CC[C@@]2(C(=O)[O-])CC[C@]3(C)C(=CC[C@H]4[C@]5(C)CC[C@H](O)C(C)(C)[C@H]5CC[C@]43C)[C@H]12
REMARK SMILES IDX 7 1 6 2 11 3 33 4 5 5 12 6 15 7 2 8 3 9 13 10 16 11 1 12
REMARK SMILES IDX 4 13 14 14 31 15 17 16 18 17 30 18 32 19 19 20 29 21 28 22
REMARK SMILES IDX 21 23 20 24 25 25 22 26 23 27 26 28 27 29 8 30 9 31 10 32
REMARK SMILES IDX 24 33
REMARK H PARENT 24 34
REMARK Flexibility Score: inf
ROOT
ATOM      1  C   UNL     1      69.295  47.061   7.772  1.00  0.00     0.017 C 
ATOM      2  C   UNL     1      69.147  48.487   7.185  1.00  0.00     0.014 C 
ATOM      3  C   UNL     1      68.285  46.080   7.124  1.00  0.00     0.014 C 
ATOM      4  C   UNL     1      70.718  46.552   7.350  1.00  0.00     0.030 C 
ATOM      5  C   UNL     1      70.248  49.427   7.724  1.00  0.00     0.004 C 
ATOM      6  C   UNL     1      68.424  44.618   7.658  1.00  0.00     0.013 C 
ATOM      7  C   UNL     1      70.852  45.008   7.313  1.00  0.00    -0.063 C 
ATOM      8  C   UNL     1      71.882  47.396   7.953  1.00  0.00    -0.003 C 
ATOM      9  C   UNL     1      71.695  48.893   7.519  1.00  0.00    -0.011 C 
ATOM     10  C   UNL     1      69.876  44.138   8.108  1.00  0.00    -0.006 C 
ATOM     11  C   UNL     1      71.484  44.506   6.237  1.00  0.00    -0.027 C 
ATOM     12  C   UNL     1      73.260  46.869   7.509  1.00  0.00     0.008 C 
ATOM     13  C   UNL     1      72.679  49.829   8.242  1.00  0.00     0.008 C 
ATOM     14  C   UNL     1      70.079  44.442   9.638  1.00  0.00     0.017 C 
ATOM     15  C   UNL     1      70.078  42.538   7.866  1.00  0.00    -0.020 C 
ATOM     16  C   UNL     1      71.420  43.096   5.774  1.00  0.00     0.032 C 
ATOM     17  C   UNL     1      70.250  42.214   6.322  1.00  0.00     0.006 C 
ATOM     18  C   UNL     1      71.377  41.973   8.590  1.00  0.00     0.008 C 
ATOM     19  C   UNL     1      68.792  41.861   8.480  1.00  0.00     0.012 C 
ATOM     20  C   UNL     1      70.466  40.646   5.947  1.00  0.00    -0.025 C 
ATOM     21  C   UNL     1      72.038  40.698   7.973  1.00  0.00     0.005 C 
ATOM     22  C   UNL     1      71.011  39.859   7.190  1.00  0.00     0.003 C 
ATOM     23  C   UNL     1      69.122  39.962   5.554  1.00  0.00     0.010 C 
ATOM     24  C   UNL     1      71.402  40.525   4.695  1.00  0.00     0.012 C 
ATOM     25  C   UNL     1      71.256  38.310   7.011  1.00  0.00    -0.006 C 
ATOM     26  C   UNL     1      69.257  38.435   5.313  1.00  0.00     0.033 C 
ATOM     27  C   UNL     1      69.916  37.666   6.482  1.00  0.00     0.120 C 
ATOM     28  C   UNL     1      72.448  37.964   6.076  1.00  0.00     0.014 C 
ATOM     29  C   UNL     1      71.588  37.665   8.390  1.00  0.00     0.014 C 
ENDROOT
BRANCH   1  30
ATOM     30  C   UNL     1      68.971  47.182   9.264  1.00  0.00     0.048 C 
ATOM     31  O   UNL     1      69.853  47.440  10.122  1.00  0.00    -0.550 OA
ATOM     32  O   UNL     1      67.646  47.129   9.687  1.00  0.00    -0.550 OA
ENDBRANCH   1  30
BRANCH  27  33
ATOM     33  O   UNL     1      68.964  37.584   7.520  1.00  0.00    -0.393 OA
ATOM     34  H   UNL     1      69.373  37.070   8.264  1.00  0.00     0.210 HD
ENDBRANCH  27  33
TORSDOF 2
ENDMDL
MODEL 2
REMARK VINA RESULT:    -6.596      2.102      3.788
REMARK INTER + INTRA:          -6.674
REMARK INTER:                  -7.201
REMARK INTRA:                   0.526
REMARK UNBOUND:                 0.500
REMARK SMILES C[C@H]1[C@H](C)CC[C@@]2(C(=O)[O-])CC[C@]3(C)C(=CC[C@H]4[C@]5(C)CC[C@H](O)C(C)(C)[C@H]5CC[C@]43C)[C@H]12
REMARK SMILES IDX 7 1 6 2 11 3 33 4 5 5 12 6 15 7 2 8 3 9 13 10 16 11 1 12
REMARK SMILES IDX 4 13 14 14 31 15 17 16 18 17 30 18 32 19 19 20 29 21 28 22
REMARK SMILES IDX 21 23 20 24 25 25 22 26 23 27 26 28 27 29 8 30 9 31 10 32
REMARK SMILES IDX 24 33
REMARK H PARENT 24 34
REMARK Flexibility Score: inf
ROOT
ATOM      1  C   UNL     1      73.407  47.065   7.530  1.00  0.00     0.017 C 
ATOM      2  C   UNL     1      73.986  48.183   8.433  1.00  0.00     0.014 C 
ATOM      3  C   UNL     1      74.378  45.861   7.434  1.00  0.00     0.014 C 
ATOM      4  C   UNL     1      72.125  46.525   8.257  1.00  0.00     0.030 C 
ATOM      5  C   UNL     1      72.957  49.315   8.644  1.00  0.00     0.004 C 
ATOM      6  C   UNL     1      73.819  44.691   6.564  1.00  0.00     0.013 C 
ATOM      7  C   UNL     1      71.737  45.077   7.861  1.00  0.00    -0.063 C 
ATOM      8  C   UNL     1      71.001  47.594   8.404  1.00  0.00    -0.003 C 
ATOM      9  C   UNL     1      71.580  48.829   9.181  1.00  0.00    -0.011 C 
ATOM     10  C   UNL     1      72.238  44.486   6.542  1.00  0.00    -0.006 C 
ATOM     11  C   UNL     1      71.402  44.267   8.881  1.00  0.00    -0.027 C 
ATOM     12  C   UNL     1      69.764  47.027   9.129  1.00  0.00     0.008 C 
ATOM     13  C   UNL     1      70.600  50.016   9.187  1.00  0.00     0.008 C 
ATOM     14  C   UNL     1      71.616  45.319   5.362  1.00  0.00     0.017 C 
ATOM     15  C   UNL     1      71.842  42.918   6.335  1.00  0.00    -0.020 C 
ATOM     16  C   UNL     1      71.357  42.784   8.832  1.00  0.00     0.032 C 
ATOM     17  C   UNL     1      72.115  42.083   7.656  1.00  0.00     0.006 C 
ATOM     18  C   UNL     1      70.301  42.720   5.991  1.00  0.00     0.008 C 
ATOM     19  C   UNL     1      72.723  42.425   5.123  1.00  0.00     0.012 C 
ATOM     20  C   UNL     1      71.754  40.499   7.581  1.00  0.00    -0.025 C 
ATOM     21  C   UNL     1      69.655  41.351   6.379  1.00  0.00     0.005 C 
ATOM     22  C   UNL     1      70.711  40.231   6.440  1.00  0.00     0.003 C 
ATOM     23  C   UNL     1      73.008  39.642   7.233  1.00  0.00     0.010 C 
ATOM     24  C   UNL     1      71.259  40.001   8.983  1.00  0.00     0.012 C 
ATOM     25  C   UNL     1      70.262  38.736   6.208  1.00  0.00    -0.006 C 
ATOM     26  C   UNL     1      72.687  38.138   7.023  1.00  0.00     0.033 C 
ATOM     27  C   UNL     1      71.564  37.869   5.993  1.00  0.00     0.120 C 
ATOM     28  C   UNL     1      69.389  38.154   7.354  1.00  0.00     0.014 C 
ATOM     29  C   UNL     1      69.400  38.637   4.915  1.00  0.00     0.014 C 
ENDROOT
BRANCH   1  30
ATOM     30  C   UNL     1      73.256  47.683   6.136  1.00  0.00     0.048 C 
ATOM     31  O   UNL     1      72.153  48.113   5.711  1.00  0.00    -0.550 OA
ATOM     32  O   UNL     1      74.385  47.894   5.350  1.00  0.00    -0.550 OA
ENDBRANCH   1  30
BRANCH  27  33
ATOM     33  O   UNL     1      72.106  38.101   4.712  1.00  0.00    -0.393 OA
ATOM     34  H   UNL     1      71.523  37.644   4.051  1.00  0.00     0.210 HD
ENDBRANCH  27  33
TORSDOF 2
ENDMDL
MODEL 3
REMARK VINA RESULT:    -6.536      1.999      8.184
REMARK INTER + INTRA:          -6.610
REMARK INTER:                  -7.109
REMARK INTRA:                   0.499
REMARK UNBOUND:                 0.500
REMARK SMILES C[C@H]1[C@H](C)CC[C@@]2(C(=O)[O-])CC[C@]3(C)C(=CC[C@H]4[C@]5(C)CC[C@H](O)C(C)(C)[C@H]5CC[C@]43C)[C@H]12
REMARK SMILES IDX 7 1 6 2 11 3 33 4 5 5 12 6 15 7 2 8 3 9 13 10 16 11 1 12
REMARK SMILES IDX 4 13 14 14 31 15 17 16 18 17 30 18 32 19 19 20 29 21 28 22
REMARK SMILES IDX 21 23 20 24 25 25 22 26 23 27 26 28 27 29 8 30 9 31 10 32
REMARK SMILES IDX 24 33
REMARK H PARENT 24 34
REMARK Flexibility Score: inf
ROOT
ATOM      1  C   UNL     1      70.731  40.312   5.419  1.00  0.00     0.017 C 
ATOM      2  C   UNL     1      69.853  39.221   4.757  1.00  0.00     0.014 C 
ATOM      3  C   UNL     1      70.795  41.589   4.543  1.00  0.00     0.014 C 
ATOM      4  C   UNL     1      69.996  40.735   6.739  1.00  0.00     0.030 C 
ATOM      5  C   UNL     1      69.673  38.008   5.696  1.00  0.00     0.004 C 
ATOM      6  C   UNL     1      71.639  42.734   5.189  1.00  0.00     0.013 C 
ATOM      7  C   UNL     1      70.357  42.158   7.237  1.00  0.00    -0.063 C 
ATOM      8  C   UNL     1      69.877  39.580   7.779  1.00  0.00    -0.003 C 
ATOM      9  C   UNL     1      69.128  38.374   7.107  1.00  0.00    -0.011 C 
ATOM     10  C   UNL     1      71.661  42.817   6.781  1.00  0.00    -0.006 C 
ATOM     11  C   UNL     1      69.319  42.915   7.634  1.00  0.00    -0.027 C 
ATOM     12  C   UNL     1      69.142  40.033   9.056  1.00  0.00     0.008 C 
ATOM     13  C   UNL     1      69.153  37.116   7.993  1.00  0.00     0.008 C 
ATOM     14  C   UNL     1      72.863  41.967   7.336  1.00  0.00     0.017 C 
ATOM     15  C   UNL     1      71.832  44.355   7.296  1.00  0.00    -0.020 C 
ATOM     16  C   UNL     1      69.334  44.391   7.793  1.00  0.00     0.032 C 
ATOM     17  C   UNL     1      70.490  45.176   7.090  1.00  0.00     0.006 C 
ATOM     18  C   UNL     1      72.176  44.442   8.848  1.00  0.00     0.008 C 
ATOM     19  C   UNL     1      73.029  44.943   6.455  1.00  0.00     0.012 C 
ATOM     20  C   UNL     1      70.529  46.730   7.571  1.00  0.00    -0.025 C 
ATOM     21  C   UNL     1      71.757  45.748   9.597  1.00  0.00     0.005 C 
ATOM     22  C   UNL     1      71.666  46.943   8.631  1.00  0.00     0.003 C 
ATOM     23  C   UNL     1      70.852  47.688   6.386  1.00  0.00     0.010 C 
ATOM     24  C   UNL     1      69.117  47.154   8.105  1.00  0.00     0.012 C 
ATOM     25  C   UNL     1      71.863  48.405   9.192  1.00  0.00    -0.006 C 
ATOM     26  C   UNL     1      71.028  49.167   6.821  1.00  0.00     0.033 C 
ATOM     27  C   UNL     1      72.054  49.374   7.960  1.00  0.00     0.120 C 
ATOM     28  C   UNL     1      70.707  48.890  10.109  1.00  0.00     0.014 C 
ATOM     29  C   UNL     1      73.157  48.469  10.058  1.00  0.00     0.014 C 
ENDROOT
BRANCH   1  30
ATOM     30  C   UNL     1      72.140  39.718   5.521  1.00  0.00     0.048 C 
ATOM     31  O   UNL     1      72.547  39.135   6.558  1.00  0.00    -0.550 OA
ATOM     32  O   UNL     1      72.965  39.707   4.400  1.00  0.00    -0.550 OA
ENDBRANCH   1  30
BRANCH  27  33
ATOM     33  O   UNL     1      73.339  49.215   7.401  1.00  0.00    -0.393 OA
ATOM     34  H   UNL     1      73.599  48.263   7.508  1.00  0.00     0.210 HD
ENDBRANCH  27  33
TORSDOF 2
ENDMDL
MODEL 4
REMARK VINA RESULT:    -6.443      2.083      8.256
REMARK INTER + INTRA:          -6.509
REMARK INTER:                  -7.032
REMARK INTRA:                   0.523
REMARK UNBOUND:                 0.500
REMARK SMILES C[C@H]1[C@H](C)CC[C@@]2(C(=O)[O-])CC[C@]3(C)C(=CC[C@H]4[C@]5(C)CC[C@H](O)C(C)(C)[C@H]5CC[C@]43C)[C@H]12
REMARK SMILES IDX 7 1 6 2 11 3 33 4 5 5 12 6 15 7 2 8 3 9 13 10 16 11 1 12
REMARK SMILES IDX 4 13 14 14 31 15 17 16 18 17 30 18 32 19 19 20 29 21 28 22
REMARK SMILES IDX 21 23 20 24 25 25 22 26 23 27 26 28 27 29 8 30 9 31 10 32
REMARK SMILES IDX 24 33
REMARK H PARENT 24 34
REMARK Flexibility Score: inf
ROOT
ATOM      1  C   UNL     1      72.119  39.360   5.862  1.00  0.00     0.017 C 
ATOM      2  C   UNL     1      72.738  37.941   5.916  1.00  0.00     0.014 C 
ATOM      3  C   UNL     1      71.783  39.880   7.283  1.00  0.00     0.014 C 
ATOM      4  C   UNL     1      73.237  40.313   5.310  1.00  0.00     0.030 C 
ATOM      5  C   UNL     1      73.205  37.486   4.515  1.00  0.00     0.004 C 
ATOM      6  C   UNL     1      71.191  41.326   7.282  1.00  0.00     0.013 C 
ATOM      7  C   UNL     1      73.056  41.800   5.712  1.00  0.00    -0.063 C 
ATOM      8  C   UNL     1      73.677  39.974   3.854  1.00  0.00    -0.003 C 
ATOM      9  C   UNL     1      74.170  38.483   3.813  1.00  0.00    -0.011 C 
ATOM     10  C   UNL     1      71.677  42.315   6.129  1.00  0.00    -0.006 C 
ATOM     11  C   UNL     1      74.168  42.427   6.133  1.00  0.00    -0.027 C 
ATOM     12  C   UNL     1      74.780  40.926   3.353  1.00  0.00     0.008 C 
ATOM     13  C   UNL     1      74.424  38.002   2.374  1.00  0.00     0.008 C 
ATOM     14  C   UNL     1      70.711  42.195   4.893  1.00  0.00     0.017 C 
ATOM     15  C   UNL     1      71.682  43.865   6.635  1.00  0.00    -0.020 C 
ATOM     16  C   UNL     1      74.209  43.692   6.910  1.00  0.00     0.032 C 
ATOM     17  C   UNL     1      72.891  44.135   7.627  1.00  0.00     0.006 C 
ATOM     18  C   UNL     1      71.850  44.896   5.435  1.00  0.00     0.008 C 
ATOM     19  C   UNL     1      70.281  44.080   7.327  1.00  0.00     0.012 C 
ATOM     20  C   UNL     1      73.011  45.652   8.201  1.00  0.00    -0.025 C 
ATOM     21  C   UNL     1      72.488  46.282   5.771  1.00  0.00     0.005 C 
ATOM     22  C   UNL     1      72.270  46.655   7.249  1.00  0.00     0.003 C 
ATOM     23  C   UNL     1      72.331  45.792   9.595  1.00  0.00     0.010 C 
ATOM     24  C   UNL     1      74.521  46.021   8.412  1.00  0.00     0.012 C 
ATOM     25  C   UNL     1      72.265  48.177   7.667  1.00  0.00    -0.006 C 
ATOM     26  C   UNL     1      72.307  47.251  10.125  1.00  0.00     0.033 C 
ATOM     27  C   UNL     1      71.696  48.272   9.136  1.00  0.00     0.120 C 
ATOM     28  C   UNL     1      73.655  48.865   7.562  1.00  0.00     0.014 C 
ATOM     29  C   UNL     1      71.314  48.980   6.730  1.00  0.00     0.014 C 
ENDROOT
BRANCH   1  30
ATOM     30  C   UNL     1      70.814  39.223   5.071  1.00  0.00     0.048 C 
ATOM     31  O   UNL     1      70.741  39.503   3.847  1.00  0.00    -0.550 OA
ATOM     32  O   UNL     1      69.697  38.659   5.678  1.00  0.00    -0.550 OA
ENDBRANCH   1  30
BRANCH  27  33
ATOM     33  O   UNL     1      70.300  48.075   9.139  1.00  0.00    -0.393 OA
ATOM     34  H   UNL     1      70.127  47.139   8.858  1.00  0.00     0.210 HD
ENDBRANCH  27  33
TORSDOF 2
ENDMDL
MODEL 5
REMARK VINA RESULT:    -6.178      1.920      8.273
REMARK INTER + INTRA:          -6.220
REMARK INTER:                  -6.728
REMARK INTRA:                   0.508
REMARK UNBOUND:                 0.500
REMARK SMILES C[C@H]1[C@H](C)CC[C@@]2(C(=O)[O-])CC[C@]3(C)C(=CC[C@H]4[C@]5(C)CC[C@H](O)C(C)(C)[C@H]5CC[C@]43C)[C@H]12
REMARK SMILES IDX 7 1 6 2 11 3 33 4 5 5 12 6 15 7 2 8 3 9 13 10 16 11 1 12
REMARK SMILES IDX 4 13 14 14 31 15 17 16 18 17 30 18 32 19 19 20 29 21 28 22
REMARK SMILES IDX 21 23 20 24 25 25 22 26 23 27 26 28 27 29 8 30 9 31 10 32
REMARK SMILES IDX 24 33
REMARK H PARENT 24 34
REMARK Flexibility Score: inf
ROOT
ATOM      1  C   UNL     1      72.817  39.948   7.365  1.00  0.00     0.017 C 
ATOM      2  C   UNL     1      73.165  38.714   6.494  1.00  0.00     0.014 C 
ATOM      3  C   UNL     1      74.020  40.920   7.468  1.00  0.00     0.014 C 
ATOM      4  C   UNL     1      71.696  40.733   6.597  1.00  0.00     0.030 C 
ATOM      5  C   UNL     1      71.924  37.822   6.274  1.00  0.00     0.004 C 
ATOM      6  C   UNL     1      73.703  42.200   8.306  1.00  0.00     0.013 C 
ATOM      7  C   UNL     1      71.616  42.238   6.960  1.00  0.00    -0.063 C 
ATOM      8  C   UNL     1      70.373  39.924   6.437  1.00  0.00    -0.003 C 
ATOM      9  C   UNL     1      70.694  38.578   5.694  1.00  0.00    -0.011 C 
ATOM     10  C   UNL     1      72.201  42.736   8.283  1.00  0.00    -0.006 C 
ATOM     11  C   UNL     1      71.483  43.079   5.920  1.00  0.00    -0.027 C 
ATOM     12  C   UNL     1      69.302  40.725   5.672  1.00  0.00     0.008 C 
ATOM     13  C   UNL     1      69.485  37.626   5.681  1.00  0.00     0.008 C 
ATOM     14  C   UNL     1      71.391  42.077   9.460  1.00  0.00     0.017 C 
ATOM     15  C   UNL     1      72.143  44.356   8.457  1.00  0.00    -0.020 C 
ATOM     16  C   UNL     1      71.753  44.539   5.946  1.00  0.00     0.032 C 
ATOM     17  C   UNL     1      72.616  45.087   7.130  1.00  0.00     0.006 C 
ATOM     18  C   UNL     1      70.672  44.883   8.757  1.00  0.00     0.008 C 
ATOM     19  C   UNL     1      73.081  44.675   9.684  1.00  0.00     0.012 C 
ATOM     20  C   UNL     1      72.599  46.713   7.172  1.00  0.00    -0.025 C 
ATOM     21  C   UNL     1      70.340  46.349   8.332  1.00  0.00     0.005 C 
ATOM     22  C   UNL     1      71.611  47.219   8.282  1.00  0.00     0.003 C 
ATOM     23  C   UNL     1      73.998  47.291   7.539  1.00  0.00     0.010 C 
ATOM     24  C   UNL     1      72.251  47.276   5.751  1.00  0.00     0.012 C 
ATOM     25  C   UNL     1      71.486  48.779   8.479  1.00  0.00    -0.006 C 
ATOM     26  C   UNL     1      73.999  48.833   7.719  1.00  0.00     0.033 C 
ATOM     27  C   UNL     1      72.937  49.354   8.715  1.00  0.00     0.120 C 
ATOM     28  C   UNL     1      70.781  49.510   7.302  1.00  0.00     0.014 C 
ATOM     29  C   UNL     1      70.635  49.085   9.748  1.00  0.00     0.014 C 
ENDROOT
BRANCH   1  30
ATOM     30  C   UNL     1      72.507  39.404   8.764  1.00  0.00     0.048 C 
ATOM     31  O   UNL     1      71.337  39.123   9.128  1.00  0.00    -0.550 OA
ATOM     32  O   UNL     1      73.552  39.091   9.628  1.00  0.00    -0.550 OA
ENDBRANCH   1  30
BRANCH  27  33
ATOM     33  O   UNL     1      73.388  49.039  10.013  1.00  0.00    -0.393 OA
ATOM     34  H   UNL     1      72.589  48.902  10.585  1.00  0.00     0.210 HD
ENDBRANCH  27  33
TORSDOF 2
ENDMDL
MODEL 6
REMARK VINA RESULT:    -6.134      1.805      8.038
REMARK INTER + INTRA:          -6.173
REMARK INTER:                  -6.678
REMARK INTRA:                   0.505
REMARK UNBOUND:                 0.500
REMARK SMILES C[C@H]1[C@H](C)CC[C@@]2(C(=O)[O-])CC[C@]3(C)C(=CC[C@H]4[C@]5(C)CC[C@H](O)C(C)(C)[C@H]5CC[C@]43C)[C@H]12
REMARK SMILES IDX 7 1 6 2 11 3 33 4 5 5 12 6 15 7 2 8 3 9 13 10 16 11 1 12
REMARK SMILES IDX 4 13 14 14 31 15 17 16 18 17 30 18 32 19 19 20 29 21 28 22
REMARK SMILES IDX 21 23 20 24 25 25 22 26 23 27 26 28 27 29 8 30 9 31 10 32
REMARK SMILES IDX 24 33
REMARK H PARENT 24 34
REMARK Flexibility Score: inf
ROOT
ATOM      1  C   UNL     1      71.513  40.091   7.136  1.00  0.00     0.017 C 
ATOM      2  C   UNL     1      72.058  38.724   7.621  1.00  0.00     0.014 C 
ATOM      3  C   UNL     1      70.602  40.744   8.206  1.00  0.00     0.014 C 
ATOM      4  C   UNL     1      72.755  41.040   6.994  1.00  0.00     0.030 C 
ATOM      5  C   UNL     1      73.078  38.145   6.616  1.00  0.00     0.004 C 
ATOM      6  C   UNL     1      70.059  42.144   7.777  1.00  0.00     0.013 C 
ATOM      7  C   UNL     1      72.413  42.549   7.094  1.00  0.00    -0.063 C 
ATOM      8  C   UNL     1      73.774  40.568   5.913  1.00  0.00    -0.003 C 
ATOM      9  C   UNL     1      74.246  39.113   6.269  1.00  0.00    -0.011 C 
ATOM     10  C   UNL     1      70.984  43.027   6.824  1.00  0.00    -0.006 C 
ATOM     11  C   UNL     1      73.237  43.281   7.864  1.00  0.00    -0.027 C 
ATOM     12  C   UNL     1      74.981  41.521   5.811  1.00  0.00     0.008 C 
ATOM     13  C   UNL     1      75.091  38.491   5.143  1.00  0.00     0.008 C 
ATOM     14  C   UNL     1      70.637  42.717   5.321  1.00  0.00     0.017 C 
ATOM     15  C   UNL     1      70.766  44.621   7.088  1.00  0.00    -0.020 C 
ATOM     16  C   UNL     1      72.937  44.624   8.422  1.00  0.00     0.032 C 
ATOM     17  C   UNL     1      71.437  45.067   8.455  1.00  0.00     0.006 C 
ATOM     18  C   UNL     1      71.423  45.521   5.953  1.00  0.00     0.008 C 
ATOM     19  C   UNL     1      69.203  44.830   7.092  1.00  0.00     0.012 C 
ATOM     20  C   UNL     1      71.294  46.643   8.834  1.00  0.00    -0.025 C 
ATOM     21  C   UNL     1      71.851  46.970   6.352  1.00  0.00     0.005 C 
ATOM     22  C   UNL     1      71.023  47.491   7.542  1.00  0.00     0.003 C 
ATOM     23  C   UNL     1      70.084  46.895   9.782  1.00  0.00     0.010 C 
ATOM     24  C   UNL     1      72.568  47.118   9.614  1.00  0.00     0.012 C 
ATOM     25  C   UNL     1      70.833  49.046   7.727  1.00  0.00    -0.006 C 
ATOM     26  C   UNL     1      69.829  48.400  10.067  1.00  0.00     0.033 C 
ATOM     27  C   UNL     1      69.692  49.270   8.795  1.00  0.00     0.120 C 
ATOM     28  C   UNL     1      72.131  49.797   8.133  1.00  0.00     0.014 C 
ATOM     29  C   UNL     1      70.367  49.686   6.385  1.00  0.00     0.014 C 
ENDROOT
BRANCH   1  30
ATOM     30  C   UNL     1      70.670  39.793   5.892  1.00  0.00     0.048 C 
ATOM     31  O   UNL     1      71.157  39.814   4.733  1.00  0.00    -0.550 OA
ATOM     32  O   UNL     1      69.353  39.366   6.039  1.00  0.00    -0.550 OA
ENDBRANCH   1  30
BRANCH  27  33
ATOM     33  O   UNL     1      68.428  48.994   8.233  1.00  0.00    -0.393 OA
ATOM     34  H   UNL     1      68.129  48.114   8.581  1.00  0.00     0.210 HD
ENDBRANCH  27  33
TORSDOF 2
ENDMDL
MODEL 7
REMARK VINA RESULT:    -5.891      2.563      4.716
REMARK INTER + INTRA:          -5.909
REMARK INTER:                  -6.408
REMARK INTRA:                   0.499
REMARK UNBOUND:                 0.500
REMARK SMILES C[C@H]1[C@H](C)CC[C@@]2(C(=O)[O-])CC[C@]3(C)C(=CC[C@H]4[C@]5(C)CC[C@H](O)C(C)(C)[C@H]5CC[C@]43C)[C@H]12
REMARK SMILES IDX 7 1 6 2 11 3 33 4 5 5 12 6 15 7 2 8 3 9 13 10 16 11 1 12
REMARK SMILES IDX 4 13 14 14 31 15 17 16 18 17 30 18 32 19 19 20 29 21 28 22
REMARK SMILES IDX 21 23 20 24 25 25 22 26 23 27 26 28 27 29 8 30 9 31 10 32
REMARK SMILES IDX 24 33
REMARK H PARENT 24 34
REMARK Flexibility Score: inf
ROOT
ATOM      1  C   UNL     1      66.942  45.804   9.251  1.00  0.00     0.017 C 
ATOM      2  C   UNL     1      65.958  46.622  10.125  1.00  0.00     0.014 C 
ATOM      3  C   UNL     1      68.156  45.315  10.080  1.00  0.00     0.014 C 
ATOM      4  C   UNL     1      66.174  44.508   8.810  1.00  0.00     0.030 C 
ATOM      5  C   UNL     1      64.681  46.983   9.334  1.00  0.00     0.004 C 
ATOM      6  C   UNL     1      69.158  44.451   9.248  1.00  0.00     0.013 C 
ATOM      7  C   UNL     1      67.099  43.318   8.447  1.00  0.00    -0.063 C 
ATOM      8  C   UNL     1      64.932  44.799   7.915  1.00  0.00    -0.003 C 
ATOM      9  C   UNL     1      63.964  45.760   8.694  1.00  0.00    -0.011 C 
ATOM     10  C   UNL     1      68.556  43.575   8.060  1.00  0.00    -0.006 C 
ATOM     11  C   UNL     1      66.731  42.125   8.946  1.00  0.00    -0.027 C 
ATOM     12  C   UNL     1      64.202  43.503   7.511  1.00  0.00     0.008 C 
ATOM     13  C   UNL     1      62.816  46.265   7.803  1.00  0.00     0.008 C 
ATOM     14  C   UNL     1      68.572  44.412   6.729  1.00  0.00     0.017 C 
ATOM     15  C   UNL     1      69.421  42.213   7.826  1.00  0.00    -0.020 C 
ATOM     16  C   UNL     1      67.605  40.930   9.069  1.00  0.00     0.032 C 
ATOM     17  C   UNL     1      69.150  41.161   8.982  1.00  0.00     0.006 C 
ATOM     18  C   UNL     1      69.050  41.483   6.461  1.00  0.00     0.008 C 
ATOM     19  C   UNL     1      70.927  42.680   7.783  1.00  0.00     0.012 C 
ATOM     20  C   UNL     1      69.953  39.751   8.861  1.00  0.00    -0.025 C 
ATOM     21  C   UNL     1      69.285  39.939   6.393  1.00  0.00     0.005 C 
ATOM     22  C   UNL     1      70.385  39.497   7.375  1.00  0.00     0.003 C 
ATOM     23  C   UNL     1      71.265  39.767   9.700  1.00  0.00     0.010 C 
ATOM     24  C   UNL     1      69.074  38.590   9.444  1.00  0.00     0.012 C 
ATOM     25  C   UNL     1      71.200  38.178   7.077  1.00  0.00    -0.006 C 
ATOM     26  C   UNL     1      72.130  38.491   9.513  1.00  0.00     0.033 C 
ATOM     27  C   UNL     1      72.452  38.157   8.038  1.00  0.00     0.120 C 
ATOM     28  C   UNL     1      70.366  36.875   7.218  1.00  0.00     0.014 C 
ATOM     29  C   UNL     1      71.722  38.200   5.608  1.00  0.00     0.014 C 
ENDROOT
BRANCH   1  30
ATOM     30  C   UNL     1      67.444  46.764   8.168  1.00  0.00     0.048 C 
ATOM     31  O   UNL     1      66.861  46.888   7.060  1.00  0.00    -0.550 OA
ATOM     32  O   UNL     1      68.504  47.622   8.446  1.00  0.00    -0.550 OA
ENDBRANCH   1  30
BRANCH  27  33
ATOM     33  O   UNL     1      73.426  39.079   7.602  1.00  0.00    -0.393 OA
ATOM     34  H   UNL     1      73.461  39.817   8.265  1.00  0.00     0.210 HD
ENDBRANCH  27  33
TORSDOF 2
ENDMDL
MODEL 8
REMARK VINA RESULT:    -5.696      4.082      6.967
REMARK INTER + INTRA:          -5.696
REMARK INTER:                  -6.755
REMARK INTRA:                   1.058
REMARK UNBOUND:                 0.500
REMARK SMILES C[C@H]1[C@H](C)CC[C@@]2(C(=O)[O-])CC[C@]3(C)C(=CC[C@H]4[C@]5(C)CC[C@H](O)C(C)(C)[C@H]5CC[C@]43C)[C@H]12
REMARK SMILES IDX 7 1 6 2 11 3 33 4 5 5 12 6 15 7 2 8 3 9 13 10 16 11 1 12
REMARK SMILES IDX 4 13 14 14 31 15 17 16 18 17 30 18 32 19 19 20 29 21 28 22
REMARK SMILES IDX 21 23 20 24 25 25 22 26 23 27 26 28 27 29 8 30 9 31 10 32
REMARK SMILES IDX 24 33
REMARK H PARENT 24 34
REMARK Flexibility Score: inf
ROOT
ATOM      1  C   UNL     1      65.137  46.271   9.273  1.00  0.00     0.017 C 
ATOM      2  C   UNL     1      63.877  45.972  10.125  1.00  0.00     0.014 C 
ATOM      3  C   UNL     1      66.143  47.157  10.051  1.00  0.00     0.014 C 
ATOM      4  C   UNL     1      65.860  44.896   9.050  1.00  0.00     0.030 C 
ATOM      5  C   UNL     1      62.945  44.973   9.405  1.00  0.00     0.004 C 
ATOM      6  C   UNL     1      67.448  47.453   9.246  1.00  0.00     0.013 C 
ATOM      7  C   UNL     1      67.376  45.020   8.752  1.00  0.00    -0.063 C 
ATOM      8  C   UNL     1      65.011  43.877   8.231  1.00  0.00    -0.003 C 
ATOM      9  C   UNL     1      63.644  43.652   8.971  1.00  0.00    -0.011 C 
ATOM     10  C   UNL     1      67.944  46.337   8.220  1.00  0.00    -0.006 C 
ATOM     11  C   UNL     1      68.169  44.159   9.414  1.00  0.00    -0.027 C 
ATOM     12  C   UNL     1      65.752  42.539   8.041  1.00  0.00     0.008 C 
ATOM     13  C   UNL     1      62.662  42.823   8.125  1.00  0.00     0.008 C 
ATOM     14  C   UNL     1      67.315  46.608   6.804  1.00  0.00     0.017 C 
ATOM     15  C   UNL     1      69.568  46.339   8.074  1.00  0.00    -0.020 C 
ATOM     16  C   UNL     1      69.635  44.301   9.602  1.00  0.00     0.032 C 
ATOM     17  C   UNL     1      70.254  45.718   9.363  1.00  0.00     0.006 C 
ATOM     18  C   UNL     1      70.069  45.470   6.839  1.00  0.00     0.008 C 
ATOM     19  C   UNL     1      69.963  47.850   7.855  1.00  0.00     0.012 C 
ATOM     20  C   UNL     1      71.880  45.657   9.341  1.00  0.00    -0.025 C 
ATOM     21  C   UNL     1      71.508  44.867   6.930  1.00  0.00     0.005 C 
ATOM     22  C   UNL     1      72.406  45.699   7.863  1.00  0.00     0.003 C 
ATOM     23  C   UNL     1      72.509  46.887  10.062  1.00  0.00     0.010 C 
ATOM     24  C   UNL     1      72.374  44.391  10.123  1.00  0.00     0.012 C 
ATOM     25  C   UNL     1      73.970  45.673   7.653  1.00  0.00    -0.006 C 
ATOM     26  C   UNL     1      74.056  46.939   9.953  1.00  0.00     0.033 C 
ATOM     27  C   UNL     1      74.592  46.848   8.505  1.00  0.00     0.120 C 
ATOM     28  C   UNL     1      74.632  44.313   8.013  1.00  0.00     0.014 C 
ATOM     29  C   UNL     1      74.307  45.934   6.155  1.00  0.00     0.014 C 
ENDROOT
BRANCH   1  30
ATOM     30  C   UNL     1      64.645  47.050   8.049  1.00  0.00     0.048 C 
ATOM     31  O   UNL     1      63.813  46.567   7.238  1.00  0.00    -0.550 OA
ATOM     32  O   UNL     1      65.025  48.378   7.879  1.00  0.00    -0.550 OA
ENDBRANCH   1  30
BRANCH  27  33
ATOM     33  O   UNL     1      74.343  48.091   7.887  1.00  0.00    -0.393 OA
ATOM     34  H   UNL     1      74.399  47.956   6.905  1.00  0.00     0.210 HD
ENDBRANCH  27  33
TORSDOF 2
ENDMDL
MODEL 9
REMARK VINA RESULT:    -5.656      2.442      8.272
REMARK INTER + INTRA:          -5.653
REMARK INTER:                  -6.206
REMARK INTRA:                   0.553
REMARK UNBOUND:                 0.500
REMARK SMILES C[C@H]1[C@H](C)CC[C@@]2(C(=O)[O-])CC[C@]3(C)C(=CC[C@H]4[C@]5(C)CC[C@H](O)C(C)(C)[C@H]5CC[C@]43C)[C@H]12
REMARK SMILES IDX 7 1 6 2 11 3 33 4 5 5 12 6 15 7 2 8 3 9 13 10 16 11 1 12
REMARK SMILES IDX 4 13 14 14 31 15 17 16 18 17 30 18 32 19 19 20 29 21 28 22
REMARK SMILES IDX 21 23 20 24 25 25 22 26 23 27 26 28 27 29 8 30 9 31 10 32
REMARK SMILES IDX 24 33
REMARK H PARENT 24 34
REMARK Flexibility Score: inf
ROOT
ATOM      1  C   UNL     1      72.703  40.458   5.888  1.00  0.00     0.017 C 
ATOM      2  C   UNL     1      72.368  38.946   5.915  1.00  0.00     0.014 C 
ATOM      3  C   UNL     1      71.511  41.288   5.346  1.00  0.00     0.014 C 
ATOM      4  C   UNL     1      72.888  40.900   7.382  1.00  0.00     0.030 C 
ATOM      5  C   UNL     1      73.499  38.139   6.590  1.00  0.00     0.004 C 
ATOM      6  C   UNL     1      71.789  42.825   5.336  1.00  0.00     0.013 C 
ATOM      7  C   UNL     1      72.650  42.413   7.629  1.00  0.00    -0.063 C 
ATOM      8  C   UNL     1      74.087  40.200   8.091  1.00  0.00    -0.003 C 
ATOM      9  C   UNL     1      73.880  38.646   8.011  1.00  0.00    -0.011 C 
ATOM     10  C   UNL     1      72.756  43.401   6.466  1.00  0.00    -0.006 C 
ATOM     11  C   UNL     1      71.907  42.714   8.708  1.00  0.00    -0.027 C 
ATOM     12  C   UNL     1      74.230  40.655   9.557  1.00  0.00     0.008 C 
ATOM     13  C   UNL     1      75.119  37.875   8.499  1.00  0.00     0.008 C 
ATOM     14  C   UNL     1      74.240  43.390   5.943  1.00  0.00     0.017 C 
ATOM     15  C   UNL     1      72.360  44.930   6.868  1.00  0.00    -0.020 C 
ATOM     16  C   UNL     1      71.230  44.012   8.958  1.00  0.00     0.032 C 
ATOM     17  C   UNL     1      71.030  44.964   7.733  1.00  0.00     0.006 C 
ATOM     18  C   UNL     1      73.482  45.639   7.745  1.00  0.00     0.008 C 
ATOM     19  C   UNL     1      72.200  45.692   5.496  1.00  0.00     0.012 C 
ATOM     20  C   UNL     1      70.529  46.438   8.205  1.00  0.00    -0.025 C 
ATOM     21  C   UNL     1      73.021  46.786   8.701  1.00  0.00     0.005 C 
ATOM     22  C   UNL     1      71.727  47.451   8.194  1.00  0.00     0.003 C 
ATOM     23  C   UNL     1      69.460  47.017   7.231  1.00  0.00     0.010 C 
ATOM     24  C   UNL     1      69.835  46.338   9.608  1.00  0.00     0.012 C 
ATOM     25  C   UNL     1      71.415  48.942   8.603  1.00  0.00    -0.006 C 
ATOM     26  C   UNL     1      69.046  48.475   7.568  1.00  0.00     0.033 C 
ATOM     27  C   UNL     1      70.235  49.458   7.689  1.00  0.00     0.120 C 
ATOM     28  C   UNL     1      71.075  49.125  10.108  1.00  0.00     0.014 C 
ATOM     29  C   UNL     1      72.661  49.838   8.331  1.00  0.00     0.014 C 
ENDROOT
BRANCH   1  30
ATOM     30  C   UNL     1      73.884  40.613   4.924  1.00  0.00     0.048 C 
ATOM     31  O   UNL     1      75.063  40.776   5.331  1.00  0.00    -0.550 OA
ATOM     32  O   UNL     1      73.683  40.448   3.557  1.00  0.00    -0.550 OA
ENDBRANCH   1  30
BRANCH  27  33
ATOM     33  O   UNL     1      70.700  49.717   6.383  1.00  0.00    -0.393 OA
ATOM     34  H   UNL     1      71.485  50.321   6.457  1.00  0.00     0.210 HD
ENDBRANCH  27  33
TORSDOF 2
ENDMDL
