MODEL 1
REMARK VINA RESULT:    -8.283      0.000      0.000
REMARK INTER + INTRA:         -13.719
REMARK INTER:                 -11.431
REMARK INTRA:                  -2.288
REMARK UNBOUND:                -2.288
REMARK SMILES CC[C@@H](CC[C@@H](C)[C@H]1CC[C@@H]2[C@H]3CC=C4C[C@H](O)CC[C@@]4(C)[C@H]3CC[C@@]21C)C(C)C
REMARK SMILES IDX 5 1 4 2 3 3 2 4 1 5 28 6 29 7 30 8 6 9 7 10 8 11 9 12 26 13
REMARK SMILES IDX 10 14 11 15 25 16 27 17 12 18 24 19 23 20 13 21 21 22 14 23
REMARK SMILES IDX 15 24 20 25 22 26 16 27 19 28 17 29 18 30
REMARK H PARENT 18 31
REMARK Flexibility Score: inf
ROOT
ATOM      1  C   UNL     1     -11.441 -36.053 -11.632  1.00  0.00     0.004 C 
ENDROOT
BRANCH   1   2
ATOM      2  C   UNL     1     -11.815 -36.654 -13.008  1.00  0.00     0.004 C 
BRANCH   2   3
ATOM      3  C   UNL     1     -13.070 -36.053 -13.708  1.00  0.00    -0.009 C 
BRANCH   3   4
ATOM      4  C   UNL     1     -14.215 -37.109 -13.769  1.00  0.00     0.000 C 
ATOM      5  C   UNL     1     -15.415 -36.793 -12.878  1.00  0.00     0.004 C 
ENDBRANCH   3   4
BRANCH   3   6
ATOM      6  C   UNL     1     -12.658 -35.444 -15.097  1.00  0.00    -0.014 C 
ATOM      7  C   UNL     1     -13.824 -35.297 -16.088  1.00  0.00     0.007 C 
ATOM      8  C   UNL     1     -11.868 -34.130 -14.978  1.00  0.00     0.007 C 
ENDBRANCH   3   6
ENDBRANCH   2   3
ENDBRANCH   1   2
BRANCH   1   9
ATOM      9  C   UNL     1     -12.605 -35.301 -10.919  1.00  0.00    -0.011 C 
ATOM     10  C   UNL     1     -12.997 -36.037  -9.619  1.00  0.00     0.008 C 
BRANCH   9  11
ATOM     11  C   UNL     1     -12.305 -33.789 -10.596  1.00  0.00    -0.002 C 
ATOM     12  C   UNL     1     -10.802 -33.456 -10.719  1.00  0.00     0.005 C 
ATOM     13  C   UNL     1     -13.089 -32.651 -11.375  1.00  0.00    -0.026 C 
ATOM     14  C   UNL     1     -10.704 -32.096 -11.381  1.00  0.00     0.005 C 
ATOM     15  C   UNL     1     -11.977 -31.948 -12.211  1.00  0.00    -0.001 C 
ATOM     16  C   UNL     1     -13.700 -31.659 -10.337  1.00  0.00     0.007 C 
ATOM     17  C   UNL     1     -14.240 -33.189 -12.268  1.00  0.00     0.012 C 
ATOM     18  C   UNL     1     -12.221 -30.464 -12.634  1.00  0.00     0.000 C 
ATOM     19  C   UNL     1     -14.068 -30.282 -10.911  1.00  0.00     0.005 C 
ATOM     20  C   UNL     1     -12.826 -29.584 -11.508  1.00  0.00     0.003 C 
ATOM     21  C   UNL     1     -13.048 -30.379 -13.928  1.00  0.00     0.031 C 
ATOM     22  C   UNL     1     -13.024 -28.080 -11.980  1.00  0.00    -0.008 C 
ATOM     23  C   UNL     1     -13.401 -28.975 -14.312  1.00  0.00    -0.027 C 
ATOM     24  C   UNL     1     -13.521 -27.965 -13.427  1.00  0.00    -0.065 C 
ATOM     25  C   UNL     1     -14.030 -27.317 -11.059  1.00  0.00     0.014 C 
ATOM     26  C   UNL     1     -11.639 -27.376 -11.892  1.00  0.00     0.016 C 
ATOM     27  C   UNL     1     -13.944 -26.601 -13.944  1.00  0.00     0.063 C 
ATOM     28  C   UNL     1     -14.350 -25.891 -11.534  1.00  0.00     0.033 C 
ATOM     29  C   UNL     1     -14.909 -25.910 -12.967  1.00  0.00     0.118 C 
BRANCH  29  30
ATOM     30  O   UNL     1     -15.200 -24.606 -13.406  1.00  0.00    -0.393 OA
ATOM     31  H   UNL     1     -16.175 -24.558 -13.580  1.00  0.00     0.210 HD
ENDBRANCH  29  30
ENDBRANCH   9  11
ENDBRANCH   1   9
TORSDOF 7
ENDMDL
MODEL 2
REMARK VINA RESULT:    -8.158      1.787      3.437
REMARK INTER + INTRA:         -13.546
REMARK INTER:                 -11.937
REMARK INTRA:                  -1.609
REMARK UNBOUND:                -2.288
REMARK SMILES CC[C@@H](CC[C@@H](C)[C@H]1CC[C@@H]2[C@H]3CC=C4C[C@H](O)CC[C@@]4(C)[C@H]3CC[C@@]21C)C(C)C
REMARK SMILES IDX 5 1 4 2 3 3 2 4 1 5 28 6 29 7 30 8 6 9 7 10 8 11 9 12 26 13
REMARK SMILES IDX 10 14 11 15 25 16 27 17 12 18 24 19 23 20 13 21 21 22 14 23
REMARK SMILES IDX 15 24 20 25 22 26 16 27 19 28 17 29 18 30
REMARK H PARENT 18 31
REMARK Flexibility Score: inf
ROOT
ATOM      1  C   UNL     1     -11.101 -34.169  -9.176  1.00  0.00     0.004 C 
ENDROOT
BRANCH   1   2
ATOM      2  C   UNL     1     -10.206 -35.352  -9.618  1.00  0.00     0.004 C 
BRANCH   2   3
ATOM      3  C   UNL     1     -10.871 -36.419 -10.538  1.00  0.00    -0.009 C 
BRANCH   3   4
ATOM      4  C   UNL     1     -10.042 -36.599 -11.846  1.00  0.00     0.000 C 
ATOM      5  C   UNL     1      -8.875 -35.624 -11.994  1.00  0.00     0.004 C 
ENDBRANCH   3   4
BRANCH   3   6
ATOM      6  C   UNL     1     -12.384 -36.054 -10.759  1.00  0.00    -0.014 C 
ATOM      7  C   UNL     1     -12.802 -35.984 -12.237  1.00  0.00     0.007 C 
ATOM      8  C   UNL     1     -13.350 -36.940  -9.955  1.00  0.00     0.007 C 
ENDBRANCH   3   6
ENDBRANCH   2   3
ENDBRANCH   1   2
BRANCH   1   9
ATOM      9  C   UNL     1     -10.363 -32.798  -9.095  1.00  0.00    -0.011 C 
ATOM     10  C   UNL     1      -8.878 -33.015  -8.732  1.00  0.00     0.008 C 
BRANCH   9  11
ATOM     11  C   UNL     1     -10.464 -31.925 -10.401  1.00  0.00    -0.002 C 
ATOM     12  C   UNL     1     -10.861 -32.765 -11.634  1.00  0.00     0.005 C 
ATOM     13  C   UNL     1     -11.387 -30.635 -10.411  1.00  0.00    -0.026 C 
ATOM     14  C   UNL     1     -11.844 -31.935 -12.436  1.00  0.00     0.005 C 
ATOM     15  C   UNL     1     -12.508 -30.997 -11.431  1.00  0.00    -0.001 C 
ATOM     16  C   UNL     1     -10.552 -29.421 -10.928  1.00  0.00     0.007 C 
ATOM     17  C   UNL     1     -11.961 -30.269  -9.016  1.00  0.00     0.012 C 
ATOM     18  C   UNL     1     -13.247 -29.818 -12.143  1.00  0.00     0.000 C 
ATOM     19  C   UNL     1     -11.392 -28.242 -11.442  1.00  0.00     0.005 C 
ATOM     20  C   UNL     1     -12.300 -28.681 -12.612  1.00  0.00     0.003 C 
ATOM     21  C   UNL     1     -14.401 -29.278 -11.282  1.00  0.00     0.031 C 
ATOM     22  C   UNL     1     -13.096 -27.524 -13.356  1.00  0.00    -0.008 C 
ATOM     23  C   UNL     1     -15.067 -28.075 -11.875  1.00  0.00    -0.027 C 
ATOM     24  C   UNL     1     -14.449 -27.210 -12.703  1.00  0.00    -0.065 C 
ATOM     25  C   UNL     1     -12.265 -26.201 -13.414  1.00  0.00     0.014 C 
ATOM     26  C   UNL     1     -13.367 -28.004 -14.811  1.00  0.00     0.016 C 
ATOM     27  C   UNL     1     -15.223 -25.995 -13.185  1.00  0.00     0.063 C 
ATOM     28  C   UNL     1     -13.029 -25.013 -14.020  1.00  0.00     0.033 C 
ATOM     29  C   UNL     1     -14.327 -24.747 -13.239  1.00  0.00     0.118 C 
BRANCH  29  30
ATOM     30  O   UNL     1     -15.029 -23.663 -13.793  1.00  0.00    -0.393 OA
ATOM     31  H   UNL     1     -15.995 -23.890 -13.775  1.00  0.00     0.210 HD
ENDBRANCH  29  30
ENDBRANCH   9  11
ENDBRANCH   1   9
TORSDOF 7
ENDMDL
MODEL 3
REMARK VINA RESULT:    -7.672      1.344      2.746
REMARK INTER + INTRA:         -12.875
REMARK INTER:                 -12.008
REMARK INTRA:                  -0.868
REMARK UNBOUND:                -2.288
REMARK SMILES CC[C@@H](CC[C@@H](C)[C@H]1CC[C@@H]2[C@H]3CC=C4C[C@H](O)CC[C@@]4(C)[C@H]3CC[C@@]21C)C(C)C
REMARK SMILES IDX 5 1 4 2 3 3 2 4 1 5 28 6 29 7 30 8 6 9 7 10 8 11 9 12 26 13
REMARK SMILES IDX 10 14 11 15 25 16 27 17 12 18 24 19 23 20 13 21 21 22 14 23
REMARK SMILES IDX 15 24 20 25 22 26 16 27 19 28 17 29 18 30
REMARK H PARENT 18 31
REMARK Flexibility Score: inf
ROOT
ATOM      1  C   UNL     1     -11.829 -35.942 -13.372  1.00  0.00     0.004 C 
ENDROOT
BRANCH   1   2
ATOM      2  C   UNL     1     -12.926 -36.989 -13.680  1.00  0.00     0.004 C 
BRANCH   2   3
ATOM      3  C   UNL     1     -14.039 -36.553 -14.680  1.00  0.00    -0.009 C 
BRANCH   3   4
ATOM      4  C   UNL     1     -13.565 -35.326 -15.517  1.00  0.00     0.000 C 
ATOM      5  C   UNL     1     -14.069 -35.312 -16.959  1.00  0.00     0.004 C 
ENDBRANCH   3   4
BRANCH   3   6
ATOM      6  C   UNL     1     -15.391 -36.343 -13.905  1.00  0.00    -0.014 C 
ATOM      7  C   UNL     1     -15.483 -37.123 -12.584  1.00  0.00     0.007 C 
ATOM      8  C   UNL     1     -15.752 -34.863 -13.697  1.00  0.00     0.007 C 
ENDBRANCH   3   6
ENDBRANCH   2   3
ENDBRANCH   1   2
BRANCH   1   9
ATOM      9  C   UNL     1     -12.007 -35.203 -12.010  1.00  0.00    -0.011 C 
ATOM     10  C   UNL     1     -10.629 -34.807 -11.437  1.00  0.00     0.008 C 
BRANCH   9  11
ATOM     11  C   UNL     1     -12.936 -33.933 -12.073  1.00  0.00    -0.002 C 
ATOM     12  C   UNL     1     -13.701 -33.706 -10.751  1.00  0.00     0.005 C 
ATOM     13  C   UNL     1     -12.320 -32.533 -12.491  1.00  0.00    -0.026 C 
ATOM     14  C   UNL     1     -13.692 -32.213 -10.488  1.00  0.00     0.005 C 
ATOM     15  C   UNL     1     -12.450 -31.676 -11.195  1.00  0.00    -0.001 C 
ATOM     16  C   UNL     1     -13.185 -31.922 -13.637  1.00  0.00     0.007 C 
ATOM     17  C   UNL     1     -10.851 -32.622 -12.987  1.00  0.00     0.012 C 
ATOM     18  C   UNL     1     -12.506 -30.123 -11.358  1.00  0.00     0.000 C 
ATOM     19  C   UNL     1     -13.022 -30.405 -13.822  1.00  0.00     0.005 C 
ATOM     20  C   UNL     1     -13.405 -29.649 -12.530  1.00  0.00     0.003 C 
ATOM     21  C   UNL     1     -11.094 -29.518 -11.444  1.00  0.00     0.031 C 
ATOM     22  C   UNL     1     -13.451 -28.064 -12.632  1.00  0.00    -0.008 C 
ATOM     23  C   UNL     1     -11.098 -28.045 -11.712  1.00  0.00    -0.027 C 
ATOM     24  C   UNL     1     -12.092 -27.405 -12.361  1.00  0.00    -0.065 C 
ATOM     25  C   UNL     1     -13.948 -27.593 -14.037  1.00  0.00     0.014 C 
ATOM     26  C   UNL     1     -14.453 -27.556 -11.555  1.00  0.00     0.016 C 
ATOM     27  C   UNL     1     -11.942 -25.915 -12.620  1.00  0.00     0.063 C 
ATOM     28  C   UNL     1     -13.904 -26.070 -14.234  1.00  0.00     0.033 C 
ATOM     29  C   UNL     1     -12.479 -25.535 -14.009  1.00  0.00     0.118 C 
BRANCH  29  30
ATOM     30  O   UNL     1     -12.436 -24.141 -14.185  1.00  0.00    -0.393 OA
ATOM     31  H   UNL     1     -11.620 -23.805 -13.732  1.00  0.00     0.210 HD
ENDBRANCH  29  30
ENDBRANCH   9  11
ENDBRANCH   1   9
TORSDOF 7
ENDMDL
MODEL 4
REMARK VINA RESULT:    -7.448      2.778      7.461
REMARK INTER + INTRA:         -12.567
REMARK INTER:                 -11.802
REMARK INTRA:                  -0.765
REMARK UNBOUND:                -2.288
REMARK SMILES CC[C@@H](CC[C@@H](C)[C@H]1CC[C@@H]2[C@H]3CC=C4C[C@H](O)CC[C@@]4(C)[C@H]3CC[C@@]21C)C(C)C
REMARK SMILES IDX 5 1 4 2 3 3 2 4 1 5 28 6 29 7 30 8 6 9 7 10 8 11 9 12 26 13
REMARK SMILES IDX 10 14 11 15 25 16 27 17 12 18 24 19 23 20 13 21 21 22 14 23
REMARK SMILES IDX 15 24 20 25 22 26 16 27 19 28 17 29 18 30
REMARK H PARENT 18 31
REMARK Flexibility Score: inf
ROOT
ATOM      1  C   UNL     1     -11.305 -27.737 -10.547  1.00  0.00     0.004 C 
ENDROOT
BRANCH   1   2
ATOM      2  C   UNL     1     -11.888 -27.418 -11.945  1.00  0.00     0.004 C 
BRANCH   2   3
ATOM      3  C   UNL     1     -13.254 -26.670 -11.972  1.00  0.00    -0.009 C 
BRANCH   3   4
ATOM      4  C   UNL     1     -14.397 -27.610 -11.484  1.00  0.00     0.000 C 
ATOM      5  C   UNL     1     -15.177 -28.293 -12.605  1.00  0.00     0.004 C 
ENDBRANCH   3   4
BRANCH   3   6
ATOM      6  C   UNL     1     -13.479 -26.037 -13.393  1.00  0.00    -0.014 C 
ATOM      7  C   UNL     1     -14.511 -24.898 -13.415  1.00  0.00     0.007 C 
ATOM      8  C   UNL     1     -12.174 -25.610 -14.086  1.00  0.00     0.007 C 
ENDBRANCH   3   6
ENDBRANCH   2   3
ENDBRANCH   1   2
BRANCH   1   9
ATOM      9  C   UNL     1     -10.343 -28.964 -10.514  1.00  0.00    -0.011 C 
ATOM     10  C   UNL     1     -10.425 -29.666  -9.140  1.00  0.00     0.008 C 
BRANCH   9  11
ATOM     11  C   UNL     1     -10.589 -30.016 -11.658  1.00  0.00    -0.002 C 
ATOM     12  C   UNL     1      -9.366 -30.933 -11.877  1.00  0.00     0.005 C 
ATOM     13  C   UNL     1     -11.862 -30.961 -11.594  1.00  0.00    -0.026 C 
ATOM     14  C   UNL     1      -9.900 -32.333 -12.110  1.00  0.00     0.005 C 
ATOM     15  C   UNL     1     -11.252 -32.383 -11.402  1.00  0.00    -0.001 C 
ATOM     16  C   UNL     1     -12.624 -30.874 -12.953  1.00  0.00     0.007 C 
ATOM     17  C   UNL     1     -12.853 -30.592 -10.457  1.00  0.00     0.012 C 
ATOM     18  C   UNL     1     -12.104 -33.605 -11.872  1.00  0.00     0.000 C 
ATOM     19  C   UNL     1     -13.574 -32.050 -13.228  1.00  0.00     0.005 C 
ATOM     20  C   UNL     1     -12.804 -33.389 -13.241  1.00  0.00     0.003 C 
ATOM     21  C   UNL     1     -13.101 -34.042 -10.786  1.00  0.00     0.031 C 
ATOM     22  C   UNL     1     -13.631 -34.671 -13.685  1.00  0.00    -0.008 C 
ATOM     23  C   UNL     1     -14.017 -35.140 -11.233  1.00  0.00    -0.027 C 
ATOM     24  C   UNL     1     -14.364 -35.348 -12.519  1.00  0.00    -0.065 C 
ATOM     25  C   UNL     1     -14.685 -34.321 -14.784  1.00  0.00     0.014 C 
ATOM     26  C   UNL     1     -12.621 -35.696 -14.276  1.00  0.00     0.016 C 
ATOM     27  C   UNL     1     -15.351 -36.460 -12.829  1.00  0.00     0.063 C 
ATOM     28  C   UNL     1     -15.594 -35.497 -15.172  1.00  0.00     0.033 C 
ATOM     29  C   UNL     1     -16.331 -36.043 -13.937  1.00  0.00     0.118 C 
BRANCH  29  30
ATOM     30  O   UNL     1     -17.161 -37.122 -14.288  1.00  0.00    -0.393 OA
ATOM     31  H   UNL     1     -16.790 -37.938 -13.862  1.00  0.00     0.210 HD
ENDBRANCH  29  30
ENDBRANCH   9  11
ENDBRANCH   1   9
TORSDOF 7
ENDMDL
MODEL 5
REMARK VINA RESULT:    -7.261      3.091      7.357
REMARK INTER + INTRA:         -12.308
REMARK INTER:                 -11.354
REMARK INTRA:                  -0.954
REMARK UNBOUND:                -2.288
REMARK SMILES CC[C@@H](CC[C@@H](C)[C@H]1CC[C@@H]2[C@H]3CC=C4C[C@H](O)CC[C@@]4(C)[C@H]3CC[C@@]21C)C(C)C
REMARK SMILES IDX 5 1 4 2 3 3 2 4 1 5 28 6 29 7 30 8 6 9 7 10 8 11 9 12 26 13
REMARK SMILES IDX 10 14 11 15 25 16 27 17 12 18 24 19 23 20 13 21 21 22 14 23
REMARK SMILES IDX 15 24 20 25 22 26 16 27 19 28 17 29 18 30
REMARK H PARENT 18 31
REMARK Flexibility Score: inf
ROOT
ATOM      1  C   UNL     1      -9.356 -31.753 -10.885  1.00  0.00     0.004 C 
ENDROOT
BRANCH   1   2
ATOM      2  C   UNL     1     -10.353 -30.765 -11.535  1.00  0.00     0.004 C 
BRANCH   2   3
ATOM      3  C   UNL     1     -11.165 -29.859 -10.562  1.00  0.00    -0.009 C 
BRANCH   3   4
ATOM      4  C   UNL     1     -10.744 -30.134  -9.087  1.00  0.00     0.000 C 
ATOM      5  C   UNL     1      -9.941 -29.009  -8.437  1.00  0.00     0.004 C 
ENDBRANCH   3   4
BRANCH   3   6
ATOM      6  C   UNL     1     -12.702 -30.018 -10.853  1.00  0.00    -0.014 C 
ATOM      7  C   UNL     1     -13.523 -30.483  -9.641  1.00  0.00     0.007 C 
ATOM      8  C   UNL     1     -13.333 -28.773 -11.500  1.00  0.00     0.007 C 
ENDBRANCH   3   6
ENDBRANCH   2   3
ENDBRANCH   1   2
BRANCH   1   9
ATOM      9  C   UNL     1      -9.340 -33.172 -11.532  1.00  0.00    -0.011 C 
ATOM     10  C   UNL     1      -9.240 -34.255 -10.436  1.00  0.00     0.008 C 
BRANCH   9  11
ATOM     11  C   UNL     1     -10.571 -33.478 -12.464  1.00  0.00    -0.002 C 
ATOM     12  C   UNL     1     -10.220 -34.488 -13.579  1.00  0.00     0.005 C 
ATOM     13  C   UNL     1     -11.937 -33.965 -11.821  1.00  0.00    -0.026 C 
ATOM     14  C   UNL     1     -11.404 -35.425 -13.714  1.00  0.00     0.005 C 
ATOM     15  C   UNL     1     -12.091 -35.423 -12.350  1.00  0.00    -0.001 C 
ATOM     16  C   UNL     1     -13.095 -33.067 -12.358  1.00  0.00     0.007 C 
ATOM     17  C   UNL     1     -11.953 -33.900 -10.270  1.00  0.00     0.012 C 
ATOM     18  C   UNL     1     -13.534 -36.016 -12.430  1.00  0.00     0.000 C 
ATOM     19  C   UNL     1     -14.497 -33.682 -12.220  1.00  0.00     0.005 C 
ATOM     20  C   UNL     1     -14.588 -35.021 -12.986  1.00  0.00     0.003 C 
ATOM     21  C   UNL     1     -13.970 -36.611 -11.080  1.00  0.00     0.031 C 
ATOM     22  C   UNL     1     -16.030 -35.683 -13.074  1.00  0.00    -0.008 C 
ATOM     23  C   UNL     1     -15.388 -37.091 -11.078  1.00  0.00    -0.027 C 
ATOM     24  C   UNL     1     -16.350 -36.589 -11.878  1.00  0.00    -0.065 C 
ATOM     25  C   UNL     1     -17.152 -34.600 -13.179  1.00  0.00     0.014 C 
ATOM     26  C   UNL     1     -16.063 -36.558 -14.361  1.00  0.00     0.016 C 
ATOM     27  C   UNL     1     -17.764 -37.125 -11.731  1.00  0.00     0.063 C 
ATOM     28  C   UNL     1     -18.576 -35.176 -13.152  1.00  0.00     0.033 C 
ATOM     29  C   UNL     1     -18.803 -36.002 -11.874  1.00  0.00     0.118 C 
BRANCH  29  30
ATOM     30  O   UNL     1     -20.105 -36.533 -11.848  1.00  0.00    -0.393 OA
ATOM     31  H   UNL     1     -20.025 -37.520 -11.777  1.00  0.00     0.210 HD
ENDBRANCH  29  30
ENDBRANCH   9  11
ENDBRANCH   1   9
TORSDOF 7
ENDMDL
MODEL 6
REMARK VINA RESULT:    -6.823      1.377      2.224
REMARK INTER + INTRA:         -11.703
REMARK INTER:                  -9.351
REMARK INTRA:                  -2.352
REMARK UNBOUND:                -2.288
REMARK SMILES CC[C@@H](CC[C@@H](C)[C@H]1CC[C@@H]2[C@H]3CC=C4C[C@H](O)CC[C@@]4(C)[C@H]3CC[C@@]21C)C(C)C
REMARK SMILES IDX 5 1 4 2 3 3 2 4 1 5 28 6 29 7 30 8 6 9 7 10 8 11 9 12 26 13
REMARK SMILES IDX 10 14 11 15 25 16 27 17 12 18 24 19 23 20 13 21 21 22 14 23
REMARK SMILES IDX 15 24 20 25 22 26 16 27 19 28 17 29 18 30
REMARK H PARENT 18 31
REMARK Flexibility Score: inf
ROOT
ATOM      1  C   UNL     1     -11.155 -36.654 -12.911  1.00  0.00     0.004 C 
ENDROOT
BRANCH   1   2
ATOM      2  C   UNL     1     -12.635 -37.097 -12.824  1.00  0.00     0.004 C 
BRANCH   2   3
ATOM      3  C   UNL     1     -13.689 -36.110 -13.408  1.00  0.00    -0.009 C 
BRANCH   3   4
ATOM      4  C   UNL     1     -14.869 -35.922 -12.406  1.00  0.00     0.000 C 
ATOM      5  C   UNL     1     -15.673 -34.639 -12.609  1.00  0.00     0.004 C 
ENDBRANCH   3   4
BRANCH   3   6
ATOM      6  C   UNL     1     -14.112 -36.581 -14.847  1.00  0.00    -0.014 C 
ATOM      7  C   UNL     1     -15.597 -36.956 -14.972  1.00  0.00     0.007 C 
ATOM      8  C   UNL     1     -13.697 -35.600 -15.956  1.00  0.00     0.007 C 
ENDBRANCH   3   6
ENDBRANCH   2   3
ENDBRANCH   1   2
BRANCH   1   9
ATOM      9  C   UNL     1     -10.743 -35.576 -11.863  1.00  0.00    -0.011 C 
ATOM     10  C   UNL     1      -9.408 -35.970 -11.192  1.00  0.00     0.008 C 
BRANCH   9  11
ATOM     11  C   UNL     1     -10.631 -34.115 -12.439  1.00  0.00    -0.002 C 
ATOM     12  C   UNL     1     -10.706 -34.090 -13.981  1.00  0.00     0.005 C 
ATOM     13  C   UNL     1     -11.619 -32.989 -11.916  1.00  0.00    -0.026 C 
ATOM     14  C   UNL     1     -11.557 -32.895 -14.362  1.00  0.00     0.005 C 
ATOM     15  C   UNL     1     -12.478 -32.646 -13.170  1.00  0.00    -0.001 C 
ATOM     16  C   UNL     1     -10.782 -31.749 -11.474  1.00  0.00     0.007 C 
ATOM     17  C   UNL     1     -12.493 -33.438 -10.714  1.00  0.00     0.012 C 
ATOM     18  C   UNL     1     -13.133 -31.229 -13.233  1.00  0.00     0.000 C 
ATOM     19  C   UNL     1     -11.577 -30.436 -11.399  1.00  0.00     0.005 C 
ATOM     20  C   UNL     1     -12.191 -30.085 -12.772  1.00  0.00     0.003 C 
ATOM     21  C   UNL     1     -14.475 -31.199 -12.483  1.00  0.00     0.031 C 
ATOM     22  C   UNL     1     -12.895 -28.665 -12.885  1.00  0.00    -0.008 C 
ATOM     23  C   UNL     1     -15.086 -29.833 -12.421  1.00  0.00    -0.027 C 
ATOM     24  C   UNL     1     -14.371 -28.691 -12.469  1.00  0.00    -0.065 C 
ATOM     25  C   UNL     1     -12.163 -27.592 -12.015  1.00  0.00     0.014 C 
ATOM     26  C   UNL     1     -12.824 -28.226 -14.376  1.00  0.00     0.016 C 
ATOM     27  C   UNL     1     -15.112 -27.371 -12.335  1.00  0.00     0.063 C 
ATOM     28  C   UNL     1     -12.865 -26.225 -11.993  1.00  0.00     0.033 C 
ATOM     29  C   UNL     1     -14.312 -26.366 -11.490  1.00  0.00     0.118 C 
BRANCH  29  30
ATOM     30  O   UNL     1     -14.958 -25.118 -11.472  1.00  0.00    -0.393 OA
ATOM     31  H   UNL     1     -14.469 -24.536 -10.834  1.00  0.00     0.210 HD
ENDBRANCH  29  30
ENDBRANCH   9  11
ENDBRANCH   1   9
TORSDOF 7
ENDMDL
MODEL 7
REMARK VINA RESULT:    -6.528      2.809      7.517
REMARK INTER + INTRA:         -11.297
REMARK INTER:                  -9.712
REMARK INTRA:                  -1.586
REMARK UNBOUND:                -2.288
REMARK SMILES CC[C@@H](CC[C@@H](C)[C@H]1CC[C@@H]2[C@H]3CC=C4C[C@H](O)CC[C@@]4(C)[C@H]3CC[C@@]21C)C(C)C
REMARK SMILES IDX 5 1 4 2 3 3 2 4 1 5 28 6 29 7 30 8 6 9 7 10 8 11 9 12 26 13
REMARK SMILES IDX 10 14 11 15 25 16 27 17 12 18 24 19 23 20 13 21 21 22 14 23
REMARK SMILES IDX 15 24 20 25 22 26 16 27 19 28 17 29 18 30
REMARK H PARENT 18 31
REMARK Flexibility Score: inf
ROOT
ATOM      1  C   UNL     1     -11.458 -27.265 -10.577  1.00  0.00     0.004 C 
ENDROOT
BRANCH   1   2
ATOM      2  C   UNL     1     -11.930 -26.620 -11.903  1.00  0.00     0.004 C 
BRANCH   2   3
ATOM      3  C   UNL     1     -13.464 -26.397 -12.058  1.00  0.00    -0.009 C 
BRANCH   3   4
ATOM      4  C   UNL     1     -14.250 -27.611 -11.477  1.00  0.00     0.000 C 
ATOM      5  C   UNL     1     -15.127 -28.341 -12.492  1.00  0.00     0.004 C 
ENDBRANCH   3   4
BRANCH   3   6
ATOM      6  C   UNL     1     -13.797 -26.048 -13.554  1.00  0.00    -0.014 C 
ATOM      7  C   UNL     1     -14.502 -24.695 -13.739  1.00  0.00     0.007 C 
ATOM      8  C   UNL     1     -12.586 -26.171 -14.494  1.00  0.00     0.007 C 
ENDBRANCH   3   6
ENDBRANCH   2   3
ENDBRANCH   1   2
BRANCH   1   9
ATOM      9  C   UNL     1     -10.196 -28.170 -10.714  1.00  0.00    -0.011 C 
ATOM     10  C   UNL     1      -9.134 -27.762  -9.670  1.00  0.00     0.008 C 
BRANCH   9  11
ATOM     11  C   UNL     1     -10.484 -29.713 -10.596  1.00  0.00    -0.002 C 
ATOM     12  C   UNL     1     -11.193 -30.074  -9.273  1.00  0.00     0.005 C 
ATOM     13  C   UNL     1     -11.277 -30.453 -11.755  1.00  0.00    -0.026 C 
ATOM     14  C   UNL     1     -12.243 -31.116  -9.604  1.00  0.00     0.005 C 
ATOM     15  C   UNL     1     -12.608 -30.883 -11.068  1.00  0.00    -0.001 C 
ATOM     16  C   UNL     1     -10.464 -31.708 -12.201  1.00  0.00     0.007 C 
ATOM     17  C   UNL     1     -11.523 -29.566 -13.005  1.00  0.00     0.012 C 
ATOM     18  C   UNL     1     -13.372 -32.104 -11.673  1.00  0.00     0.000 C 
ATOM     19  C   UNL     1     -11.287 -32.769 -12.948  1.00  0.00     0.005 C 
ATOM     20  C   UNL     1     -12.447 -33.286 -12.069  1.00  0.00     0.003 C 
ATOM     21  C   UNL     1     -14.278 -31.676 -12.840  1.00  0.00     0.031 C 
ATOM     22  C   UNL     1     -13.276 -34.511 -12.649  1.00  0.00    -0.008 C 
ATOM     23  C   UNL     1     -14.946 -32.829 -13.523  1.00  0.00    -0.027 C 
ATOM     24  C   UNL     1     -14.437 -34.078 -13.554  1.00  0.00    -0.065 C 
ATOM     25  C   UNL     1     -12.365 -35.487 -13.462  1.00  0.00     0.014 C 
ATOM     26  C   UNL     1     -13.875 -35.284 -11.439  1.00  0.00     0.016 C 
ATOM     27  C   UNL     1     -15.186 -35.143 -14.335  1.00  0.00     0.063 C 
ATOM     28  C   UNL     1     -13.131 -36.631 -14.144  1.00  0.00     0.033 C 
ATOM     29  C   UNL     1     -14.217 -36.074 -15.080  1.00  0.00     0.118 C 
BRANCH  29  30
ATOM     30  O   UNL     1     -14.922 -37.118 -15.704  1.00  0.00    -0.393 OA
ATOM     31  H   UNL     1     -15.880 -36.863 -15.725  1.00  0.00     0.210 HD
ENDBRANCH  29  30
ENDBRANCH   9  11
ENDBRANCH   1   9
TORSDOF 7
ENDMDL
MODEL 8
REMARK VINA RESULT:    -6.246      1.594      3.454
REMARK INTER + INTRA:         -10.907
REMARK INTER:                 -11.016
REMARK INTRA:                   0.109
REMARK UNBOUND:                -2.288
REMARK SMILES CC[C@@H](CC[C@@H](C)[C@H]1CC[C@@H]2[C@H]3CC=C4C[C@H](O)CC[C@@]4(C)[C@H]3CC[C@@]21C)C(C)C
REMARK SMILES IDX 5 1 4 2 3 3 2 4 1 5 28 6 29 7 30 8 6 9 7 10 8 11 9 12 26 13
REMARK SMILES IDX 10 14 11 15 25 16 27 17 12 18 24 19 23 20 13 21 21 22 14 23
REMARK SMILES IDX 15 24 20 25 22 26 16 27 19 28 17 29 18 30
REMARK H PARENT 18 31
REMARK Flexibility Score: inf
ROOT
ATOM      1  C   UNL     1     -12.284 -35.343 -10.447  1.00  0.00     0.004 C 
ENDROOT
BRANCH   1   2
ATOM      2  C   UNL     1     -11.328 -36.559 -10.394  1.00  0.00     0.004 C 
BRANCH   2   3
ATOM      3  C   UNL     1      -9.812 -36.241 -10.226  1.00  0.00    -0.009 C 
BRANCH   3   4
ATOM      4  C   UNL     1      -9.620 -34.938  -9.393  1.00  0.00     0.000 C 
ATOM      5  C   UNL     1      -9.030 -33.767 -10.177  1.00  0.00     0.004 C 
ENDBRANCH   3   4
BRANCH   3   6
ATOM      6  C   UNL     1      -9.116 -36.234 -11.636  1.00  0.00    -0.014 C 
ATOM      7  C   UNL     1      -9.807 -37.125 -12.680  1.00  0.00     0.007 C 
ATOM      8  C   UNL     1      -8.875 -34.820 -12.191  1.00  0.00     0.007 C 
ENDBRANCH   3   6
ENDBRANCH   2   3
ENDBRANCH   1   2
BRANCH   1   9
ATOM      9  C   UNL     1     -12.547 -34.792 -11.881  1.00  0.00    -0.011 C 
ATOM     10  C   UNL     1     -13.234 -35.870 -12.747  1.00  0.00     0.008 C 
BRANCH   9  11
ATOM     11  C   UNL     1     -13.393 -33.465 -11.925  1.00  0.00    -0.002 C 
ATOM     12  C   UNL     1     -14.064 -33.157 -10.568  1.00  0.00     0.005 C 
ATOM     13  C   UNL     1     -12.713 -32.118 -12.413  1.00  0.00    -0.026 C 
ATOM     14  C   UNL     1     -13.943 -31.663 -10.345  1.00  0.00     0.005 C 
ATOM     15  C   UNL     1     -12.712 -31.225 -11.135  1.00  0.00    -0.001 C 
ATOM     16  C   UNL     1     -13.602 -31.477 -13.524  1.00  0.00     0.007 C 
ATOM     17  C   UNL     1     -11.284 -32.315 -12.988  1.00  0.00     0.012 C 
ATOM     18  C   UNL     1     -12.676 -29.676 -11.335  1.00  0.00     0.000 C 
ATOM     19  C   UNL     1     -13.351 -29.979 -13.757  1.00  0.00     0.005 C 
ATOM     20  C   UNL     1     -13.609 -29.170 -12.467  1.00  0.00     0.003 C 
ATOM     21  C   UNL     1     -11.235 -29.169 -11.517  1.00  0.00     0.031 C 
ATOM     22  C   UNL     1     -13.557 -27.588 -12.607  1.00  0.00    -0.008 C 
ATOM     23  C   UNL     1     -11.159 -27.705 -11.822  1.00  0.00    -0.027 C 
ATOM     24  C   UNL     1     -12.145 -27.015 -12.430  1.00  0.00    -0.065 C 
ATOM     25  C   UNL     1     -14.103 -27.117 -13.994  1.00  0.00     0.014 C 
ATOM     26  C   UNL     1     -14.460 -26.990 -11.490  1.00  0.00     0.016 C 
ATOM     27  C   UNL     1     -11.914 -25.545 -12.737  1.00  0.00     0.063 C 
ATOM     28  C   UNL     1     -13.972 -25.605 -14.233  1.00  0.00     0.033 C 
ATOM     29  C   UNL     1     -12.505 -25.161 -14.103  1.00  0.00     0.118 C 
BRANCH  29  30
ATOM     30  O   UNL     1     -12.381 -23.777 -14.318  1.00  0.00    -0.393 OA
ATOM     31  H   UNL     1     -11.413 -23.562 -14.347  1.00  0.00     0.210 HD
ENDBRANCH  29  30
ENDBRANCH   9  11
ENDBRANCH   1   9
TORSDOF 7
ENDMDL
