MODEL 1
REMARK VINA RESULT:    -4.708      0.000      0.000
REMARK INTER + INTRA:         -11.137
REMARK INTER:                  -9.111
REMARK INTRA:                  -2.026
REMARK UNBOUND:                -2.026
REMARK SMILES CCCCCCCCCCCCCCCCCC(=O)[O-]
REMARK SMILES IDX 10 1 11 2 12 3 13 4 14 5 15 6 16 7 17 8 18 9 19 10 20 11
REMARK SMILES IDX 9 12 8 13 7 14 6 15 5 16 4 17 3 18 2 19 1 20
REMARK H PARENT
REMARK Flexibility Score: inf
ROOT
ATOM      1  C   UNL     1       7.559   4.171  19.036  1.00  0.00     0.000 C 
ENDROOT
BRANCH   1   2
ATOM      2  C   UNL     1       6.270   4.814  18.496  1.00  0.00     0.000 C 
BRANCH   2   3
ATOM      3  C   UNL     1       6.450   6.301  18.149  1.00  0.00     0.000 C 
BRANCH   3   4
ATOM      4  C   UNL     1       6.296   6.582  16.646  1.00  0.00     0.000 C 
BRANCH   4   5
ATOM      5  C   UNL     1       5.934   5.301  15.884  1.00  0.00     0.000 C 
BRANCH   5   6
ATOM      6  C   UNL     1       7.133   4.785  15.074  1.00  0.00     0.000 C 
BRANCH   6   7
ATOM      7  C   UNL     1       8.414   5.592  15.334  1.00  0.00     0.006 C 
BRANCH   7   8
ATOM      8  C   UNL     1       9.468   5.401  14.235  1.00  0.00     0.053 C 
BRANCH   8   9
ATOM      9  C   UNL     1      10.270   6.650  14.056  1.00  0.00     0.041 C 
ATOM     10  O   UNL     1      10.536   7.380  15.046  1.00  0.00    -0.550 OA
ATOM     11  O   UNL     1      10.686   7.034  12.786  1.00  0.00    -0.550 OA
ENDBRANCH   8   9
ENDBRANCH   7   8
ENDBRANCH   6   7
ENDBRANCH   5   6
ENDBRANCH   4   5
ENDBRANCH   3   4
ENDBRANCH   2   3
ENDBRANCH   1   2
BRANCH   1  12
ATOM     12  C   UNL     1       7.304   2.783  19.664  1.00  0.00     0.000 C 
BRANCH  12  13
ATOM     13  C   UNL     1       5.848   2.565  20.118  1.00  0.00    -0.000 C 
BRANCH  13  14
ATOM     14  C   UNL     1       5.644   2.491  21.643  1.00  0.00    -0.000 C 
BRANCH  14  15
ATOM     15  C   UNL     1       4.453   3.308  22.178  1.00  0.00    -0.000 C 
BRANCH  15  16
ATOM     16  C   UNL     1       4.348   4.703  21.545  1.00  0.00    -0.000 C 
BRANCH  16  17
ATOM     17  C   UNL     1       5.389   5.655  22.145  1.00  0.00    -0.000 C 
BRANCH  17  18
ATOM     18  C   UNL     1       5.377   7.010  21.421  1.00  0.00    -0.000 C 
BRANCH  18  19
ATOM     19  C   UNL     1       6.661   7.818  21.662  1.00  0.00    -0.003 C 
ATOM     20  C   UNL     1       7.930   6.991  21.458  1.00  0.00     0.004 C 
ENDBRANCH  18  19
ENDBRANCH  17  18
ENDBRANCH  16  17
ENDBRANCH  15  16
ENDBRANCH  14  15
ENDBRANCH  13  14
ENDBRANCH  12  13
ENDBRANCH   1  12
TORSDOF 16
ENDMDL
MODEL 2
REMARK VINA RESULT:    -4.573      4.328      6.998
REMARK INTER + INTRA:         -10.877
REMARK INTER:                  -8.670
REMARK INTRA:                  -2.208
REMARK UNBOUND:                -2.026
REMARK SMILES CCCCCCCCCCCCCCCCCC(=O)[O-]
REMARK SMILES IDX 10 1 11 2 12 3 13 4 14 5 15 6 16 7 17 8 18 9 19 10 20 11
REMARK SMILES IDX 9 12 8 13 7 14 6 15 5 16 4 17 3 18 2 19 1 20
REMARK H PARENT
REMARK Flexibility Score: inf
ROOT
ATOM      1  C   UNL     1       5.682   5.820  22.612  1.00  0.00     0.000 C 
ENDROOT
BRANCH   1   2
ATOM      2  C   UNL     1       5.147   6.415  21.299  1.00  0.00     0.000 C 
BRANCH   2   3
ATOM      3  C   UNL     1       6.089   7.472  20.699  1.00  0.00     0.000 C 
BRANCH   3   4
ATOM      4  C   UNL     1       7.540   7.313  21.182  1.00  0.00     0.000 C 
BRANCH   4   5
ATOM      5  C   UNL     1       8.054   8.615  21.809  1.00  0.00     0.000 C 
BRANCH   5   6
ATOM      6  C   UNL     1       6.901   9.601  22.052  1.00  0.00     0.000 C 
BRANCH   6   7
ATOM      7  C   UNL     1       7.376  10.930  22.660  1.00  0.00     0.006 C 
BRANCH   7   8
ATOM      8  C   UNL     1       6.613  12.140  22.105  1.00  0.00     0.053 C 
BRANCH   8   9
ATOM      9  C   UNL     1       5.766  12.759  23.171  1.00  0.00     0.041 C 
ATOM     10  O   UNL     1       5.110  13.807  22.932  1.00  0.00    -0.550 OA
ATOM     11  O   UNL     1       5.736  12.204  24.446  1.00  0.00    -0.550 OA
ENDBRANCH   8   9
ENDBRANCH   7   8
ENDBRANCH   6   7
ENDBRANCH   5   6
ENDBRANCH   4   5
ENDBRANCH   3   4
ENDBRANCH   2   3
ENDBRANCH   1   2
BRANCH   1  12
ATOM     12  C   UNL     1       5.104   4.416  22.899  1.00  0.00     0.000 C 
BRANCH  12  13
ATOM     13  C   UNL     1       4.516   3.721  21.657  1.00  0.00    -0.000 C 
BRANCH  13  14
ATOM     14  C   UNL     1       5.425   2.660  21.010  1.00  0.00    -0.000 C 
BRANCH  14  15
ATOM     15  C   UNL     1       5.937   3.015  19.602  1.00  0.00    -0.000 C 
BRANCH  15  16
ATOM     16  C   UNL     1       7.270   3.778  19.623  1.00  0.00    -0.000 C 
BRANCH  16  17
ATOM     17  C   UNL     1       7.348   4.776  18.461  1.00  0.00    -0.000 C 
BRANCH  17  18
ATOM     18  C   UNL     1       5.960   5.013  17.846  1.00  0.00    -0.000 C 
BRANCH  18  19
ATOM     19  C   UNL     1       6.023   5.832  16.548  1.00  0.00    -0.003 C 
ATOM     20  C   UNL     1       6.430   7.286  16.784  1.00  0.00     0.004 C 
ENDBRANCH  18  19
ENDBRANCH  17  18
ENDBRANCH  16  17
ENDBRANCH  15  16
ENDBRANCH  14  15
ENDBRANCH  13  14
ENDBRANCH  12  13
ENDBRANCH   1  12
TORSDOF 16
ENDMDL
MODEL 3
REMARK VINA RESULT:    -4.565      3.370      7.741
REMARK INTER + INTRA:         -10.861
REMARK INTER:                  -8.463
REMARK INTRA:                  -2.399
REMARK UNBOUND:                -2.026
REMARK SMILES CCCCCCCCCCCCCCCCCC(=O)[O-]
REMARK SMILES IDX 10 1 11 2 12 3 13 4 14 5 15 6 16 7 17 8 18 9 19 10 20 11
REMARK SMILES IDX 9 12 8 13 7 14 6 15 5 16 4 17 3 18 2 19 1 20
REMARK H PARENT
REMARK Flexibility Score: inf
ROOT
ATOM      1  C   UNL     1       9.601   5.277  16.177  1.00  0.00     0.000 C 
ENDROOT
BRANCH   1   2
ATOM      2  C   UNL     1       8.427   6.122  15.652  1.00  0.00     0.000 C 
BRANCH   2   3
ATOM      3  C   UNL     1       7.150   5.293  15.436  1.00  0.00     0.000 C 
BRANCH   3   4
ATOM      4  C   UNL     1       6.019   5.686  16.399  1.00  0.00     0.000 C 
BRANCH   4   5
ATOM      5  C   UNL     1       6.376   6.963  17.171  1.00  0.00     0.000 C 
BRANCH   5   6
ATOM      6  C   UNL     1       6.557   6.667  18.667  1.00  0.00     0.000 C 
BRANCH   6   7
ATOM      7  C   UNL     1       6.398   5.175  19.000  1.00  0.00     0.006 C 
BRANCH   7   8
ATOM      8  C   UNL     1       5.648   4.939  20.318  1.00  0.00     0.053 C 
BRANCH   8   9
ATOM      9  C   UNL     1       5.315   3.490  20.478  1.00  0.00     0.041 C 
ATOM     10  O   UNL     1       5.663   2.658  19.599  1.00  0.00    -0.550 OA
ATOM     11  O   UNL     1       4.579   3.061  21.577  1.00  0.00    -0.550 OA
ENDBRANCH   8   9
ENDBRANCH   7   8
ENDBRANCH   6   7
ENDBRANCH   5   6
ENDBRANCH   4   5
ENDBRANCH   3   4
ENDBRANCH   2   3
ENDBRANCH   1   2
BRANCH   1  12
ATOM     12  C   UNL     1       9.334   3.760  16.052  1.00  0.00     0.000 C 
BRANCH  12  13
ATOM     13  C   UNL     1      10.164   3.073  14.950  1.00  0.00    -0.000 C 
BRANCH  13  14
ATOM     14  C   UNL     1       9.340   2.379  13.850  1.00  0.00    -0.000 C 
BRANCH  14  15
ATOM     15  C   UNL     1       8.710   3.328  12.814  1.00  0.00    -0.000 C 
BRANCH  15  16
ATOM     16  C   UNL     1       9.741   4.235  12.126  1.00  0.00    -0.000 C 
BRANCH  16  17
ATOM     17  C   UNL     1       9.280   5.697  12.140  1.00  0.00    -0.000 C 
BRANCH  17  18
ATOM     18  C   UNL     1      10.441   6.637  12.499  1.00  0.00    -0.000 C 
BRANCH  18  19
ATOM     19  C   UNL     1      11.648   5.886  13.083  1.00  0.00    -0.003 C 
ATOM     20  C   UNL     1      12.867   5.916  12.162  1.00  0.00     0.004 C 
ENDBRANCH  18  19
ENDBRANCH  17  18
ENDBRANCH  16  17
ENDBRANCH  15  16
ENDBRANCH  14  15
ENDBRANCH  13  14
ENDBRANCH  12  13
ENDBRANCH   1  12
TORSDOF 16
ENDMDL
MODEL 4
REMARK VINA RESULT:    -4.537      3.169      6.642
REMARK INTER + INTRA:         -10.806
REMARK INTER:                  -8.169
REMARK INTRA:                  -2.637
REMARK UNBOUND:                -2.026
REMARK SMILES CCCCCCCCCCCCCCCCCC(=O)[O-]
REMARK SMILES IDX 10 1 11 2 12 3 13 4 14 5 15 6 16 7 17 8 18 9 19 10 20 11
REMARK SMILES IDX 9 12 8 13 7 14 6 15 5 16 4 17 3 18 2 19 1 20
REMARK H PARENT
REMARK Flexibility Score: inf
ROOT
ATOM      1  C   UNL     1       5.892   3.645  19.375  1.00  0.00     0.000 C 
ENDROOT
BRANCH   1   2
ATOM      2  C   UNL     1       5.507   3.134  20.774  1.00  0.00     0.000 C 
BRANCH   2   3
ATOM      3  C   UNL     1       4.334   3.917  21.388  1.00  0.00     0.000 C 
BRANCH   3   4
ATOM      4  C   UNL     1       4.709   5.363  21.746  1.00  0.00     0.000 C 
BRANCH   4   5
ATOM      5  C   UNL     1       5.974   5.402  22.615  1.00  0.00     0.000 C 
BRANCH   5   6
ATOM      6  C   UNL     1       6.354   6.848  22.966  1.00  0.00     0.000 C 
BRANCH   6   7
ATOM      7  C   UNL     1       6.022   7.839  21.840  1.00  0.00     0.006 C 
BRANCH   7   8
ATOM      8  C   UNL     1       7.202   8.754  21.489  1.00  0.00     0.053 C 
BRANCH   8   9
ATOM      9  C   UNL     1       7.050  10.083  22.158  1.00  0.00     0.041 C 
ATOM     10  O   UNL     1       5.987  10.368  22.769  1.00  0.00    -0.550 OA
ATOM     11  O   UNL     1       8.067  11.028  22.069  1.00  0.00    -0.550 OA
ENDBRANCH   8   9
ENDBRANCH   7   8
ENDBRANCH   6   7
ENDBRANCH   5   6
ENDBRANCH   4   5
ENDBRANCH   3   4
ENDBRANCH   2   3
ENDBRANCH   1   2
BRANCH   1  12
ATOM     12  C   UNL     1       7.381   4.049  19.287  1.00  0.00     0.000 C 
BRANCH  12  13
ATOM     13  C   UNL     1       7.605   5.569  19.169  1.00  0.00    -0.000 C 
BRANCH  13  14
ATOM     14  C   UNL     1       6.401   6.367  18.636  1.00  0.00    -0.000 C 
BRANCH  14  15
ATOM     15  C   UNL     1       6.504   6.785  17.156  1.00  0.00    -0.000 C 
BRANCH  15  16
ATOM     16  C   UNL     1       6.021   5.693  16.190  1.00  0.00    -0.000 C 
BRANCH  16  17
ATOM     17  C   UNL     1       7.198   5.090  15.415  1.00  0.00    -0.000 C 
BRANCH  17  18
ATOM     18  C   UNL     1       8.465   5.943  15.587  1.00  0.00    -0.000 C 
BRANCH  18  19
ATOM     19  C   UNL     1       9.731   5.090  15.756  1.00  0.00    -0.003 C 
ATOM     20  C   UNL     1       9.429   3.667  16.227  1.00  0.00     0.004 C 
ENDBRANCH  18  19
ENDBRANCH  17  18
ENDBRANCH  16  17
ENDBRANCH  15  16
ENDBRANCH  14  15
ENDBRANCH  13  14
ENDBRANCH  12  13
ENDBRANCH   1  12
TORSDOF 16
ENDMDL
MODEL 5
REMARK VINA RESULT:    -4.487      3.427      8.229
REMARK INTER + INTRA:         -10.709
REMARK INTER:                  -9.080
REMARK INTRA:                  -1.630
REMARK UNBOUND:                -2.026
REMARK SMILES CCCCCCCCCCCCCCCCCC(=O)[O-]
REMARK SMILES IDX 10 1 11 2 12 3 13 4 14 5 15 6 16 7 17 8 18 9 19 10 20 11
REMARK SMILES IDX 9 12 8 13 7 14 6 15 5 16 4 17 3 18 2 19 1 20
REMARK H PARENT
REMARK Flexibility Score: inf
ROOT
ATOM      1  C   UNL     1       6.106   5.955  16.156  1.00  0.00     0.000 C 
ENDROOT
BRANCH   1   2
ATOM      2  C   UNL     1       6.376   6.466  17.582  1.00  0.00     0.000 C 
BRANCH   2   3
ATOM      3  C   UNL     1       6.288   5.351  18.637  1.00  0.00     0.000 C 
BRANCH   3   4
ATOM      4  C   UNL     1       7.078   5.680  19.914  1.00  0.00     0.000 C 
BRANCH   4   5
ATOM      5  C   UNL     1       6.432   6.847  20.672  1.00  0.00     0.000 C 
BRANCH   5   6
ATOM      6  C   UNL     1       5.043   6.457  21.201  1.00  0.00     0.000 C 
BRANCH   6   7
ATOM      7  C   UNL     1       5.080   5.215  22.105  1.00  0.00     0.006 C 
BRANCH   7   8
ATOM      8  C   UNL     1       4.253   4.050  21.545  1.00  0.00     0.053 C 
BRANCH   8   9
ATOM      9  C   UNL     1       5.050   2.785  21.566  1.00  0.00     0.041 C 
ATOM     10  O   UNL     1       5.632   2.384  20.524  1.00  0.00    -0.550 OA
ATOM     11  O   UNL     1       5.114   2.021  22.726  1.00  0.00    -0.550 OA
ENDBRANCH   8   9
ENDBRANCH   7   8
ENDBRANCH   6   7
ENDBRANCH   5   6
ENDBRANCH   4   5
ENDBRANCH   3   4
ENDBRANCH   2   3
ENDBRANCH   1   2
BRANCH   1  12
ATOM     12  C   UNL     1       7.341   5.266  15.536  1.00  0.00     0.000 C 
BRANCH  12  13
ATOM     13  C   UNL     1       8.677   5.696  16.171  1.00  0.00    -0.000 C 
BRANCH  13  14
ATOM     14  C   UNL     1       9.460   6.764  15.385  1.00  0.00    -0.000 C 
BRANCH  14  15
ATOM     15  C   UNL     1      10.592   6.216  14.496  1.00  0.00    -0.000 C 
BRANCH  15  16
ATOM     16  C   UNL     1      10.603   6.832  13.090  1.00  0.00    -0.000 C 
BRANCH  16  17
ATOM     17  C   UNL     1      10.376   5.756  12.020  1.00  0.00    -0.000 C 
BRANCH  17  18
ATOM     18  C   UNL     1       8.936   5.223  12.073  1.00  0.00    -0.000 C 
BRANCH  18  19
ATOM     19  C   UNL     1       8.868   3.695  11.921  1.00  0.00    -0.003 C 
ATOM     20  C   UNL     1       9.107   2.957  13.239  1.00  0.00     0.004 C 
ENDBRANCH  18  19
ENDBRANCH  17  18
ENDBRANCH  16  17
ENDBRANCH  15  16
ENDBRANCH  14  15
ENDBRANCH  13  14
ENDBRANCH  12  13
ENDBRANCH   1  12
TORSDOF 16
ENDMDL
MODEL 6
REMARK VINA RESULT:    -4.479      3.933      7.943
REMARK INTER + INTRA:         -10.694
REMARK INTER:                  -8.924
REMARK INTRA:                  -1.770
REMARK UNBOUND:                -2.026
REMARK SMILES CCCCCCCCCCCCCCCCCC(=O)[O-]
REMARK SMILES IDX 10 1 11 2 12 3 13 4 14 5 15 6 16 7 17 8 18 9 19 10 20 11
REMARK SMILES IDX 9 12 8 13 7 14 6 15 5 16 4 17 3 18 2 19 1 20
REMARK H PARENT
REMARK Flexibility Score: inf
ROOT
ATOM      1  C   UNL     1       6.406   7.232  18.540  1.00  0.00     0.000 C 
ENDROOT
BRANCH   1   2
ATOM      2  C   UNL     1       6.146   5.876  19.217  1.00  0.00     0.000 C 
BRANCH   2   3
ATOM      3  C   UNL     1       7.443   5.171  19.650  1.00  0.00     0.000 C 
BRANCH   3   4
ATOM      4  C   UNL     1       7.404   3.655  19.402  1.00  0.00     0.000 C 
BRANCH   4   5
ATOM      5  C   UNL     1       5.958   3.145  19.348  1.00  0.00     0.000 C 
BRANCH   5   6
ATOM      6  C   UNL     1       5.615   2.331  20.604  1.00  0.00     0.000 C 
BRANCH   6   7
ATOM      7  C   UNL     1       4.793   3.134  21.624  1.00  0.00     0.006 C 
BRANCH   7   8
ATOM      8  C   UNL     1       4.873   2.548  23.041  1.00  0.00     0.053 C 
BRANCH   8   9
ATOM      9  C   UNL     1       4.728   3.630  24.063  1.00  0.00     0.041 C 
ATOM     10  O   UNL     1       4.082   3.419  25.123  1.00  0.00    -0.550 OA
ATOM     11  O   UNL     1       5.267   4.889  23.826  1.00  0.00    -0.550 OA
ENDBRANCH   8   9
ENDBRANCH   7   8
ENDBRANCH   6   7
ENDBRANCH   5   6
ENDBRANCH   4   5
ENDBRANCH   3   4
ENDBRANCH   2   3
ENDBRANCH   1   2
BRANCH   1  12
ATOM     12  C   UNL     1       6.417   7.127  16.999  1.00  0.00     0.000 C 
BRANCH  12  13
ATOM     13  C   UNL     1       5.632   5.919  16.454  1.00  0.00    -0.000 C 
BRANCH  13  14
ATOM     14  C   UNL     1       6.456   4.933  15.606  1.00  0.00    -0.000 C 
BRANCH  14  15
ATOM     15  C   UNL     1       7.963   4.906  15.922  1.00  0.00    -0.000 C 
BRANCH  15  16
ATOM     16  C   UNL     1       8.818   5.547  14.819  1.00  0.00    -0.000 C 
BRANCH  16  17
ATOM     17  C   UNL     1       9.764   6.603  15.404  1.00  0.00    -0.000 C 
BRANCH  17  18
ATOM     18  C   UNL     1      10.745   7.114  14.338  1.00  0.00    -0.000 C 
BRANCH  18  19
ATOM     19  C   UNL     1      11.344   5.977  13.497  1.00  0.00    -0.003 C 
ATOM     20  C   UNL     1      11.163   6.192  11.994  1.00  0.00     0.004 C 
ENDBRANCH  18  19
ENDBRANCH  17  18
ENDBRANCH  16  17
ENDBRANCH  15  16
ENDBRANCH  14  15
ENDBRANCH  13  14
ENDBRANCH  12  13
ENDBRANCH   1  12
TORSDOF 16
ENDMDL
MODEL 7
REMARK VINA RESULT:    -4.467      2.649      6.852
REMARK INTER + INTRA:         -10.672
REMARK INTER:                  -8.709
REMARK INTRA:                  -1.963
REMARK UNBOUND:                -2.026
REMARK SMILES CCCCCCCCCCCCCCCCCC(=O)[O-]
REMARK SMILES IDX 10 1 11 2 12 3 13 4 14 5 15 6 16 7 17 8 18 9 19 10 20 11
REMARK SMILES IDX 9 12 8 13 7 14 6 15 5 16 4 17 3 18 2 19 1 20
REMARK H PARENT
REMARK Flexibility Score: inf
ROOT
ATOM      1  C   UNL     1       7.669   4.399  19.251  1.00  0.00     0.000 C 
ENDROOT
BRANCH   1   2
ATOM      2  C   UNL     1       7.449   3.081  20.011  1.00  0.00     0.000 C 
BRANCH   2   3
ATOM      3  C   UNL     1       5.986   2.609  19.969  1.00  0.00     0.000 C 
BRANCH   3   4
ATOM      4  C   UNL     1       5.330   2.588  21.358  1.00  0.00     0.000 C 
BRANCH   4   5
ATOM      5  C   UNL     1       4.404   3.797  21.545  1.00  0.00     0.000 C 
BRANCH   5   6
ATOM      6  C   UNL     1       5.069   4.868  22.422  1.00  0.00     0.000 C 
BRANCH   6   7
ATOM      7  C   UNL     1       5.232   6.212  21.696  1.00  0.00     0.006 C 
BRANCH   7   8
ATOM      8  C   UNL     1       6.604   6.854  21.941  1.00  0.00     0.053 C 
BRANCH   8   9
ATOM      9  C   UNL     1       6.512   8.343  21.829  1.00  0.00     0.041 C 
ATOM     10  O   UNL     1       7.298   8.972  21.072  1.00  0.00    -0.550 OA
ATOM     11  O   UNL     1       5.588   9.043  22.597  1.00  0.00    -0.550 OA
ENDBRANCH   8   9
ENDBRANCH   7   8
ENDBRANCH   6   7
ENDBRANCH   5   6
ENDBRANCH   4   5
ENDBRANCH   3   4
ENDBRANCH   2   3
ENDBRANCH   1   2
BRANCH   1  12
ATOM     12  C   UNL     1       6.361   4.951  18.641  1.00  0.00     0.000 C 
BRANCH  12  13
ATOM     13  C   UNL     1       6.471   6.407  18.149  1.00  0.00    -0.000 C 
BRANCH  13  14
ATOM     14  C   UNL     1       6.287   6.600  16.633  1.00  0.00    -0.000 C 
BRANCH  14  15
ATOM     15  C   UNL     1       5.752   5.367  15.881  1.00  0.00    -0.000 C 
BRANCH  15  16
ATOM     16  C   UNL     1       6.799   4.725  14.960  1.00  0.00    -0.000 C 
BRANCH  16  17
ATOM     17  C   UNL     1       8.206   5.235  15.293  1.00  0.00    -0.000 C 
BRANCH  17  18
ATOM     18  C   UNL     1       9.046   5.403  14.017  1.00  0.00    -0.000 C 
BRANCH  18  19
ATOM     19  C   UNL     1      10.471   5.898  14.311  1.00  0.00    -0.003 C 
ATOM     20  C   UNL     1      10.494   7.163  15.168  1.00  0.00     0.004 C 
ENDBRANCH  18  19
ENDBRANCH  17  18
ENDBRANCH  16  17
ENDBRANCH  15  16
ENDBRANCH  14  15
ENDBRANCH  13  14
ENDBRANCH  12  13
ENDBRANCH   1  12
TORSDOF 16
ENDMDL
MODEL 8
REMARK VINA RESULT:    -4.429      1.787      3.619
REMARK INTER + INTRA:         -10.598
REMARK INTER:                  -8.757
REMARK INTRA:                  -1.841
REMARK UNBOUND:                -2.026
REMARK SMILES CCCCCCCCCCCCCCCCCC(=O)[O-]
REMARK SMILES IDX 10 1 11 2 12 3 13 4 14 5 15 6 16 7 17 8 18 9 19 10 20 11
REMARK SMILES IDX 9 12 8 13 7 14 6 15 5 16 4 17 3 18 2 19 1 20
REMARK H PARENT
REMARK Flexibility Score: inf
ROOT
ATOM      1  C   UNL     1       5.466   2.600  21.872  1.00  0.00     0.000 C 
ENDROOT
BRANCH   1   2
ATOM      2  C   UNL     1       5.594   2.712  20.343  1.00  0.00     0.000 C 
BRANCH   2   3
ATOM      3  C   UNL     1       7.052   2.864  19.880  1.00  0.00     0.000 C 
BRANCH   3   4
ATOM      4  C   UNL     1       7.357   4.268  19.335  1.00  0.00     0.000 C 
BRANCH   4   5
ATOM      5  C   UNL     1       6.238   4.748  18.402  1.00  0.00     0.000 C 
BRANCH   5   6
ATOM      6  C   UNL     1       6.436   6.222  18.020  1.00  0.00     0.000 C 
BRANCH   6   7
ATOM      7  C   UNL     1       6.334   6.462  16.506  1.00  0.00     0.006 C 
BRANCH   7   8
ATOM      8  C   UNL     1       6.293   5.155  15.701  1.00  0.00     0.053 C 
BRANCH   8   9
ATOM      9  C   UNL     1       7.595   4.930  15.002  1.00  0.00     0.041 C 
ATOM     10  O   UNL     1       8.602   5.625  15.297  1.00  0.00    -0.550 OA
ATOM     11  O   UNL     1       7.686   3.981  13.989  1.00  0.00    -0.550 OA
ENDBRANCH   8   9
ENDBRANCH   7   8
ENDBRANCH   6   7
ENDBRANCH   5   6
ENDBRANCH   4   5
ENDBRANCH   3   4
ENDBRANCH   2   3
ENDBRANCH   1   2
BRANCH   1  12
ATOM     12  C   UNL     1       4.499   3.652  22.459  1.00  0.00     0.000 C 
BRANCH  12  13
ATOM     13  C   UNL     1       4.476   4.979  21.676  1.00  0.00    -0.000 C 
BRANCH  13  14
ATOM     14  C   UNL     1       5.548   6.002  22.093  1.00  0.00    -0.000 C 
BRANCH  14  15
ATOM     15  C   UNL     1       5.409   7.391  21.441  1.00  0.00    -0.000 C 
BRANCH  15  16
ATOM     16  C   UNL     1       6.761   8.020  21.075  1.00  0.00    -0.000 C 
BRANCH  16  17
ATOM     17  C   UNL     1       7.177   9.066  22.116  1.00  0.00    -0.000 C 
BRANCH  17  18
ATOM     18  C   UNL     1       6.019   9.375  23.078  1.00  0.00    -0.000 C 
BRANCH  18  19
ATOM     19  C   UNL     1       5.538  10.830  22.973  1.00  0.00    -0.003 C 
ATOM     20  C   UNL     1       6.622  11.778  22.461  1.00  0.00     0.004 C 
ENDBRANCH  18  19
ENDBRANCH  17  18
ENDBRANCH  16  17
ENDBRANCH  15  16
ENDBRANCH  14  15
ENDBRANCH  13  14
ENDBRANCH  12  13
ENDBRANCH   1  12
TORSDOF 16
ENDMDL
MODEL 9
REMARK VINA RESULT:    -4.366      1.710      3.622
REMARK INTER + INTRA:         -10.477
REMARK INTER:                  -7.463
REMARK INTRA:                  -3.013
REMARK UNBOUND:                -2.026
REMARK SMILES CCCCCCCCCCCCCCCCCC(=O)[O-]
REMARK SMILES IDX 10 1 11 2 12 3 13 4 14 5 15 6 16 7 17 8 18 9 19 10 20 11
REMARK SMILES IDX 9 12 8 13 7 14 6 15 5 16 4 17 3 18 2 19 1 20
REMARK H PARENT
REMARK Flexibility Score: inf
ROOT
ATOM      1  C   UNL     1       5.277   2.617  21.785  1.00  0.00     0.000 C 
ENDROOT
BRANCH   1   2
ATOM      2  C   UNL     1       5.599   2.796  20.292  1.00  0.00     0.000 C 
BRANCH   2   3
ATOM      3  C   UNL     1       7.110   2.864  20.014  1.00  0.00     0.000 C 
BRANCH   3   4
ATOM      4  C   UNL     1       7.490   4.032  19.091  1.00  0.00     0.000 C 
BRANCH   4   5
ATOM      5  C   UNL     1       6.240   4.669  18.470  1.00  0.00     0.000 C 
BRANCH   5   6
ATOM      6  C   UNL     1       6.489   6.145  18.127  1.00  0.00     0.000 C 
BRANCH   6   7
ATOM      7  C   UNL     1       6.223   6.464  16.648  1.00  0.00     0.006 C 
BRANCH   7   8
ATOM      8  C   UNL     1       6.593   5.301  15.716  1.00  0.00     0.053 C 
BRANCH   8   9
ATOM      9  C   UNL     1       8.052   5.335  15.391  1.00  0.00     0.041 C 
ATOM     10  O   UNL     1       8.691   6.419  15.455  1.00  0.00    -0.550 OA
ATOM     11  O   UNL     1       8.700   4.178  14.974  1.00  0.00    -0.550 OA
ENDBRANCH   8   9
ENDBRANCH   7   8
ENDBRANCH   6   7
ENDBRANCH   5   6
ENDBRANCH   4   5
ENDBRANCH   3   4
ENDBRANCH   2   3
ENDBRANCH   1   2
BRANCH   1  12
ATOM     12  C   UNL     1       4.882   3.947  22.464  1.00  0.00     0.000 C 
BRANCH  12  13
ATOM     13  C   UNL     1       4.195   4.948  21.516  1.00  0.00    -0.000 C 
BRANCH  13  14
ATOM     14  C   UNL     1       4.880   6.322  21.409  1.00  0.00    -0.000 C 
BRANCH  14  15
ATOM     15  C   UNL     1       6.049   6.543  22.388  1.00  0.00    -0.000 C 
BRANCH  15  16
ATOM     16  C   UNL     1       7.408   6.660  21.681  1.00  0.00    -0.000 C 
BRANCH  16  17
ATOM     17  C   UNL     1       8.550   6.264  22.624  1.00  0.00    -0.000 C 
BRANCH  17  18
ATOM     18  C   UNL     1       8.813   4.752  22.566  1.00  0.00    -0.000 C 
BRANCH  18  19
ATOM     19  C   UNL     1       8.381   4.028  23.850  1.00  0.00    -0.003 C 
ATOM     20  C   UNL     1       8.438   2.506  23.722  1.00  0.00     0.004 C 
ENDBRANCH  18  19
ENDBRANCH  17  18
ENDBRANCH  16  17
ENDBRANCH  15  16
ENDBRANCH  14  15
ENDBRANCH  13  14
ENDBRANCH  12  13
ENDBRANCH   1  12
TORSDOF 16
ENDMDL
