MODEL 1
REMARK VINA RESULT:    11.323      0.000      0.000
REMARK INTER + INTRA:          24.481
REMARK INTER:                  16.618
REMARK INTRA:                   7.863
REMARK UNBOUND:                 7.863
REMARK SMILES O=c1c(O[C@H]2O[C@@H](CO)[C@H](O)[C@H](O)[C@H]2O)c(-c2ccc(O)c(O)c2)oc2cc(O)cc(O)c12
REMARK SMILES IDX 4 1 3 2 16 3 25 4 2 5 26 6 1 7 33 8 27 9 31 10 28 11 30 12
REMARK SMILES IDX 17 13 18 14 19 15 20 16 24 17 22 18 21 19 23 21 32 23 29 25
REMARK SMILES IDX 5 27 14 28 6 29 12 30 7 31 10 32 15 33 13 35 8 37 9 38 11 40
REMARK H PARENT 21 20 23 22 32 24 29 26 15 34 13 36 9 39 11 41
REMARK Flexibility Score: inf
ROOT
ATOM      1  O   UNL     1       5.435  11.313   9.403  1.00  0.00    -0.454 OA
ENDROOT
BRANCH   1   2
ATOM      2  C   UNL     1       5.848  11.536   8.082  1.00  0.00     0.214 A 
ATOM      3  C   UNL     1       4.925  11.742   7.041  1.00  0.00     0.180 A 
ATOM      4  O   UNL     1       5.364  12.047   5.824  1.00  0.00    -0.452 OA
ATOM      5  C   UNL     1       7.214  11.558   7.789  1.00  0.00     0.239 A 
ATOM      6  C   UNL     1       6.651  12.144   5.514  1.00  0.00     0.146 A 
ATOM      7  O   UNL     1       8.024  11.248   8.701  1.00  0.00    -0.285 OA
ATOM      8  C   UNL     1       7.656  11.917   6.491  1.00  0.00     0.111 A 
ATOM      9  C   UNL     1       6.998  12.453   4.196  1.00  0.00     0.094 A 
ATOM     10  C   UNL     1       9.023  12.051   6.106  1.00  0.00     0.134 A 
ATOM     11  C   UNL     1       8.339  12.532   3.821  1.00  0.00     0.123 A 
ATOM     12  C   UNL     1       9.337  12.321   4.769  1.00  0.00     0.093 A 
BRANCH   3  13
ATOM     13  C   UNL     1       3.463  11.599   7.240  1.00  0.00     0.025 A 
ATOM     14  C   UNL     1       2.747  10.633   6.519  1.00  0.00     0.016 A 
ATOM     15  C   UNL     1       1.365  10.504   6.688  1.00  0.00     0.051 A 
ATOM     16  C   UNL     1       0.685  11.333   7.593  1.00  0.00     0.157 A 
ATOM     17  C   UNL     1       2.782  12.404   8.168  1.00  0.00     0.062 A 
ATOM     18  C   UNL     1       1.399  12.286   8.339  1.00  0.00     0.158 A 
BRANCH  16  19
ATOM     19  O   UNL     1      -0.694  11.216   7.756  1.00  0.00    -0.504 OA
ATOM     20  H   UNL     1      -1.338  11.846   7.293  1.00  0.00     0.293 HD
ENDBRANCH  16  19
BRANCH  18  21
ATOM     21  O   UNL     1       0.755  13.125   9.249  1.00  0.00    -0.504 OA
ATOM     22  H   UNL     1       0.541  14.090   9.029  1.00  0.00     0.293 HD
ENDBRANCH  18  21
ENDBRANCH   3  13
BRANCH  10  23
ATOM     23  O   UNL     1      10.097  11.956   6.994  1.00  0.00    -0.507 OA
ATOM     24  H   UNL     1      11.071  11.953   6.730  1.00  0.00     0.293 HD
ENDBRANCH  10  23
BRANCH  11  25
ATOM     25  O   UNL     1       8.691  12.828   2.505  1.00  0.00    -0.508 OA
ATOM     26  H   UNL     1       8.293  13.620   2.013  1.00  0.00     0.293 HD
ENDBRANCH  11  25
ENDBRANCH   1   2
BRANCH   1  27
ATOM     27  C   UNL     1       5.386  10.012  10.001  1.00  0.00     0.339 C 
ATOM     28  C   UNL     1       5.046   8.929   8.956  1.00  0.00     0.214 C 
ATOM     29  O   UNL     1       4.512  10.002  11.121  1.00  0.00    -0.332 OA
ATOM     30  C   UNL     1       3.573   9.011   8.543  1.00  0.00     0.180 C 
ATOM     31  C   UNL     1       3.133  10.099  10.788  1.00  0.00     0.179 C 
ATOM     32  C   UNL     1       2.686   8.994   9.811  1.00  0.00     0.177 C 
BRANCH  28  33
ATOM     33  O   UNL     1       5.850   9.075   7.818  1.00  0.00    -0.384 OA
ATOM     34  H   UNL     1       5.631   9.955   7.415  1.00  0.00     0.211 HD
ENDBRANCH  28  33
BRANCH  30  35
ATOM     35  O   UNL     1       3.262   7.945   7.675  1.00  0.00    -0.387 OA
ATOM     36  H   UNL     1       2.376   7.598   7.943  1.00  0.00     0.211 HD
ENDBRANCH  30  35
BRANCH  31  37
ATOM     37  C   UNL     1       2.721  11.526  10.365  1.00  0.00     0.191 C 
BRANCH  37  38
ATOM     38  O   UNL     1       3.700  12.445  10.754  1.00  0.00    -0.394 OA
ATOM     39  H   UNL     1       3.872  13.009   9.956  1.00  0.00     0.210 HD
ENDBRANCH  37  38
ENDBRANCH  31  37
BRANCH  32  40
ATOM     40  O   UNL     1       2.795   7.754  10.465  1.00  0.00    -0.387 OA
ATOM     41  H   UNL     1       3.418   7.868  11.230  1.00  0.00     0.211 HD
ENDBRANCH  32  40
ENDBRANCH   1  27
TORSDOF 12
ENDMDL
MODEL 2
REMARK VINA RESULT:    13.553      1.718      6.588
REMARK INTER + INTRA:          27.754
REMARK INTER:                  21.421
REMARK INTRA:                   6.333
REMARK UNBOUND:                 7.863
REMARK SMILES O=c1c(O[C@H]2O[C@@H](CO)[C@H](O)[C@H](O)[C@H]2O)c(-c2ccc(O)c(O)c2)oc2cc(O)cc(O)c12
REMARK SMILES IDX 4 1 3 2 16 3 25 4 2 5 26 6 1 7 33 8 27 9 31 10 28 11 30 12
REMARK SMILES IDX 17 13 18 14 19 15 20 16 24 17 22 18 21 19 23 21 32 23 29 25
REMARK SMILES IDX 5 27 14 28 6 29 12 30 7 31 10 32 15 33 13 35 8 37 9 38 11 40
REMARK H PARENT 21 20 23 22 32 24 29 26 15 34 13 36 9 39 11 41
REMARK Flexibility Score: inf
ROOT
ATOM      1  O   UNL     1       6.007   9.431   7.654  1.00  0.00    -0.454 OA
ENDROOT
BRANCH   1   2
ATOM      2  C   UNL     1       4.863  10.204   7.895  1.00  0.00     0.214 A 
ATOM      3  C   UNL     1       4.498  11.272   7.055  1.00  0.00     0.180 A 
ATOM      4  O   UNL     1       3.353  11.913   7.267  1.00  0.00    -0.452 OA
ATOM      5  C   UNL     1       4.057   9.905   8.998  1.00  0.00     0.239 A 
ATOM      6  C   UNL     1       2.524  11.621   8.263  1.00  0.00     0.146 A 
ATOM      7  O   UNL     1       4.461   9.032   9.810  1.00  0.00    -0.285 OA
ATOM      8  C   UNL     1       2.827  10.582   9.182  1.00  0.00     0.111 A 
ATOM      9  C   UNL     1       1.355  12.375   8.399  1.00  0.00     0.094 A 
ATOM     10  C   UNL     1       1.892  10.301  10.222  1.00  0.00     0.134 A 
ATOM     11  C   UNL     1       0.474  12.122   9.451  1.00  0.00     0.123 A 
ATOM     12  C   UNL     1       0.751  11.101  10.357  1.00  0.00     0.093 A 
BRANCH   3  13
ATOM     13  C   UNL     1       5.367  11.740   5.950  1.00  0.00     0.025 A 
ATOM     14  C   UNL     1       6.390  12.664   6.203  1.00  0.00     0.016 A 
ATOM     15  C   UNL     1       7.202  13.125   5.161  1.00  0.00     0.051 A 
ATOM     16  C   UNL     1       7.007  12.654   3.854  1.00  0.00     0.157 A 
ATOM     17  C   UNL     1       5.197  11.248   4.644  1.00  0.00     0.062 A 
ATOM     18  C   UNL     1       6.000  11.708   3.597  1.00  0.00     0.158 A 
BRANCH  16  19
ATOM     19  O   UNL     1       7.805  13.119   2.812  1.00  0.00    -0.504 OA
ATOM     20  H   UNL     1       7.406  13.577   2.002  1.00  0.00     0.293 HD
ENDBRANCH  16  19
BRANCH  18  21
ATOM     21  O   UNL     1       5.780  11.217   2.309  1.00  0.00    -0.504 OA
ATOM     22  H   UNL     1       6.520  10.793   1.763  1.00  0.00     0.293 HD
ENDBRANCH  18  21
ENDBRANCH   3  13
BRANCH  10  23
ATOM     23  O   UNL     1       2.022   9.242  11.123  1.00  0.00    -0.507 OA
ATOM     24  H   UNL     1       1.449   8.412  11.131  1.00  0.00     0.293 HD
ENDBRANCH  10  23
BRANCH  11  25
ATOM     25  O   UNL     1      -0.687  12.878   9.599  1.00  0.00    -0.508 OA
ATOM     26  H   UNL     1      -0.945  13.595   8.930  1.00  0.00     0.293 HD
ENDBRANCH  11  25
ENDBRANCH   1   2
BRANCH   1  27
ATOM     27  C   UNL     1       7.168   9.464   8.495  1.00  0.00     0.339 C 
ATOM     28  C   UNL     1       7.282  10.811   9.238  1.00  0.00     0.214 C 
ATOM     29  O   UNL     1       8.336   9.132   7.757  1.00  0.00    -0.332 OA
ATOM     30  C   UNL     1       7.700  11.931   8.280  1.00  0.00     0.180 C 
ATOM     31  C   UNL     1       8.751  10.133   6.837  1.00  0.00     0.179 C 
ATOM     32  C   UNL     1       8.975  11.499   7.517  1.00  0.00     0.177 C 
BRANCH  28  33
ATOM     33  O   UNL     1       6.058  11.149   9.832  1.00  0.00    -0.384 OA
ATOM     34  H   UNL     1       6.052  12.134   9.951  1.00  0.00     0.211 HD
ENDBRANCH  28  33
BRANCH  30  35
ATOM     35  O   UNL     1       7.904  13.123   9.002  1.00  0.00    -0.387 OA
ATOM     36  H   UNL     1       8.867  13.343   8.940  1.00  0.00     0.211 HD
ENDBRANCH  30  35
BRANCH  31  37
ATOM     37  C   UNL     1       7.862  10.190   5.575  1.00  0.00     0.191 C 
BRANCH  37  38
ATOM     38  O   UNL     1       8.399   9.379   4.571  1.00  0.00    -0.394 OA
ATOM     39  H   UNL     1       9.368   9.309   4.772  1.00  0.00     0.210 HD
ENDBRANCH  37  38
ENDBRANCH  31  37
BRANCH  32  40
ATOM     40  O   UNL     1      10.057  11.378   8.405  1.00  0.00    -0.387 OA
ATOM     41  H   UNL     1       9.797  11.806   9.263  1.00  0.00     0.211 HD
ENDBRANCH  32  40
ENDBRANCH   1  27
TORSDOF 12
ENDMDL
