MODEL 1
REMARK VINA RESULT:    -4.800      0.000      0.000
REMARK INTER + INTRA:          -5.081
REMARK INTER:                  -5.081
REMARK INTRA:                   0.000
REMARK UNBOUND:                 0.000
REMARK SMILES O=c1ccc2cc(O)c(O)cc2o1
REMARK SMILES IDX 4 1 3 2 2 3 1 4 13 5 12 6 11 7 9 8 7 9 6 10 5 11 8 12 10 14
REMARK H PARENT 8 13 10 15
REMARK Flexibility Score: inf
ROOT
ATOM      1  C   UNL     1       5.790  -4.425  24.344  1.00  0.00     0.019 A 
ATOM      2  C   UNL     1       5.120  -3.567  25.216  1.00  0.00     0.094 A 
ATOM      3  C   UNL     1       5.634  -3.371  26.502  1.00  0.00     0.336 A 
ATOM      4  O   UNL     1       5.044  -2.600  27.304  1.00  0.00    -0.246 OA
ATOM      5  O   UNL     1       6.746  -3.994  26.885  1.00  0.00    -0.423 OA
ATOM      6  C   UNL     1       7.415  -4.821  26.086  1.00  0.00     0.142 A 
ATOM      7  C   UNL     1       8.578  -5.448  26.544  1.00  0.00     0.098 A 
ATOM      8  C   UNL     1       9.287  -6.320  25.706  1.00  0.00     0.161 A 
ATOM      9  C   UNL     1       8.831  -6.565  24.402  1.00  0.00     0.158 A 
ATOM     10  C   UNL     1       7.666  -5.939  23.937  1.00  0.00     0.062 A 
ATOM     11  C   UNL     1       6.955  -5.067  24.774  1.00  0.00     0.022 A 
ENDROOT
BRANCH   9  12
ATOM     12  O   UNL     1       9.542  -7.433  23.574  1.00  0.00    -0.504 OA
ATOM     13  H   UNL     1       9.413  -8.437  23.624  1.00  0.00     0.293 HD
ENDBRANCH   9  12
BRANCH   8  14
ATOM     14  O   UNL     1      10.446  -6.946  26.159  1.00  0.00    -0.504 OA
ATOM     15  H   UNL     1      10.942  -7.622  25.589  1.00  0.00     0.293 HD
ENDBRANCH   8  14
TORSDOF 2
ENDMDL
MODEL 2
REMARK VINA RESULT:    -4.644      0.888      1.003
REMARK INTER + INTRA:          -4.916
REMARK INTER:                  -4.916
REMARK INTRA:                   0.000
REMARK UNBOUND:                 0.000
REMARK SMILES O=c1ccc2cc(O)c(O)cc2o1
REMARK SMILES IDX 4 1 3 2 2 3 1 4 13 5 12 6 11 7 9 8 7 9 6 10 5 11 8 12 10 14
REMARK H PARENT 8 13 10 15
REMARK Flexibility Score: inf
ROOT
ATOM      1  C   UNL     1       5.194  -3.575  24.624  1.00  0.00     0.019 A 
ATOM      2  C   UNL     1       4.550  -2.744  25.540  1.00  0.00     0.094 A 
ATOM      3  C   UNL     1       5.015  -2.699  26.859  1.00  0.00     0.336 A 
ATOM      4  O   UNL     1       4.447  -1.955  27.700  1.00  0.00    -0.246 OA
ATOM      5  O   UNL     1       6.057  -3.440  27.231  1.00  0.00    -0.423 OA
ATOM      6  C   UNL     1       6.699  -4.246  26.389  1.00  0.00     0.142 A 
ATOM      7  C   UNL     1       7.787  -5.000  26.838  1.00  0.00     0.098 A 
ATOM      8  C   UNL     1       8.468  -5.852  25.955  1.00  0.00     0.161 A 
ATOM      9  C   UNL     1       8.058  -5.948  24.617  1.00  0.00     0.158 A 
ATOM     10  C   UNL     1       6.967  -5.193  24.162  1.00  0.00     0.062 A 
ATOM     11  C   UNL     1       6.285  -4.342  25.043  1.00  0.00     0.022 A 
ENDROOT
BRANCH   9  12
ATOM     12  O   UNL     1       8.740  -6.796  23.746  1.00  0.00    -0.504 OA
ATOM     13  H   UNL     1       8.250  -7.479  23.180  1.00  0.00     0.293 HD
ENDBRANCH   9  12
BRANCH   8  14
ATOM     14  O   UNL     1       9.553  -6.605  26.399  1.00  0.00    -0.504 OA
ATOM     15  H   UNL     1       9.874  -7.422  25.893  1.00  0.00     0.293 HD
ENDBRANCH   8  14
TORSDOF 2
ENDMDL
MODEL 3
REMARK VINA RESULT:    -4.620      1.118      2.257
REMARK INTER + INTRA:          -4.890
REMARK INTER:                  -4.890
REMARK INTRA:                   0.000
REMARK UNBOUND:                 0.000
REMARK SMILES O=c1ccc2cc(O)c(O)cc2o1
REMARK SMILES IDX 4 1 3 2 2 3 1 4 13 5 12 6 11 7 9 8 7 9 6 10 5 11 8 12 10 14
REMARK H PARENT 8 13 10 15
REMARK Flexibility Score: inf
ROOT
ATOM      1  C   UNL     1       6.558  -3.835  27.083  1.00  0.00     0.019 A 
ATOM      2  C   UNL     1       5.374  -3.228  26.665  1.00  0.00     0.094 A 
ATOM      3  C   UNL     1       4.890  -3.499  25.381  1.00  0.00     0.336 A 
ATOM      4  O   UNL     1       3.823  -2.960  24.985  1.00  0.00    -0.246 OA
ATOM      5  O   UNL     1       5.552  -4.323  24.571  1.00  0.00    -0.423 OA
ATOM      6  C   UNL     1       6.685  -4.921  24.929  1.00  0.00     0.142 A 
ATOM      7  C   UNL     1       7.336  -5.777  24.036  1.00  0.00     0.098 A 
ATOM      8  C   UNL     1       8.530  -6.412  24.409  1.00  0.00     0.161 A 
ATOM      9  C   UNL     1       9.075  -6.188  25.682  1.00  0.00     0.158 A 
ATOM     10  C   UNL     1       8.426  -5.331  26.582  1.00  0.00     0.062 A 
ATOM     11  C   UNL     1       7.233  -4.696  26.211  1.00  0.00     0.022 A 
ENDROOT
BRANCH   9  12
ATOM     12  O   UNL     1      10.262  -6.822  26.045  1.00  0.00    -0.504 OA
ATOM     13  H   UNL     1      11.156  -6.528  25.671  1.00  0.00     0.293 HD
ENDBRANCH   9  12
BRANCH   8  14
ATOM     14  O   UNL     1       9.181  -7.265  23.520  1.00  0.00    -0.504 OA
ATOM     15  H   UNL     1       8.725  -7.607  22.682  1.00  0.00     0.293 HD
ENDBRANCH   8  14
TORSDOF 2
ENDMDL
MODEL 4
REMARK VINA RESULT:    -4.531      1.090      4.538
REMARK INTER + INTRA:          -4.796
REMARK INTER:                  -4.796
REMARK INTRA:                   0.000
REMARK UNBOUND:                 0.000
REMARK SMILES O=c1ccc2cc(O)c(O)cc2o1
REMARK SMILES IDX 4 1 3 2 2 3 1 4 13 5 12 6 11 7 9 8 7 9 6 10 5 11 8 12 10 14
REMARK H PARENT 8 13 10 15
REMARK Flexibility Score: inf
ROOT
ATOM      1  C   UNL     1       7.668  -5.883  23.949  1.00  0.00     0.019 A 
ATOM      2  C   UNL     1       8.742  -6.612  24.458  1.00  0.00     0.094 A 
ATOM      3  C   UNL     1       9.104  -6.439  25.799  1.00  0.00     0.336 A 
ATOM      4  O   UNL     1      10.070  -7.088  26.277  1.00  0.00    -0.246 OA
ATOM      5  O   UNL     1       8.431  -5.591  26.574  1.00  0.00    -0.423 OA
ATOM      6  C   UNL     1       7.401  -4.876  26.128  1.00  0.00     0.142 A 
ATOM      7  C   UNL     1       6.733  -4.001  26.988  1.00  0.00     0.098 A 
ATOM      8  C   UNL     1       5.646  -3.245  26.524  1.00  0.00     0.161 A 
ATOM      9  C   UNL     1       5.227  -3.367  25.190  1.00  0.00     0.158 A 
ATOM     10  C   UNL     1       5.894  -4.243  24.323  1.00  0.00     0.062 A 
ATOM     11  C   UNL     1       6.980  -4.999  24.785  1.00  0.00     0.022 A 
ENDROOT
BRANCH   9  12
ATOM     12  O   UNL     1       4.147  -2.612  24.736  1.00  0.00    -0.504 OA
ATOM     13  H   UNL     1       4.262  -1.655  24.425  1.00  0.00     0.293 HD
ENDBRANCH   9  12
BRANCH   8  14
ATOM     14  O   UNL     1       4.978  -2.372  27.379  1.00  0.00    -0.504 OA
ATOM     15  H   UNL     1       4.050  -2.580  27.730  1.00  0.00     0.293 HD
ENDBRANCH   8  14
TORSDOF 2
ENDMDL
MODEL 5
REMARK VINA RESULT:    -4.337      1.210      5.041
REMARK INTER + INTRA:          -4.591
REMARK INTER:                  -4.591
REMARK INTRA:                   0.000
REMARK UNBOUND:                 0.000
REMARK SMILES O=c1ccc2cc(O)c(O)cc2o1
REMARK SMILES IDX 4 1 3 2 2 3 1 4 13 5 12 6 11 7 9 8 7 9 6 10 5 11 8 12 10 14
REMARK H PARENT 8 13 10 15
REMARK Flexibility Score: inf
ROOT
ATOM      1  C   UNL     1       8.395  -6.009  26.492  1.00  0.00     0.019 A 
ATOM      2  C   UNL     1       8.934  -6.925  25.590  1.00  0.00     0.094 A 
ATOM      3  C   UNL     1       8.454  -6.945  24.276  1.00  0.00     0.336 A 
ATOM      4  O   UNL     1       8.927  -7.765  23.446  1.00  0.00    -0.246 OA
ATOM      5  O   UNL     1       7.497  -6.101  23.896  1.00  0.00    -0.423 OA
ATOM      6  C   UNL     1       6.956  -5.212  24.725  1.00  0.00     0.142 A 
ATOM      7  C   UNL     1       5.954  -4.351  24.269  1.00  0.00     0.098 A 
ATOM      8  C   UNL     1       5.380  -3.412  25.138  1.00  0.00     0.161 A 
ATOM      9  C   UNL     1       5.812  -3.335  26.471  1.00  0.00     0.158 A 
ATOM     10  C   UNL     1       6.817  -4.195  26.933  1.00  0.00     0.062 A 
ATOM     11  C   UNL     1       7.391  -5.135  26.066  1.00  0.00     0.022 A 
ENDROOT
BRANCH   9  12
ATOM     12  O   UNL     1       5.236  -2.398  27.328  1.00  0.00    -0.504 OA
ATOM     13  H   UNL     1       4.442  -2.632  27.913  1.00  0.00     0.293 HD
ENDBRANCH   9  12
BRANCH   8  14
ATOM     14  O   UNL     1       4.380  -2.552  24.686  1.00  0.00    -0.504 OA
ATOM     15  H   UNL     1       4.166  -2.460  23.700  1.00  0.00     0.293 HD
ENDBRANCH   8  14
TORSDOF 2
ENDMDL
MODEL 6
REMARK VINA RESULT:    -4.045      1.870      3.330
REMARK INTER + INTRA:          -4.281
REMARK INTER:                  -4.281
REMARK INTRA:                   0.000
REMARK UNBOUND:                 0.000
REMARK SMILES O=c1ccc2cc(O)c(O)cc2o1
REMARK SMILES IDX 4 1 3 2 2 3 1 4 13 5 12 6 11 7 9 8 7 9 6 10 5 11 8 12 10 14
REMARK H PARENT 8 13 10 15
REMARK Flexibility Score: inf
ROOT
ATOM      1  C   UNL     1       6.220  -4.367  28.139  1.00  0.00     0.019 A 
ATOM      2  C   UNL     1       5.411  -3.474  28.841  1.00  0.00     0.094 A 
ATOM      3  C   UNL     1       4.616  -2.573  28.125  1.00  0.00     0.336 A 
ATOM      4  O   UNL     1       3.879  -1.759  28.740  1.00  0.00    -0.246 OA
ATOM      5  O   UNL     1       4.633  -2.570  26.794  1.00  0.00    -0.423 OA
ATOM      6  C   UNL     1       5.391  -3.404  26.086  1.00  0.00     0.142 A 
ATOM      7  C   UNL     1       5.367  -3.355  24.689  1.00  0.00     0.098 A 
ATOM      8  C   UNL     1       6.163  -4.232  23.937  1.00  0.00     0.161 A 
ATOM      9  C   UNL     1       6.986  -5.163  24.588  1.00  0.00     0.158 A 
ATOM     10  C   UNL     1       7.013  -5.217  25.989  1.00  0.00     0.062 A 
ATOM     11  C   UNL     1       6.219  -4.341  26.741  1.00  0.00     0.022 A 
ENDROOT
BRANCH   9  12
ATOM     12  O   UNL     1       7.774  -6.031  23.834  1.00  0.00    -0.504 OA
ATOM     13  H   UNL     1       7.827  -7.020  24.048  1.00  0.00     0.293 HD
ENDBRANCH   9  12
BRANCH   8  14
ATOM     14  O   UNL     1       6.142  -4.185  22.545  1.00  0.00    -0.504 OA
ATOM     15  H   UNL     1       6.995  -4.108  22.004  1.00  0.00     0.293 HD
ENDBRANCH   8  14
TORSDOF 2
ENDMDL
MODEL 7
REMARK VINA RESULT:    -4.012      2.006      3.248
REMARK INTER + INTRA:          -4.246
REMARK INTER:                  -4.246
REMARK INTRA:                   0.000
REMARK UNBOUND:                 0.000
REMARK SMILES O=c1ccc2cc(O)c(O)cc2o1
REMARK SMILES IDX 4 1 3 2 2 3 1 4 13 5 12 6 11 7 9 8 7 9 6 10 5 11 8 12 10 14
REMARK H PARENT 8 13 10 15
REMARK Flexibility Score: inf
ROOT
ATOM      1  C   UNL     1       4.471  -3.050  27.484  1.00  0.00     0.019 A 
ATOM      2  C   UNL     1       3.227  -2.789  26.911  1.00  0.00     0.094 A 
ATOM      3  C   UNL     1       2.959  -3.266  25.624  1.00  0.00     0.336 A 
ATOM      4  O   UNL     1       1.842  -3.040  25.089  1.00  0.00    -0.246 OA
ATOM      5  O   UNL     1       3.880  -3.959  24.958  1.00  0.00    -0.423 OA
ATOM      6  C   UNL     1       5.080  -4.230  25.467  1.00  0.00     0.142 A 
ATOM      7  C   UNL     1       6.007  -4.963  24.720  1.00  0.00     0.098 A 
ATOM      8  C   UNL     1       7.272  -5.252  25.252  1.00  0.00     0.161 A 
ATOM      9  C   UNL     1       7.611  -4.805  26.538  1.00  0.00     0.158 A 
ATOM     10  C   UNL     1       6.684  -4.070  27.292  1.00  0.00     0.062 A 
ATOM     11  C   UNL     1       5.420  -3.780  26.761  1.00  0.00     0.022 A 
ENDROOT
BRANCH   9  12
ATOM     12  O   UNL     1       8.870  -5.096  27.060  1.00  0.00    -0.504 OA
ATOM     13  H   UNL     1       9.622  -4.418  27.038  1.00  0.00     0.293 HD
ENDBRANCH   9  12
BRANCH   8  14
ATOM     14  O   UNL     1       8.198  -5.982  24.510  1.00  0.00    -0.504 OA
ATOM     15  H   UNL     1       8.250  -6.992  24.572  1.00  0.00     0.293 HD
ENDBRANCH   8  14
TORSDOF 2
ENDMDL
MODEL 8
REMARK VINA RESULT:    -3.916      1.858      4.342
REMARK INTER + INTRA:          -4.145
REMARK INTER:                  -4.145
REMARK INTRA:                   0.000
REMARK UNBOUND:                 0.000
REMARK SMILES O=c1ccc2cc(O)c(O)cc2o1
REMARK SMILES IDX 4 1 3 2 2 3 1 4 13 5 12 6 11 7 9 8 7 9 6 10 5 11 8 12 10 14
REMARK H PARENT 8 13 10 15
REMARK Flexibility Score: inf
ROOT
ATOM      1  C   UNL     1       9.672  -7.043  25.236  1.00  0.00     0.019 A 
ATOM      2  C   UNL     1      10.231  -7.489  26.434  1.00  0.00     0.094 A 
ATOM      3  C   UNL     1       9.647  -7.095  27.642  1.00  0.00     0.336 A 
ATOM      4  O   UNL     1      10.137  -7.487  28.734  1.00  0.00    -0.246 OA
ATOM      5  O   UNL     1       8.574  -6.307  27.647  1.00  0.00    -0.423 OA
ATOM      6  C   UNL     1       8.010  -5.859  26.528  1.00  0.00     0.142 A 
ATOM      7  C   UNL     1       6.884  -5.033  26.595  1.00  0.00     0.098 A 
ATOM      8  C   UNL     1       6.285  -4.559  25.419  1.00  0.00     0.161 A 
ATOM      9  C   UNL     1       6.817  -4.913  24.169  1.00  0.00     0.158 A 
ATOM     10  C   UNL     1       7.946  -5.741  24.096  1.00  0.00     0.062 A 
ATOM     11  C   UNL     1       8.546  -6.216  25.271  1.00  0.00     0.022 A 
ENDROOT
BRANCH   9  12
ATOM     12  O   UNL     1       6.216  -4.437  23.005  1.00  0.00    -0.504 OA
ATOM     13  H   UNL     1       5.865  -5.067  22.294  1.00  0.00     0.293 HD
ENDBRANCH   9  12
BRANCH   8  14
ATOM     14  O   UNL     1       5.163  -3.736  25.482  1.00  0.00    -0.504 OA
ATOM     15  H   UNL     1       5.240  -2.750  25.707  1.00  0.00     0.293 HD
ENDBRANCH   8  14
TORSDOF 2
ENDMDL
MODEL 9
REMARK VINA RESULT:    -3.916      2.247      2.601
REMARK INTER + INTRA:          -4.145
REMARK INTER:                  -4.145
REMARK INTRA:                   0.000
REMARK UNBOUND:                 0.000
REMARK SMILES O=c1ccc2cc(O)c(O)cc2o1
REMARK SMILES IDX 4 1 3 2 2 3 1 4 13 5 12 6 11 7 9 8 7 9 6 10 5 11 8 12 10 14
REMARK H PARENT 8 13 10 15
REMARK Flexibility Score: inf
ROOT
ATOM      1  C   UNL     1       5.498  -3.145  24.467  1.00  0.00     0.019 A 
ATOM      2  C   UNL     1       4.370  -2.670  25.134  1.00  0.00     0.094 A 
ATOM      3  C   UNL     1       3.550  -3.579  25.811  1.00  0.00     0.336 A 
ATOM      4  O   UNL     1       2.526  -3.170  26.420  1.00  0.00    -0.246 OA
ATOM      5  O   UNL     1       3.845  -4.877  25.817  1.00  0.00    -0.423 OA
ATOM      6  C   UNL     1       4.911  -5.372  25.192  1.00  0.00     0.142 A 
ATOM      7  C   UNL     1       5.170  -6.745  25.233  1.00  0.00     0.098 A 
ATOM      8  C   UNL     1       6.292  -7.272  24.577  1.00  0.00     0.161 A 
ATOM      9  C   UNL     1       7.159  -6.419  23.878  1.00  0.00     0.158 A 
ATOM     10  C   UNL     1       6.905  -5.041  23.834  1.00  0.00     0.062 A 
ATOM     11  C   UNL     1       5.783  -4.513  24.488  1.00  0.00     0.022 A 
ENDROOT
BRANCH   9  12
ATOM     12  O   UNL     1       8.273  -6.951  23.228  1.00  0.00    -0.504 OA
ATOM     13  H   UNL     1       9.195  -6.921  23.647  1.00  0.00     0.293 HD
ENDBRANCH   9  12
BRANCH   8  14
ATOM     14  O   UNL     1       6.553  -8.640  24.616  1.00  0.00    -0.504 OA
ATOM     15  H   UNL     1       6.116  -9.244  25.302  1.00  0.00     0.293 HD
ENDBRANCH   8  14
TORSDOF 2
ENDMDL
