MODEL 1
REMARK VINA RESULT:    35.426      0.000      0.000
REMARK INTER + INTRA:          92.293
REMARK INTER:                  93.414
REMARK INTRA:                  -1.121
REMARK UNBOUND:                -1.121
REMARK SMILES CCCCCCCCCCCCCCCCCCCCCCCCCCCCCC(=O)[O-]
REMARK SMILES IDX 16 1 17 2 18 3 19 4 20 5 21 6 22 7 23 8 24 9 25 10 26 11
REMARK SMILES IDX 27 12 28 13 29 14 30 15 31 16 32 17 15 18 14 19 13 20 12 21
REMARK SMILES IDX 11 22 10 23 9 24 8 25 7 26 6 27 5 28 4 29 3 30 2 31 1 32
REMARK H PARENT
REMARK Flexibility Score: inf
ROOT
ATOM      1  C   UNL     1      16.310   8.053  10.081  1.00  0.00     0.000 C 
ENDROOT
BRANCH   1   2
ATOM      2  C   UNL     1      17.655   8.455  10.720  1.00  0.00     0.000 C 
BRANCH   2   3
ATOM      3  C   UNL     1      18.111   7.570  11.897  1.00  0.00     0.000 C 
BRANCH   3   4
ATOM      4  C   UNL     1      18.065   8.249  13.277  1.00  0.00     0.000 C 
BRANCH   4   5
ATOM      5  C   UNL     1      17.270   7.434  14.312  1.00  0.00     0.000 C 
BRANCH   5   6
ATOM      6  C   UNL     1      17.606   7.824  15.761  1.00  0.00     0.000 C 
BRANCH   6   7
ATOM      7  C   UNL     1      18.032   6.617  16.616  1.00  0.00     0.000 C 
BRANCH   7   8
ATOM      8  C   UNL     1      17.293   5.322  16.233  1.00  0.00     0.000 C 
BRANCH   8   9
ATOM      9  C   UNL     1      16.514   4.642  17.379  1.00  0.00     0.000 C 
BRANCH   9  10
ATOM     10  C   UNL     1      15.382   5.484  17.996  1.00  0.00     0.000 C 
BRANCH  10  11
ATOM     11  C   UNL     1      14.014   4.782  17.938  1.00  0.00     0.000 C 
BRANCH  11  12
ATOM     12  C   UNL     1      13.225   4.920  19.249  1.00  0.00     0.000 C 
BRANCH  12  13
ATOM     13  C   UNL     1      11.888   4.159  19.223  1.00  0.00     0.006 C 
BRANCH  13  14
ATOM     14  C   UNL     1      11.962   2.886  18.369  1.00  0.00     0.053 C 
BRANCH  14  15
ATOM     15  C   UNL     1      12.170   1.664  19.213  1.00  0.00     0.041 C 
ATOM     16  O   UNL     1      12.201   0.525  18.679  1.00  0.00    -0.550 OA
ATOM     17  O   UNL     1      12.327   1.784  20.588  1.00  0.00    -0.550 OA
ENDBRANCH  14  15
ENDBRANCH  13  14
ENDBRANCH  12  13
ENDBRANCH  11  12
ENDBRANCH  10  11
ENDBRANCH   9  10
ENDBRANCH   8   9
ENDBRANCH   7   8
ENDBRANCH   6   7
ENDBRANCH   5   6
ENDBRANCH   4   5
ENDBRANCH   3   4
ENDBRANCH   2   3
ENDBRANCH   1   2
BRANCH   1  18
ATOM     18  C   UNL     1      16.117   6.541   9.861  1.00  0.00     0.000 C 
BRANCH  18  19
ATOM     19  C   UNL     1      17.171   5.933   8.926  1.00  0.00     0.000 C 
BRANCH  19  20
ATOM     20  C   UNL     1      16.513   5.073   7.837  1.00  0.00     0.000 C 
BRANCH  20  21
ATOM     21  C   UNL     1      16.156   5.877   6.575  1.00  0.00     0.000 C 
BRANCH  21  22
ATOM     22  C   UNL     1      15.088   6.953   6.841  1.00  0.00     0.000 C 
BRANCH  22  23
ATOM     23  C   UNL     1      13.894   6.421   7.656  1.00  0.00     0.000 C 
BRANCH  23  24
ATOM     24  C   UNL     1      12.545   7.101   7.360  1.00  0.00    -0.000 C 
BRANCH  24  25
ATOM     25  C   UNL     1      11.641   7.207   8.601  1.00  0.00    -0.000 C 
BRANCH  25  26
ATOM     26  C   UNL     1      10.600   6.079   8.674  1.00  0.00    -0.000 C 
BRANCH  26  27
ATOM     27  C   UNL     1      10.325   5.440   7.304  1.00  0.00    -0.000 C 
BRANCH  27  28
ATOM     28  C   UNL     1      10.885   4.012   7.240  1.00  0.00    -0.000 C 
BRANCH  28  29
ATOM     29  C   UNL     1      11.508   3.567   8.579  1.00  0.00    -0.000 C 
BRANCH  29  30
ATOM     30  C   UNL     1      10.504   2.892   9.535  1.00  0.00    -0.000 C 
BRANCH  30  31
ATOM     31  C   UNL     1       9.793   1.659   8.953  1.00  0.00    -0.003 C 
ATOM     32  C   UNL     1      10.735   0.744   8.173  1.00  0.00     0.004 C 
ENDBRANCH  30  31
ENDBRANCH  29  30
ENDBRANCH  28  29
ENDBRANCH  27  28
ENDBRANCH  26  27
ENDBRANCH  25  26
ENDBRANCH  24  25
ENDBRANCH  23  24
ENDBRANCH  22  23
ENDBRANCH  21  22
ENDBRANCH  20  21
ENDBRANCH  19  20
ENDBRANCH  18  19
ENDBRANCH   1  18
TORSDOF 28
ENDMDL
MODEL 2
REMARK VINA RESULT:    35.639      2.750      9.635
REMARK INTER + INTRA:          92.856
REMARK INTER:                  91.610
REMARK INTRA:                   1.246
REMARK UNBOUND:                -1.121
REMARK SMILES CCCCCCCCCCCCCCCCCCCCCCCCCCCCCC(=O)[O-]
REMARK SMILES IDX 16 1 17 2 18 3 19 4 20 5 21 6 22 7 23 8 24 9 25 10 26 11
REMARK SMILES IDX 27 12 28 13 29 14 30 15 31 16 32 17 15 18 14 19 13 20 12 21
REMARK SMILES IDX 11 22 10 23 9 24 8 25 7 26 6 27 5 28 4 29 3 30 2 31 1 32
REMARK H PARENT
REMARK Flexibility Score: inf
ROOT
ATOM      1  C   UNL     1      16.617   7.425  11.530  1.00  0.00     0.000 C 
ENDROOT
BRANCH   1   2
ATOM      2  C   UNL     1      17.609   7.633  10.367  1.00  0.00     0.000 C 
BRANCH   2   3
ATOM      3  C   UNL     1      17.196   6.987   9.030  1.00  0.00     0.000 C 
BRANCH   3   4
ATOM      4  C   UNL     1      17.995   5.733   8.638  1.00  0.00     0.000 C 
BRANCH   4   5
ATOM      5  C   UNL     1      17.747   5.303   7.182  1.00  0.00     0.000 C 
BRANCH   5   6
ATOM      6  C   UNL     1      16.267   5.403   6.776  1.00  0.00     0.000 C 
BRANCH   6   7
ATOM      7  C   UNL     1      15.341   5.673   7.976  1.00  0.00     0.000 C 
BRANCH   7   8
ATOM      8  C   UNL     1      14.953   7.156   8.110  1.00  0.00     0.000 C 
BRANCH   8   9
ATOM      9  C   UNL     1      13.962   7.679   7.050  1.00  0.00     0.000 C 
BRANCH   9  10
ATOM     10  C   UNL     1      12.472   7.529   7.411  1.00  0.00     0.000 C 
BRANCH  10  11
ATOM     11  C   UNL     1      12.089   6.087   7.787  1.00  0.00     0.000 C 
BRANCH  11  12
ATOM     12  C   UNL     1      10.568   5.881   7.857  1.00  0.00     0.000 C 
BRANCH  12  13
ATOM     13  C   UNL     1      10.141   4.453   7.473  1.00  0.00     0.006 C 
BRANCH  13  14
ATOM     14  C   UNL     1      11.101   3.392   8.029  1.00  0.00     0.053 C 
BRANCH  14  15
ATOM     15  C   UNL     1      10.678   2.921   9.388  1.00  0.00     0.041 C 
ATOM     16  O   UNL     1       9.911   3.628  10.092  1.00  0.00    -0.550 OA
ATOM     17  O   UNL     1      11.132   1.702   9.876  1.00  0.00    -0.550 OA
ENDBRANCH  14  15
ENDBRANCH  13  14
ENDBRANCH  12  13
ENDBRANCH  11  12
ENDBRANCH  10  11
ENDBRANCH   9  10
ENDBRANCH   8   9
ENDBRANCH   7   8
ENDBRANCH   6   7
ENDBRANCH   5   6
ENDBRANCH   4   5
ENDBRANCH   3   4
ENDBRANCH   2   3
ENDBRANCH   1   2
BRANCH   1  18
ATOM     18  C   UNL     1      17.256   7.014  12.869  1.00  0.00     0.000 C 
BRANCH  18  19
ATOM     19  C   UNL     1      16.771   7.867  14.050  1.00  0.00     0.000 C 
BRANCH  19  20
ATOM     20  C   UNL     1      17.896   8.084  15.073  1.00  0.00     0.000 C 
BRANCH  20  21
ATOM     21  C   UNL     1      18.123   6.862  15.979  1.00  0.00     0.000 C 
BRANCH  21  22
ATOM     22  C   UNL     1      17.441   7.009  17.352  1.00  0.00     0.000 C 
BRANCH  22  23
ATOM     23  C   UNL     1      17.272   5.664  18.082  1.00  0.00     0.000 C 
BRANCH  23  24
ATOM     24  C   UNL     1      16.447   5.722  19.380  1.00  0.00    -0.000 C 
BRANCH  24  25
ATOM     25  C   UNL     1      15.084   5.017  19.258  1.00  0.00    -0.000 C 
BRANCH  25  26
ATOM     26  C   UNL     1      14.803   4.517  17.831  1.00  0.00    -0.000 C 
BRANCH  26  27
ATOM     27  C   UNL     1      13.584   3.585  17.764  1.00  0.00    -0.000 C 
BRANCH  27  28
ATOM     28  C   UNL     1      12.768   3.649  19.063  1.00  0.00    -0.000 C 
BRANCH  28  29
ATOM     29  C   UNL     1      11.485   4.492  18.907  1.00  0.00    -0.000 C 
BRANCH  29  30
ATOM     30  C   UNL     1      11.563   5.869  19.596  1.00  0.00    -0.000 C 
BRANCH  30  31
ATOM     31  C   UNL     1      10.878   7.012  18.827  1.00  0.00    -0.003 C 
ATOM     32  C   UNL     1      11.732   7.549  17.679  1.00  0.00     0.004 C 
ENDBRANCH  30  31
ENDBRANCH  29  30
ENDBRANCH  28  29
ENDBRANCH  27  28
ENDBRANCH  26  27
ENDBRANCH  25  26
ENDBRANCH  24  25
ENDBRANCH  23  24
ENDBRANCH  22  23
ENDBRANCH  21  22
ENDBRANCH  20  21
ENDBRANCH  19  20
ENDBRANCH  18  19
ENDBRANCH   1  18
TORSDOF 28
ENDMDL
MODEL 3
REMARK VINA RESULT:    36.125      8.457     13.195
REMARK INTER + INTRA:          94.136
REMARK INTER:                  95.088
REMARK INTRA:                  -0.952
REMARK UNBOUND:                -1.121
REMARK SMILES CCCCCCCCCCCCCCCCCCCCCCCCCCCCCC(=O)[O-]
REMARK SMILES IDX 16 1 17 2 18 3 19 4 20 5 21 6 22 7 23 8 24 9 25 10 26 11
REMARK SMILES IDX 27 12 28 13 29 14 30 15 31 16 32 17 15 18 14 19 13 20 12 21
REMARK SMILES IDX 11 22 10 23 9 24 8 25 7 26 6 27 5 28 4 29 3 30 2 31 1 32
REMARK H PARENT
REMARK Flexibility Score: inf
ROOT
ATOM      1  C   UNL     1      13.868   7.690  26.075  1.00  0.00     0.000 C 
ENDROOT
BRANCH   1   2
ATOM      2  C   UNL     1      14.738   6.417  26.125  1.00  0.00     0.000 C 
BRANCH   2   3
ATOM      3  C   UNL     1      16.189   6.597  25.638  1.00  0.00     0.000 C 
BRANCH   3   4
ATOM      4  C   UNL     1      17.010   5.299  25.545  1.00  0.00     0.000 C 
BRANCH   4   5
ATOM      5  C   UNL     1      16.191   4.052  25.919  1.00  0.00     0.000 C 
BRANCH   5   6
ATOM      6  C   UNL     1      16.219   2.972  24.824  1.00  0.00     0.000 C 
BRANCH   6   7
ATOM      7  C   UNL     1      15.640   3.468  23.487  1.00  0.00     0.000 C 
BRANCH   7   8
ATOM      8  C   UNL     1      14.102   3.517  23.483  1.00  0.00     0.000 C 
BRANCH   8   9
ATOM      9  C   UNL     1      13.406   2.378  22.710  1.00  0.00     0.000 C 
BRANCH   9  10
ATOM     10  C   UNL     1      13.446   2.504  21.175  1.00  0.00     0.000 C 
BRANCH  10  11
ATOM     11  C   UNL     1      12.048   2.469  20.535  1.00  0.00     0.000 C 
BRANCH  11  12
ATOM     12  C   UNL     1      11.950   3.357  19.285  1.00  0.00     0.000 C 
BRANCH  12  13
ATOM     13  C   UNL     1      12.360   4.815  19.555  1.00  0.00     0.006 C 
BRANCH  13  14
ATOM     14  C   UNL     1      12.439   5.643  18.265  1.00  0.00     0.053 C 
BRANCH  14  15
ATOM     15  C   UNL     1      11.613   6.892  18.358  1.00  0.00     0.041 C 
ATOM     16  O   UNL     1      10.910   7.110  19.378  1.00  0.00    -0.550 OA
ATOM     17  O   UNL     1      11.621   7.812  17.317  1.00  0.00    -0.550 OA
ENDBRANCH  14  15
ENDBRANCH  13  14
ENDBRANCH  12  13
ENDBRANCH  11  12
ENDBRANCH  10  11
ENDBRANCH   9  10
ENDBRANCH   8   9
ENDBRANCH   7   8
ENDBRANCH   6   7
ENDBRANCH   5   6
ENDBRANCH   4   5
ENDBRANCH   3   4
ENDBRANCH   2   3
ENDBRANCH   1   2
BRANCH   1  18
ATOM     18  C   UNL     1      12.365   7.446  25.842  1.00  0.00     0.000 C 
BRANCH  18  19
ATOM     19  C   UNL     1      11.507   8.687  26.124  1.00  0.00     0.000 C 
BRANCH  19  20
ATOM     20  C   UNL     1      10.462   8.898  25.018  1.00  0.00     0.000 C 
BRANCH  20  21
ATOM     21  C   UNL     1      10.021   7.582  24.355  1.00  0.00     0.000 C 
BRANCH  21  22
ATOM     22  C   UNL     1       9.483   6.558  25.372  1.00  0.00     0.000 C 
BRANCH  22  23
ATOM     23  C   UNL     1       9.017   5.248  24.710  1.00  0.00     0.000 C 
BRANCH  23  24
ATOM     24  C   UNL     1       8.287   4.266  25.644  1.00  0.00    -0.000 C 
BRANCH  24  25
ATOM     25  C   UNL     1       6.755   4.379  25.555  1.00  0.00    -0.000 C 
BRANCH  25  26
ATOM     26  C   UNL     1       6.283   5.013  24.236  1.00  0.00    -0.000 C 
BRANCH  26  27
ATOM     27  C   UNL     1       7.161   4.609  23.042  1.00  0.00    -0.000 C 
BRANCH  27  28
ATOM     28  C   UNL     1       6.546   3.425  22.282  1.00  0.00    -0.000 C 
BRANCH  28  29
ATOM     29  C   UNL     1       7.526   2.812  21.261  1.00  0.00    -0.000 C 
BRANCH  29  30
ATOM     30  C   UNL     1       7.870   1.335  21.542  1.00  0.00    -0.000 C 
BRANCH  30  31
ATOM     31  C   UNL     1       6.841   0.324  21.008  1.00  0.00    -0.003 C 
ATOM     32  C   UNL     1       7.426  -1.076  20.827  1.00  0.00     0.004 C 
ENDBRANCH  30  31
ENDBRANCH  29  30
ENDBRANCH  28  29
ENDBRANCH  27  28
ENDBRANCH  26  27
ENDBRANCH  25  26
ENDBRANCH  24  25
ENDBRANCH  23  24
ENDBRANCH  22  23
ENDBRANCH  21  22
ENDBRANCH  20  21
ENDBRANCH  19  20
ENDBRANCH  18  19
ENDBRANCH   1  18
TORSDOF 28
ENDMDL
MODEL 4
REMARK VINA RESULT:    36.827      3.454     10.252
REMARK INTER + INTRA:          95.987
REMARK INTER:                  95.294
REMARK INTRA:                   0.693
REMARK UNBOUND:                -1.121
REMARK SMILES CCCCCCCCCCCCCCCCCCCCCCCCCCCCCC(=O)[O-]
REMARK SMILES IDX 16 1 17 2 18 3 19 4 20 5 21 6 22 7 23 8 24 9 25 10 26 11
REMARK SMILES IDX 27 12 28 13 29 14 30 15 31 16 32 17 15 18 14 19 13 20 12 21
REMARK SMILES IDX 11 22 10 23 9 24 8 25 7 26 6 27 5 28 4 29 3 30 2 31 1 32
REMARK H PARENT
REMARK Flexibility Score: inf
ROOT
ATOM      1  C   UNL     1      17.221   6.842  15.829  1.00  0.00     0.000 C 
ENDROOT
BRANCH   1   2
ATOM      2  C   UNL     1      17.962   7.293  14.554  1.00  0.00     0.000 C 
BRANCH   2   3
ATOM      3  C   UNL     1      17.172   7.118  13.242  1.00  0.00     0.000 C 
BRANCH   3   4
ATOM      4  C   UNL     1      17.923   7.542  11.968  1.00  0.00     0.000 C 
BRANCH   4   5
ATOM      5  C   UNL     1      17.086   8.467  11.067  1.00  0.00     0.000 C 
BRANCH   5   6
ATOM      6  C   UNL     1      17.189   8.098   9.578  1.00  0.00     0.000 C 
BRANCH   6   7
ATOM      7  C   UNL     1      17.611   6.634   9.357  1.00  0.00     0.000 C 
BRANCH   7   8
ATOM      8  C   UNL     1      17.751   6.271   7.868  1.00  0.00     0.000 C 
BRANCH   8   9
ATOM      9  C   UNL     1      16.901   5.072   7.398  1.00  0.00     0.000 C 
BRANCH   9  10
ATOM     10  C   UNL     1      15.390   5.188   7.674  1.00  0.00     0.000 C 
BRANCH  10  11
ATOM     11  C   UNL     1      14.991   6.554   8.259  1.00  0.00     0.000 C 
BRANCH  11  12
ATOM     12  C   UNL     1      14.217   7.421   7.254  1.00  0.00     0.000 C 
BRANCH  12  13
ATOM     13  C   UNL     1      12.721   7.536   7.594  1.00  0.00     0.006 C 
BRANCH  13  14
ATOM     14  C   UNL     1      11.915   6.339   7.071  1.00  0.00     0.053 C 
BRANCH  14  15
ATOM     15  C   UNL     1      11.047   5.746   8.141  1.00  0.00     0.041 C 
ATOM     16  O   UNL     1      10.770   4.519   8.122  1.00  0.00    -0.550 OA
ATOM     17  O   UNL     1      10.544   6.550   9.156  1.00  0.00    -0.550 OA
ENDBRANCH  14  15
ENDBRANCH  13  14
ENDBRANCH  12  13
ENDBRANCH  11  12
ENDBRANCH  10  11
ENDBRANCH   9  10
ENDBRANCH   8   9
ENDBRANCH   7   8
ENDBRANCH   6   7
ENDBRANCH   5   6
ENDBRANCH   4   5
ENDBRANCH   3   4
ENDBRANCH   2   3
ENDBRANCH   1   2
BRANCH   1  18
ATOM     18  C   UNL     1      18.124   6.291  16.949  1.00  0.00     0.000 C 
BRANCH  18  19
ATOM     19  C   UNL     1      17.719   6.788  18.344  1.00  0.00     0.000 C 
BRANCH  19  20
ATOM     20  C   UNL     1      16.859   5.745  19.073  1.00  0.00     0.000 C 
BRANCH  20  21
ATOM     21  C   UNL     1      15.397   5.736  18.596  1.00  0.00     0.000 C 
BRANCH  21  22
ATOM     22  C   UNL     1      15.031   4.451  17.832  1.00  0.00     0.000 C 
BRANCH  22  23
ATOM     23  C   UNL     1      13.602   3.963  18.135  1.00  0.00     0.000 C 
BRANCH  23  24
ATOM     24  C   UNL     1      13.457   3.110  19.408  1.00  0.00    -0.000 C 
BRANCH  24  25
ATOM     25  C   UNL     1      12.052   3.194  20.031  1.00  0.00    -0.000 C 
BRANCH  25  26
ATOM     26  C   UNL     1      10.962   3.507  18.993  1.00  0.00    -0.000 C 
BRANCH  26  27
ATOM     27  C   UNL     1      11.089   4.924  18.414  1.00  0.00    -0.000 C 
BRANCH  27  28
ATOM     28  C   UNL     1      11.542   5.921  19.491  1.00  0.00    -0.000 C 
BRANCH  28  29
ATOM     29  C   UNL     1      11.101   7.365  19.175  1.00  0.00    -0.000 C 
BRANCH  29  30
ATOM     30  C   UNL     1      12.154   8.178  18.397  1.00  0.00    -0.000 C 
BRANCH  30  31
ATOM     31  C   UNL     1      13.603   7.974  18.873  1.00  0.00    -0.003 C 
ATOM     32  C   UNL     1      14.123   9.143  19.708  1.00  0.00     0.004 C 
ENDBRANCH  30  31
ENDBRANCH  29  30
ENDBRANCH  28  29
ENDBRANCH  27  28
ENDBRANCH  26  27
ENDBRANCH  25  26
ENDBRANCH  24  25
ENDBRANCH  23  24
ENDBRANCH  22  23
ENDBRANCH  21  22
ENDBRANCH  20  21
ENDBRANCH  19  20
ENDBRANCH  18  19
ENDBRANCH   1  18
TORSDOF 28
ENDMDL
MODEL 5
REMARK VINA RESULT:    37.284      2.607      9.839
REMARK INTER + INTRA:          97.193
REMARK INTER:                  92.833
REMARK INTRA:                   4.360
REMARK UNBOUND:                -1.121
REMARK SMILES CCCCCCCCCCCCCCCCCCCCCCCCCCCCCC(=O)[O-]
REMARK SMILES IDX 16 1 17 2 18 3 19 4 20 5 21 6 22 7 23 8 24 9 25 10 26 11
REMARK SMILES IDX 27 12 28 13 29 14 30 15 31 16 32 17 15 18 14 19 13 20 12 21
REMARK SMILES IDX 11 22 10 23 9 24 8 25 7 26 6 27 5 28 4 29 3 30 2 31 1 32
REMARK H PARENT
REMARK Flexibility Score: inf
ROOT
ATOM      1  C   UNL     1      17.757   7.765  10.809  1.00  0.00     0.000 C 
ENDROOT
BRANCH   1   2
ATOM      2  C   UNL     1      17.063   7.140   9.581  1.00  0.00     0.000 C 
BRANCH   2   3
ATOM      3  C   UNL     1      17.929   6.154   8.773  1.00  0.00     0.000 C 
BRANCH   3   4
ATOM      4  C   UNL     1      17.180   5.377   7.676  1.00  0.00     0.000 C 
BRANCH   4   5
ATOM      5  C   UNL     1      15.678   5.711   7.634  1.00  0.00     0.000 C 
BRANCH   5   6
ATOM      6  C   UNL     1      15.381   7.165   8.037  1.00  0.00     0.000 C 
BRANCH   6   7
ATOM      7  C   UNL     1      14.305   7.818   7.151  1.00  0.00     0.000 C 
BRANCH   7   8
ATOM      8  C   UNL     1      12.947   7.097   7.232  1.00  0.00     0.000 C 
BRANCH   8   9
ATOM      9  C   UNL     1      11.777   7.950   7.764  1.00  0.00     0.000 C 
BRANCH   9  10
ATOM     10  C   UNL     1      10.371   7.404   7.454  1.00  0.00     0.000 C 
BRANCH  10  11
ATOM     11  C   UNL     1      10.022   6.149   8.273  1.00  0.00     0.000 C 
BRANCH  11  12
ATOM     12  C   UNL     1      11.146   5.102   8.253  1.00  0.00     0.000 C 
BRANCH  12  13
ATOM     13  C   UNL     1      10.886   3.966   7.248  1.00  0.00     0.006 C 
BRANCH  13  14
ATOM     14  C   UNL     1      10.509   2.652   7.946  1.00  0.00     0.053 C 
BRANCH  14  15
ATOM     15  C   UNL     1      10.517   2.795   9.439  1.00  0.00     0.041 C 
ATOM     16  O   UNL     1      10.776   1.802  10.167  1.00  0.00    -0.550 OA
ATOM     17  O   UNL     1      10.237   4.023  10.023  1.00  0.00    -0.550 OA
ENDBRANCH  14  15
ENDBRANCH  13  14
ENDBRANCH  12  13
ENDBRANCH  11  12
ENDBRANCH  10  11
ENDBRANCH   9  10
ENDBRANCH   8   9
ENDBRANCH   7   8
ENDBRANCH   6   7
ENDBRANCH   5   6
ENDBRANCH   4   5
ENDBRANCH   3   4
ENDBRANCH   2   3
ENDBRANCH   1   2
BRANCH   1  18
ATOM     18  C   UNL     1      17.053   7.514  12.155  1.00  0.00     0.000 C 
BRANCH  18  19
ATOM     19  C   UNL     1      17.985   7.697  13.361  1.00  0.00     0.000 C 
BRANCH  19  20
ATOM     20  C   UNL     1      17.256   7.378  14.675  1.00  0.00     0.000 C 
BRANCH  20  21
ATOM     21  C   UNL     1      18.120   7.648  15.919  1.00  0.00     0.000 C 
BRANCH  21  22
ATOM     22  C   UNL     1      18.040   6.511  16.953  1.00  0.00     0.000 C 
BRANCH  22  23
ATOM     23  C   UNL     1      16.701   6.488  17.713  1.00  0.00     0.000 C 
BRANCH  23  24
ATOM     24  C   UNL     1      15.794   5.283  17.405  1.00  0.00    -0.000 C 
BRANCH  24  25
ATOM     25  C   UNL     1      14.363   5.453  17.946  1.00  0.00    -0.000 C 
BRANCH  25  26
ATOM     26  C   UNL     1      13.905   4.257  18.797  1.00  0.00    -0.000 C 
BRANCH  26  27
ATOM     27  C   UNL     1      12.431   4.362  19.216  1.00  0.00    -0.000 C 
BRANCH  27  28
ATOM     28  C   UNL     1      11.645   3.118  18.779  1.00  0.00    -0.000 C 
BRANCH  28  29
ATOM     29  C   UNL     1      11.902   1.909  19.702  1.00  0.00    -0.000 C 
BRANCH  29  30
ATOM     30  C   UNL     1      11.879   2.260  21.203  1.00  0.00    -0.000 C 
BRANCH  30  31
ATOM     31  C   UNL     1      12.880   3.349  21.624  1.00  0.00    -0.003 C 
ATOM     32  C   UNL     1      14.128   2.779  22.296  1.00  0.00     0.004 C 
ENDBRANCH  30  31
ENDBRANCH  29  30
ENDBRANCH  28  29
ENDBRANCH  27  28
ENDBRANCH  26  27
ENDBRANCH  25  26
ENDBRANCH  24  25
ENDBRANCH  23  24
ENDBRANCH  22  23
ENDBRANCH  21  22
ENDBRANCH  20  21
ENDBRANCH  19  20
ENDBRANCH  18  19
ENDBRANCH   1  18
TORSDOF 28
ENDMDL
MODEL 6
REMARK VINA RESULT:    37.411      3.070     10.070
REMARK INTER + INTRA:          97.528
REMARK INTER:                  98.993
REMARK INTRA:                  -1.466
REMARK UNBOUND:                -1.121
REMARK SMILES CCCCCCCCCCCCCCCCCCCCCCCCCCCCCC(=O)[O-]
REMARK SMILES IDX 16 1 17 2 18 3 19 4 20 5 21 6 22 7 23 8 24 9 25 10 26 11
REMARK SMILES IDX 27 12 28 13 29 14 30 15 31 16 32 17 15 18 14 19 13 20 12 21
REMARK SMILES IDX 11 22 10 23 9 24 8 25 7 26 6 27 5 28 4 29 3 30 2 31 1 32
REMARK H PARENT
REMARK Flexibility Score: inf
ROOT
ATOM      1  C   UNL     1      17.516   6.773  13.413  1.00  0.00     0.000 C 
ENDROOT
BRANCH   1   2
ATOM      2  C   UNL     1      17.356   7.922  12.396  1.00  0.00     0.000 C 
BRANCH   2   3
ATOM      3  C   UNL     1      16.621   7.545  11.094  1.00  0.00     0.000 C 
BRANCH   3   4
ATOM      4  C   UNL     1      17.299   8.029   9.800  1.00  0.00     0.000 C 
BRANCH   4   5
ATOM      5  C   UNL     1      17.333   6.945   8.708  1.00  0.00     0.000 C 
BRANCH   5   6
ATOM      6  C   UNL     1      16.535   5.688   9.093  1.00  0.00     0.000 C 
BRANCH   6   7
ATOM      7  C   UNL     1      15.158   5.627   8.408  1.00  0.00     0.000 C 
BRANCH   7   8
ATOM      8  C   UNL     1      15.016   6.645   7.263  1.00  0.00     0.000 C 
BRANCH   8   9
ATOM      9  C   UNL     1      14.071   7.831   7.547  1.00  0.00     0.000 C 
BRANCH   9  10
ATOM     10  C   UNL     1      12.579   7.566   7.272  1.00  0.00     0.000 C 
BRANCH  10  11
ATOM     11  C   UNL     1      12.094   6.224   7.847  1.00  0.00     0.000 C 
BRANCH  11  12
ATOM     12  C   UNL     1      10.841   6.377   8.723  1.00  0.00     0.000 C 
BRANCH  12  13
ATOM     13  C   UNL     1       9.867   5.195   8.582  1.00  0.00     0.006 C 
BRANCH  13  14
ATOM     14  C   UNL     1      10.455   4.057   7.736  1.00  0.00     0.053 C 
BRANCH  14  15
ATOM     15  C   UNL     1      10.549   2.779   8.516  1.00  0.00     0.041 C 
ATOM     16  O   UNL     1      10.793   1.695   7.926  1.00  0.00    -0.550 OA
ATOM     17  O   UNL     1      10.367   2.787   9.893  1.00  0.00    -0.550 OA
ENDBRANCH  14  15
ENDBRANCH  13  14
ENDBRANCH  12  13
ENDBRANCH  11  12
ENDBRANCH  10  11
ENDBRANCH   9  10
ENDBRANCH   8   9
ENDBRANCH   7   8
ENDBRANCH   6   7
ENDBRANCH   5   6
ENDBRANCH   4   5
ENDBRANCH   3   4
ENDBRANCH   2   3
ENDBRANCH   1   2
BRANCH   1  18
ATOM     18  C   UNL     1      17.676   7.217  14.879  1.00  0.00     0.000 C 
BRANCH  18  19
ATOM     19  C   UNL     1      17.654   6.041  15.866  1.00  0.00     0.000 C 
BRANCH  19  20
ATOM     20  C   UNL     1      18.123   6.483  17.260  1.00  0.00     0.000 C 
BRANCH  20  21
ATOM     21  C   UNL     1      17.172   6.031  18.381  1.00  0.00     0.000 C 
BRANCH  21  22
ATOM     22  C   UNL     1      16.013   7.019  18.608  1.00  0.00     0.000 C 
BRANCH  22  23
ATOM     23  C   UNL     1      14.640   6.324  18.677  1.00  0.00     0.000 C 
BRANCH  23  24
ATOM     24  C   UNL     1      14.617   4.997  19.456  1.00  0.00    -0.000 C 
BRANCH  24  25
ATOM     25  C   UNL     1      13.201   4.414  19.607  1.00  0.00    -0.000 C 
BRANCH  25  26
ATOM     26  C   UNL     1      13.210   2.904  19.898  1.00  0.00    -0.000 C 
BRANCH  26  27
ATOM     27  C   UNL     1      11.967   2.190  19.346  1.00  0.00    -0.000 C 
BRANCH  27  28
ATOM     28  C   UNL     1      10.877   3.200  18.962  1.00  0.00    -0.000 C 
BRANCH  28  29
ATOM     29  C   UNL     1       9.601   3.038  19.815  1.00  0.00    -0.000 C 
BRANCH  29  30
ATOM     30  C   UNL     1       9.678   1.879  20.828  1.00  0.00    -0.000 C 
BRANCH  30  31
ATOM     31  C   UNL     1       8.446   1.738  21.738  1.00  0.00    -0.003 C 
ATOM     32  C   UNL     1       7.257   2.570  21.258  1.00  0.00     0.004 C 
ENDBRANCH  30  31
ENDBRANCH  29  30
ENDBRANCH  28  29
ENDBRANCH  27  28
ENDBRANCH  26  27
ENDBRANCH  25  26
ENDBRANCH  24  25
ENDBRANCH  23  24
ENDBRANCH  22  23
ENDBRANCH  21  22
ENDBRANCH  20  21
ENDBRANCH  19  20
ENDBRANCH  18  19
ENDBRANCH   1  18
TORSDOF 28
ENDMDL
