MODEL 1
REMARK VINA RESULT:    -4.780      0.000      0.000
REMARK INTER + INTRA:         -10.758
REMARK INTER:                  -8.972
REMARK INTRA:                  -1.786
REMARK UNBOUND:                -1.786
REMARK SMILES CCCCCCCCC=CCCCCCCCC(=O)[O-]
REMARK SMILES IDX 10 1 9 2 11 3 12 4 13 5 14 6 15 7 16 8 17 9 18 10 19 11
REMARK SMILES IDX 20 12 8 13 7 14 6 15 5 16 4 17 3 18 2 19 1 20
REMARK H PARENT
REMARK Flexibility Score: inf
ROOT
ATOM      1  C   UNL     1      30.252   8.202  49.607  1.00  0.00    -0.031 C 
ATOM      2  C   UNL     1      31.473   8.511  50.068  1.00  0.00    -0.031 C 
ENDROOT
BRANCH   1   3
ATOM      3  C   UNL     1      29.528   6.966  50.064  1.00  0.00     0.027 C 
BRANCH   3   4
ATOM      4  C   UNL     1      29.828   5.778  49.140  1.00  0.00     0.004 C 
BRANCH   4   5
ATOM      5  C   UNL     1      30.019   6.243  47.690  1.00  0.00     0.000 C 
BRANCH   5   6
ATOM      6  C   UNL     1      31.493   6.235  47.254  1.00  0.00     0.000 C 
BRANCH   6   7
ATOM      7  C   UNL     1      32.396   5.466  48.232  1.00  0.00     0.000 C 
BRANCH   7   8
ATOM      8  C   UNL     1      33.855   5.929  48.109  1.00  0.00     0.006 C 
BRANCH   8   9
ATOM      9  C   UNL     1      34.770   4.828  47.561  1.00  0.00     0.053 C 
BRANCH   9  10
ATOM     10  C   UNL     1      34.931   4.926  46.075  1.00  0.00     0.041 C 
ATOM     11  O   UNL     1      35.459   3.982  45.429  1.00  0.00    -0.550 OA
ATOM     12  O   UNL     1      34.470   6.049  45.399  1.00  0.00    -0.550 OA
ENDBRANCH   9  10
ENDBRANCH   8   9
ENDBRANCH   7   8
ENDBRANCH   6   7
ENDBRANCH   5   6
ENDBRANCH   4   5
ENDBRANCH   3   4
ENDBRANCH   1   3
BRANCH   2  13
ATOM     13  C   UNL     1      32.189   9.761  49.631  1.00  0.00     0.027 C 
BRANCH  13  14
ATOM     14  C   UNL     1      32.383   9.829  48.107  1.00  0.00     0.004 C 
BRANCH  14  15
ATOM     15  C   UNL     1      33.845   9.669  47.642  1.00  0.00     0.000 C 
BRANCH  15  16
ATOM     16  C   UNL     1      34.630  10.988  47.490  1.00  0.00     0.000 C 
BRANCH  16  17
ATOM     17  C   UNL     1      35.513  11.075  46.232  1.00  0.00    -0.000 C 
BRANCH  17  18
ATOM     18  C   UNL     1      34.705  10.961  44.929  1.00  0.00    -0.000 C 
BRANCH  18  19
ATOM     19  C   UNL     1      35.097   9.728  44.099  1.00  0.00    -0.003 C 
ATOM     20  C   UNL     1      33.885   8.924  43.630  1.00  0.00     0.004 C 
ENDBRANCH  18  19
ENDBRANCH  17  18
ENDBRANCH  16  17
ENDBRANCH  15  16
ENDBRANCH  14  15
ENDBRANCH  13  14
ENDBRANCH   2  13
TORSDOF 15
ENDMDL
MODEL 2
REMARK VINA RESULT:    -4.763      1.325      2.607
REMARK INTER + INTRA:         -10.726
REMARK INTER:                  -8.742
REMARK INTRA:                  -1.984
REMARK UNBOUND:                -1.786
REMARK SMILES CCCCCCCCC=CCCCCCCCC(=O)[O-]
REMARK SMILES IDX 10 1 9 2 11 3 12 4 13 5 14 6 15 7 16 8 17 9 18 10 19 11
REMARK SMILES IDX 20 12 8 13 7 14 6 15 5 16 4 17 3 18 2 19 1 20
REMARK H PARENT
REMARK Flexibility Score: inf
ROOT
ATOM      1  C   UNL     1      33.011  10.227  48.226  1.00  0.00    -0.031 C 
ATOM      2  C   UNL     1      34.008   9.957  49.081  1.00  0.00    -0.031 C 
ENDROOT
BRANCH   1   3
ATOM      3  C   UNL     1      31.587   9.855  48.535  1.00  0.00     0.027 C 
BRANCH   3   4
ATOM      4  C   UNL     1      31.515   8.514  49.277  1.00  0.00     0.004 C 
BRANCH   4   5
ATOM      5  C   UNL     1      30.197   7.787  48.974  1.00  0.00     0.000 C 
BRANCH   5   6
ATOM      6  C   UNL     1      30.410   6.467  48.214  1.00  0.00     0.000 C 
BRANCH   6   7
ATOM      7  C   UNL     1      31.715   6.453  47.404  1.00  0.00     0.000 C 
BRANCH   7   8
ATOM      8  C   UNL     1      32.700   5.421  47.973  1.00  0.00     0.006 C 
BRANCH   8   9
ATOM      9  C   UNL     1      34.096   6.015  48.201  1.00  0.00     0.053 C 
BRANCH   9  10
ATOM     10  C   UNL     1      35.174   4.997  47.987  1.00  0.00     0.041 C 
ATOM     11  O   UNL     1      35.530   4.684  46.819  1.00  0.00    -0.550 OA
ATOM     12  O   UNL     1      35.806   4.414  49.078  1.00  0.00    -0.550 OA
ENDBRANCH   9  10
ENDBRANCH   8   9
ENDBRANCH   7   8
ENDBRANCH   6   7
ENDBRANCH   5   6
ENDBRANCH   4   5
ENDBRANCH   3   4
ENDBRANCH   1   3
BRANCH   2  13
ATOM     13  C   UNL     1      35.431  10.350  48.785  1.00  0.00     0.027 C 
BRANCH  13  14
ATOM     14  C   UNL     1      35.530  11.697  48.048  1.00  0.00     0.004 C 
BRANCH  14  15
ATOM     15  C   UNL     1      36.129  11.605  46.629  1.00  0.00     0.000 C 
BRANCH  15  16
ATOM     16  C   UNL     1      35.248  12.193  45.509  1.00  0.00     0.000 C 
BRANCH  16  17
ATOM     17  C   UNL     1      34.713  11.163  44.498  1.00  0.00    -0.000 C 
BRANCH  17  18
ATOM     18  C   UNL     1      34.474   9.780  45.127  1.00  0.00    -0.000 C 
BRANCH  18  19
ATOM     19  C   UNL     1      34.470   8.652  44.084  1.00  0.00    -0.003 C 
ATOM     20  C   UNL     1      34.082   7.300  44.679  1.00  0.00     0.004 C 
ENDBRANCH  18  19
ENDBRANCH  17  18
ENDBRANCH  16  17
ENDBRANCH  15  16
ENDBRANCH  14  15
ENDBRANCH  13  14
ENDBRANCH   2  13
TORSDOF 15
ENDMDL
MODEL 3
REMARK VINA RESULT:    -4.619      1.367      2.515
REMARK INTER + INTRA:         -10.456
REMARK INTER:                  -8.109
REMARK INTRA:                  -2.347
REMARK UNBOUND:                -1.786
REMARK SMILES CCCCCCCCC=CCCCCCCCC(=O)[O-]
REMARK SMILES IDX 10 1 9 2 11 3 12 4 13 5 14 6 15 7 16 8 17 9 18 10 19 11
REMARK SMILES IDX 20 12 8 13 7 14 6 15 5 16 4 17 3 18 2 19 1 20
REMARK H PARENT
REMARK Flexibility Score: inf
ROOT
ATOM      1  C   UNL     1      33.098  10.391  48.543  1.00  0.00    -0.031 C 
ATOM      2  C   UNL     1      34.014   9.674  49.210  1.00  0.00    -0.031 C 
ENDROOT
BRANCH   1   3
ATOM      3  C   UNL     1      31.651   9.984  48.511  1.00  0.00     0.027 C 
BRANCH   3   4
ATOM      4  C   UNL     1      31.400   8.764  49.406  1.00  0.00     0.004 C 
BRANCH   4   5
ATOM      5  C   UNL     1      30.532   7.722  48.687  1.00  0.00     0.000 C 
BRANCH   5   6
ATOM      6  C   UNL     1      31.315   6.452  48.315  1.00  0.00     0.000 C 
BRANCH   6   7
ATOM      7  C   UNL     1      31.980   6.550  46.933  1.00  0.00     0.000 C 
BRANCH   7   8
ATOM      8  C   UNL     1      33.500   6.721  47.069  1.00  0.00     0.006 C 
BRANCH   8   9
ATOM      9  C   UNL     1      34.260   6.132  45.874  1.00  0.00     0.053 C 
BRANCH   9  10
ATOM     10  C   UNL     1      35.026   4.902  46.255  1.00  0.00     0.041 C 
ATOM     11  O   UNL     1      35.303   4.675  47.463  1.00  0.00    -0.550 OA
ATOM     12  O   UNL     1      35.410   3.993  45.279  1.00  0.00    -0.550 OA
ENDBRANCH   9  10
ENDBRANCH   8   9
ENDBRANCH   7   8
ENDBRANCH   6   7
ENDBRANCH   5   6
ENDBRANCH   4   5
ENDBRANCH   3   4
ENDBRANCH   1   3
BRANCH   2  13
ATOM     13  C   UNL     1      35.459  10.092  49.266  1.00  0.00     0.027 C 
BRANCH  13  14
ATOM     14  C   UNL     1      35.644  11.604  49.046  1.00  0.00     0.004 C 
BRANCH  14  15
ATOM     15  C   UNL     1      36.890  11.979  48.217  1.00  0.00     0.000 C 
BRANCH  15  16
ATOM     16  C   UNL     1      36.777  11.697  46.705  1.00  0.00     0.000 C 
BRANCH  16  17
ATOM     17  C   UNL     1      35.766  12.582  45.954  1.00  0.00    -0.000 C 
BRANCH  17  18
ATOM     18  C   UNL     1      34.836  11.775  45.034  1.00  0.00    -0.000 C 
BRANCH  18  19
ATOM     19  C   UNL     1      34.881  10.268  45.328  1.00  0.00    -0.003 C 
ATOM     20  C   UNL     1      34.698   9.417  44.072  1.00  0.00     0.004 C 
ENDBRANCH  18  19
ENDBRANCH  17  18
ENDBRANCH  16  17
ENDBRANCH  15  16
ENDBRANCH  14  15
ENDBRANCH  13  14
ENDBRANCH   2  13
TORSDOF 15
ENDMDL
MODEL 4
REMARK VINA RESULT:    -4.550      1.813      5.264
REMARK INTER + INTRA:         -10.326
REMARK INTER:                  -8.404
REMARK INTRA:                  -1.921
REMARK UNBOUND:                -1.786
REMARK SMILES CCCCCCCCC=CCCCCCCCC(=O)[O-]
REMARK SMILES IDX 10 1 9 2 11 3 12 4 13 5 14 6 15 7 16 8 17 9 18 10 19 11
REMARK SMILES IDX 20 12 8 13 7 14 6 15 5 16 4 17 3 18 2 19 1 20
REMARK H PARENT
REMARK Flexibility Score: inf
ROOT
ATOM      1  C   UNL     1      31.623   9.835  48.667  1.00  0.00    -0.031 C 
ATOM      2  C   UNL     1      31.299   8.671  49.248  1.00  0.00    -0.031 C 
ENDROOT
BRANCH   1   3
ATOM      3  C   UNL     1      32.743  10.691  49.191  1.00  0.00     0.027 C 
BRANCH   3   4
ATOM      4  C   UNL     1      33.846   9.832  49.822  1.00  0.00     0.004 C 
BRANCH   4   5
ATOM      5  C   UNL     1      35.237  10.331  49.408  1.00  0.00     0.000 C 
BRANCH   5   6
ATOM      6  C   UNL     1      35.183  11.646  48.613  1.00  0.00     0.000 C 
BRANCH   6   7
ATOM      7  C   UNL     1      36.178  11.672  47.443  1.00  0.00     0.000 C 
BRANCH   7   8
ATOM      8  C   UNL     1      35.438  11.687  46.097  1.00  0.00     0.006 C 
BRANCH   8   9
ATOM      9  C   UNL     1      34.723  10.360  45.812  1.00  0.00     0.053 C 
BRANCH   9  10
ATOM     10  C   UNL     1      34.487  10.159  44.346  1.00  0.00     0.041 C 
ATOM     11  O   UNL     1      34.377  11.152  43.579  1.00  0.00    -0.550 OA
ATOM     12  O   UNL     1      34.419   8.875  43.823  1.00  0.00    -0.550 OA
ENDBRANCH   9  10
ENDBRANCH   8   9
ENDBRANCH   7   8
ENDBRANCH   6   7
ENDBRANCH   5   6
ENDBRANCH   4   5
ENDBRANCH   3   4
ENDBRANCH   1   3
BRANCH   2  13
ATOM     13  C   UNL     1      30.195   7.800  48.711  1.00  0.00     0.027 C 
BRANCH  13  14
ATOM     14  C   UNL     1      30.714   6.710  47.757  1.00  0.00     0.004 C 
BRANCH  14  15
ATOM     15  C   UNL     1      31.713   5.725  48.398  1.00  0.00     0.000 C 
BRANCH  15  16
ATOM     16  C   UNL     1      33.199   6.027  48.116  1.00  0.00     0.000 C 
BRANCH  16  17
ATOM     17  C   UNL     1      33.460   6.867  46.853  1.00  0.00    -0.000 C 
BRANCH  17  18
ATOM     18  C   UNL     1      34.236   6.094  45.773  1.00  0.00    -0.000 C 
BRANCH  18  19
ATOM     19  C   UNL     1      35.033   4.916  46.352  1.00  0.00    -0.003 C 
ATOM     20  C   UNL     1      35.459   3.910  45.283  1.00  0.00     0.004 C 
ENDBRANCH  18  19
ENDBRANCH  17  18
ENDBRANCH  16  17
ENDBRANCH  15  16
ENDBRANCH  14  15
ENDBRANCH  13  14
ENDBRANCH   2  13
TORSDOF 15
ENDMDL
MODEL 5
REMARK VINA RESULT:    -4.475      4.339      8.151
REMARK INTER + INTRA:         -10.186
REMARK INTER:                  -8.678
REMARK INTRA:                  -1.508
REMARK UNBOUND:                -1.786
REMARK SMILES CCCCCCCCC=CCCCCCCCC(=O)[O-]
REMARK SMILES IDX 10 1 9 2 11 3 12 4 13 5 14 6 15 7 16 8 17 9 18 10 19 11
REMARK SMILES IDX 20 12 8 13 7 14 6 15 5 16 4 17 3 18 2 19 1 20
REMARK H PARENT
REMARK Flexibility Score: inf
ROOT
ATOM      1  C   UNL     1      34.617   8.852  44.317  1.00  0.00    -0.031 C 
ATOM      2  C   UNL     1      33.720   7.866  44.462  1.00  0.00    -0.031 C 
ENDROOT
BRANCH   1   3
ATOM      3  C   UNL     1      34.279  10.123  43.587  1.00  0.00     0.027 C 
BRANCH   3   4
ATOM      4  C   UNL     1      34.569  11.352  44.457  1.00  0.00     0.004 C 
BRANCH   4   5
ATOM      5  C   UNL     1      35.200  10.944  45.796  1.00  0.00     0.000 C 
BRANCH   5   6
ATOM      6  C   UNL     1      35.464  12.146  46.717  1.00  0.00     0.000 C 
BRANCH   6   7
ATOM      7  C   UNL     1      36.290  13.246  46.034  1.00  0.00     0.000 C 
BRANCH   7   8
ATOM      8  C   UNL     1      35.712  14.635  46.341  1.00  0.00     0.006 C 
BRANCH   8   9
ATOM      9  C   UNL     1      36.504  15.759  45.661  1.00  0.00     0.053 C 
BRANCH   9  10
ATOM     10  C   UNL     1      36.010  17.113  46.071  1.00  0.00     0.041 C 
ATOM     11  O   UNL     1      36.375  18.139  45.438  1.00  0.00    -0.550 OA
ATOM     12  O   UNL     1      35.125  17.237  47.133  1.00  0.00    -0.550 OA
ENDBRANCH   9  10
ENDBRANCH   8   9
ENDBRANCH   7   8
ENDBRANCH   6   7
ENDBRANCH   5   6
ENDBRANCH   4   5
ENDBRANCH   3   4
ENDBRANCH   1   3
BRANCH   2  13
ATOM     13  C   UNL     1      34.048   6.603  45.213  1.00  0.00     0.027 C 
BRANCH  13  14
ATOM     14  C   UNL     1      33.204   6.439  46.489  1.00  0.00     0.004 C 
BRANCH  14  15
ATOM     15  C   UNL     1      33.853   7.021  47.762  1.00  0.00     0.000 C 
BRANCH  15  16
ATOM     16  C   UNL     1      33.536   8.504  48.037  1.00  0.00     0.000 C 
BRANCH  16  17
ATOM     17  C   UNL     1      32.037   8.835  48.159  1.00  0.00    -0.000 C 
BRANCH  17  18
ATOM     18  C   UNL     1      31.341   8.042  49.278  1.00  0.00    -0.000 C 
BRANCH  18  19
ATOM     19  C   UNL     1      29.918   7.610  48.896  1.00  0.00    -0.003 C 
ATOM     20  C   UNL     1      29.861   6.183  48.352  1.00  0.00     0.004 C 
ENDBRANCH  18  19
ENDBRANCH  17  18
ENDBRANCH  16  17
ENDBRANCH  15  16
ENDBRANCH  14  15
ENDBRANCH  13  14
ENDBRANCH   2  13
TORSDOF 15
ENDMDL
MODEL 6
REMARK VINA RESULT:    -4.380     17.471     19.987
REMARK INTER + INTRA:         -10.007
REMARK INTER:                  -8.310
REMARK INTRA:                  -1.698
REMARK UNBOUND:                -1.786
REMARK SMILES CCCCCCCCC=CCCCCCCCC(=O)[O-]
REMARK SMILES IDX 10 1 9 2 11 3 12 4 13 5 14 6 15 7 16 8 17 9 18 10 19 11
REMARK SMILES IDX 20 12 8 13 7 14 6 15 5 16 4 17 3 18 2 19 1 20
REMARK H PARENT
REMARK Flexibility Score: inf
ROOT
ATOM      1  C   UNL     1      19.977  14.316  33.924  1.00  0.00    -0.031 C 
ATOM      2  C   UNL     1      20.165  13.817  35.154  1.00  0.00    -0.031 C 
ENDROOT
BRANCH   1   3
ATOM      3  C   UNL     1      21.127  14.813  33.092  1.00  0.00     0.027 C 
BRANCH   3   4
ATOM      4  C   UNL     1      20.960  14.408  31.622  1.00  0.00     0.004 C 
BRANCH   4   5
ATOM      5  C   UNL     1      22.254  13.790  31.071  1.00  0.00     0.000 C 
BRANCH   5   6
ATOM      6  C   UNL     1      22.876  14.628  29.943  1.00  0.00     0.000 C 
BRANCH   6   7
ATOM      7  C   UNL     1      24.333  15.022  30.232  1.00  0.00     0.000 C 
BRANCH   7   8
ATOM      8  C   UNL     1      24.515  16.545  30.142  1.00  0.00     0.006 C 
BRANCH   8   9
ATOM      9  C   UNL     1      23.468  17.305  30.966  1.00  0.00     0.053 C 
BRANCH   9  10
ATOM     10  C   UNL     1      23.824  18.753  31.116  1.00  0.00     0.041 C 
ATOM     11  O   UNL     1      23.045  19.646  30.688  1.00  0.00    -0.550 OA
ATOM     12  O   UNL     1      25.003  19.116  31.754  1.00  0.00    -0.550 OA
ENDBRANCH   9  10
ENDBRANCH   8   9
ENDBRANCH   7   8
ENDBRANCH   6   7
ENDBRANCH   5   6
ENDBRANCH   4   5
ENDBRANCH   3   4
ENDBRANCH   1   3
BRANCH   2  13
ATOM     13  C   UNL     1      19.019  13.295  35.980  1.00  0.00     0.027 C 
BRANCH  13  14
ATOM     14  C   UNL     1      19.359  11.976  36.695  1.00  0.00     0.004 C 
BRANCH  14  15
ATOM     15  C   UNL     1      19.377  10.738  35.774  1.00  0.00     0.000 C 
BRANCH  15  16
ATOM     16  C   UNL     1      20.694   9.936  35.785  1.00  0.00     0.000 C 
BRANCH  16  17
ATOM     17  C   UNL     1      21.470   9.947  34.455  1.00  0.00    -0.000 C 
BRANCH  17  18
ATOM     18  C   UNL     1      22.334  11.207  34.280  1.00  0.00    -0.000 C 
BRANCH  18  19
ATOM     19  C   UNL     1      23.072  11.597  35.570  1.00  0.00    -0.003 C 
ATOM     20  C   UNL     1      24.327  10.759  35.807  1.00  0.00     0.004 C 
ENDBRANCH  18  19
ENDBRANCH  17  18
ENDBRANCH  16  17
ENDBRANCH  15  16
ENDBRANCH  14  15
ENDBRANCH  13  14
ENDBRANCH   2  13
TORSDOF 15
ENDMDL
MODEL 7
REMARK VINA RESULT:    -4.302      2.453      3.875
REMARK INTER + INTRA:          -9.861
REMARK INTER:                  -8.230
REMARK INTRA:                  -1.631
REMARK UNBOUND:                -1.786
REMARK SMILES CCCCCCCCC=CCCCCCCCC(=O)[O-]
REMARK SMILES IDX 10 1 9 2 11 3 12 4 13 5 14 6 15 7 16 8 17 9 18 10 19 11
REMARK SMILES IDX 20 12 8 13 7 14 6 15 5 16 4 17 3 18 2 19 1 20
REMARK H PARENT
REMARK Flexibility Score: inf
ROOT
ATOM      1  C   UNL     1      32.990   9.592  48.014  1.00  0.00    -0.031 C 
ATOM      2  C   UNL     1      34.131   9.871  47.367  1.00  0.00    -0.031 C 
ENDROOT
BRANCH   1   3
ATOM      3  C   UNL     1      32.968   9.334  49.495  1.00  0.00     0.027 C 
BRANCH   3   4
ATOM      4  C   UNL     1      31.670   8.633  49.915  1.00  0.00     0.004 C 
BRANCH   4   5
ATOM      5  C   UNL     1      30.773   8.361  48.699  1.00  0.00     0.000 C 
BRANCH   5   6
ATOM      6  C   UNL     1      30.535   6.861  48.462  1.00  0.00     0.000 C 
BRANCH   6   7
ATOM      7  C   UNL     1      31.498   6.265  47.424  1.00  0.00     0.000 C 
BRANCH   7   8
ATOM      8  C   UNL     1      32.655   5.526  48.113  1.00  0.00     0.006 C 
BRANCH   8   9
ATOM      9  C   UNL     1      34.022   6.114  47.743  1.00  0.00     0.053 C 
BRANCH   9  10
ATOM     10  C   UNL     1      34.418   5.761  46.341  1.00  0.00     0.041 C 
ATOM     11  O   UNL     1      35.006   4.673  46.102  1.00  0.00    -0.550 OA
ATOM     12  O   UNL     1      34.110   6.621  45.295  1.00  0.00    -0.550 OA
ENDBRANCH   9  10
ENDBRANCH   8   9
ENDBRANCH   7   8
ENDBRANCH   6   7
ENDBRANCH   5   6
ENDBRANCH   4   5
ENDBRANCH   3   4
ENDBRANCH   1   3
BRANCH   2  13
ATOM     13  C   UNL     1      34.152  10.154  45.889  1.00  0.00     0.027 C 
BRANCH  13  14
ATOM     14  C   UNL     1      35.229  11.180  45.499  1.00  0.00     0.004 C 
BRANCH  14  15
ATOM     15  C   UNL     1      36.102  11.666  46.675  1.00  0.00     0.000 C 
BRANCH  15  16
ATOM     16  C   UNL     1      36.179  13.197  46.842  1.00  0.00     0.000 C 
BRANCH  16  17
ATOM     17  C   UNL     1      35.620  14.006  45.658  1.00  0.00    -0.000 C 
BRANCH  17  18
ATOM     18  C   UNL     1      36.368  15.332  45.436  1.00  0.00    -0.000 C 
BRANCH  18  19
ATOM     19  C   UNL     1      35.704  16.510  46.164  1.00  0.00    -0.003 C 
ATOM     20  C   UNL     1      36.359  17.851  45.833  1.00  0.00     0.004 C 
ENDBRANCH  18  19
ENDBRANCH  17  18
ENDBRANCH  16  17
ENDBRANCH  15  16
ENDBRANCH  14  15
ENDBRANCH  13  14
ENDBRANCH   2  13
TORSDOF 15
ENDMDL
MODEL 8
REMARK VINA RESULT:    -4.194      3.632      6.388
REMARK INTER + INTRA:          -9.657
REMARK INTER:                  -8.030
REMARK INTRA:                  -1.628
REMARK UNBOUND:                -1.786
REMARK SMILES CCCCCCCCC=CCCCCCCCC(=O)[O-]
REMARK SMILES IDX 10 1 9 2 11 3 12 4 13 5 14 6 15 7 16 8 17 9 18 10 19 11
REMARK SMILES IDX 20 12 8 13 7 14 6 15 5 16 4 17 3 18 2 19 1 20
REMARK H PARENT
REMARK Flexibility Score: inf
ROOT
ATOM      1  C   UNL     1      31.337   8.925  48.658  1.00  0.00    -0.031 C 
ATOM      2  C   UNL     1      32.127   7.890  48.336  1.00  0.00    -0.031 C 
ENDROOT
BRANCH   1   3
ATOM      3  C   UNL     1      31.816  10.346  48.542  1.00  0.00     0.027 C 
BRANCH   3   4
ATOM      4  C   UNL     1      33.289  10.468  48.953  1.00  0.00     0.004 C 
BRANCH   4   5
ATOM      5  C   UNL     1      34.197  10.585  47.721  1.00  0.00     0.000 C 
BRANCH   5   6
ATOM      6  C   UNL     1      35.279  11.664  47.883  1.00  0.00     0.000 C 
BRANCH   6   7
ATOM      7  C   UNL     1      36.176  11.795  46.642  1.00  0.00     0.000 C 
BRANCH   7   8
ATOM      8  C   UNL     1      35.821  13.058  45.842  1.00  0.00     0.006 C 
BRANCH   8   9
ATOM      9  C   UNL     1      36.686  14.260  46.241  1.00  0.00     0.053 C 
BRANCH   9  10
ATOM     10  C   UNL     1      35.863  15.364  46.831  1.00  0.00     0.041 C 
ATOM     11  O   UNL     1      35.392  15.253  47.994  1.00  0.00    -0.550 OA
ATOM     12  O   UNL     1      35.641  16.529  46.108  1.00  0.00    -0.550 OA
ENDBRANCH   9  10
ENDBRANCH   8   9
ENDBRANCH   7   8
ENDBRANCH   6   7
ENDBRANCH   5   6
ENDBRANCH   4   5
ENDBRANCH   3   4
ENDBRANCH   1   3
BRANCH   2  13
ATOM     13  C   UNL     1      31.642   6.468  48.427  1.00  0.00     0.027 C 
BRANCH  13  14
ATOM     14  C   UNL     1      32.696   5.453  47.953  1.00  0.00     0.004 C 
BRANCH  14  15
ATOM     15  C   UNL     1      34.013   6.086  47.459  1.00  0.00     0.000 C 
BRANCH  15  16
ATOM     16  C   UNL     1      34.403   5.735  46.009  1.00  0.00     0.000 C 
BRANCH  16  17
ATOM     17  C   UNL     1      33.862   6.703  44.941  1.00  0.00    -0.000 C 
BRANCH  17  18
ATOM     18  C   UNL     1      34.213   8.171  45.236  1.00  0.00    -0.000 C 
BRANCH  18  19
ATOM     19  C   UNL     1      34.674   8.929  43.982  1.00  0.00    -0.003 C 
ATOM     20  C   UNL     1      34.177  10.374  43.950  1.00  0.00     0.004 C 
ENDBRANCH  18  19
ENDBRANCH  17  18
ENDBRANCH  16  17
ENDBRANCH  15  16
ENDBRANCH  14  15
ENDBRANCH  13  14
ENDBRANCH   2  13
TORSDOF 15
ENDMDL
MODEL 9
REMARK VINA RESULT:    -4.166      4.360      7.939
REMARK INTER + INTRA:          -9.604
REMARK INTER:                  -8.001
REMARK INTRA:                  -1.603
REMARK UNBOUND:                -1.786
REMARK SMILES CCCCCCCCC=CCCCCCCCC(=O)[O-]
REMARK SMILES IDX 10 1 9 2 11 3 12 4 13 5 14 6 15 7 16 8 17 9 18 10 19 11
REMARK SMILES IDX 20 12 8 13 7 14 6 15 5 16 4 17 3 18 2 19 1 20
REMARK H PARENT
REMARK Flexibility Score: inf
ROOT
ATOM      1  C   UNL     1      33.985   9.994  47.323  1.00  0.00    -0.031 C 
ATOM      2  C   UNL     1      32.782   9.742  47.860  1.00  0.00    -0.031 C 
ENDROOT
BRANCH   1   3
ATOM      3  C   UNL     1      34.229   9.867  45.845  1.00  0.00     0.027 C 
BRANCH   3   4
ATOM      4  C   UNL     1      34.922  11.117  45.290  1.00  0.00     0.004 C 
BRANCH   4   5
ATOM      5  C   UNL     1      35.607  11.911  46.411  1.00  0.00     0.000 C 
BRANCH   5   6
ATOM      6  C   UNL     1      35.905  13.365  46.012  1.00  0.00     0.000 C 
BRANCH   6   7
ATOM      7  C   UNL     1      37.376  13.750  46.230  1.00  0.00     0.000 C 
BRANCH   7   8
ATOM      8  C   UNL     1      37.655  15.165  45.701  1.00  0.00     0.006 C 
BRANCH   8   9
ATOM      9  C   UNL     1      36.376  15.878  45.245  1.00  0.00     0.053 C 
BRANCH   9  10
ATOM     10  C   UNL     1      35.996  16.987  46.178  1.00  0.00     0.041 C 
ATOM     11  O   UNL     1      34.937  16.913  46.855  1.00  0.00    -0.550 OA
ATOM     12  O   UNL     1      36.828  18.090  46.320  1.00  0.00    -0.550 OA
ENDBRANCH   9  10
ENDBRANCH   8   9
ENDBRANCH   7   8
ENDBRANCH   6   7
ENDBRANCH   5   6
ENDBRANCH   4   5
ENDBRANCH   3   4
ENDBRANCH   1   3
BRANCH   2  13
ATOM     13  C   UNL     1      32.528   9.893  49.336  1.00  0.00     0.027 C 
BRANCH  13  14
ATOM     14  C   UNL     1      31.621   8.784  49.896  1.00  0.00     0.004 C 
BRANCH  14  15
ATOM     15  C   UNL     1      30.506   8.326  48.933  1.00  0.00     0.000 C 
BRANCH  15  16
ATOM     16  C   UNL     1      30.450   6.807  48.674  1.00  0.00     0.000 C 
BRANCH  16  17
ATOM     17  C   UNL     1      31.278   6.325  47.468  1.00  0.00    -0.000 C 
BRANCH  17  18
ATOM     18  C   UNL     1      32.561   5.587  47.884  1.00  0.00    -0.000 C 
BRANCH  18  19
ATOM     19  C   UNL     1      33.826   6.227  47.291  1.00  0.00    -0.003 C 
ATOM     20  C   UNL     1      33.731   6.429  45.779  1.00  0.00     0.004 C 
ENDBRANCH  18  19
ENDBRANCH  17  18
ENDBRANCH  16  17
ENDBRANCH  15  16
ENDBRANCH  14  15
ENDBRANCH  13  14
ENDBRANCH   2  13
TORSDOF 15
ENDMDL
