MODEL 1
REMARK VINA RESULT:    -5.749      0.000      0.000
REMARK INTER + INTRA:          -7.257
REMARK INTER:                  -6.925
REMARK INTRA:                  -0.331
REMARK UNBOUND:                -0.331
REMARK SMILES O=c1c(O)c(-c2ccc(O)c(O)c2)oc2cc(O)cc(O)c12
REMARK SMILES IDX 5 1 3 2 2 3 1 4 22 5 20 6 19 7 17 8 16 9 15 10 14 11 6 12
REMARK SMILES IDX 7 13 8 14 9 15 13 16 11 17 10 18 12 20 4 22 21 24 18 26
REMARK H PARENT 10 19 12 21 4 23 21 25 18 27
REMARK Flexibility Score: inf
ROOT
ATOM      1  C   UNL     1      76.128  15.133  49.787  1.00  0.00     0.180 A 
ATOM      2  C   UNL     1      76.254  16.496  50.110  1.00  0.00     0.208 A 
ATOM      3  C   UNL     1      76.216  17.447  49.078  1.00  0.00     0.238 A 
ATOM      4  O   UNL     1      76.383  18.660  49.367  1.00  0.00    -0.285 OA
ATOM      5  C   UNL     1      76.035  17.025  47.738  1.00  0.00     0.111 A 
ATOM      6  C   UNL     1      75.940  17.905  46.618  1.00  0.00     0.134 A 
ATOM      7  C   UNL     1      75.893  17.372  45.324  1.00  0.00     0.093 A 
ATOM      8  C   UNL     1      75.871  15.994  45.112  1.00  0.00     0.123 A 
ATOM      9  C   UNL     1      75.903  15.125  46.203  1.00  0.00     0.094 A 
ATOM     10  C   UNL     1      75.987  15.626  47.505  1.00  0.00     0.146 A 
ATOM     11  O   UNL     1      76.026  14.765  48.515  1.00  0.00    -0.452 OA
ENDROOT
BRANCH   1  12
ATOM     12  C   UNL     1      76.134  14.074  50.822  1.00  0.00     0.025 A 
ATOM     13  C   UNL     1      74.945  13.644  51.436  1.00  0.00     0.016 A 
ATOM     14  C   UNL     1      74.974  12.627  52.393  1.00  0.00     0.051 A 
ATOM     15  C   UNL     1      76.184  12.014  52.741  1.00  0.00     0.157 A 
ATOM     16  C   UNL     1      77.343  13.441  51.157  1.00  0.00     0.062 A 
ATOM     17  C   UNL     1      77.374  12.423  52.116  1.00  0.00     0.158 A 
BRANCH  15  18
ATOM     18  O   UNL     1      76.208  11.000  53.697  1.00  0.00    -0.504 OA
ATOM     19  H   UNL     1      76.190  11.206  54.688  1.00  0.00     0.293 HD
ENDBRANCH  15  18
BRANCH  17  20
ATOM     20  O   UNL     1      78.596  11.828  52.433  1.00  0.00    -0.504 OA
ATOM     21  H   UNL     1      79.146  11.330  51.743  1.00  0.00     0.293 HD
ENDBRANCH  17  20
ENDBRANCH   1  12
BRANCH   2  22
ATOM     22  O   UNL     1      76.453  16.888  51.437  1.00  0.00    -0.502 OA
ATOM     23  H   UNL     1      75.687  17.023  52.085  1.00  0.00     0.293 HD
ENDBRANCH   2  22
BRANCH   6  24
ATOM     24  O   UNL     1      75.862  19.297  46.723  1.00  0.00    -0.507 OA
ATOM     25  H   UNL     1      76.633  19.899  46.967  1.00  0.00     0.293 HD
ENDBRANCH   6  24
BRANCH   8  26
ATOM     26  O   UNL     1      75.808  15.499  43.812  1.00  0.00    -0.508 OA
ATOM     27  H   UNL     1      76.611  15.529  43.194  1.00  0.00     0.293 HD
ENDBRANCH   8  26
TORSDOF 6
ENDMDL
MODEL 2
REMARK VINA RESULT:    -5.642     11.544     12.491
REMARK INTER + INTRA:          -7.128
REMARK INTER:                  -6.865
REMARK INTRA:                  -0.263
REMARK UNBOUND:                -0.331
REMARK SMILES O=c1c(O)c(-c2ccc(O)c(O)c2)oc2cc(O)cc(O)c12
REMARK SMILES IDX 5 1 3 2 2 3 1 4 22 5 20 6 19 7 17 8 16 9 15 10 14 11 6 12
REMARK SMILES IDX 7 13 8 14 9 15 13 16 11 17 10 18 12 20 4 22 21 24 18 26
REMARK H PARENT 10 19 12 21 4 23 21 25 18 27
REMARK Flexibility Score: inf
ROOT
ATOM      1  C   UNL     1      81.399  25.138  44.872  1.00  0.00     0.180 A 
ATOM      2  C   UNL     1      80.413  25.785  44.107  1.00  0.00     0.208 A 
ATOM      3  C   UNL     1      80.129  25.308  42.818  1.00  0.00     0.238 A 
ATOM      4  O   UNL     1      79.285  25.924  42.118  1.00  0.00    -0.285 OA
ATOM      5  C   UNL     1      80.821  24.179  42.316  1.00  0.00     0.111 A 
ATOM      6  C   UNL     1      80.584  23.585  41.040  1.00  0.00     0.134 A 
ATOM      7  C   UNL     1      81.418  22.551  40.595  1.00  0.00     0.093 A 
ATOM      8  C   UNL     1      82.435  22.047  41.404  1.00  0.00     0.123 A 
ATOM      9  C   UNL     1      82.637  22.580  42.677  1.00  0.00     0.094 A 
ATOM     10  C   UNL     1      81.845  23.636  43.136  1.00  0.00     0.146 A 
ATOM     11  O   UNL     1      82.076  24.122  44.349  1.00  0.00    -0.452 OA
ENDROOT
BRANCH   1  12
ATOM     12  C   UNL     1      81.737  25.568  46.248  1.00  0.00     0.025 A 
ATOM     13  C   UNL     1      82.898  26.314  46.517  1.00  0.00     0.016 A 
ATOM     14  C   UNL     1      83.183  26.729  47.820  1.00  0.00     0.051 A 
ATOM     15  C   UNL     1      82.310  26.419  48.871  1.00  0.00     0.157 A 
ATOM     16  C   UNL     1      80.853  25.278  47.301  1.00  0.00     0.062 A 
ATOM     17  C   UNL     1      81.137  25.692  48.607  1.00  0.00     0.158 A 
BRANCH  15  18
ATOM     18  O   UNL     1      82.599  26.834  50.169  1.00  0.00    -0.504 OA
ATOM     19  H   UNL     1      82.234  27.701  50.543  1.00  0.00     0.293 HD
ENDBRANCH  15  18
BRANCH  17  20
ATOM     20  O   UNL     1      80.242  25.373  49.628  1.00  0.00    -0.504 OA
ATOM     21  H   UNL     1      80.540  24.912  50.480  1.00  0.00     0.293 HD
ENDBRANCH  17  20
ENDBRANCH   1  12
BRANCH   2  22
ATOM     22  O   UNL     1      79.758  26.912  44.613  1.00  0.00    -0.502 OA
ATOM     23  H   UNL     1      79.878  27.835  44.214  1.00  0.00     0.293 HD
ENDBRANCH   2  22
BRANCH   6  24
ATOM     24  O   UNL     1      79.536  23.951  40.191  1.00  0.00    -0.507 OA
ATOM     25  H   UNL     1      79.651  24.424  39.308  1.00  0.00     0.293 HD
ENDBRANCH   6  24
BRANCH   8  26
ATOM     26  O   UNL     1      83.235  21.008  40.935  1.00  0.00    -0.508 OA
ATOM     27  H   UNL     1      82.856  20.267  40.356  1.00  0.00     0.293 HD
ENDBRANCH   8  26
TORSDOF 6
ENDMDL
MODEL 3
REMARK VINA RESULT:    -5.641     11.248     12.441
REMARK INTER + INTRA:          -7.127
REMARK INTER:                  -6.897
REMARK INTRA:                  -0.230
REMARK UNBOUND:                -0.331
REMARK SMILES O=c1c(O)c(-c2ccc(O)c(O)c2)oc2cc(O)cc(O)c12
REMARK SMILES IDX 5 1 3 2 2 3 1 4 22 5 20 6 19 7 17 8 16 9 15 10 14 11 6 12
REMARK SMILES IDX 7 13 8 14 9 15 13 16 11 17 10 18 12 20 4 22 21 24 18 26
REMARK H PARENT 10 19 12 21 4 23 21 25 18 27
REMARK Flexibility Score: inf
ROOT
ATOM      1  C   UNL     1      80.517  25.980  46.568  1.00  0.00     0.180 A 
ATOM      2  C   UNL     1      81.875  26.323  46.689  1.00  0.00     0.208 A 
ATOM      3  C   UNL     1      82.798  25.785  45.778  1.00  0.00     0.238 A 
ATOM      4  O   UNL     1      84.018  26.052  45.925  1.00  0.00    -0.285 OA
ATOM      5  C   UNL     1      82.349  24.924  44.747  1.00  0.00     0.111 A 
ATOM      6  C   UNL     1      83.190  24.354  43.745  1.00  0.00     0.134 A 
ATOM      7  C   UNL     1      82.661  23.413  42.853  1.00  0.00     0.093 A 
ATOM      8  C   UNL     1      81.310  23.071  42.884  1.00  0.00     0.123 A 
ATOM      9  C   UNL     1      80.466  23.667  43.822  1.00  0.00     0.094 A 
ATOM     10  C   UNL     1      80.972  24.582  44.748  1.00  0.00     0.146 A 
ATOM     11  O   UNL     1      80.137  25.119  45.631  1.00  0.00    -0.452 OA
ENDROOT
BRANCH   1  12
ATOM     12  C   UNL     1      79.482  26.526  47.475  1.00  0.00     0.025 A 
ATOM     13  C   UNL     1      78.531  27.458  47.023  1.00  0.00     0.016 A 
ATOM     14  C   UNL     1      77.549  27.941  47.892  1.00  0.00     0.051 A 
ATOM     15  C   UNL     1      77.492  27.493  49.217  1.00  0.00     0.157 A 
ATOM     16  C   UNL     1      79.408  26.062  48.799  1.00  0.00     0.062 A 
ATOM     17  C   UNL     1      78.426  26.546  49.671  1.00  0.00     0.158 A 
BRANCH  15  18
ATOM     18  O   UNL     1      76.512  27.979  50.081  1.00  0.00    -0.504 OA
ATOM     19  H   UNL     1      76.477  27.700  51.054  1.00  0.00     0.293 HD
ENDBRANCH  15  18
BRANCH  17  20
ATOM     20  O   UNL     1      78.393  26.072  50.982  1.00  0.00    -0.504 OA
ATOM     21  H   UNL     1      77.522  25.870  51.460  1.00  0.00     0.293 HD
ENDBRANCH  17  20
ENDBRANCH   1  12
BRANCH   2  22
ATOM     22  O   UNL     1      82.299  27.157  47.727  1.00  0.00    -0.502 OA
ATOM     23  H   UNL     1      82.162  26.923  48.703  1.00  0.00     0.293 HD
ENDBRANCH   2  22
BRANCH   6  24
ATOM     24  O   UNL     1      84.535  24.696  43.566  1.00  0.00    -0.507 OA
ATOM     25  H   UNL     1      85.257  24.566  44.258  1.00  0.00     0.293 HD
ENDBRANCH   6  24
BRANCH   8  26
ATOM     26  O   UNL     1      80.815  22.142  41.972  1.00  0.00    -0.508 OA
ATOM     27  H   UNL     1      81.402  21.410  41.589  1.00  0.00     0.293 HD
ENDBRANCH   8  26
TORSDOF 6
ENDMDL
MODEL 4
REMARK VINA RESULT:    -5.476      9.653     13.116
REMARK INTER + INTRA:          -6.927
REMARK INTER:                  -6.614
REMARK INTRA:                  -0.313
REMARK UNBOUND:                -0.331
REMARK SMILES O=c1c(O)c(-c2ccc(O)c(O)c2)oc2cc(O)cc(O)c12
REMARK SMILES IDX 5 1 3 2 2 3 1 4 22 5 20 6 19 7 17 8 16 9 15 10 14 11 6 12
REMARK SMILES IDX 7 13 8 14 9 15 13 16 11 17 10 18 12 20 4 22 21 24 18 26
REMARK H PARENT 10 19 12 21 4 23 21 25 18 27
REMARK Flexibility Score: inf
ROOT
ATOM      1  C   UNL     1      80.415  25.309  44.762  1.00  0.00     0.180 A 
ATOM      2  C   UNL     1      81.406  26.168  45.268  1.00  0.00     0.208 A 
ATOM      3  C   UNL     1      81.554  26.293  46.659  1.00  0.00     0.238 A 
ATOM      4  O   UNL     1      82.406  27.104  47.106  1.00  0.00    -0.285 OA
ATOM      5  C   UNL     1      80.722  25.543  47.526  1.00  0.00     0.111 A 
ATOM      6  C   UNL     1      80.812  25.560  48.950  1.00  0.00     0.134 A 
ATOM      7  C   UNL     1      79.853  24.880  49.711  1.00  0.00     0.093 A 
ATOM      8  C   UNL     1      78.848  24.131  49.100  1.00  0.00     0.123 A 
ATOM      9  C   UNL     1      78.787  24.059  47.708  1.00  0.00     0.094 A 
ATOM     10  C   UNL     1      79.707  24.756  46.921  1.00  0.00     0.146 A 
ATOM     11  O   UNL     1      79.608  24.670  45.600  1.00  0.00    -0.452 OA
ENDROOT
BRANCH   1  12
ATOM     12  C   UNL     1      80.215  25.107  43.309  1.00  0.00     0.025 A 
ATOM     13  C   UNL     1      79.426  25.989  42.549  1.00  0.00     0.016 A 
ATOM     14  C   UNL     1      79.272  25.791  41.175  1.00  0.00     0.051 A 
ATOM     15  C   UNL     1      79.911  24.722  40.536  1.00  0.00     0.157 A 
ATOM     16  C   UNL     1      80.872  24.048  42.660  1.00  0.00     0.062 A 
ATOM     17  C   UNL     1      80.718  23.848  41.284  1.00  0.00     0.158 A 
BRANCH  15  18
ATOM     18  O   UNL     1      79.753  24.527  39.165  1.00  0.00    -0.504 OA
ATOM     19  H   UNL     1      80.519  24.664  38.518  1.00  0.00     0.293 HD
ENDBRANCH  15  18
BRANCH  17  20
ATOM     20  O   UNL     1      81.375  22.777  40.678  1.00  0.00    -0.504 OA
ATOM     21  H   UNL     1      80.992  22.297  39.872  1.00  0.00     0.293 HD
ENDBRANCH  17  20
ENDBRANCH   1  12
BRANCH   2  22
ATOM     22  O   UNL     1      82.201  26.915  44.395  1.00  0.00    -0.502 OA
ATOM     23  H   UNL     1      82.476  26.572  43.482  1.00  0.00     0.293 HD
ENDBRANCH   2  22
BRANCH   6  24
ATOM     24  O   UNL     1      81.832  26.201  49.660  1.00  0.00    -0.507 OA
ATOM     25  H   UNL     1      81.812  27.168  49.946  1.00  0.00     0.293 HD
ENDBRANCH   6  24
BRANCH   8  26
ATOM     26  O   UNL     1      77.920  23.455  49.888  1.00  0.00    -0.508 OA
ATOM     27  H   UNL     1      77.205  23.951  50.409  1.00  0.00     0.293 HD
ENDBRANCH   8  26
TORSDOF 6
ENDMDL
MODEL 5
REMARK VINA RESULT:    -5.444     10.297     11.646
REMARK INTER + INTRA:          -6.889
REMARK INTER:                  -6.589
REMARK INTRA:                  -0.300
REMARK UNBOUND:                -0.331
REMARK SMILES O=c1c(O)c(-c2ccc(O)c(O)c2)oc2cc(O)cc(O)c12
REMARK SMILES IDX 5 1 3 2 2 3 1 4 22 5 20 6 19 7 17 8 16 9 15 10 14 11 6 12
REMARK SMILES IDX 7 13 8 14 9 15 13 16 11 17 10 18 12 20 4 22 21 24 18 26
REMARK H PARENT 10 19 12 21 4 23 21 25 18 27
REMARK Flexibility Score: inf
ROOT
ATOM      1  C   UNL     1      80.194  25.353  47.771  1.00  0.00     0.180 A 
ATOM      2  C   UNL     1      81.486  25.904  47.831  1.00  0.00     0.208 A 
ATOM      3  C   UNL     1      82.314  25.822  46.700  1.00  0.00     0.238 A 
ATOM      4  O   UNL     1      83.488  26.268  46.777  1.00  0.00    -0.285 OA
ATOM      5  C   UNL     1      81.835  25.206  45.519  1.00  0.00     0.111 A 
ATOM      6  C   UNL     1      82.573  25.103  44.302  1.00  0.00     0.134 A 
ATOM      7  C   UNL     1      82.050  24.358  43.238  1.00  0.00     0.093 A 
ATOM      8  C   UNL     1      80.789  23.768  43.322  1.00  0.00     0.123 A 
ATOM      9  C   UNL     1      80.033  23.913  44.486  1.00  0.00     0.094 A 
ATOM     10  C   UNL     1      80.544  24.620  45.578  1.00  0.00     0.146 A 
ATOM     11  O   UNL     1      79.797  24.724  46.671  1.00  0.00    -0.452 OA
ENDROOT
BRANCH   1  12
ATOM     12  C   UNL     1      79.254  25.422  48.914  1.00  0.00     0.025 A 
ATOM     13  C   UNL     1      79.332  24.512  49.982  1.00  0.00     0.016 A 
ATOM     14  C   UNL     1      78.450  24.612  51.060  1.00  0.00     0.051 A 
ATOM     15  C   UNL     1      77.488  25.629  51.097  1.00  0.00     0.157 A 
ATOM     16  C   UNL     1      78.302  26.454  48.965  1.00  0.00     0.062 A 
ATOM     17  C   UNL     1      77.416  26.555  50.043  1.00  0.00     0.158 A 
BRANCH  15  18
ATOM     18  O   UNL     1      76.608  25.724  52.174  1.00  0.00    -0.504 OA
ATOM     19  H   UNL     1      75.669  25.348  52.126  1.00  0.00     0.293 HD
ENDBRANCH  15  18
BRANCH  17  20
ATOM     20  O   UNL     1      76.475  27.585  50.052  1.00  0.00    -0.504 OA
ATOM     21  H   UNL     1      76.618  28.449  49.541  1.00  0.00     0.293 HD
ENDBRANCH  17  20
ENDBRANCH   1  12
BRANCH   2  22
ATOM     22  O   UNL     1      81.947  26.488  49.014  1.00  0.00    -0.502 OA
ATOM     23  H   UNL     1      82.786  27.054  49.050  1.00  0.00     0.293 HD
ENDBRANCH   2  22
BRANCH   6  24
ATOM     24  O   UNL     1      83.802  25.732  44.079  1.00  0.00    -0.507 OA
ATOM     25  H   UNL     1      83.923  26.587  43.558  1.00  0.00     0.293 HD
ENDBRANCH   6  24
BRANCH   8  26
ATOM     26  O   UNL     1      80.294  23.047  42.239  1.00  0.00    -0.508 OA
ATOM     27  H   UNL     1      80.189  22.040  42.276  1.00  0.00     0.293 HD
ENDBRANCH   8  26
TORSDOF 6
ENDMDL
MODEL 6
REMARK VINA RESULT:    -5.343     10.161     11.197
REMARK INTER + INTRA:          -6.767
REMARK INTER:                  -6.596
REMARK INTRA:                  -0.171
REMARK UNBOUND:                -0.331
REMARK SMILES O=c1c(O)c(-c2ccc(O)c(O)c2)oc2cc(O)cc(O)c12
REMARK SMILES IDX 5 1 3 2 2 3 1 4 22 5 20 6 19 7 17 8 16 9 15 10 14 11 6 12
REMARK SMILES IDX 7 13 8 14 9 15 13 16 11 17 10 18 12 20 4 22 21 24 18 26
REMARK H PARENT 10 19 12 21 4 23 21 25 18 27
REMARK Flexibility Score: inf
ROOT
ATOM      1  C   UNL     1      79.757  24.621  45.560  1.00  0.00     0.180 A 
ATOM      2  C   UNL     1      81.039  24.661  44.984  1.00  0.00     0.208 A 
ATOM      3  C   UNL     1      81.230  24.107  43.708  1.00  0.00     0.238 A 
ATOM      4  O   UNL     1      82.390  24.097  43.221  1.00  0.00    -0.285 OA
ATOM      5  C   UNL     1      80.135  23.535  43.017  1.00  0.00     0.111 A 
ATOM      6  C   UNL     1      80.205  22.982  41.703  1.00  0.00     0.134 A 
ATOM      7  C   UNL     1      79.089  22.325  41.170  1.00  0.00     0.093 A 
ATOM      8  C   UNL     1      77.887  22.260  41.873  1.00  0.00     0.123 A 
ATOM      9  C   UNL     1      77.789  22.850  43.134  1.00  0.00     0.094 A 
ATOM     10  C   UNL     1      78.896  23.480  43.708  1.00  0.00     0.146 A 
ATOM     11  O   UNL     1      78.764  24.020  44.914  1.00  0.00    -0.452 OA
ENDROOT
BRANCH   1  12
ATOM     12  C   UNL     1      79.472  25.206  46.890  1.00  0.00     0.025 A 
ATOM     13  C   UNL     1      78.601  26.300  47.037  1.00  0.00     0.016 A 
ATOM     14  C   UNL     1      78.329  26.820  48.305  1.00  0.00     0.051 A 
ATOM     15  C   UNL     1      78.908  26.248  49.445  1.00  0.00     0.157 A 
ATOM     16  C   UNL     1      80.033  24.622  48.038  1.00  0.00     0.062 A 
ATOM     17  C   UNL     1      79.763  25.141  49.308  1.00  0.00     0.158 A 
BRANCH  15  18
ATOM     18  O   UNL     1      78.636  26.771  50.707  1.00  0.00    -0.504 OA
ATOM     19  H   UNL     1      78.015  27.561  50.832  1.00  0.00     0.293 HD
ENDBRANCH  15  18
BRANCH  17  20
ATOM     20  O   UNL     1      80.351  24.543  50.423  1.00  0.00    -0.504 OA
ATOM     21  H   UNL     1      80.786  25.087  51.159  1.00  0.00     0.293 HD
ENDBRANCH  17  20
ENDBRANCH   1  12
BRANCH   2  22
ATOM     22  O   UNL     1      82.111  25.211  45.693  1.00  0.00    -0.502 OA
ATOM     23  H   UNL     1      82.009  25.583  46.629  1.00  0.00     0.293 HD
ENDBRANCH   2  22
BRANCH   6  24
ATOM     24  O   UNL     1      81.330  23.073  40.877  1.00  0.00    -0.507 OA
ATOM     25  H   UNL     1      81.380  23.624  40.034  1.00  0.00     0.293 HD
ENDBRANCH   6  24
BRANCH   8  26
ATOM     26  O   UNL     1      76.793  21.613  41.305  1.00  0.00    -0.508 OA
ATOM     27  H   UNL     1      76.812  20.621  41.099  1.00  0.00     0.293 HD
ENDBRANCH   8  26
TORSDOF 6
ENDMDL
MODEL 7
REMARK VINA RESULT:    -5.305     10.927     11.956
REMARK INTER + INTRA:          -6.722
REMARK INTER:                  -6.556
REMARK INTRA:                  -0.166
REMARK UNBOUND:                -0.331
REMARK SMILES O=c1c(O)c(-c2ccc(O)c(O)c2)oc2cc(O)cc(O)c12
REMARK SMILES IDX 5 1 3 2 2 3 1 4 22 5 20 6 19 7 17 8 16 9 15 10 14 11 6 12
REMARK SMILES IDX 7 13 8 14 9 15 13 16 11 17 10 18 12 20 4 22 21 24 18 26
REMARK H PARENT 10 19 12 21 4 23 21 25 18 27
REMARK Flexibility Score: inf
ROOT
ATOM      1  C   UNL     1      80.662  24.853  45.156  1.00  0.00     0.180 A 
ATOM      2  C   UNL     1      81.483  24.231  44.198  1.00  0.00     0.208 A 
ATOM      3  C   UNL     1      80.911  23.792  42.993  1.00  0.00     0.238 A 
ATOM      4  O   UNL     1      81.639  23.188  42.164  1.00  0.00    -0.285 OA
ATOM      5  C   UNL     1      79.531  23.996  42.753  1.00  0.00     0.111 A 
ATOM      6  C   UNL     1      78.855  23.628  41.551  1.00  0.00     0.134 A 
ATOM      7  C   UNL     1      77.463  23.759  41.474  1.00  0.00     0.093 A 
ATOM      8  C   UNL     1      76.731  24.303  42.529  1.00  0.00     0.123 A 
ATOM      9  C   UNL     1      77.389  24.721  43.686  1.00  0.00     0.094 A 
ATOM     10  C   UNL     1      78.773  24.571  43.806  1.00  0.00     0.146 A 
ATOM     11  O   UNL     1      79.359  24.972  44.928  1.00  0.00    -0.452 OA
ENDROOT
BRANCH   1  12
ATOM     12  C   UNL     1      81.197  25.365  46.439  1.00  0.00     0.025 A 
ATOM     13  C   UNL     1      82.161  26.386  46.474  1.00  0.00     0.016 A 
ATOM     14  C   UNL     1      82.633  26.869  47.698  1.00  0.00     0.051 A 
ATOM     15  C   UNL     1      82.139  26.351  48.902  1.00  0.00     0.157 A 
ATOM     16  C   UNL     1      80.688  24.863  47.649  1.00  0.00     0.062 A 
ATOM     17  C   UNL     1      81.160  25.344  48.875  1.00  0.00     0.158 A 
BRANCH  15  18
ATOM     18  O   UNL     1      82.614  26.834  50.120  1.00  0.00    -0.504 OA
ATOM     19  H   UNL     1      82.053  26.791  50.962  1.00  0.00     0.293 HD
ENDBRANCH  15  18
BRANCH  17  20
ATOM     20  O   UNL     1      80.641  24.812  50.055  1.00  0.00    -0.504 OA
ATOM     21  H   UNL     1      80.451  23.822  50.161  1.00  0.00     0.293 HD
ENDBRANCH  17  20
ENDBRANCH   1  12
BRANCH   2  22
ATOM     22  O   UNL     1      82.838  24.020  44.466  1.00  0.00    -0.502 OA
ATOM     23  H   UNL     1      83.199  23.126  44.775  1.00  0.00     0.293 HD
ENDBRANCH   2  22
BRANCH   6  24
ATOM     24  O   UNL     1      79.502  23.160  40.403  1.00  0.00    -0.507 OA
ATOM     25  H   UNL     1      79.052  22.655  39.656  1.00  0.00     0.293 HD
ENDBRANCH   6  24
BRANCH   8  26
ATOM     26  O   UNL     1      75.349  24.432  42.412  1.00  0.00    -0.508 OA
ATOM     27  H   UNL     1      74.772  24.692  43.203  1.00  0.00     0.293 HD
ENDBRANCH   8  26
TORSDOF 6
ENDMDL
MODEL 8
REMARK VINA RESULT:    -5.305      1.549      6.626
REMARK INTER + INTRA:          -6.722
REMARK INTER:                  -6.406
REMARK INTRA:                  -0.316
REMARK UNBOUND:                -0.331
REMARK SMILES O=c1c(O)c(-c2ccc(O)c(O)c2)oc2cc(O)cc(O)c12
REMARK SMILES IDX 5 1 3 2 2 3 1 4 22 5 20 6 19 7 17 8 16 9 15 10 14 11 6 12
REMARK SMILES IDX 7 13 8 14 9 15 13 16 11 17 10 18 12 20 4 22 21 24 18 26
REMARK H PARENT 10 19 12 21 4 23 21 25 18 27
REMARK Flexibility Score: inf
ROOT
ATOM      1  C   UNL     1      75.836  16.306  48.147  1.00  0.00     0.180 A 
ATOM      2  C   UNL     1      76.036  17.578  48.710  1.00  0.00     0.208 A 
ATOM      3  C   UNL     1      76.293  17.681  50.087  1.00  0.00     0.238 A 
ATOM      4  O   UNL     1      76.417  18.825  50.594  1.00  0.00    -0.285 OA
ATOM      5  C   UNL     1      76.363  16.510  50.879  1.00  0.00     0.111 A 
ATOM      6  C   UNL     1      76.658  16.494  52.276  1.00  0.00     0.134 A 
ATOM      7  C   UNL     1      76.573  15.289  52.985  1.00  0.00     0.093 A 
ATOM      8  C   UNL     1      76.269  14.092  52.338  1.00  0.00     0.123 A 
ATOM      9  C   UNL     1      76.039  14.087  50.963  1.00  0.00     0.094 A 
ATOM     10  C   UNL     1      76.080  15.278  50.234  1.00  0.00     0.146 A 
ATOM     11  O   UNL     1      75.844  15.232  48.928  1.00  0.00    -0.452 OA
ENDROOT
BRANCH   1  12
ATOM     12  C   UNL     1      75.584  16.115  46.700  1.00  0.00     0.025 A 
ATOM     13  C   UNL     1      76.625  15.788  45.814  1.00  0.00     0.016 A 
ATOM     14  C   UNL     1      76.360  15.589  44.456  1.00  0.00     0.051 A 
ATOM     15  C   UNL     1      75.052  15.700  43.966  1.00  0.00     0.157 A 
ATOM     16  C   UNL     1      74.271  16.204  46.208  1.00  0.00     0.062 A 
ATOM     17  C   UNL     1      74.003  16.006  44.849  1.00  0.00     0.158 A 
BRANCH  15  18
ATOM     18  O   UNL     1      74.792  15.503  42.611  1.00  0.00    -0.504 OA
ATOM     19  H   UNL     1      74.229  16.155  42.079  1.00  0.00     0.293 HD
ENDBRANCH  15  18
BRANCH  17  20
ATOM     20  O   UNL     1      72.688  16.117  44.396  1.00  0.00    -0.504 OA
ATOM     21  H   UNL     1      72.129  15.304  44.164  1.00  0.00     0.293 HD
ENDBRANCH  17  20
ENDBRANCH   1  12
BRANCH   2  22
ATOM     22  O   UNL     1      75.940  18.723  47.913  1.00  0.00    -0.502 OA
ATOM     23  H   UNL     1      75.472  18.721  47.014  1.00  0.00     0.293 HD
ENDBRANCH   2  22
BRANCH   6  24
ATOM     24  O   UNL     1      77.063  17.618  53.002  1.00  0.00    -0.507 OA
ATOM     25  H   UNL     1      78.012  17.956  53.056  1.00  0.00     0.293 HD
ENDBRANCH   6  24
BRANCH   8  26
ATOM     26  O   UNL     1      76.209  12.910  53.073  1.00  0.00    -0.508 OA
ATOM     27  H   UNL     1      77.029  12.525  53.527  1.00  0.00     0.293 HD
ENDBRANCH   8  26
TORSDOF 6
ENDMDL
MODEL 9
REMARK VINA RESULT:    -5.163      4.133      9.388
REMARK INTER + INTRA:          -6.550
REMARK INTER:                  -6.229
REMARK INTRA:                  -0.321
REMARK UNBOUND:                -0.331
REMARK SMILES O=c1c(O)c(-c2ccc(O)c(O)c2)oc2cc(O)cc(O)c12
REMARK SMILES IDX 5 1 3 2 2 3 1 4 22 5 20 6 19 7 17 8 16 9 15 10 14 11 6 12
REMARK SMILES IDX 7 13 8 14 9 15 13 16 11 17 10 18 12 20 4 22 21 24 18 26
REMARK H PARENT 10 19 12 21 4 23 21 25 18 27
REMARK Flexibility Score: inf
ROOT
ATOM      1  C   UNL     1      73.969  18.486  43.961  1.00  0.00     0.180 A 
ATOM      2  C   UNL     1      73.590  17.171  44.285  1.00  0.00     0.208 A 
ATOM      3  C   UNL     1      73.971  16.638  45.526  1.00  0.00     0.238 A 
ATOM      4  O   UNL     1      73.676  15.444  45.788  1.00  0.00    -0.285 OA
ATOM      5  C   UNL     1      74.711  17.432  46.436  1.00  0.00     0.111 A 
ATOM      6  C   UNL     1      75.116  17.008  47.737  1.00  0.00     0.134 A 
ATOM      7  C   UNL     1      75.956  17.828  48.501  1.00  0.00     0.093 A 
ATOM      8  C   UNL     1      76.353  19.082  48.038  1.00  0.00     0.123 A 
ATOM      9  C   UNL     1      75.915  19.532  46.792  1.00  0.00     0.094 A 
ATOM     10  C   UNL     1      75.105  18.721  45.992  1.00  0.00     0.146 A 
ATOM     11  O   UNL     1      74.718  19.182  44.808  1.00  0.00    -0.452 OA
ENDROOT
BRANCH   1  12
ATOM     12  C   UNL     1      73.583  19.125  42.682  1.00  0.00     0.025 A 
ATOM     13  C   UNL     1      72.441  19.939  42.585  1.00  0.00     0.016 A 
ATOM     14  C   UNL     1      72.111  20.550  41.373  1.00  0.00     0.051 A 
ATOM     15  C   UNL     1      72.922  20.372  40.245  1.00  0.00     0.157 A 
ATOM     16  C   UNL     1      74.406  18.966  41.554  1.00  0.00     0.062 A 
ATOM     17  C   UNL     1      74.077  19.577  40.339  1.00  0.00     0.158 A 
BRANCH  15  18
ATOM     18  O   UNL     1      72.588  20.982  39.038  1.00  0.00    -0.504 OA
ATOM     19  H   UNL     1      71.664  20.889  38.634  1.00  0.00     0.293 HD
ENDBRANCH  15  18
BRANCH  17  20
ATOM     20  O   UNL     1      74.911  19.384  39.237  1.00  0.00    -0.504 OA
ATOM     21  H   UNL     1      74.610  18.867  38.419  1.00  0.00     0.293 HD
ENDBRANCH  17  20
ENDBRANCH   1  12
BRANCH   2  22
ATOM     22  O   UNL     1      72.878  16.398  43.363  1.00  0.00    -0.502 OA
ATOM     23  H   UNL     1      72.048  15.876  43.617  1.00  0.00     0.293 HD
ENDBRANCH   2  22
BRANCH   6  24
ATOM     24  O   UNL     1      74.700  15.814  48.334  1.00  0.00    -0.507 OA
ATOM     25  H   UNL     1      74.369  15.005  47.830  1.00  0.00     0.293 HD
ENDBRANCH   6  24
BRANCH   8  26
ATOM     26  O   UNL     1      77.177  19.878  48.830  1.00  0.00    -0.508 OA
ATOM     27  H   UNL     1      77.132  19.846  49.842  1.00  0.00     0.293 HD
ENDBRANCH   8  26
TORSDOF 6
ENDMDL
