MODEL 1
REMARK VINA RESULT:    -4.570      0.000      0.000
REMARK INTER + INTRA:         -14.023
REMARK INTER:                 -10.448
REMARK INTRA:                  -3.574
REMARK UNBOUND:                -3.574
REMARK SMILES CCCCCCCCCCCCCCCCCCCCCCCC(=O)[O-]
REMARK SMILES IDX 13 1 14 2 15 3 16 4 17 5 18 6 19 7 20 8 21 9 22 10 23 11
REMARK SMILES IDX 24 12 25 13 26 14 12 15 11 16 10 17 9 18 8 19 7 20 6 21 5 22
REMARK SMILES IDX 4 23 3 24 2 25 1 26
REMARK H PARENT
REMARK Flexibility Score: inf
ROOT
ATOM      1  C   UNL     1      56.780  21.374  53.162  1.00  0.00     0.000 C 
ENDROOT
BRANCH   1   2
ATOM      2  C   UNL     1      56.316  20.996  54.581  1.00  0.00     0.000 C 
BRANCH   2   3
ATOM      3  C   UNL     1      56.752  21.973  55.687  1.00  0.00     0.000 C 
BRANCH   3   4
ATOM      4  C   UNL     1      55.566  22.700  56.344  1.00  0.00     0.000 C 
BRANCH   4   5
ATOM      5  C   UNL     1      55.169  23.978  55.586  1.00  0.00     0.000 C 
BRANCH   5   6
ATOM      6  C   UNL     1      53.714  23.944  55.094  1.00  0.00     0.000 C 
BRANCH   6   7
ATOM      7  C   UNL     1      53.052  22.599  55.428  1.00  0.00     0.000 C 
BRANCH   7   8
ATOM      8  C   UNL     1      52.587  21.841  54.174  1.00  0.00     0.000 C 
BRANCH   8   9
ATOM      9  C   UNL     1      51.380  22.506  53.496  1.00  0.00     0.000 C 
BRANCH   9  10
ATOM     10  C   UNL     1      50.070  21.835  53.929  1.00  0.00     0.006 C 
BRANCH  10  11
ATOM     11  C   UNL     1      48.992  22.880  54.236  1.00  0.00     0.053 C 
BRANCH  11  12
ATOM     12  C   UNL     1      47.928  22.293  55.109  1.00  0.00     0.041 C 
ATOM     13  O   UNL     1      47.415  22.980  56.031  1.00  0.00    -0.550 OA
ATOM     14  O   UNL     1      47.542  20.969  54.941  1.00  0.00    -0.550 OA
ENDBRANCH  11  12
ENDBRANCH  10  11
ENDBRANCH   9  10
ENDBRANCH   8   9
ENDBRANCH   7   8
ENDBRANCH   6   7
ENDBRANCH   5   6
ENDBRANCH   4   5
ENDBRANCH   3   4
ENDBRANCH   2   3
ENDBRANCH   1   2
BRANCH   1  15
ATOM     15  C   UNL     1      55.705  22.131  52.363  1.00  0.00     0.000 C 
BRANCH  15  16
ATOM     16  C   UNL     1      56.168  23.534  51.940  1.00  0.00     0.000 C 
BRANCH  16  17
ATOM     17  C   UNL     1      54.992  24.503  51.733  1.00  0.00     0.000 C 
BRANCH  17  18
ATOM     18  C   UNL     1      53.776  23.829  51.074  1.00  0.00    -0.000 C 
BRANCH  18  19
ATOM     19  C   UNL     1      53.325  24.458  49.738  1.00  0.00    -0.000 C 
BRANCH  19  20
ATOM     20  C   UNL     1      53.782  23.714  48.470  1.00  0.00    -0.000 C 
BRANCH  20  21
ATOM     21  C   UNL     1      54.647  24.582  47.543  1.00  0.00    -0.000 C 
BRANCH  21  22
ATOM     22  C   UNL     1      56.085  24.056  47.403  1.00  0.00    -0.000 C 
BRANCH  22  23
ATOM     23  C   UNL     1      56.412  22.881  48.351  1.00  0.00    -0.000 C 
BRANCH  23  24
ATOM     24  C   UNL     1      56.892  21.635  47.586  1.00  0.00    -0.000 C 
BRANCH  24  25
ATOM     25  C   UNL     1      56.783  20.351  48.421  1.00  0.00    -0.003 C 
ATOM     26  C   UNL     1      55.629  20.392  49.422  1.00  0.00     0.004 C 
ENDBRANCH  24  25
ENDBRANCH  23  24
ENDBRANCH  22  23
ENDBRANCH  21  22
ENDBRANCH  20  21
ENDBRANCH  19  20
ENDBRANCH  18  19
ENDBRANCH  17  18
ENDBRANCH  16  17
ENDBRANCH  15  16
ENDBRANCH   1  15
TORSDOF 22
ENDMDL
MODEL 2
REMARK VINA RESULT:    -4.524      1.165      2.218
REMARK INTER + INTRA:         -13.916
REMARK INTER:                 -10.251
REMARK INTRA:                  -3.665
REMARK UNBOUND:                -3.574
REMARK SMILES CCCCCCCCCCCCCCCCCCCCCCCC(=O)[O-]
REMARK SMILES IDX 13 1 14 2 15 3 16 4 17 5 18 6 19 7 20 8 21 9 22 10 23 11
REMARK SMILES IDX 24 12 25 13 26 14 12 15 11 16 10 17 9 18 8 19 7 20 6 21 5 22
REMARK SMILES IDX 4 23 3 24 2 25 1 26
REMARK H PARENT
REMARK Flexibility Score: inf
ROOT
ATOM      1  C   UNL     1      55.051  22.401  52.145  1.00  0.00     0.000 C 
ENDROOT
BRANCH   1   2
ATOM      2  C   UNL     1      56.136  21.369  52.502  1.00  0.00     0.000 C 
BRANCH   2   3
ATOM      3  C   UNL     1      57.081  21.789  53.643  1.00  0.00     0.000 C 
BRANCH   3   4
ATOM      4  C   UNL     1      56.660  21.217  55.008  1.00  0.00     0.000 C 
BRANCH   4   5
ATOM      5  C   UNL     1      56.334  22.318  56.031  1.00  0.00     0.000 C 
BRANCH   5   6
ATOM      6  C   UNL     1      56.385  23.726  55.418  1.00  0.00     0.000 C 
BRANCH   6   7
ATOM      7  C   UNL     1      54.983  24.348  55.353  1.00  0.00     0.000 C 
BRANCH   7   8
ATOM      8  C   UNL     1      53.897  23.417  55.916  1.00  0.00     0.000 C 
BRANCH   8   9
ATOM      9  C   UNL     1      52.574  23.517  55.143  1.00  0.00     0.000 C 
BRANCH   9  10
ATOM     10  C   UNL     1      52.273  22.210  54.400  1.00  0.00     0.006 C 
BRANCH  10  11
ATOM     11  C   UNL     1      51.438  22.472  53.141  1.00  0.00     0.053 C 
BRANCH  11  12
ATOM     12  C   UNL     1      50.004  22.119  53.381  1.00  0.00     0.041 C 
ATOM     13  O   UNL     1      49.155  22.259  52.462  1.00  0.00    -0.550 OA
ATOM     14  O   UNL     1      49.595  21.687  54.637  1.00  0.00    -0.550 OA
ENDBRANCH  11  12
ENDBRANCH  10  11
ENDBRANCH   9  10
ENDBRANCH   8   9
ENDBRANCH   7   8
ENDBRANCH   6   7
ENDBRANCH   5   6
ENDBRANCH   4   5
ENDBRANCH   3   4
ENDBRANCH   2   3
ENDBRANCH   1   2
BRANCH   1  15
ATOM     15  C   UNL     1      55.635  23.747  51.682  1.00  0.00     0.000 C 
BRANCH  15  16
ATOM     16  C   UNL     1      54.549  24.810  51.452  1.00  0.00     0.000 C 
BRANCH  16  17
ATOM     17  C   UNL     1      53.415  24.304  50.545  1.00  0.00     0.000 C 
BRANCH  17  18
ATOM     18  C   UNL     1      53.362  25.040  49.194  1.00  0.00    -0.000 C 
BRANCH  18  19
ATOM     19  C   UNL     1      53.885  24.232  47.988  1.00  0.00    -0.000 C 
BRANCH  19  20
ATOM     20  C   UNL     1      54.720  25.029  46.970  1.00  0.00    -0.000 C 
BRANCH  20  21
ATOM     21  C   UNL     1      56.180  24.557  46.888  1.00  0.00    -0.000 C 
BRANCH  21  22
ATOM     22  C   UNL     1      56.601  23.708  48.100  1.00  0.00    -0.000 C 
BRANCH  22  23
ATOM     23  C   UNL     1      56.754  22.205  47.782  1.00  0.00    -0.000 C 
BRANCH  23  24
ATOM     24  C   UNL     1      56.017  21.319  48.802  1.00  0.00    -0.000 C 
BRANCH  24  25
ATOM     25  C   UNL     1      56.627  19.913  48.914  1.00  0.00    -0.003 C 
ATOM     26  C   UNL     1      56.060  18.939  47.882  1.00  0.00     0.004 C 
ENDBRANCH  24  25
ENDBRANCH  23  24
ENDBRANCH  22  23
ENDBRANCH  21  22
ENDBRANCH  20  21
ENDBRANCH  19  20
ENDBRANCH  18  19
ENDBRANCH  17  18
ENDBRANCH  16  17
ENDBRANCH  15  16
ENDBRANCH   1  15
TORSDOF 22
ENDMDL
MODEL 3
REMARK VINA RESULT:    -4.499      3.356      7.547
REMARK INTER + INTRA:         -13.858
REMARK INTER:                 -10.451
REMARK INTRA:                  -3.407
REMARK UNBOUND:                -3.574
REMARK SMILES CCCCCCCCCCCCCCCCCCCCCCCC(=O)[O-]
REMARK SMILES IDX 13 1 14 2 15 3 16 4 17 5 18 6 19 7 20 8 21 9 22 10 23 11
REMARK SMILES IDX 24 12 25 13 26 14 12 15 11 16 10 17 9 18 8 19 7 20 6 21 5 22
REMARK SMILES IDX 4 23 3 24 2 25 1 26
REMARK H PARENT
REMARK Flexibility Score: inf
ROOT
ATOM      1  C   UNL     1      56.419  21.383  52.416  1.00  0.00     0.000 C 
ENDROOT
BRANCH   1   2
ATOM      2  C   UNL     1      55.804  22.778  52.206  1.00  0.00     0.000 C 
BRANCH   2   3
ATOM      3  C   UNL     1      54.337  22.777  51.738  1.00  0.00     0.000 C 
BRANCH   3   4
ATOM      4  C   UNL     1      53.750  24.193  51.608  1.00  0.00     0.000 C 
BRANCH   4   5
ATOM      5  C   UNL     1      52.899  24.360  50.337  1.00  0.00     0.000 C 
BRANCH   5   6
ATOM      6  C   UNL     1      53.672  25.038  49.195  1.00  0.00     0.000 C 
BRANCH   6   7
ATOM      7  C   UNL     1      53.818  24.093  47.994  1.00  0.00     0.000 C 
BRANCH   7   8
ATOM      8  C   UNL     1      55.231  24.121  47.388  1.00  0.00     0.000 C 
BRANCH   8   9
ATOM      9  C   UNL     1      56.282  23.485  48.311  1.00  0.00     0.000 C 
BRANCH   9  10
ATOM     10  C   UNL     1      56.600  22.050  47.872  1.00  0.00     0.006 C 
BRANCH  10  11
ATOM     11  C   UNL     1      56.037  21.032  48.869  1.00  0.00     0.053 C 
BRANCH  11  12
ATOM     12  C   UNL     1      56.515  19.654  48.536  1.00  0.00     0.041 C 
ATOM     13  O   UNL     1      55.782  18.872  47.874  1.00  0.00    -0.550 OA
ATOM     14  O   UNL     1      57.746  19.213  49.004  1.00  0.00    -0.550 OA
ENDBRANCH  11  12
ENDBRANCH  10  11
ENDBRANCH   9  10
ENDBRANCH   8   9
ENDBRANCH   7   8
ENDBRANCH   6   7
ENDBRANCH   5   6
ENDBRANCH   4   5
ENDBRANCH   3   4
ENDBRANCH   2   3
ENDBRANCH   1   2
BRANCH   1  15
ATOM     15  C   UNL     1      57.143  21.245  53.766  1.00  0.00     0.000 C 
BRANCH  15  16
ATOM     16  C   UNL     1      56.168  21.025  54.934  1.00  0.00     0.000 C 
BRANCH  16  17
ATOM     17  C   UNL     1      56.438  21.976  56.112  1.00  0.00     0.000 C 
BRANCH  17  18
ATOM     18  C   UNL     1      56.579  23.444  55.670  1.00  0.00    -0.000 C 
BRANCH  18  19
ATOM     19  C   UNL     1      55.249  24.212  55.520  1.00  0.00    -0.000 C 
BRANCH  19  20
ATOM     20  C   UNL     1      54.016  23.524  56.133  1.00  0.00    -0.000 C 
BRANCH  20  21
ATOM     21  C   UNL     1      52.857  23.368  55.136  1.00  0.00    -0.000 C 
BRANCH  21  22
ATOM     22  C   UNL     1      52.687  21.920  54.643  1.00  0.00    -0.000 C 
BRANCH  22  23
ATOM     23  C   UNL     1      51.364  21.674  53.886  1.00  0.00    -0.000 C 
BRANCH  23  24
ATOM     24  C   UNL     1      50.162  22.328  54.590  1.00  0.00    -0.000 C 
BRANCH  24  25
ATOM     25  C   UNL     1      48.927  22.425  53.682  1.00  0.00    -0.003 C 
ATOM     26  C   UNL     1      49.287  22.661  52.216  1.00  0.00     0.004 C 
ENDBRANCH  24  25
ENDBRANCH  23  24
ENDBRANCH  22  23
ENDBRANCH  21  22
ENDBRANCH  20  21
ENDBRANCH  19  20
ENDBRANCH  18  19
ENDBRANCH  17  18
ENDBRANCH  16  17
ENDBRANCH  15  16
ENDBRANCH   1  15
TORSDOF 22
ENDMDL
MODEL 4
REMARK VINA RESULT:    -4.480      1.154      4.563
REMARK INTER + INTRA:         -13.816
REMARK INTER:                 -10.537
REMARK INTRA:                  -3.279
REMARK UNBOUND:                -3.574
REMARK SMILES CCCCCCCCCCCCCCCCCCCCCCCC(=O)[O-]
REMARK SMILES IDX 13 1 14 2 15 3 16 4 17 5 18 6 19 7 20 8 21 9 22 10 23 11
REMARK SMILES IDX 24 12 25 13 26 14 12 15 11 16 10 17 9 18 8 19 7 20 6 21 5 22
REMARK SMILES IDX 4 23 3 24 2 25 1 26
REMARK H PARENT
REMARK Flexibility Score: inf
ROOT
ATOM      1  C   UNL     1      53.679  23.675  48.573  1.00  0.00     0.000 C 
ENDROOT
BRANCH   1   2
ATOM      2  C   UNL     1      53.663  24.600  49.803  1.00  0.00     0.000 C 
BRANCH   2   3
ATOM      3  C   UNL     1      53.022  23.992  51.064  1.00  0.00     0.000 C 
BRANCH   3   4
ATOM      4  C   UNL     1      53.746  24.401  52.358  1.00  0.00     0.000 C 
BRANCH   4   5
ATOM      5  C   UNL     1      53.206  23.656  53.592  1.00  0.00     0.000 C 
BRANCH   5   6
ATOM      6  C   UNL     1      52.603  22.289  53.238  1.00  0.00     0.000 C 
BRANCH   6   7
ATOM      7  C   UNL     1      51.242  22.095  53.922  1.00  0.00     0.000 C 
BRANCH   7   8
ATOM      8  C   UNL     1      50.061  22.329  52.966  1.00  0.00     0.000 C 
BRANCH   8   9
ATOM      9  C   UNL     1      48.767  22.699  53.705  1.00  0.00     0.000 C 
BRANCH   9  10
ATOM     10  C   UNL     1      48.452  21.677  54.804  1.00  0.00     0.006 C 
BRANCH  10  11
ATOM     11  C   UNL     1      47.648  22.320  55.939  1.00  0.00     0.053 C 
BRANCH  11  12
ATOM     12  C   UNL     1      46.214  21.902  55.867  1.00  0.00     0.041 C 
ATOM     13  O   UNL     1      45.311  22.763  55.693  1.00  0.00    -0.550 OA
ATOM     14  O   UNL     1      45.868  20.569  56.047  1.00  0.00    -0.550 OA
ENDBRANCH  11  12
ENDBRANCH  10  11
ENDBRANCH   9  10
ENDBRANCH   8   9
ENDBRANCH   7   8
ENDBRANCH   6   7
ENDBRANCH   5   6
ENDBRANCH   4   5
ENDBRANCH   3   4
ENDBRANCH   2   3
ENDBRANCH   1   2
BRANCH   1  15
ATOM     15  C   UNL     1      54.840  23.980  47.610  1.00  0.00     0.000 C 
BRANCH  15  16
ATOM     16  C   UNL     1      56.215  23.764  48.261  1.00  0.00     0.000 C 
BRANCH  16  17
ATOM     17  C   UNL     1      57.126  22.854  47.420  1.00  0.00     0.000 C 
BRANCH  17  18
ATOM     18  C   UNL     1      56.728  21.370  47.507  1.00  0.00    -0.000 C 
BRANCH  18  19
ATOM     19  C   UNL     1      56.748  20.770  48.929  1.00  0.00    -0.000 C 
BRANCH  19  20
ATOM     20  C   UNL     1      55.387  20.285  49.461  1.00  0.00    -0.000 C 
BRANCH  20  21
ATOM     21  C   UNL     1      54.941  21.025  50.732  1.00  0.00    -0.000 C 
BRANCH  21  22
ATOM     22  C   UNL     1      56.105  21.724  51.455  1.00  0.00    -0.000 C 
BRANCH  22  23
ATOM     23  C   UNL     1      56.177  21.410  52.965  1.00  0.00    -0.000 C 
BRANCH  23  24
ATOM     24  C   UNL     1      56.779  22.575  53.771  1.00  0.00    -0.000 C 
BRANCH  24  25
ATOM     25  C   UNL     1      56.896  22.258  55.269  1.00  0.00    -0.003 C 
ATOM     26  C   UNL     1      55.803  22.926  56.102  1.00  0.00     0.004 C 
ENDBRANCH  24  25
ENDBRANCH  23  24
ENDBRANCH  22  23
ENDBRANCH  21  22
ENDBRANCH  20  21
ENDBRANCH  19  20
ENDBRANCH  18  19
ENDBRANCH  17  18
ENDBRANCH  16  17
ENDBRANCH  15  16
ENDBRANCH   1  15
TORSDOF 22
ENDMDL
MODEL 5
REMARK VINA RESULT:    -4.358      3.335      7.482
REMARK INTER + INTRA:         -13.537
REMARK INTER:                 -10.395
REMARK INTRA:                  -3.142
REMARK UNBOUND:                -3.574
REMARK SMILES CCCCCCCCCCCCCCCCCCCCCCCC(=O)[O-]
REMARK SMILES IDX 13 1 14 2 15 3 16 4 17 5 18 6 19 7 20 8 21 9 22 10 23 11
REMARK SMILES IDX 24 12 25 13 26 14 12 15 11 16 10 17 9 18 8 19 7 20 6 21 5 22
REMARK SMILES IDX 4 23 3 24 2 25 1 26
REMARK H PARENT
REMARK Flexibility Score: inf
ROOT
ATOM      1  C   UNL     1      53.888  23.801  48.223  1.00  0.00     0.000 C 
ENDROOT
BRANCH   1   2
ATOM      2  C   UNL     1      55.329  23.680  47.694  1.00  0.00     0.000 C 
BRANCH   2   3
ATOM      3  C   UNL     1      56.299  22.928  48.622  1.00  0.00     0.000 C 
BRANCH   3   4
ATOM      4  C   UNL     1      56.026  21.415  48.672  1.00  0.00     0.000 C 
BRANCH   4   5
ATOM      5  C   UNL     1      55.551  20.950  50.059  1.00  0.00     0.000 C 
BRANCH   5   6
ATOM      6  C   UNL     1      55.969  21.915  51.179  1.00  0.00     0.000 C 
BRANCH   6   7
ATOM      7  C   UNL     1      55.574  21.362  52.556  1.00  0.00     0.000 C 
BRANCH   7   8
ATOM      8  C   UNL     1      56.791  21.096  53.457  1.00  0.00     0.000 C 
BRANCH   8   9
ATOM      9  C   UNL     1      56.425  21.051  54.948  1.00  0.00     0.000 C 
BRANCH   9  10
ATOM     10  C   UNL     1      56.302  22.467  55.525  1.00  0.00     0.006 C 
BRANCH  10  11
ATOM     11  C   UNL     1      56.428  22.452  57.052  1.00  0.00     0.053 C 
BRANCH  11  12
ATOM     12  C   UNL     1      57.861  22.305  57.457  1.00  0.00     0.041 C 
ATOM     13  O   UNL     1      58.681  23.235  57.237  1.00  0.00    -0.550 OA
ATOM     14  O   UNL     1      58.303  21.118  58.029  1.00  0.00    -0.550 OA
ENDBRANCH  11  12
ENDBRANCH  10  11
ENDBRANCH   9  10
ENDBRANCH   8   9
ENDBRANCH   7   8
ENDBRANCH   6   7
ENDBRANCH   5   6
ENDBRANCH   4   5
ENDBRANCH   3   4
ENDBRANCH   2   3
ENDBRANCH   1   2
BRANCH   1  15
ATOM     15  C   UNL     1      53.722  24.930  49.254  1.00  0.00     0.000 C 
BRANCH  15  16
ATOM     16  C   UNL     1      53.310  24.405  50.638  1.00  0.00     0.000 C 
BRANCH  16  17
ATOM     17  C   UNL     1      54.143  25.024  51.773  1.00  0.00     0.000 C 
BRANCH  17  18
ATOM     18  C   UNL     1      53.820  24.413  53.149  1.00  0.00    -0.000 C 
BRANCH  18  19
ATOM     19  C   UNL     1      52.561  23.521  53.189  1.00  0.00    -0.000 C 
BRANCH  19  20
ATOM     20  C   UNL     1      52.601  22.367  54.207  1.00  0.00    -0.000 C 
BRANCH  20  21
ATOM     21  C   UNL     1      51.462  21.354  54.011  1.00  0.00    -0.000 C 
BRANCH  21  22
ATOM     22  C   UNL     1      50.187  21.993  53.437  1.00  0.00    -0.000 C 
BRANCH  22  23
ATOM     23  C   UNL     1      48.942  21.807  54.330  1.00  0.00    -0.000 C 
BRANCH  23  24
ATOM     24  C   UNL     1      48.385  23.149  54.837  1.00  0.00    -0.000 C 
BRANCH  24  25
ATOM     25  C   UNL     1      49.479  24.067  55.401  1.00  0.00    -0.003 C 
ATOM     26  C   UNL     1      49.974  23.622  56.777  1.00  0.00     0.004 C 
ENDBRANCH  24  25
ENDBRANCH  23  24
ENDBRANCH  22  23
ENDBRANCH  21  22
ENDBRANCH  20  21
ENDBRANCH  19  20
ENDBRANCH  18  19
ENDBRANCH  17  18
ENDBRANCH  16  17
ENDBRANCH  15  16
ENDBRANCH   1  15
TORSDOF 22
ENDMDL
MODEL 6
REMARK VINA RESULT:    -4.275      1.873      3.758
REMARK INTER + INTRA:         -13.347
REMARK INTER:                 -10.684
REMARK INTRA:                  -2.663
REMARK UNBOUND:                -3.574
REMARK SMILES CCCCCCCCCCCCCCCCCCCCCCCC(=O)[O-]
REMARK SMILES IDX 13 1 14 2 15 3 16 4 17 5 18 6 19 7 20 8 21 9 22 10 23 11
REMARK SMILES IDX 24 12 25 13 26 14 12 15 11 16 10 17 9 18 8 19 7 20 6 21 5 22
REMARK SMILES IDX 4 23 3 24 2 25 1 26
REMARK H PARENT
REMARK Flexibility Score: inf
ROOT
ATOM      1  C   UNL     1      54.115  21.518  53.379  1.00  0.00     0.000 C 
ENDROOT
BRANCH   1   2
ATOM      2  C   UNL     1      52.662  21.019  53.271  1.00  0.00     0.000 C 
BRANCH   2   3
ATOM      3  C   UNL     1      51.606  21.963  53.873  1.00  0.00     0.000 C 
BRANCH   3   4
ATOM      4  C   UNL     1      50.617  22.499  52.824  1.00  0.00     0.000 C 
BRANCH   4   5
ATOM      5  C   UNL     1      49.151  22.303  53.245  1.00  0.00     0.000 C 
BRANCH   5   6
ATOM      6  C   UNL     1      48.751  23.202  54.424  1.00  0.00     0.000 C 
BRANCH   6   7
ATOM      7  C   UNL     1      48.197  22.368  55.588  1.00  0.00     0.000 C 
BRANCH   7   8
ATOM      8  C   UNL     1      47.516  21.073  55.116  1.00  0.00     0.000 C 
BRANCH   8   9
ATOM      9  C   UNL     1      46.190  20.804  55.842  1.00  0.00     0.000 C 
BRANCH   9  10
ATOM     10  C   UNL     1      45.973  21.812  56.979  1.00  0.00     0.006 C 
BRANCH  10  11
ATOM     11  C   UNL     1      44.504  22.240  57.062  1.00  0.00     0.053 C 
BRANCH  11  12
ATOM     12  C   UNL     1      44.184  23.224  55.981  1.00  0.00     0.041 C 
ATOM     13  O   UNL     1      45.081  23.984  55.530  1.00  0.00    -0.550 OA
ATOM     14  O   UNL     1      42.882  23.340  55.511  1.00  0.00    -0.550 OA
ENDBRANCH  11  12
ENDBRANCH  10  11
ENDBRANCH   9  10
ENDBRANCH   8   9
ENDBRANCH   7   8
ENDBRANCH   6   7
ENDBRANCH   5   6
ENDBRANCH   4   5
ENDBRANCH   3   4
ENDBRANCH   2   3
ENDBRANCH   1   2
BRANCH   1  15
ATOM     15  C   UNL     1      54.277  22.676  54.377  1.00  0.00     0.000 C 
BRANCH  15  16
ATOM     16  C   UNL     1      54.553  24.018  53.680  1.00  0.00     0.000 C 
BRANCH  16  17
ATOM     17  C   UNL     1      55.084  23.837  52.248  1.00  0.00     0.000 C 
BRANCH  17  18
ATOM     18  C   UNL     1      54.404  24.780  51.239  1.00  0.00    -0.000 C 
BRANCH  18  19
ATOM     19  C   UNL     1      53.219  24.164  50.465  1.00  0.00    -0.000 C 
BRANCH  19  20
ATOM     20  C   UNL     1      53.589  23.428  49.165  1.00  0.00    -0.000 C 
BRANCH  20  21
ATOM     21  C   UNL     1      54.133  24.367  48.077  1.00  0.00    -0.000 C 
BRANCH  21  22
ATOM     22  C   UNL     1      55.545  23.979  47.604  1.00  0.00    -0.000 C 
BRANCH  22  23
ATOM     23  C   UNL     1      56.263  22.986  48.544  1.00  0.00    -0.000 C 
BRANCH  23  24
ATOM     24  C   UNL     1      56.690  21.701  47.813  1.00  0.00    -0.000 C 
BRANCH  24  25
ATOM     25  C   UNL     1      56.367  20.431  48.614  1.00  0.00    -0.003 C 
ATOM     26  C   UNL     1      55.686  20.731  49.949  1.00  0.00     0.004 C 
ENDBRANCH  24  25
ENDBRANCH  23  24
ENDBRANCH  22  23
ENDBRANCH  21  22
ENDBRANCH  20  21
ENDBRANCH  19  20
ENDBRANCH  18  19
ENDBRANCH  17  18
ENDBRANCH  16  17
ENDBRANCH  15  16
ENDBRANCH   1  15
TORSDOF 22
ENDMDL
MODEL 7
REMARK VINA RESULT:    -4.227      3.584      6.722
REMARK INTER + INTRA:         -13.238
REMARK INTER:                  -9.563
REMARK INTRA:                  -3.674
REMARK UNBOUND:                -3.574
REMARK SMILES CCCCCCCCCCCCCCCCCCCCCCCC(=O)[O-]
REMARK SMILES IDX 13 1 14 2 15 3 16 4 17 5 18 6 19 7 20 8 21 9 22 10 23 11
REMARK SMILES IDX 24 12 25 13 26 14 12 15 11 16 10 17 9 18 8 19 7 20 6 21 5 22
REMARK SMILES IDX 4 23 3 24 2 25 1 26
REMARK H PARENT
REMARK Flexibility Score: inf
ROOT
ATOM      1  C   UNL     1      56.731  21.504  47.655  1.00  0.00     0.000 C 
ENDROOT
BRANCH   1   2
ATOM      2  C   UNL     1      56.309  21.877  49.088  1.00  0.00     0.000 C 
BRANCH   2   3
ATOM      3  C   UNL     1      55.483  20.805  49.821  1.00  0.00     0.000 C 
BRANCH   3   4
ATOM      4  C   UNL     1      54.966  21.281  51.190  1.00  0.00     0.000 C 
BRANCH   4   5
ATOM      5  C   UNL     1      56.095  21.805  52.093  1.00  0.00     0.000 C 
BRANCH   5   6
ATOM      6  C   UNL     1      56.016  21.244  53.521  1.00  0.00     0.000 C 
BRANCH   6   7
ATOM      7  C   UNL     1      56.593  22.242  54.536  1.00  0.00     0.000 C 
BRANCH   7   8
ATOM      8  C   UNL     1      57.408  23.361  53.866  1.00  0.00     0.000 C 
BRANCH   8   9
ATOM      9  C   UNL     1      57.389  24.669  54.671  1.00  0.00     0.000 C 
BRANCH   9  10
ATOM     10  C   UNL     1      57.444  24.385  56.178  1.00  0.00     0.006 C 
BRANCH  10  11
ATOM     11  C   UNL     1      58.871  24.047  56.622  1.00  0.00     0.053 C 
BRANCH  11  12
ATOM     12  C   UNL     1      58.860  22.927  57.614  1.00  0.00     0.041 C 
ATOM     13  O   UNL     1      57.766  22.463  58.032  1.00  0.00    -0.550 OA
ATOM     14  O   UNL     1      60.056  22.433  58.118  1.00  0.00    -0.550 OA
ENDBRANCH  11  12
ENDBRANCH  10  11
ENDBRANCH   9  10
ENDBRANCH   8   9
ENDBRANCH   7   8
ENDBRANCH   6   7
ENDBRANCH   5   6
ENDBRANCH   4   5
ENDBRANCH   3   4
ENDBRANCH   2   3
ENDBRANCH   1   2
BRANCH   1  15
ATOM     15  C   UNL     1      57.291  22.700  46.867  1.00  0.00     0.000 C 
BRANCH  15  16
ATOM     16  C   UNL     1      57.089  24.034  47.601  1.00  0.00     0.000 C 
BRANCH  16  17
ATOM     17  C   UNL     1      56.030  24.921  46.928  1.00  0.00     0.000 C 
BRANCH  17  18
ATOM     18  C   UNL     1      54.595  24.568  47.362  1.00  0.00    -0.000 C 
BRANCH  18  19
ATOM     19  C   UNL     1      54.251  24.917  48.825  1.00  0.00    -0.000 C 
BRANCH  19  20
ATOM     20  C   UNL     1      53.278  23.949  49.524  1.00  0.00    -0.000 C 
BRANCH  20  21
ATOM     21  C   UNL     1      52.975  24.347  50.977  1.00  0.00    -0.000 C 
BRANCH  21  22
ATOM     22  C   UNL     1      54.171  25.020  51.673  1.00  0.00    -0.000 C 
BRANCH  22  23
ATOM     23  C   UNL     1      54.065  25.038  53.213  1.00  0.00    -0.000 C 
BRANCH  23  24
ATOM     24  C   UNL     1      53.353  23.787  53.760  1.00  0.00    -0.000 C 
BRANCH  24  25
ATOM     25  C   UNL     1      52.822  23.987  55.187  1.00  0.00    -0.003 C 
ATOM     26  C   UNL     1      53.758  23.415  56.251  1.00  0.00     0.004 C 
ENDBRANCH  24  25
ENDBRANCH  23  24
ENDBRANCH  22  23
ENDBRANCH  21  22
ENDBRANCH  20  21
ENDBRANCH  19  20
ENDBRANCH  18  19
ENDBRANCH  17  18
ENDBRANCH  16  17
ENDBRANCH  15  16
ENDBRANCH   1  15
TORSDOF 22
ENDMDL
MODEL 8
REMARK VINA RESULT:    -4.189      1.282      5.730
REMARK INTER + INTRA:         -13.150
REMARK INTER:                  -9.260
REMARK INTRA:                  -3.891
REMARK UNBOUND:                -3.574
REMARK SMILES CCCCCCCCCCCCCCCCCCCCCCCC(=O)[O-]
REMARK SMILES IDX 13 1 14 2 15 3 16 4 17 5 18 6 19 7 20 8 21 9 22 10 23 11
REMARK SMILES IDX 24 12 25 13 26 14 12 15 11 16 10 17 9 18 8 19 7 20 6 21 5 22
REMARK SMILES IDX 4 23 3 24 2 25 1 26
REMARK H PARENT
REMARK Flexibility Score: inf
ROOT
ATOM      1  C   UNL     1      56.792  23.240  48.035  1.00  0.00     0.000 C 
ENDROOT
BRANCH   1   2
ATOM      2  C   UNL     1      55.615  24.049  47.459  1.00  0.00     0.000 C 
BRANCH   2   3
ATOM      3  C   UNL     1      55.027  25.106  48.410  1.00  0.00     0.000 C 
BRANCH   3   4
ATOM      4  C   UNL     1      55.708  25.113  49.790  1.00  0.00     0.000 C 
BRANCH   4   5
ATOM      5  C   UNL     1      54.704  24.922  50.940  1.00  0.00     0.000 C 
BRANCH   5   6
ATOM      6  C   UNL     1      53.266  24.716  50.439  1.00  0.00     0.000 C 
BRANCH   6   7
ATOM      7  C   UNL     1      52.570  23.590  51.217  1.00  0.00     0.000 C 
BRANCH   7   8
ATOM      8  C   UNL     1      53.060  23.484  52.670  1.00  0.00     0.000 C 
BRANCH   8   9
ATOM      9  C   UNL     1      52.703  22.139  53.318  1.00  0.00     0.000 C 
BRANCH   9  10
ATOM     10  C   UNL     1      52.236  22.334  54.766  1.00  0.00     0.006 C 
BRANCH  10  11
ATOM     11  C   UNL     1      50.967  23.192  54.824  1.00  0.00     0.053 C 
BRANCH  11  12
ATOM     12  C   UNL     1      49.818  22.469  54.195  1.00  0.00     0.041 C 
ATOM     13  O   UNL     1      49.317  21.462  54.761  1.00  0.00    -0.550 OA
ATOM     14  O   UNL     1      49.335  22.876  52.957  1.00  0.00    -0.550 OA
ENDBRANCH  11  12
ENDBRANCH  10  11
ENDBRANCH   9  10
ENDBRANCH   8   9
ENDBRANCH   7   8
ENDBRANCH   6   7
ENDBRANCH   5   6
ENDBRANCH   4   5
ENDBRANCH   3   4
ENDBRANCH   2   3
ENDBRANCH   1   2
BRANCH   1  15
ATOM     15  C   UNL     1      56.762  21.760  47.617  1.00  0.00     0.000 C 
BRANCH  15  16
ATOM     16  C   UNL     1      56.300  20.838  48.756  1.00  0.00     0.000 C 
BRANCH  16  17
ATOM     17  C   UNL     1      55.239  21.498  49.652  1.00  0.00     0.000 C 
BRANCH  17  18
ATOM     18  C   UNL     1      55.305  21.008  51.110  1.00  0.00    -0.000 C 
BRANCH  18  19
ATOM     19  C   UNL     1      56.218  21.837  52.038  1.00  0.00    -0.000 C 
BRANCH  19  20
ATOM     20  C   UNL     1      56.838  21.065  53.217  1.00  0.00    -0.000 C 
BRANCH  20  21
ATOM     21  C   UNL     1      55.967  21.100  54.483  1.00  0.00    -0.000 C 
BRANCH  21  22
ATOM     22  C   UNL     1      56.768  21.453  55.748  1.00  0.00    -0.000 C 
BRANCH  22  23
ATOM     23  C   UNL     1      56.383  22.813  56.368  1.00  0.00    -0.000 C 
BRANCH  23  24
ATOM     24  C   UNL     1      55.930  23.828  55.304  1.00  0.00    -0.000 C 
BRANCH  24  25
ATOM     25  C   UNL     1      54.771  24.712  55.787  1.00  0.00    -0.003 C 
ATOM     26  C   UNL     1      54.089  24.162  57.039  1.00  0.00     0.004 C 
ENDBRANCH  24  25
ENDBRANCH  23  24
ENDBRANCH  22  23
ENDBRANCH  21  22
ENDBRANCH  20  21
ENDBRANCH  19  20
ENDBRANCH  18  19
ENDBRANCH  17  18
ENDBRANCH  16  17
ENDBRANCH  15  16
ENDBRANCH   1  15
TORSDOF 22
ENDMDL
MODEL 9
REMARK VINA RESULT:    -4.139      1.285      5.590
REMARK INTER + INTRA:         -13.037
REMARK INTER:                  -9.253
REMARK INTRA:                  -3.784
REMARK UNBOUND:                -3.574
REMARK SMILES CCCCCCCCCCCCCCCCCCCCCCCC(=O)[O-]
REMARK SMILES IDX 13 1 14 2 15 3 16 4 17 5 18 6 19 7 20 8 21 9 22 10 23 11
REMARK SMILES IDX 24 12 25 13 26 14 12 15 11 16 10 17 9 18 8 19 7 20 6 21 5 22
REMARK SMILES IDX 4 23 3 24 2 25 1 26
REMARK H PARENT
REMARK Flexibility Score: inf
ROOT
ATOM      1  C   UNL     1      55.547  23.101  49.361  1.00  0.00     0.000 C 
ENDROOT
BRANCH   1   2
ATOM      2  C   UNL     1      54.184  23.580  48.830  1.00  0.00     0.000 C 
BRANCH   2   3
ATOM      3  C   UNL     1      53.394  24.485  49.792  1.00  0.00     0.000 C 
BRANCH   3   4
ATOM      4  C   UNL     1      54.215  24.909  51.023  1.00  0.00     0.000 C 
BRANCH   4   5
ATOM      5  C   UNL     1      53.633  24.354  52.335  1.00  0.00     0.000 C 
BRANCH   5   6
ATOM      6  C   UNL     1      52.589  23.253  52.097  1.00  0.00     0.000 C 
BRANCH   6   7
ATOM      7  C   UNL     1      52.632  22.204  53.218  1.00  0.00     0.000 C 
BRANCH   7   8
ATOM      8  C   UNL     1      51.230  21.752  53.659  1.00  0.00     0.000 C 
BRANCH   8   9
ATOM      9  C   UNL     1      50.110  22.481  52.903  1.00  0.00     0.000 C 
BRANCH   9  10
ATOM     10  C   UNL     1      48.906  22.736  53.820  1.00  0.00     0.006 C 
BRANCH  10  11
ATOM     11  C   UNL     1      48.785  21.642  54.886  1.00  0.00     0.053 C 
BRANCH  11  12
ATOM     12  C   UNL     1      47.412  21.640  55.480  1.00  0.00     0.041 C 
ATOM     13  O   UNL     1      46.940  20.585  55.980  1.00  0.00    -0.550 OA
ATOM     14  O   UNL     1      46.633  22.789  55.434  1.00  0.00    -0.550 OA
ENDBRANCH  11  12
ENDBRANCH  10  11
ENDBRANCH   9  10
ENDBRANCH   8   9
ENDBRANCH   7   8
ENDBRANCH   6   7
ENDBRANCH   5   6
ENDBRANCH   4   5
ENDBRANCH   3   4
ENDBRANCH   2   3
ENDBRANCH   1   2
BRANCH   1  15
ATOM     15  C   UNL     1      55.640  21.569  49.472  1.00  0.00     0.000 C 
BRANCH  15  16
ATOM     16  C   UNL     1      55.437  21.071  50.912  1.00  0.00     0.000 C 
BRANCH  16  17
ATOM     17  C   UNL     1      56.150  21.958  51.946  1.00  0.00     0.000 C 
BRANCH  17  18
ATOM     18  C   UNL     1      56.776  21.147  53.095  1.00  0.00    -0.000 C 
BRANCH  18  19
ATOM     19  C   UNL     1      55.943  21.104  54.394  1.00  0.00    -0.000 C 
BRANCH  19  20
ATOM     20  C   UNL     1      56.584  21.793  55.612  1.00  0.00    -0.000 C 
BRANCH  20  21
ATOM     21  C   UNL     1      57.033  23.234  55.320  1.00  0.00    -0.000 C 
BRANCH  21  22
ATOM     22  C   UNL     1      55.852  24.211  55.187  1.00  0.00    -0.000 C 
BRANCH  22  23
ATOM     23  C   UNL     1      54.690  23.918  56.161  1.00  0.00    -0.000 C 
BRANCH  23  24
ATOM     24  C   UNL     1      53.748  25.124  56.320  1.00  0.00    -0.000 C 
BRANCH  24  25
ATOM     25  C   UNL     1      52.333  24.842  55.793  1.00  0.00    -0.003 C 
ATOM     26  C   UNL     1      51.583  23.812  56.637  1.00  0.00     0.004 C 
ENDBRANCH  24  25
ENDBRANCH  23  24
ENDBRANCH  22  23
ENDBRANCH  21  22
ENDBRANCH  20  21
ENDBRANCH  19  20
ENDBRANCH  18  19
ENDBRANCH  17  18
ENDBRANCH  16  17
ENDBRANCH  15  16
ENDBRANCH   1  15
TORSDOF 22
ENDMDL
