MODEL 1
REMARK VINA RESULT:    -7.245      0.000      0.000
REMARK INTER + INTRA:          -8.781
REMARK INTER:                  -8.516
REMARK INTRA:                  -0.265
REMARK UNBOUND:                -0.265
REMARK SMILES O=c1cc(-c2ccc(O)c(O)c2)oc2cc(O)cc(O)c12
REMARK SMILES IDX 4 1 3 2 2 3 1 4 21 5 19 6 18 7 16 8 15 9 14 10 13 11 5 12
REMARK SMILES IDX 6 13 7 14 8 15 12 16 10 17 9 18 11 20 20 22 17 24
REMARK H PARENT 9 19 11 21 20 23 17 25
REMARK Flexibility Score: inf
ROOT
ATOM      1  C   UNL     1      30.995 -92.232  37.298  1.00  0.00     0.138 A 
ATOM      2  C   UNL     1      29.767 -92.817  36.961  1.00  0.00     0.100 A 
ATOM      3  C   UNL     1      29.587 -94.191  37.130  1.00  0.00     0.197 A 
ATOM      4  O   UNL     1      28.496 -94.697  36.761  1.00  0.00    -0.289 OA
ATOM      5  C   UNL     1      30.634 -94.976  37.669  1.00  0.00     0.107 A 
ATOM      6  C   UNL     1      30.550 -96.378  37.924  1.00  0.00     0.134 A 
ATOM      7  C   UNL     1      31.689 -97.070  38.350  1.00  0.00     0.093 A 
ATOM      8  C   UNL     1      32.891 -96.405  38.589  1.00  0.00     0.123 A 
ATOM      9  C   UNL     1      32.970 -95.025  38.395  1.00  0.00     0.094 A 
ATOM     10  C   UNL     1      31.861 -94.310  37.937  1.00  0.00     0.146 A 
ATOM     11  O   UNL     1      31.980 -93.001  37.751  1.00  0.00    -0.456 OA
ENDROOT
BRANCH   1  12
ATOM     12  C   UNL     1      31.239 -90.776  37.139  1.00  0.00     0.021 A 
ATOM     13  C   UNL     1      32.153 -90.279  36.190  1.00  0.00     0.016 A 
ATOM     14  C   UNL     1      32.356 -88.903  36.055  1.00  0.00     0.051 A 
ATOM     15  C   UNL     1      31.647 -88.000  36.856  1.00  0.00     0.157 A 
ATOM     16  C   UNL     1      30.520 -89.862  37.930  1.00  0.00     0.062 A 
ATOM     17  C   UNL     1      30.722 -88.483  37.797  1.00  0.00     0.158 A 
BRANCH  15  18
ATOM     18  O   UNL     1      31.852 -86.629  36.718  1.00  0.00    -0.504 OA
ATOM     19  H   UNL     1      31.704 -85.989  37.491  1.00  0.00     0.293 HD
ENDBRANCH  15  18
BRANCH  17  20
ATOM     20  O   UNL     1      29.996 -87.612  38.608  1.00  0.00    -0.504 OA
ATOM     21  H   UNL     1      29.098 -87.236  38.325  1.00  0.00     0.293 HD
ENDBRANCH  17  20
ENDBRANCH   1  12
BRANCH   6  22
ATOM     22  O   UNL     1      29.376 -97.125  37.799  1.00  0.00    -0.507 OA
ATOM     23  H   UNL     1      29.233 -98.045  38.185  1.00  0.00     0.293 HD
ENDBRANCH   6  22
BRANCH   8  24
ATOM     24  O   UNL     1      34.001 -97.124  39.027  1.00  0.00    -0.508 OA
ATOM     25  H   UNL     1      34.442 -97.827  38.445  1.00  0.00     0.293 HD
ENDBRANCH   8  24
TORSDOF 5
ENDMDL
MODEL 2
REMARK VINA RESULT:    -6.211      1.315      2.840
REMARK INTER + INTRA:          -7.565
REMARK INTER:                  -7.277
REMARK INTRA:                  -0.288
REMARK UNBOUND:                -0.265
REMARK SMILES O=c1cc(-c2ccc(O)c(O)c2)oc2cc(O)cc(O)c12
REMARK SMILES IDX 4 1 3 2 2 3 1 4 21 5 19 6 18 7 16 8 15 9 14 10 13 11 5 12
REMARK SMILES IDX 6 13 7 14 8 15 12 16 10 17 9 18 11 20 20 22 17 24
REMARK H PARENT 9 19 11 21 20 23 17 25
REMARK Flexibility Score: inf
ROOT
ATOM      1  C   UNL     1      30.982 -92.011  37.323  1.00  0.00     0.138 A 
ATOM      2  C   UNL     1      32.007 -92.798  37.867  1.00  0.00     0.100 A 
ATOM      3  C   UNL     1      31.805 -94.168  38.042  1.00  0.00     0.197 A 
ATOM      4  O   UNL     1      32.719 -94.838  38.589  1.00  0.00    -0.289 OA
ATOM      5  C   UNL     1      30.581 -94.756  37.641  1.00  0.00     0.107 A 
ATOM      6  C   UNL     1      30.280 -96.148  37.734  1.00  0.00     0.134 A 
ATOM      7  C   UNL     1      28.993 -96.597  37.415  1.00  0.00     0.093 A 
ATOM      8  C   UNL     1      28.016 -95.717  36.950  1.00  0.00     0.123 A 
ATOM      9  C   UNL     1      28.316 -94.362  36.804  1.00  0.00     0.094 A 
ATOM     10  C   UNL     1      29.580 -93.877  37.146  1.00  0.00     0.146 A 
ATOM     11  O   UNL     1      29.823 -92.579  37.006  1.00  0.00    -0.456 OA
ENDROOT
BRANCH   1  12
ATOM     12  C   UNL     1      31.144 -90.550  37.115  1.00  0.00     0.021 A 
ATOM     13  C   UNL     1      32.249 -90.019  36.423  1.00  0.00     0.016 A 
ATOM     14  C   UNL     1      32.370 -88.640  36.232  1.00  0.00     0.051 A 
ATOM     15  C   UNL     1      31.389 -87.769  36.720  1.00  0.00     0.157 A 
ATOM     16  C   UNL     1      30.155 -89.669  37.590  1.00  0.00     0.062 A 
ATOM     17  C   UNL     1      30.275 -88.287  37.401  1.00  0.00     0.158 A 
BRANCH  15  18
ATOM     18  O   UNL     1      31.513 -86.394  36.528  1.00  0.00    -0.504 OA
ATOM     19  H   UNL     1      32.059 -85.817  37.159  1.00  0.00     0.293 HD
ENDBRANCH  15  18
BRANCH  17  20
ATOM     20  O   UNL     1      29.278 -87.447  37.896  1.00  0.00    -0.504 OA
ATOM     21  H   UNL     1      28.506 -87.132  37.322  1.00  0.00     0.293 HD
ENDBRANCH  17  20
ENDBRANCH   1  12
BRANCH   6  22
ATOM     22  O   UNL     1      31.207 -97.124  38.107  1.00  0.00    -0.507 OA
ATOM     23  H   UNL     1      31.848 -97.582  37.478  1.00  0.00     0.293 HD
ENDBRANCH   6  22
BRANCH   8  24
ATOM     24  O   UNL     1      26.750 -96.202  36.627  1.00  0.00    -0.508 OA
ATOM     25  H   UNL     1      26.620 -97.134  36.249  1.00  0.00     0.293 HD
ENDBRANCH   8  24
TORSDOF 5
ENDMDL
MODEL 3
REMARK VINA RESULT:    -5.635      8.714     10.900
REMARK INTER + INTRA:          -6.888
REMARK INTER:                  -6.573
REMARK INTRA:                  -0.315
REMARK UNBOUND:                -0.265
REMARK SMILES O=c1cc(-c2ccc(O)c(O)c2)oc2cc(O)cc(O)c12
REMARK SMILES IDX 4 1 3 2 2 3 1 4 21 5 19 6 18 7 16 8 15 9 14 10 13 11 5 12
REMARK SMILES IDX 6 13 7 14 8 15 12 16 10 17 9 18 11 20 20 22 17 24
REMARK H PARENT 9 19 11 21 20 23 17 25
REMARK Flexibility Score: inf
ROOT
ATOM      1  C   UNL     1      40.406 -95.332  35.557  1.00  0.00     0.138 A 
ATOM      2  C   UNL     1      41.516 -95.502  34.718  1.00  0.00     0.100 A 
ATOM      3  C   UNL     1      41.339 -95.530  33.334  1.00  0.00     0.197 A 
ATOM      4  O   UNL     1      42.345 -95.746  32.610  1.00  0.00    -0.289 OA
ATOM      5  C   UNL     1      40.045 -95.354  32.788  1.00  0.00     0.107 A 
ATOM      6  C   UNL     1      39.750 -95.324  31.391  1.00  0.00     0.134 A 
ATOM      7  C   UNL     1      38.416 -95.261  30.970  1.00  0.00     0.093 A 
ATOM      8  C   UNL     1      37.372 -95.167  31.889  1.00  0.00     0.123 A 
ATOM      9  C   UNL     1      37.653 -95.142  33.256  1.00  0.00     0.094 A 
ATOM     10  C   UNL     1      38.970 -95.237  33.710  1.00  0.00     0.146 A 
ATOM     11  O   UNL     1      39.195 -95.224  35.019  1.00  0.00    -0.456 OA
ENDROOT
BRANCH   1  12
ATOM     12  C   UNL     1      40.539 -95.294  37.035  1.00  0.00     0.021 A 
ATOM     13  C   UNL     1      41.723 -95.694  37.682  1.00  0.00     0.016 A 
ATOM     14  C   UNL     1      41.824 -95.639  39.074  1.00  0.00     0.051 A 
ATOM     15  C   UNL     1      40.750 -95.176  39.844  1.00  0.00     0.157 A 
ATOM     16  C   UNL     1      39.469 -94.817  37.814  1.00  0.00     0.062 A 
ATOM     17  C   UNL     1      39.567 -94.761  39.209  1.00  0.00     0.158 A 
BRANCH  15  18
ATOM     18  O   UNL     1      40.854 -95.122  41.232  1.00  0.00    -0.504 OA
ATOM     19  H   UNL     1      40.330 -95.752  41.829  1.00  0.00     0.293 HD
ENDBRANCH  15  18
BRANCH  17  20
ATOM     20  O   UNL     1      38.480 -94.291  39.946  1.00  0.00    -0.504 OA
ATOM     21  H   UNL     1      37.541 -94.276  39.567  1.00  0.00     0.293 HD
ENDBRANCH  17  20
ENDBRANCH   1  12
BRANCH   6  22
ATOM     22  O   UNL     1      40.722 -95.327  30.388  1.00  0.00    -0.507 OA
ATOM     23  H   UNL     1      40.739 -95.960  29.602  1.00  0.00     0.293 HD
ENDBRANCH   6  22
BRANCH   8  24
ATOM     24  O   UNL     1      36.058 -95.091  31.433  1.00  0.00    -0.508 OA
ATOM     25  H   UNL     1      35.288 -95.480  31.965  1.00  0.00     0.293 HD
ENDBRANCH   8  24
TORSDOF 5
ENDMDL
MODEL 4
REMARK VINA RESULT:    -5.627     15.397     17.605
REMARK INTER + INTRA:          -6.879
REMARK INTER:                  -6.566
REMARK INTRA:                  -0.313
REMARK UNBOUND:                -0.265
REMARK SMILES O=c1cc(-c2ccc(O)c(O)c2)oc2cc(O)cc(O)c12
REMARK SMILES IDX 4 1 3 2 2 3 1 4 21 5 19 6 18 7 16 8 15 9 14 10 13 11 5 12
REMARK SMILES IDX 6 13 7 14 8 15 12 16 10 17 9 18 11 20 20 22 17 24
REMARK H PARENT 9 19 11 21 20 23 17 25
REMARK Flexibility Score: inf
ROOT
ATOM      1  C   UNL     1      36.551 -77.363  33.642  1.00  0.00     0.138 A 
ATOM      2  C   UNL     1      36.122 -77.168  32.322  1.00  0.00     0.100 A 
ATOM      3  C   UNL     1      37.062 -77.113  31.292  1.00  0.00     0.197 A 
ATOM      4  O   UNL     1      36.652 -76.875  30.126  1.00  0.00    -0.289 OA
ATOM      5  C   UNL     1      38.436 -77.288  31.583  1.00  0.00     0.107 A 
ATOM      6  C   UNL     1      39.479 -77.293  30.608  1.00  0.00     0.134 A 
ATOM      7  C   UNL     1      40.813 -77.358  31.027  1.00  0.00     0.093 A 
ATOM      8  C   UNL     1      41.141 -77.478  32.377  1.00  0.00     0.123 A 
ATOM      9  C   UNL     1      40.127 -77.529  33.335  1.00  0.00     0.094 A 
ATOM     10  C   UNL     1      38.787 -77.432  32.952  1.00  0.00     0.146 A 
ATOM     11  O   UNL     1      37.852 -77.470  33.895  1.00  0.00    -0.456 OA
ENDROOT
BRANCH   1  12
ATOM     12  C   UNL     1      35.595 -77.430  34.776  1.00  0.00     0.021 A 
ATOM     13  C   UNL     1      34.280 -76.938  34.664  1.00  0.00     0.016 A 
ATOM     14  C   UNL     1      33.398 -77.023  35.744  1.00  0.00     0.051 A 
ATOM     15  C   UNL     1      33.808 -77.605  36.949  1.00  0.00     0.157 A 
ATOM     16  C   UNL     1      35.995 -78.026  35.985  1.00  0.00     0.062 A 
ATOM     17  C   UNL     1      35.113 -78.111  37.069  1.00  0.00     0.158 A 
BRANCH  15  18
ATOM     18  O   UNL     1      32.925 -77.688  38.024  1.00  0.00    -0.504 OA
ATOM     19  H   UNL     1      32.831 -78.537  38.570  1.00  0.00     0.293 HD
ENDBRANCH  15  18
BRANCH  17  20
ATOM     20  O   UNL     1      35.552 -78.701  38.254  1.00  0.00    -0.504 OA
ATOM     21  H   UNL     1      35.416 -78.261  39.156  1.00  0.00     0.293 HD
ENDBRANCH  17  20
ENDBRANCH   1  12
BRANCH   6  22
ATOM     22  O   UNL     1      39.258 -77.261  29.229  1.00  0.00    -0.507 OA
ATOM     23  H   UNL     1      39.943 -76.987  28.541  1.00  0.00     0.293 HD
ENDBRANCH   6  22
BRANCH   8  24
ATOM     24  O   UNL     1      42.479 -77.555  32.756  1.00  0.00    -0.508 OA
ATOM     25  H   UNL     1      43.088 -78.288  32.409  1.00  0.00     0.293 HD
ENDBRANCH   8  24
TORSDOF 5
ENDMDL
MODEL 5
REMARK VINA RESULT:    -5.576     15.256     17.313
REMARK INTER + INTRA:          -6.819
REMARK INTER:                  -6.528
REMARK INTRA:                  -0.291
REMARK UNBOUND:                -0.265
REMARK SMILES O=c1cc(-c2ccc(O)c(O)c2)oc2cc(O)cc(O)c12
REMARK SMILES IDX 4 1 3 2 2 3 1 4 21 5 19 6 18 7 16 8 15 9 14 10 13 11 5 12
REMARK SMILES IDX 6 13 7 14 8 15 12 16 10 17 9 18 11 20 20 22 17 24
REMARK H PARENT 9 19 11 21 20 23 17 25
REMARK Flexibility Score: inf
ROOT
ATOM      1  C   UNL     1      37.543 -77.474  34.294  1.00  0.00     0.138 A 
ATOM      2  C   UNL     1      37.838 -77.225  35.641  1.00  0.00     0.100 A 
ATOM      3  C   UNL     1      36.816 -77.266  36.591  1.00  0.00     0.197 A 
ATOM      4  O   UNL     1      37.100 -76.977  37.782  1.00  0.00    -0.289 OA
ATOM      5  C   UNL     1      35.497 -77.590  36.191  1.00  0.00     0.107 A 
ATOM      6  C   UNL     1      34.384 -77.702  37.078  1.00  0.00     0.134 A 
ATOM      7  C   UNL     1      33.104 -77.914  36.553  1.00  0.00     0.093 A 
ATOM      8  C   UNL     1      32.903 -78.078  35.182  1.00  0.00     0.123 A 
ATOM      9  C   UNL     1      33.993 -78.025  34.311  1.00  0.00     0.094 A 
ATOM     10  C   UNL     1      35.278 -77.781  34.800  1.00  0.00     0.146 A 
ATOM     11  O   UNL     1      36.287 -77.723  33.938  1.00  0.00    -0.456 OA
ENDROOT
BRANCH   1  12
ATOM     12  C   UNL     1      38.591 -77.444  33.243  1.00  0.00     0.021 A 
ATOM     13  C   UNL     1      38.270 -77.274  31.883  1.00  0.00     0.016 A 
ATOM     14  C   UNL     1      39.279 -77.239  30.916  1.00  0.00     0.051 A 
ATOM     15  C   UNL     1      40.622 -77.364  31.289  1.00  0.00     0.157 A 
ATOM     16  C   UNL     1      39.944 -77.554  33.611  1.00  0.00     0.062 A 
ATOM     17  C   UNL     1      40.956 -77.520  32.645  1.00  0.00     0.158 A 
BRANCH  15  18
ATOM     18  O   UNL     1      41.625 -77.329  30.322  1.00  0.00    -0.504 OA
ATOM     19  H   UNL     1      41.408 -77.343  29.331  1.00  0.00     0.293 HD
ENDBRANCH  15  18
BRANCH  17  20
ATOM     20  O   UNL     1      42.284 -77.643  33.050  1.00  0.00    -0.504 OA
ATOM     21  H   UNL     1      42.791 -76.875  33.474  1.00  0.00     0.293 HD
ENDBRANCH  17  20
ENDBRANCH   1  12
BRANCH   6  22
ATOM     22  O   UNL     1      34.485 -77.638  38.470  1.00  0.00    -0.507 OA
ATOM     23  H   UNL     1      33.755 -77.900  39.114  1.00  0.00     0.293 HD
ENDBRANCH   6  22
BRANCH   8  24
ATOM     24  O   UNL     1      31.617 -78.303  34.697  1.00  0.00    -0.508 OA
ATOM     25  H   UNL     1      31.277 -77.842  33.861  1.00  0.00     0.293 HD
ENDBRANCH   8  24
TORSDOF 5
ENDMDL
MODEL 6
REMARK VINA RESULT:    -5.528     14.832     16.152
REMARK INTER + INTRA:          -6.762
REMARK INTER:                  -6.446
REMARK INTRA:                  -0.315
REMARK UNBOUND:                -0.265
REMARK SMILES O=c1cc(-c2ccc(O)c(O)c2)oc2cc(O)cc(O)c12
REMARK SMILES IDX 4 1 3 2 2 3 1 4 21 5 19 6 18 7 16 8 15 9 14 10 13 11 5 12
REMARK SMILES IDX 6 13 7 14 8 15 12 16 10 17 9 18 11 20 20 22 17 24
REMARK H PARENT 9 19 11 21 20 23 17 25
REMARK Flexibility Score: inf
ROOT
ATOM      1  C   UNL     1      36.968 -78.194  37.171  1.00  0.00     0.138 A 
ATOM      2  C   UNL     1      38.138 -77.702  36.576  1.00  0.00     0.100 A 
ATOM      3  C   UNL     1      39.353 -77.802  37.256  1.00  0.00     0.197 A 
ATOM      4  O   UNL     1      40.375 -77.296  36.723  1.00  0.00    -0.289 OA
ATOM      5  C   UNL     1      39.400 -78.425  38.526  1.00  0.00     0.107 A 
ATOM      6  C   UNL     1      40.588 -78.619  39.292  1.00  0.00     0.134 A 
ATOM      7  C   UNL     1      40.495 -79.144  40.587  1.00  0.00     0.093 A 
ATOM      8  C   UNL     1      39.267 -79.538  41.119  1.00  0.00     0.123 A 
ATOM      9  C   UNL     1      38.106 -79.403  40.357  1.00  0.00     0.094 A 
ATOM     10  C   UNL     1      38.161 -78.851  39.076  1.00  0.00     0.146 A 
ATOM     11  O   UNL     1      37.031 -78.726  38.388  1.00  0.00    -0.456 OA
ENDROOT
BRANCH   1  12
ATOM     12  C   UNL     1      35.651 -78.115  36.492  1.00  0.00     0.021 A 
ATOM     13  C   UNL     1      35.543 -77.849  35.114  1.00  0.00     0.016 A 
ATOM     14  C   UNL     1      34.290 -77.791  34.499  1.00  0.00     0.051 A 
ATOM     15  C   UNL     1      33.124 -78.004  35.245  1.00  0.00     0.157 A 
ATOM     16  C   UNL     1      34.476 -78.341  37.232  1.00  0.00     0.062 A 
ATOM     17  C   UNL     1      33.219 -78.283  36.619  1.00  0.00     0.158 A 
BRANCH  15  18
ATOM     18  O   UNL     1      31.876 -77.944  34.628  1.00  0.00    -0.504 OA
ATOM     19  H   UNL     1      31.294 -78.768  34.527  1.00  0.00     0.293 HD
ENDBRANCH  15  18
BRANCH  17  20
ATOM     20  O   UNL     1      32.078 -78.503  37.390  1.00  0.00    -0.504 OA
ATOM     21  H   UNL     1      31.523 -79.345  37.300  1.00  0.00     0.293 HD
ENDBRANCH  17  20
ENDBRANCH   1  12
BRANCH   6  22
ATOM     22  O   UNL     1      41.874 -78.338  38.824  1.00  0.00    -0.507 OA
ATOM     23  H   UNL     1      42.107 -77.591  38.188  1.00  0.00     0.293 HD
ENDBRANCH   6  22
BRANCH   8  24
ATOM     24  O   UNL     1      39.215 -80.071  42.405  1.00  0.00    -0.508 OA
ATOM     25  H   UNL     1      38.360 -80.059  42.950  1.00  0.00     0.293 HD
ENDBRANCH   8  24
TORSDOF 5
ENDMDL
MODEL 7
REMARK VINA RESULT:    -5.523      9.267     10.846
REMARK INTER + INTRA:          -6.757
REMARK INTER:                  -6.478
REMARK INTRA:                  -0.279
REMARK UNBOUND:                -0.265
REMARK SMILES O=c1cc(-c2ccc(O)c(O)c2)oc2cc(O)cc(O)c12
REMARK SMILES IDX 4 1 3 2 2 3 1 4 21 5 19 6 18 7 16 8 15 9 14 10 13 11 5 12
REMARK SMILES IDX 6 13 7 14 8 15 12 16 10 17 9 18 11 20 20 22 17 24
REMARK H PARENT 9 19 11 21 20 23 17 25
REMARK Flexibility Score: inf
ROOT
ATOM      1  C   UNL     1      37.311 -95.562  30.668  1.00  0.00     0.138 A 
ATOM      2  C   UNL     1      37.925 -96.252  29.614  1.00  0.00     0.100 A 
ATOM      3  C   UNL     1      37.230 -96.448  28.419  1.00  0.00     0.197 A 
ATOM      4  O   UNL     1      37.783 -97.125  27.514  1.00  0.00    -0.289 OA
ATOM      5  C   UNL     1      35.924 -95.922  28.271  1.00  0.00     0.107 A 
ATOM      6  C   UNL     1      35.137 -96.025  27.085  1.00  0.00     0.134 A 
ATOM      7  C   UNL     1      33.814 -95.567  27.094  1.00  0.00     0.093 A 
ATOM      8  C   UNL     1      33.269 -94.956  28.223  1.00  0.00     0.123 A 
ATOM      9  C   UNL     1      34.048 -94.801  29.371  1.00  0.00     0.094 A 
ATOM     10  C   UNL     1      35.360 -95.279  29.405  1.00  0.00     0.146 A 
ATOM     11  O   UNL     1      36.064 -95.125  30.521  1.00  0.00    -0.456 OA
ENDROOT
BRANCH   1  12
ATOM     12  C   UNL     1      38.005 -95.325  31.959  1.00  0.00     0.021 A 
ATOM     13  C   UNL     1      39.194 -94.575  32.032  1.00  0.00     0.016 A 
ATOM     14  C   UNL     1      39.821 -94.359  33.263  1.00  0.00     0.051 A 
ATOM     15  C   UNL     1      39.268 -94.878  34.440  1.00  0.00     0.157 A 
ATOM     16  C   UNL     1      37.448 -95.831  33.147  1.00  0.00     0.062 A 
ATOM     17  C   UNL     1      38.074 -95.616  34.381  1.00  0.00     0.158 A 
BRANCH  15  18
ATOM     18  O   UNL     1      39.896 -94.661  35.664  1.00  0.00    -0.504 OA
ATOM     19  H   UNL     1      40.875 -94.404  35.722  1.00  0.00     0.293 HD
ENDBRANCH  15  18
BRANCH  17  20
ATOM     20  O   UNL     1      37.495 -96.144  35.534  1.00  0.00    -0.504 OA
ATOM     21  H   UNL     1      38.040 -96.354  36.362  1.00  0.00     0.293 HD
ENDBRANCH  17  20
ENDBRANCH   1  12
BRANCH   6  22
ATOM     22  O   UNL     1      35.610 -96.541  25.876  1.00  0.00    -0.507 OA
ATOM     23  H   UNL     1      36.532 -96.378  25.499  1.00  0.00     0.293 HD
ENDBRANCH   6  22
BRANCH   8  24
ATOM     24  O   UNL     1      31.954 -94.498  28.190  1.00  0.00    -0.508 OA
ATOM     25  H   UNL     1      31.667 -93.673  28.704  1.00  0.00     0.293 HD
ENDBRANCH   8  24
TORSDOF 5
ENDMDL
MODEL 8
REMARK VINA RESULT:    -5.484      9.345     11.276
REMARK INTER + INTRA:          -6.710
REMARK INTER:                  -6.392
REMARK INTRA:                  -0.318
REMARK UNBOUND:                -0.265
REMARK SMILES O=c1cc(-c2ccc(O)c(O)c2)oc2cc(O)cc(O)c12
REMARK SMILES IDX 4 1 3 2 2 3 1 4 21 5 19 6 18 7 16 8 15 9 14 10 13 11 5 12
REMARK SMILES IDX 6 13 7 14 8 15 12 16 10 17 9 18 11 20 20 22 17 24
REMARK H PARENT 9 19 11 21 20 23 17 25
REMARK Flexibility Score: inf
ROOT
ATOM      1  C   UNL     1      39.931 -95.434  32.667  1.00  0.00     0.138 A 
ATOM      2  C   UNL     1      40.668 -95.740  31.515  1.00  0.00     0.100 A 
ATOM      3  C   UNL     1      40.012 -95.868  30.289  1.00  0.00     0.197 A 
ATOM      4  O   UNL     1      40.691 -96.204  29.284  1.00  0.00    -0.289 OA
ATOM      5  C   UNL     1      38.614 -95.656  30.215  1.00  0.00     0.107 A 
ATOM      6  C   UNL     1      37.847 -95.719  29.013  1.00  0.00     0.134 A 
ATOM      7  C   UNL     1      36.453 -95.607  29.079  1.00  0.00     0.093 A 
ATOM      8  C   UNL     1      35.804 -95.374  30.291  1.00  0.00     0.123 A 
ATOM      9  C   UNL     1      36.550 -95.256  31.465  1.00  0.00     0.094 A 
ATOM     10  C   UNL     1      37.939 -95.398  31.438  1.00  0.00     0.146 A 
ATOM     11  O   UNL     1      38.612 -95.294  32.578  1.00  0.00    -0.456 OA
ENDROOT
BRANCH   1  12
ATOM     12  C   UNL     1      40.578 -95.286  33.995  1.00  0.00     0.021 A 
ATOM     13  C   UNL     1      41.967 -95.447  34.163  1.00  0.00     0.016 A 
ATOM     14  C   UNL     1      42.550 -95.292  35.424  1.00  0.00     0.051 A 
ATOM     15  C   UNL     1      41.762 -94.966  36.534  1.00  0.00     0.157 A 
ATOM     16  C   UNL     1      39.795 -94.945  35.113  1.00  0.00     0.062 A 
ATOM     17  C   UNL     1      40.377 -94.789  36.376  1.00  0.00     0.158 A 
BRANCH  15  18
ATOM     18  O   UNL     1      42.348 -94.812  37.789  1.00  0.00    -0.504 OA
ATOM     19  H   UNL     1      43.344 -94.941  37.930  1.00  0.00     0.293 HD
ENDBRANCH  15  18
BRANCH  17  20
ATOM     20  O   UNL     1      39.564 -94.461  37.460  1.00  0.00    -0.504 OA
ATOM     21  H   UNL     1      38.997 -93.622  37.472  1.00  0.00     0.293 HD
ENDBRANCH  17  20
ENDBRANCH   1  12
BRANCH   6  22
ATOM     22  O   UNL     1      38.401 -95.864  27.739  1.00  0.00    -0.507 OA
ATOM     23  H   UNL     1      38.108 -96.546  27.056  1.00  0.00     0.293 HD
ENDBRANCH   6  22
BRANCH   8  24
ATOM     24  O   UNL     1      34.417 -95.252  30.317  1.00  0.00    -0.508 OA
ATOM     25  H   UNL     1      33.941 -94.498  29.835  1.00  0.00     0.293 HD
ENDBRANCH   8  24
TORSDOF 5
ENDMDL
MODEL 9
REMARK VINA RESULT:    -5.402      9.466     10.889
REMARK INTER + INTRA:          -6.614
REMARK INTER:                  -6.306
REMARK INTRA:                  -0.308
REMARK UNBOUND:                -0.265
REMARK SMILES O=c1cc(-c2ccc(O)c(O)c2)oc2cc(O)cc(O)c12
REMARK SMILES IDX 4 1 3 2 2 3 1 4 21 5 19 6 18 7 16 8 15 9 14 10 13 11 5 12
REMARK SMILES IDX 6 13 7 14 8 15 12 16 10 17 9 18 11 20 20 22 17 24
REMARK H PARENT 9 19 11 21 20 23 17 25
REMARK Flexibility Score: inf
ROOT
ATOM      1  C   UNL     1      36.375 -95.538  29.484  1.00  0.00     0.138 A 
ATOM      2  C   UNL     1      37.503 -95.869  28.720  1.00  0.00     0.100 A 
ATOM      3  C   UNL     1      38.765 -95.873  29.318  1.00  0.00     0.197 A 
ATOM      4  O   UNL     1      39.765 -96.114  28.593  1.00  0.00    -0.289 OA
ATOM      5  C   UNL     1      38.891 -95.573  30.695  1.00  0.00     0.107 A 
ATOM      6  C   UNL     1      40.121 -95.586  31.420  1.00  0.00     0.134 A 
ATOM      7  C   UNL     1      40.140 -95.158  32.753  1.00  0.00     0.093 A 
ATOM      8  C   UNL     1      38.968 -94.777  33.405  1.00  0.00     0.123 A 
ATOM      9  C   UNL     1      37.751 -94.812  32.722  1.00  0.00     0.094 A 
ATOM     10  C   UNL     1      37.704 -95.200  31.381  1.00  0.00     0.146 A 
ATOM     11  O   UNL     1      36.529 -95.207  30.762  1.00  0.00    -0.456 OA
ENDROOT
BRANCH   1  12
ATOM     12  C   UNL     1      35.011 -95.519  28.899  1.00  0.00     0.021 A 
ATOM     13  C   UNL     1      34.797 -95.284  27.527  1.00  0.00     0.016 A 
ATOM     14  C   UNL     1      33.502 -95.282  27.002  1.00  0.00     0.051 A 
ATOM     15  C   UNL     1      32.401 -95.523  27.832  1.00  0.00     0.157 A 
ATOM     16  C   UNL     1      33.900 -95.774  29.724  1.00  0.00     0.062 A 
ATOM     17  C   UNL     1      32.602 -95.772  29.200  1.00  0.00     0.158 A 
BRANCH  15  18
ATOM     18  O   UNL     1      31.111 -95.520  27.305  1.00  0.00    -0.504 OA
ATOM     19  H   UNL     1      30.293 -95.575  27.901  1.00  0.00     0.293 HD
ENDBRANCH  15  18
BRANCH  17  20
ATOM     20  O   UNL     1      31.528 -96.020  30.054  1.00  0.00    -0.504 OA
ATOM     21  H   UNL     1      30.643 -95.535  29.959  1.00  0.00     0.293 HD
ENDBRANCH  17  20
ENDBRANCH   1  12
BRANCH   6  22
ATOM     22  O   UNL     1      41.335 -96.029  30.889  1.00  0.00    -0.507 OA
ATOM     23  H   UNL     1      41.673 -95.815  29.963  1.00  0.00     0.293 HD
ENDBRANCH   6  22
BRANCH   8  24
ATOM     24  O   UNL     1      39.022 -94.371  34.737  1.00  0.00    -0.508 OA
ATOM     25  H   UNL     1      38.584 -93.512  35.049  1.00  0.00     0.293 HD
ENDBRANCH   8  24
TORSDOF 5
ENDMDL
