MODEL 1
REMARK VINA RESULT:     5.756      0.000      0.000
REMARK INTER + INTRA:           6.281
REMARK INTER:                   6.261
REMARK INTRA:                   0.020
REMARK UNBOUND:                 0.020
REMARK SMILES C[C@H]1[C@H](C)CC[C@]2(C(=O)[O-])CC[C@@]3(C)C(=CC[C@@H]4[C@@]5(C)CC[C@@H](O)C(C)(C)[C@H]5CC[C@@]43C)[C@H]12
REMARK SMILES IDX 7 1 6 2 11 3 33 4 5 5 12 6 15 7 2 8 3 9 13 10 16 11 1 12
REMARK SMILES IDX 4 13 14 14 31 15 17 16 18 17 30 18 32 19 19 20 29 21 28 22
REMARK SMILES IDX 21 23 20 24 25 25 22 26 23 27 26 28 27 29 8 30 9 31 10 32
REMARK SMILES IDX 24 33
REMARK H PARENT 24 34
REMARK Flexibility Score: inf
ROOT
ATOM      1  C   UNL     1      -9.276  21.098 -10.123  1.00  0.00     0.017 C 
ATOM      2  C   UNL     1     -10.202  20.505 -11.224  1.00  0.00     0.014 C 
ATOM      3  C   UNL     1      -7.830  20.578 -10.403  1.00  0.00     0.014 C 
ATOM      4  C   UNL     1      -9.793  20.669  -8.694  1.00  0.00     0.030 C 
ATOM      5  C   UNL     1     -11.673  20.878 -11.040  1.00  0.00     0.004 C 
ATOM      6  C   UNL     1      -6.986  20.347  -9.139  1.00  0.00     0.013 C 
ATOM      7  C   UNL     1      -9.135  19.361  -8.200  1.00  0.00    -0.063 C 
ATOM      8  C   UNL     1     -11.354  20.837  -8.492  1.00  0.00    -0.003 C 
ATOM      9  C   UNL     1     -12.227  20.372  -9.701  1.00  0.00    -0.011 C 
ATOM     10  C   UNL     1      -7.601  19.328  -8.104  1.00  0.00    -0.006 C 
ATOM     11  C   UNL     1      -9.836  18.324  -7.684  1.00  0.00    -0.027 C 
ATOM     12  C   UNL     1     -11.717  22.293  -8.126  1.00  0.00     0.008 C 
ATOM     13  C   UNL     1     -12.479  18.857  -9.734  1.00  0.00     0.008 C 
ATOM     14  C   UNL     1      -7.248  19.878  -6.693  1.00  0.00     0.017 C 
ATOM     15  C   UNL     1      -7.084  17.816  -8.329  1.00  0.00    -0.020 C 
ATOM     16  C   UNL     1      -9.204  17.225  -6.872  1.00  0.00     0.032 C 
ATOM     17  C   UNL     1      -7.767  16.798  -7.308  1.00  0.00     0.006 C 
ATOM     18  C   UNL     1      -5.538  17.672  -8.246  1.00  0.00     0.008 C 
ATOM     19  C   UNL     1      -7.468  17.367  -9.787  1.00  0.00     0.012 C 
ATOM     20  C   UNL     1      -6.888  16.127  -6.125  1.00  0.00    -0.025 C 
ATOM     21  C   UNL     1      -5.112  16.210  -8.049  1.00  0.00     0.005 C 
ATOM     22  C   UNL     1      -5.385  15.771  -6.596  1.00  0.00     0.003 C 
ATOM     23  C   UNL     1      -7.722  14.880  -5.640  1.00  0.00     0.010 C 
ATOM     24  C   UNL     1      -6.740  17.062  -4.887  1.00  0.00     0.012 C 
ATOM     25  C   UNL     1      -4.760  14.354  -6.185  1.00  0.00    -0.006 C 
ATOM     26  C   UNL     1      -6.926  13.758  -5.001  1.00  0.00     0.033 C 
ATOM     27  C   UNL     1      -5.846  13.269  -5.964  1.00  0.00     0.120 C 
ATOM     28  C   UNL     1      -3.929  14.510  -4.875  1.00  0.00     0.014 C 
ATOM     29  C   UNL     1      -3.756  13.795  -7.234  1.00  0.00     0.014 C 
ENDROOT
BRANCH   1  30
ATOM     30  C   UNL     1      -9.223  22.623 -10.235  1.00  0.00     0.048 C 
ATOM     31  O   UNL     1      -9.254  23.188 -11.362  1.00  0.00    -0.550 OA
ATOM     32  O   UNL     1      -9.013  23.408  -9.106  1.00  0.00    -0.550 OA
ENDBRANCH   1  30
BRANCH  27  33
ATOM     33  O   UNL     1      -6.422  12.899  -7.193  1.00  0.00    -0.393 OA
ATOM     34  H   UNL     1      -6.276  13.653  -7.823  1.00  0.00     0.210 HD
ENDBRANCH  27  33
TORSDOF 2
ENDMDL
