MODEL 1
REMARK VINA RESULT:    -5.085      0.000      0.000
REMARK INTER + INTRA:         -10.696
REMARK INTER:                  -9.842
REMARK INTRA:                  -0.854
REMARK UNBOUND:                -0.854
REMARK SMILES CCCCCCCCCCCCCCCCCC(=O)[O-]
REMARK SMILES IDX 10 1 11 2 12 3 13 4 14 5 15 6 16 7 17 8 18 9 19 10 20 11
REMARK SMILES IDX 9 12 8 13 7 14 6 15 5 16 4 17 3 18 2 19 1 20
REMARK H PARENT
REMARK Flexibility Score: inf
ROOT
ATOM      1  C   UNL     1       8.354   2.130  68.057  1.00  0.00     0.000 C 
ENDROOT
BRANCH   1   2
ATOM      2  C   UNL     1       6.953   2.759  68.077  1.00  0.00     0.000 C 
BRANCH   2   3
ATOM      3  C   UNL     1       6.147   2.375  69.329  1.00  0.00     0.000 C 
BRANCH   3   4
ATOM      4  C   UNL     1       4.630   2.365  69.075  1.00  0.00     0.000 C 
BRANCH   4   5
ATOM      5  C   UNL     1       4.229   1.403  67.945  1.00  0.00     0.000 C 
BRANCH   5   6
ATOM      6  C   UNL     1       3.450   0.181  68.460  1.00  0.00     0.000 C 
BRANCH   6   7
ATOM      7  C   UNL     1       4.338  -1.063  68.648  1.00  0.00     0.006 C 
BRANCH   7   8
ATOM      8  C   UNL     1       3.565  -2.395  68.616  1.00  0.00     0.053 C 
BRANCH   8   9
ATOM      9  C   UNL     1       4.166  -3.391  67.673  1.00  0.00     0.041 C 
ATOM     10  O   UNL     1       5.083  -4.162  68.061  1.00  0.00    -0.550 OA
ATOM     11  O   UNL     1       3.690  -3.493  66.372  1.00  0.00    -0.550 OA
ENDBRANCH   8   9
ENDBRANCH   7   8
ENDBRANCH   6   7
ENDBRANCH   5   6
ENDBRANCH   4   5
ENDBRANCH   3   4
ENDBRANCH   2   3
ENDBRANCH   1   2
BRANCH   1  12
ATOM     12  C   UNL     1       9.395   3.125  67.529  1.00  0.00     0.000 C 
BRANCH  12  13
ATOM     13  C   UNL     1      10.680   2.400  67.100  1.00  0.00    -0.000 C 
BRANCH  13  14
ATOM     14  C   UNL     1      10.719   2.105  65.591  1.00  0.00    -0.000 C 
BRANCH  14  15
ATOM     15  C   UNL     1      12.150   1.896  65.067  1.00  0.00    -0.000 C 
BRANCH  15  16
ATOM     16  C   UNL     1      12.669   0.465  65.293  1.00  0.00    -0.000 C 
BRANCH  16  17
ATOM     17  C   UNL     1      11.758  -0.653  64.755  1.00  0.00    -0.000 C 
BRANCH  17  18
ATOM     18  C   UNL     1      11.515  -1.774  65.777  1.00  0.00    -0.000 C 
BRANCH  18  19
ATOM     19  C   UNL     1      11.000  -3.043  65.089  1.00  0.00    -0.003 C 
ATOM     20  C   UNL     1      10.186  -2.703  63.842  1.00  0.00     0.004 C 
ENDBRANCH  18  19
ENDBRANCH  17  18
ENDBRANCH  16  17
ENDBRANCH  15  16
ENDBRANCH  14  15
ENDBRANCH  13  14
ENDBRANCH  12  13
ENDBRANCH   1  12
TORSDOF 16
ENDMDL
MODEL 2
REMARK VINA RESULT:    -4.436     10.465     12.111
REMARK INTER + INTRA:          -9.440
REMARK INTER:                  -8.388
REMARK INTRA:                  -1.052
REMARK UNBOUND:                -0.854
REMARK SMILES CCCCCCCCCCCCCCCCCC(=O)[O-]
REMARK SMILES IDX 10 1 11 2 12 3 13 4 14 5 15 6 16 7 17 8 18 9 19 10 20 11
REMARK SMILES IDX 9 12 8 13 7 14 6 15 5 16 4 17 3 18 2 19 1 20
REMARK H PARENT
REMARK Flexibility Score: inf
ROOT
ATOM      1  C   UNL     1      -1.070  -1.769  58.540  1.00  0.00     0.000 C 
ENDROOT
BRANCH   1   2
ATOM      2  C   UNL     1      -2.164  -1.171  57.643  1.00  0.00     0.000 C 
BRANCH   2   3
ATOM      3  C   UNL     1      -3.330  -2.142  57.398  1.00  0.00     0.000 C 
BRANCH   3   4
ATOM      4  C   UNL     1      -4.580  -1.785  58.220  1.00  0.00     0.000 C 
BRANCH   4   5
ATOM      5  C   UNL     1      -5.210  -3.014  58.896  1.00  0.00     0.000 C 
BRANCH   5   6
ATOM      6  C   UNL     1      -5.139  -2.942  60.431  1.00  0.00     0.000 C 
BRANCH   6   7
ATOM      7  C   UNL     1      -3.824  -2.327  60.944  1.00  0.00     0.006 C 
BRANCH   7   8
ATOM      8  C   UNL     1      -2.788  -3.366  61.413  1.00  0.00     0.053 C 
BRANCH   8   9
ATOM      9  C   UNL     1      -3.260  -4.165  62.589  1.00  0.00     0.041 C 
ATOM     10  O   UNL     1      -3.670  -5.346  62.434  1.00  0.00    -0.550 OA
ATOM     11  O   UNL     1      -3.218  -3.616  63.865  1.00  0.00    -0.550 OA
ENDBRANCH   8   9
ENDBRANCH   7   8
ENDBRANCH   6   7
ENDBRANCH   5   6
ENDBRANCH   4   5
ENDBRANCH   3   4
ENDBRANCH   2   3
ENDBRANCH   1   2
BRANCH   1  12
ATOM     12  C   UNL     1       0.196  -2.078  57.732  1.00  0.00     0.000 C 
BRANCH  12  13
ATOM     13  C   UNL     1       0.802  -0.792  57.148  1.00  0.00    -0.000 C 
BRANCH  13  14
ATOM     14  C   UNL     1       2.205  -0.493  57.701  1.00  0.00    -0.000 C 
BRANCH  14  15
ATOM     15  C   UNL     1       2.569   0.999  57.614  1.00  0.00    -0.000 C 
BRANCH  15  16
ATOM     16  C   UNL     1       4.088   1.247  57.599  1.00  0.00    -0.000 C 
BRANCH  16  17
ATOM     17  C   UNL     1       4.570   2.288  56.573  1.00  0.00    -0.000 C 
BRANCH  17  18
ATOM     18  C   UNL     1       5.936   2.893  56.929  1.00  0.00    -0.000 C 
BRANCH  18  19
ATOM     19  C   UNL     1       6.577   2.148  58.105  1.00  0.00    -0.003 C 
ATOM     20  C   UNL     1       7.991   2.655  58.376  1.00  0.00     0.004 C 
ENDBRANCH  18  19
ENDBRANCH  17  18
ENDBRANCH  16  17
ENDBRANCH  15  16
ENDBRANCH  14  15
ENDBRANCH  13  14
ENDBRANCH  12  13
ENDBRANCH   1  12
TORSDOF 16
ENDMDL
MODEL 3
REMARK VINA RESULT:    -4.208     13.663     17.428
REMARK INTER + INTRA:          -8.998
REMARK INTER:                  -6.248
REMARK INTRA:                  -2.750
REMARK UNBOUND:                -0.854
REMARK SMILES CCCCCCCCCCCCCCCCCC(=O)[O-]
REMARK SMILES IDX 10 1 11 2 12 3 13 4 14 5 15 6 16 7 17 8 18 9 19 10 20 11
REMARK SMILES IDX 9 12 8 13 7 14 6 15 5 16 4 17 3 18 2 19 1 20
REMARK H PARENT
REMARK Flexibility Score: inf
ROOT
ATOM      1  C   UNL     1      -3.788 -10.263  66.917  1.00  0.00     0.000 C 
ENDROOT
BRANCH   1   2
ATOM      2  C   UNL     1      -3.867 -10.412  65.390  1.00  0.00     0.000 C 
BRANCH   2   3
ATOM      3  C   UNL     1      -5.280 -10.161  64.840  1.00  0.00     0.000 C 
BRANCH   3   4
ATOM      4  C   UNL     1      -6.274  -9.738  65.936  1.00  0.00     0.000 C 
BRANCH   4   5
ATOM      5  C   UNL     1      -7.124  -8.525  65.521  1.00  0.00     0.000 C 
BRANCH   5   6
ATOM      6  C   UNL     1      -6.423  -7.645  64.473  1.00  0.00     0.000 C 
BRANCH   6   7
ATOM      7  C   UNL     1      -5.748  -6.404  65.084  1.00  0.00     0.006 C 
BRANCH   7   8
ATOM      8  C   UNL     1      -4.308  -6.651  65.573  1.00  0.00     0.053 C 
BRANCH   8   9
ATOM      9  C   UNL     1      -3.286  -6.432  64.500  1.00  0.00     0.041 C 
ATOM     10  O   UNL     1      -2.831  -7.406  63.845  1.00  0.00    -0.550 OA
ATOM     11  O   UNL     1      -2.859  -5.144  64.200  1.00  0.00    -0.550 OA
ENDBRANCH   8   9
ENDBRANCH   7   8
ENDBRANCH   6   7
ENDBRANCH   5   6
ENDBRANCH   4   5
ENDBRANCH   3   4
ENDBRANCH   2   3
ENDBRANCH   1   2
BRANCH   1  12
ATOM     12  C   UNL     1      -3.349 -11.577  67.575  1.00  0.00     0.000 C 
BRANCH  12  13
ATOM     13  C   UNL     1      -4.246 -11.916  68.776  1.00  0.00    -0.000 C 
BRANCH  13  14
ATOM     14  C   UNL     1      -5.066 -13.199  68.560  1.00  0.00    -0.000 C 
BRANCH  14  15
ATOM     15  C   UNL     1      -6.291 -12.972  67.658  1.00  0.00    -0.000 C 
BRANCH  15  16
ATOM     16  C   UNL     1      -6.134 -13.605  66.263  1.00  0.00    -0.000 C 
BRANCH  16  17
ATOM     17  C   UNL     1      -4.918 -14.535  66.101  1.00  0.00    -0.000 C 
BRANCH  17  18
ATOM     18  C   UNL     1      -4.193 -14.345  64.760  1.00  0.00    -0.000 C 
BRANCH  18  19
ATOM     19  C   UNL     1      -5.083 -13.605  63.755  1.00  0.00    -0.003 C 
ATOM     20  C   UNL     1      -4.939 -14.193  62.353  1.00  0.00     0.004 C 
ENDBRANCH  18  19
ENDBRANCH  17  18
ENDBRANCH  16  17
ENDBRANCH  15  16
ENDBRANCH  14  15
ENDBRANCH  13  14
ENDBRANCH  12  13
ENDBRANCH   1  12
TORSDOF 16
ENDMDL
MODEL 4
REMARK VINA RESULT:    -4.155     10.369     13.877
REMARK INTER + INTRA:          -8.896
REMARK INTER:                  -8.158
REMARK INTRA:                  -0.738
REMARK UNBOUND:                -0.854
REMARK SMILES CCCCCCCCCCCCCCCCCC(=O)[O-]
REMARK SMILES IDX 10 1 11 2 12 3 13 4 14 5 15 6 16 7 17 8 18 9 19 10 20 11
REMARK SMILES IDX 9 12 8 13 7 14 6 15 5 16 4 17 3 18 2 19 1 20
REMARK H PARENT
REMARK Flexibility Score: inf
ROOT
ATOM      1  C   UNL     1       0.312  -1.186  57.393  1.00  0.00     0.000 C 
ENDROOT
BRANCH   1   2
ATOM      2  C   UNL     1       0.225   0.347  57.365  1.00  0.00     0.000 C 
BRANCH   2   3
ATOM      3  C   UNL     1       1.505   1.025  57.880  1.00  0.00     0.000 C 
BRANCH   3   4
ATOM      4  C   UNL     1       2.780   0.264  57.478  1.00  0.00     0.000 C 
BRANCH   4   5
ATOM      5  C   UNL     1       4.052   1.105  57.670  1.00  0.00     0.000 C 
BRANCH   5   6
ATOM      6  C   UNL     1       4.142   2.274  56.675  1.00  0.00     0.000 C 
BRANCH   6   7
ATOM      7  C   UNL     1       5.496   3.005  56.725  1.00  0.00     0.006 C 
BRANCH   7   8
ATOM      8  C   UNL     1       6.512   2.375  57.695  1.00  0.00     0.053 C 
BRANCH   8   9
ATOM      9  C   UNL     1       7.932   2.652  57.309  1.00  0.00     0.041 C 
ATOM     10  O   UNL     1       8.829   2.726  58.189  1.00  0.00    -0.550 OA
ATOM     11  O   UNL     1       8.272   2.797  55.969  1.00  0.00    -0.550 OA
ENDBRANCH   8   9
ENDBRANCH   7   8
ENDBRANCH   6   7
ENDBRANCH   5   6
ENDBRANCH   4   5
ENDBRANCH   3   4
ENDBRANCH   2   3
ENDBRANCH   1   2
BRANCH   1  12
ATOM     12  C   UNL     1      -0.779  -1.781  58.292  1.00  0.00     0.000 C 
BRANCH  12  13
ATOM     13  C   UNL     1      -2.110  -1.903  57.533  1.00  0.00    -0.000 C 
BRANCH  13  14
ATOM     14  C   UNL     1      -3.333  -1.779  58.457  1.00  0.00    -0.000 C 
BRANCH  14  15
ATOM     15  C   UNL     1      -2.948  -1.748  59.946  1.00  0.00    -0.000 C 
BRANCH  15  16
ATOM     16  C   UNL     1      -4.005  -2.402  60.854  1.00  0.00    -0.000 C 
BRANCH  16  17
ATOM     17  C   UNL     1      -3.554  -2.658  62.303  1.00  0.00    -0.000 C 
BRANCH  17  18
ATOM     18  C   UNL     1      -2.967  -4.062  62.510  1.00  0.00    -0.000 C 
BRANCH  18  19
ATOM     19  C   UNL     1      -2.827  -4.383  64.003  1.00  0.00    -0.003 C 
ATOM     20  C   UNL     1      -2.300  -5.801  64.214  1.00  0.00     0.004 C 
ENDBRANCH  18  19
ENDBRANCH  17  18
ENDBRANCH  16  17
ENDBRANCH  15  16
ENDBRANCH  14  15
ENDBRANCH  13  14
ENDBRANCH  12  13
ENDBRANCH   1  12
TORSDOF 16
ENDMDL
MODEL 5
REMARK VINA RESULT:    -4.058     11.234     13.228
REMARK INTER + INTRA:          -8.708
REMARK INTER:                  -6.053
REMARK INTRA:                  -2.654
REMARK UNBOUND:                -0.854
REMARK SMILES CCCCCCCCCCCCCCCCCC(=O)[O-]
REMARK SMILES IDX 10 1 11 2 12 3 13 4 14 5 15 6 16 7 17 8 18 9 19 10 20 11
REMARK SMILES IDX 9 12 8 13 7 14 6 15 5 16 4 17 3 18 2 19 1 20
REMARK H PARENT
REMARK Flexibility Score: inf
ROOT
ATOM      1  C   UNL     1      -1.029  -1.850  58.377  1.00  0.00     0.000 C 
ENDROOT
BRANCH   1   2
ATOM      2  C   UNL     1      -2.094  -1.277  57.430  1.00  0.00     0.000 C 
BRANCH   2   3
ATOM      3  C   UNL     1      -3.287  -2.225  57.234  1.00  0.00     0.000 C 
BRANCH   3   4
ATOM      4  C   UNL     1      -4.531  -1.782  58.024  1.00  0.00     0.000 C 
BRANCH   4   5
ATOM      5  C   UNL     1      -4.866  -2.742  59.178  1.00  0.00     0.000 C 
BRANCH   5   6
ATOM      6  C   UNL     1      -4.855  -2.042  60.548  1.00  0.00     0.000 C 
BRANCH   6   7
ATOM      7  C   UNL     1      -3.444  -1.930  61.155  1.00  0.00     0.006 C 
BRANCH   7   8
ATOM      8  C   UNL     1      -2.704  -3.276  61.271  1.00  0.00     0.053 C 
BRANCH   8   9
ATOM      9  C   UNL     1      -3.241  -4.140  62.369  1.00  0.00     0.041 C 
ATOM     10  O   UNL     1      -2.999  -3.863  63.574  1.00  0.00    -0.550 OA
ATOM     11  O   UNL     1      -4.039  -5.236  62.065  1.00  0.00    -0.550 OA
ENDBRANCH   8   9
ENDBRANCH   7   8
ENDBRANCH   6   7
ENDBRANCH   5   6
ENDBRANCH   4   5
ENDBRANCH   3   4
ENDBRANCH   2   3
ENDBRANCH   1   2
BRANCH   1  12
ATOM     12  C   UNL     1       0.342  -1.909  57.691  1.00  0.00     0.000 C 
BRANCH  12  13
ATOM     13  C   UNL     1       0.681  -0.566  57.026  1.00  0.00    -0.000 C 
BRANCH  13  14
ATOM     14  C   UNL     1       1.405   0.401  57.977  1.00  0.00    -0.000 C 
BRANCH  14  15
ATOM     15  C   UNL     1       1.027   1.871  57.725  1.00  0.00    -0.000 C 
BRANCH  15  16
ATOM     16  C   UNL     1      -0.293   2.276  58.406  1.00  0.00    -0.000 C 
BRANCH  16  17
ATOM     17  C   UNL     1      -0.404   1.895  59.894  1.00  0.00    -0.000 C 
BRANCH  17  18
ATOM     18  C   UNL     1      -1.714   1.169  60.231  1.00  0.00    -0.000 C 
BRANCH  18  19
ATOM     19  C   UNL     1      -2.909   2.127  60.154  1.00  0.00    -0.003 C 
ATOM     20  C   UNL     1      -3.941   1.641  59.140  1.00  0.00     0.004 C 
ENDBRANCH  18  19
ENDBRANCH  17  18
ENDBRANCH  16  17
ENDBRANCH  15  16
ENDBRANCH  14  15
ENDBRANCH  13  14
ENDBRANCH  12  13
ENDBRANCH   1  12
TORSDOF 16
ENDMDL
MODEL 6
REMARK VINA RESULT:    -4.044     12.489     16.659
REMARK INTER + INTRA:          -8.680
REMARK INTER:                  -6.513
REMARK INTRA:                  -2.167
REMARK UNBOUND:                -0.854
REMARK SMILES CCCCCCCCCCCCCCCCCC(=O)[O-]
REMARK SMILES IDX 10 1 11 2 12 3 13 4 14 5 15 6 16 7 17 8 18 9 19 10 20 11
REMARK SMILES IDX 9 12 8 13 7 14 6 15 5 16 4 17 3 18 2 19 1 20
REMARK H PARENT
REMARK Flexibility Score: inf
ROOT
ATOM      1  C   UNL     1      -4.941 -10.229  64.489  1.00  0.00     0.000 C 
ENDROOT
BRANCH   1   2
ATOM      2  C   UNL     1      -6.059  -9.791  65.448  1.00  0.00     0.000 C 
BRANCH   2   3
ATOM      3  C   UNL     1      -6.789  -8.525  64.972  1.00  0.00     0.000 C 
BRANCH   3   4
ATOM      4  C   UNL     1      -5.960  -7.247  65.191  1.00  0.00     0.000 C 
BRANCH   4   5
ATOM      5  C   UNL     1      -6.005  -6.302  63.978  1.00  0.00     0.000 C 
BRANCH   5   6
ATOM      6  C   UNL     1      -4.947  -5.189  64.060  1.00  0.00     0.000 C 
BRANCH   6   7
ATOM      7  C   UNL     1      -3.680  -5.502  63.244  1.00  0.00     0.006 C 
BRANCH   7   8
ATOM      8  C   UNL     1      -2.693  -6.446  63.957  1.00  0.00     0.053 C 
BRANCH   8   9
ATOM      9  C   UNL     1      -2.285  -5.945  65.308  1.00  0.00     0.041 C 
ATOM     10  O   UNL     1      -2.506  -6.637  66.337  1.00  0.00    -0.550 OA
ATOM     11  O   UNL     1      -1.630  -4.726  65.428  1.00  0.00    -0.550 OA
ENDBRANCH   8   9
ENDBRANCH   7   8
ENDBRANCH   6   7
ENDBRANCH   5   6
ENDBRANCH   4   5
ENDBRANCH   3   4
ENDBRANCH   2   3
ENDBRANCH   1   2
BRANCH   1  12
ATOM     12  C   UNL     1      -3.627 -10.458  65.246  1.00  0.00     0.000 C 
BRANCH  12  13
ATOM     13  C   UNL     1      -3.796 -10.160  66.744  1.00  0.00    -0.000 C 
BRANCH  13  14
ATOM     14  C   UNL     1      -3.542 -11.392  67.627  1.00  0.00    -0.000 C 
BRANCH  14  15
ATOM     15  C   UNL     1      -3.195 -12.646  66.805  1.00  0.00    -0.000 C 
BRANCH  15  16
ATOM     16  C   UNL     1      -4.246 -13.762  66.941  1.00  0.00    -0.000 C 
BRANCH  16  17
ATOM     17  C   UNL     1      -5.678 -13.365  66.537  1.00  0.00    -0.000 C 
BRANCH  17  18
ATOM     18  C   UNL     1      -6.025 -13.760  65.094  1.00  0.00    -0.000 C 
BRANCH  18  19
ATOM     19  C   UNL     1      -4.821 -14.403  64.396  1.00  0.00    -0.003 C 
ATOM     20  C   UNL     1      -4.757 -14.001  62.924  1.00  0.00     0.004 C 
ENDBRANCH  18  19
ENDBRANCH  17  18
ENDBRANCH  16  17
ENDBRANCH  15  16
ENDBRANCH  14  15
ENDBRANCH  13  14
ENDBRANCH  12  13
ENDBRANCH   1  12
TORSDOF 16
ENDMDL
MODEL 7
REMARK VINA RESULT:    -4.040     12.182     16.580
REMARK INTER + INTRA:          -8.672
REMARK INTER:                  -6.122
REMARK INTRA:                  -2.550
REMARK UNBOUND:                -0.854
REMARK SMILES CCCCCCCCCCCCCCCCCC(=O)[O-]
REMARK SMILES IDX 10 1 11 2 12 3 13 4 14 5 15 6 16 7 17 8 18 9 19 10 20 11
REMARK SMILES IDX 9 12 8 13 7 14 6 15 5 16 4 17 3 18 2 19 1 20
REMARK H PARENT
REMARK Flexibility Score: inf
ROOT
ATOM      1  C   UNL     1      -3.220 -10.664  64.372  1.00  0.00     0.000 C 
ENDROOT
BRANCH   1   2
ATOM      2  C   UNL     1      -3.431  -9.157  64.580  1.00  0.00     0.000 C 
BRANCH   2   3
ATOM      3  C   UNL     1      -4.887  -8.801  64.921  1.00  0.00     0.000 C 
BRANCH   3   4
ATOM      4  C   UNL     1      -4.992  -7.748  66.038  1.00  0.00     0.000 C 
BRANCH   4   5
ATOM      5  C   UNL     1      -3.684  -7.603  66.834  1.00  0.00     0.000 C 
BRANCH   5   6
ATOM      6  C   UNL     1      -3.150  -6.160  66.830  1.00  0.00     0.000 C 
BRANCH   6   7
ATOM      7  C   UNL     1      -2.156  -5.889  65.686  1.00  0.00     0.006 C 
BRANCH   7   8
ATOM      8  C   UNL     1      -2.394  -4.555  64.953  1.00  0.00     0.053 C 
BRANCH   8   9
ATOM      9  C   UNL     1      -2.893  -4.744  63.554  1.00  0.00     0.041 C 
ATOM     10  O   UNL     1      -2.911  -3.776  62.748  1.00  0.00    -0.550 OA
ATOM     11  O   UNL     1      -3.310  -5.999  63.128  1.00  0.00    -0.550 OA
ENDBRANCH   8   9
ENDBRANCH   7   8
ENDBRANCH   6   7
ENDBRANCH   5   6
ENDBRANCH   4   5
ENDBRANCH   3   4
ENDBRANCH   2   3
ENDBRANCH   1   2
BRANCH   1  12
ATOM     12  C   UNL     1      -4.563 -11.400  64.290  1.00  0.00     0.000 C 
BRANCH  12  13
ATOM     13  C   UNL     1      -4.354 -12.890  63.974  1.00  0.00    -0.000 C 
BRANCH  13  14
ATOM     14  C   UNL     1      -5.599 -13.741  64.276  1.00  0.00    -0.000 C 
BRANCH  14  15
ATOM     15  C   UNL     1      -5.834 -13.926  65.786  1.00  0.00    -0.000 C 
BRANCH  15  16
ATOM     16  C   UNL     1      -4.597 -14.468  66.523  1.00  0.00    -0.000 C 
BRANCH  16  17
ATOM     17  C   UNL     1      -4.175 -13.668  67.769  1.00  0.00    -0.000 C 
BRANCH  17  18
ATOM     18  C   UNL     1      -3.102 -12.612  67.469  1.00  0.00    -0.000 C 
BRANCH  18  19
ATOM     19  C   UNL     1      -3.471 -11.261  68.093  1.00  0.00    -0.003 C 
ATOM     20  C   UNL     1      -4.960 -10.968  67.935  1.00  0.00     0.004 C 
ENDBRANCH  18  19
ENDBRANCH  17  18
ENDBRANCH  16  17
ENDBRANCH  15  16
ENDBRANCH  14  15
ENDBRANCH  13  14
ENDBRANCH  12  13
ENDBRANCH   1  12
TORSDOF 16
ENDMDL
MODEL 8
REMARK VINA RESULT:    -4.026     12.598     17.604
REMARK INTER + INTRA:          -8.645
REMARK INTER:                  -6.133
REMARK INTRA:                  -2.512
REMARK UNBOUND:                -0.854
REMARK SMILES CCCCCCCCCCCCCCCCCC(=O)[O-]
REMARK SMILES IDX 10 1 11 2 12 3 13 4 14 5 15 6 16 7 17 8 18 9 19 10 20 11
REMARK SMILES IDX 9 12 8 13 7 14 6 15 5 16 4 17 3 18 2 19 1 20
REMARK H PARENT
REMARK Flexibility Score: inf
ROOT
ATOM      1  C   UNL     1      -4.136 -14.126  66.051  1.00  0.00     0.000 C 
ENDROOT
BRANCH   1   2
ATOM      2  C   UNL     1      -4.223 -14.482  64.559  1.00  0.00     0.000 C 
BRANCH   2   3
ATOM      3  C   UNL     1      -4.198 -13.243  63.650  1.00  0.00     0.000 C 
BRANCH   3   4
ATOM      4  C   UNL     1      -4.663 -11.968  64.374  1.00  0.00     0.000 C 
BRANCH   4   5
ATOM      5  C   UNL     1      -3.594 -10.862  64.363  1.00  0.00     0.000 C 
BRANCH   5   6
ATOM      6  C   UNL     1      -4.204  -9.453  64.450  1.00  0.00     0.000 C 
BRANCH   6   7
ATOM      7  C   UNL     1      -3.143  -8.338  64.473  1.00  0.00     0.006 C 
BRANCH   7   8
ATOM      8  C   UNL     1      -3.296  -7.352  65.647  1.00  0.00     0.053 C 
BRANCH   8   9
ATOM      9  C   UNL     1      -2.290  -6.244  65.608  1.00  0.00     0.041 C 
ATOM     10  O   UNL     1      -1.540  -6.029  66.597  1.00  0.00    -0.550 OA
ATOM     11  O   UNL     1      -2.156  -5.466  64.465  1.00  0.00    -0.550 OA
ENDBRANCH   8   9
ENDBRANCH   7   8
ENDBRANCH   6   7
ENDBRANCH   5   6
ENDBRANCH   4   5
ENDBRANCH   3   4
ENDBRANCH   2   3
ENDBRANCH   1   2
BRANCH   1  12
ATOM     12  C   UNL     1      -5.266 -14.796  66.842  1.00  0.00     0.000 C 
BRANCH  12  13
ATOM     13  C   UNL     1      -5.932 -13.797  67.801  1.00  0.00    -0.000 C 
BRANCH  13  14
ATOM     14  C   UNL     1      -6.736 -12.713  67.065  1.00  0.00    -0.000 C 
BRANCH  14  15
ATOM     15  C   UNL     1      -6.954 -11.454  67.923  1.00  0.00    -0.000 C 
BRANCH  15  16
ATOM     16  C   UNL     1      -5.714 -11.070  68.749  1.00  0.00    -0.000 C 
BRANCH  16  17
ATOM     17  C   UNL     1      -4.632 -10.290  67.979  1.00  0.00    -0.000 C 
BRANCH  17  18
ATOM     18  C   UNL     1      -3.289 -11.033  67.914  1.00  0.00    -0.000 C 
BRANCH  18  19
ATOM     19  C   UNL     1      -2.904 -11.592  69.288  1.00  0.00    -0.003 C 
ATOM     20  C   UNL     1      -2.494 -13.060  69.192  1.00  0.00     0.004 C 
ENDBRANCH  18  19
ENDBRANCH  17  18
ENDBRANCH  16  17
ENDBRANCH  15  16
ENDBRANCH  14  15
ENDBRANCH  13  14
ENDBRANCH  12  13
ENDBRANCH   1  12
TORSDOF 16
ENDMDL
MODEL 9
REMARK VINA RESULT:    -4.005     12.768     17.238
REMARK INTER + INTRA:          -8.606
REMARK INTER:                  -6.058
REMARK INTRA:                  -2.547
REMARK UNBOUND:                -0.854
REMARK SMILES CCCCCCCCCCCCCCCCCC(=O)[O-]
REMARK SMILES IDX 10 1 11 2 12 3 13 4 14 5 15 6 16 7 17 8 18 9 19 10 20 11
REMARK SMILES IDX 9 12 8 13 7 14 6 15 5 16 4 17 3 18 2 19 1 20
REMARK H PARENT
REMARK Flexibility Score: inf
ROOT
ATOM      1  C   UNL     1      -3.487 -10.979  64.427  1.00  0.00     0.000 C 
ENDROOT
BRANCH   1   2
ATOM      2  C   UNL     1      -4.020  -9.575  64.751  1.00  0.00     0.000 C 
BRANCH   2   3
ATOM      3  C   UNL     1      -5.514  -9.576  65.115  1.00  0.00     0.000 C 
BRANCH   3   4
ATOM      4  C   UNL     1      -5.956  -8.272  65.802  1.00  0.00     0.000 C 
BRANCH   4   5
ATOM      5  C   UNL     1      -6.996  -7.496  64.977  1.00  0.00     0.000 C 
BRANCH   5   6
ATOM      6  C   UNL     1      -6.353  -6.437  64.065  1.00  0.00     0.000 C 
BRANCH   6   7
ATOM      7  C   UNL     1      -5.178  -5.701  64.733  1.00  0.00     0.006 C 
BRANCH   7   8
ATOM      8  C   UNL     1      -3.837  -5.863  63.994  1.00  0.00     0.053 C 
BRANCH   8   9
ATOM      9  C   UNL     1      -2.656  -5.784  64.911  1.00  0.00     0.041 C 
ATOM     10  O   UNL     1      -2.374  -6.748  65.672  1.00  0.00    -0.550 OA
ATOM     11  O   UNL     1      -1.844  -4.656  64.904  1.00  0.00    -0.550 OA
ENDBRANCH   8   9
ENDBRANCH   7   8
ENDBRANCH   6   7
ENDBRANCH   5   6
ENDBRANCH   4   5
ENDBRANCH   3   4
ENDBRANCH   2   3
ENDBRANCH   1   2
BRANCH   1  12
ATOM     12  C   UNL     1      -4.630 -11.925  64.038  1.00  0.00     0.000 C 
BRANCH  12  13
ATOM     13  C   UNL     1      -4.108 -13.352  63.810  1.00  0.00    -0.000 C 
BRANCH  13  14
ATOM     14  C   UNL     1      -4.571 -14.334  64.899  1.00  0.00    -0.000 C 
BRANCH  14  15
ATOM     15  C   UNL     1      -6.053 -14.148  65.270  1.00  0.00    -0.000 C 
BRANCH  15  16
ATOM     16  C   UNL     1      -6.264 -13.853  66.766  1.00  0.00    -0.000 C 
BRANCH  16  17
ATOM     17  C   UNL     1      -6.640 -12.397  67.099  1.00  0.00    -0.000 C 
BRANCH  17  18
ATOM     18  C   UNL     1      -5.738 -11.775  68.175  1.00  0.00    -0.000 C 
BRANCH  18  19
ATOM     19  C   UNL     1      -4.268 -12.135  67.934  1.00  0.00    -0.003 C 
ATOM     20  C   UNL     1      -3.361 -10.926  68.147  1.00  0.00     0.004 C 
ENDBRANCH  18  19
ENDBRANCH  17  18
ENDBRANCH  16  17
ENDBRANCH  15  16
ENDBRANCH  14  15
ENDBRANCH  13  14
ENDBRANCH  12  13
ENDBRANCH   1  12
TORSDOF 16
ENDMDL
