MODEL 1
REMARK VINA RESULT:    -5.282      0.000      0.000
REMARK INTER + INTRA:          -6.453
REMARK INTER:                  -6.209
REMARK INTRA:                  -0.245
REMARK UNBOUND:                -0.245
REMARK SMILES O=c1c(O)c(-c2ccc(O)cc2)oc2cc(O)cc(O)c12
REMARK SMILES IDX 5 1 3 2 2 3 1 4 21 5 19 6 18 7 16 8 15 9 14 10 13 11 6 12
REMARK SMILES IDX 7 13 8 14 9 15 12 16 11 17 10 18 4 20 20 22 17 24
REMARK H PARENT 10 19 4 21 20 23 17 25
REMARK Flexibility Score: inf
ROOT
ATOM      1  C   UNL     1     -17.364  17.123 -16.143  1.00  0.00     0.180 A 
ATOM      2  C   UNL     1     -17.612  16.973 -17.518  1.00  0.00     0.208 A 
ATOM      3  C   UNL     1     -16.725  17.556 -18.437  1.00  0.00     0.238 A 
ATOM      4  O   UNL     1     -16.923  17.372 -19.667  1.00  0.00    -0.285 OA
ATOM      5  C   UNL     1     -15.612  18.294 -17.971  1.00  0.00     0.111 A 
ATOM      6  C   UNL     1     -14.672  18.962 -18.813  1.00  0.00     0.134 A 
ATOM      7  C   UNL     1     -13.535  19.552 -18.246  1.00  0.00     0.093 A 
ATOM      8  C   UNL     1     -13.340  19.557 -16.862  1.00  0.00     0.123 A 
ATOM      9  C   UNL     1     -14.282  18.960 -16.029  1.00  0.00     0.094 A 
ATOM     10  C   UNL     1     -15.407  18.331 -16.566  1.00  0.00     0.146 A 
ATOM     11  O   UNL     1     -16.275  17.765 -15.737  1.00  0.00    -0.452 OA
ENDROOT
BRANCH   1  12
ATOM     12  C   UNL     1     -18.266  16.558 -15.113  1.00  0.00     0.021 A 
ATOM     13  C   UNL     1     -18.189  15.190 -14.800  1.00  0.00     0.016 A 
ATOM     14  C   UNL     1     -19.016  14.642 -13.814  1.00  0.00     0.047 A 
ATOM     15  C   UNL     1     -19.919  15.456 -13.119  1.00  0.00     0.115 A 
ATOM     16  C   UNL     1     -19.162  17.374 -14.396  1.00  0.00     0.016 A 
ATOM     17  C   UNL     1     -19.987  16.822 -13.411  1.00  0.00     0.047 A 
BRANCH  15  18
ATOM     18  O   UNL     1     -20.748  14.921 -12.136  1.00  0.00    -0.508 OA
ATOM     19  H   UNL     1     -21.607  15.382 -11.859  1.00  0.00     0.293 HD
ENDBRANCH  15  18
ENDBRANCH   1  12
BRANCH   2  20
ATOM     20  O   UNL     1     -18.706  16.221 -17.957  1.00  0.00    -0.502 OA
ATOM     21  H   UNL     1     -19.485  15.990 -17.353  1.00  0.00     0.293 HD
ENDBRANCH   2  20
BRANCH   6  22
ATOM     22  O   UNL     1     -14.820  19.095 -20.196  1.00  0.00    -0.507 OA
ATOM     23  H   UNL     1     -14.118  19.472 -20.815  1.00  0.00     0.293 HD
ENDBRANCH   6  22
BRANCH   8  24
ATOM     24  O   UNL     1     -12.214  20.161 -16.306  1.00  0.00    -0.508 OA
ATOM     25  H   UNL     1     -12.274  20.720 -15.463  1.00  0.00     0.293 HD
ENDBRANCH   8  24
TORSDOF 5
ENDMDL
MODEL 2
REMARK VINA RESULT:    -5.265     15.666     17.091
REMARK INTER + INTRA:          -6.433
REMARK INTER:                  -6.144
REMARK INTRA:                  -0.289
REMARK UNBOUND:                -0.245
REMARK SMILES O=c1c(O)c(-c2ccc(O)cc2)oc2cc(O)cc(O)c12
REMARK SMILES IDX 5 1 3 2 2 3 1 4 21 5 19 6 18 7 16 8 15 9 14 10 13 11 6 12
REMARK SMILES IDX 7 13 8 14 9 15 12 16 11 17 10 18 4 20 20 22 17 24
REMARK H PARENT 10 19 4 21 20 23 17 25
REMARK Flexibility Score: inf
ROOT
ATOM      1  C   UNL     1      -9.600   4.625 -23.158  1.00  0.00     0.180 A 
ATOM      2  C   UNL     1      -9.928   5.983 -23.003  1.00  0.00     0.208 A 
ATOM      3  C   UNL     1     -11.009   6.510 -23.728  1.00  0.00     0.238 A 
ATOM      4  O   UNL     1     -11.331   7.713 -23.543  1.00  0.00    -0.285 OA
ATOM      5  C   UNL     1     -11.737   5.677 -24.610  1.00  0.00     0.111 A 
ATOM      6  C   UNL     1     -12.825   6.116 -25.425  1.00  0.00     0.134 A 
ATOM      7  C   UNL     1     -13.557   5.176 -26.162  1.00  0.00     0.093 A 
ATOM      8  C   UNL     1     -13.199   3.826 -26.166  1.00  0.00     0.123 A 
ATOM      9  C   UNL     1     -12.103   3.399 -25.421  1.00  0.00     0.094 A 
ATOM     10  C   UNL     1     -11.375   4.305 -24.647  1.00  0.00     0.146 A 
ATOM     11  O   UNL     1     -10.344   3.855 -23.943  1.00  0.00    -0.452 OA
ENDROOT
BRANCH   1  12
ATOM     12  C   UNL     1      -8.460   4.003 -22.447  1.00  0.00     0.021 A 
ATOM     13  C   UNL     1      -7.177   4.053 -23.019  1.00  0.00     0.016 A 
ATOM     14  C   UNL     1      -6.083   3.492 -22.353  1.00  0.00     0.047 A 
ATOM     15  C   UNL     1      -6.254   2.888 -21.100  1.00  0.00     0.115 A 
ATOM     16  C   UNL     1      -8.621   3.413 -21.179  1.00  0.00     0.016 A 
ATOM     17  C   UNL     1      -7.524   2.853 -20.516  1.00  0.00     0.047 A 
BRANCH  15  18
ATOM     18  O   UNL     1      -5.172   2.325 -20.428  1.00  0.00    -0.508 OA
ATOM     19  H   UNL     1      -4.228   2.403 -20.787  1.00  0.00     0.293 HD
ENDBRANCH  15  18
ENDBRANCH   1  12
BRANCH   2  20
ATOM     20  O   UNL     1      -9.208   6.782 -22.109  1.00  0.00    -0.502 OA
ATOM     21  H   UNL     1      -8.344   7.241 -22.366  1.00  0.00     0.293 HD
ENDBRANCH   2  20
BRANCH   6  22
ATOM     22  O   UNL     1     -13.206   7.453 -25.565  1.00  0.00    -0.507 OA
ATOM     23  H   UNL     1     -13.240   8.122 -24.810  1.00  0.00     0.293 HD
ENDBRANCH   6  22
BRANCH   8  24
ATOM     24  O   UNL     1     -13.923   2.901 -26.915  1.00  0.00    -0.508 OA
ATOM     25  H   UNL     1     -14.788   3.155 -27.378  1.00  0.00     0.293 HD
ENDBRANCH   8  24
TORSDOF 5
ENDMDL
MODEL 3
REMARK VINA RESULT:    -5.262     12.129     15.374
REMARK INTER + INTRA:          -6.430
REMARK INTER:                  -6.143
REMARK INTRA:                  -0.287
REMARK UNBOUND:                -0.245
REMARK SMILES O=c1c(O)c(-c2ccc(O)cc2)oc2cc(O)cc(O)c12
REMARK SMILES IDX 5 1 3 2 2 3 1 4 21 5 19 6 18 7 16 8 15 9 14 10 13 11 6 12
REMARK SMILES IDX 7 13 8 14 9 15 12 16 11 17 10 18 4 20 20 22 17 24
REMARK H PARENT 10 19 4 21 20 23 17 25
REMARK Flexibility Score: inf
ROOT
ATOM      1  C   UNL     1     -10.116  14.565 -29.014  1.00  0.00     0.180 A 
ATOM      2  C   UNL     1      -9.875  14.713 -27.637  1.00  0.00     0.208 A 
ATOM      3  C   UNL     1     -10.440  15.805 -26.960  1.00  0.00     0.238 A 
ATOM      4  O   UNL     1     -10.266  15.902 -25.717  1.00  0.00    -0.285 OA
ATOM      5  C   UNL     1     -11.225  16.745 -27.671  1.00  0.00     0.111 A 
ATOM      6  C   UNL     1     -11.812  17.911 -27.094  1.00  0.00     0.134 A 
ATOM      7  C   UNL     1     -12.678  18.700 -27.863  1.00  0.00     0.093 A 
ATOM      8  C   UNL     1     -12.923  18.402 -29.206  1.00  0.00     0.123 A 
ATOM      9  C   UNL     1     -12.307  17.300 -29.793  1.00  0.00     0.094 A 
ATOM     10  C   UNL     1     -11.468  16.473 -29.043  1.00  0.00     0.146 A 
ATOM     11  O   UNL     1     -10.910  15.426 -29.639  1.00  0.00    -0.452 OA
ENDROOT
BRANCH   1  12
ATOM     12  C   UNL     1      -9.534  13.454 -29.801  1.00  0.00     0.021 A 
ATOM     13  C   UNL     1     -10.225  12.233 -29.888  1.00  0.00     0.016 A 
ATOM     14  C   UNL     1      -9.705  11.178 -30.645  1.00  0.00     0.047 A 
ATOM     15  C   UNL     1      -8.496  11.335 -31.336  1.00  0.00     0.115 A 
ATOM     16  C   UNL     1      -8.331  13.611 -30.513  1.00  0.00     0.016 A 
ATOM     17  C   UNL     1      -7.814  12.554 -31.270  1.00  0.00     0.047 A 
BRANCH  15  18
ATOM     18  O   UNL     1      -7.968  10.291 -32.092  1.00  0.00    -0.508 OA
ATOM     19  H   UNL     1      -8.565   9.596 -32.523  1.00  0.00     0.293 HD
ENDBRANCH  15  18
ENDBRANCH   1  12
BRANCH   2  20
ATOM     20  O   UNL     1      -9.115  13.761 -26.950  1.00  0.00    -0.502 OA
ATOM     21  H   UNL     1      -8.808  12.898 -27.380  1.00  0.00     0.293 HD
ENDBRANCH   2  20
BRANCH   6  22
ATOM     22  O   UNL     1     -11.560  18.350 -25.791  1.00  0.00    -0.507 OA
ATOM     23  H   UNL     1     -11.596  19.313 -25.492  1.00  0.00     0.293 HD
ENDBRANCH   6  22
BRANCH   8  24
ATOM     24  O   UNL     1     -13.773  19.202 -29.967  1.00  0.00    -0.508 OA
ATOM     25  H   UNL     1     -14.719  18.912 -30.187  1.00  0.00     0.293 HD
ENDBRANCH   8  24
TORSDOF 5
ENDMDL
MODEL 4
REMARK VINA RESULT:    -5.254     12.827     15.768
REMARK INTER + INTRA:          -6.420
REMARK INTER:                  -6.150
REMARK INTRA:                  -0.270
REMARK UNBOUND:                -0.245
REMARK SMILES O=c1c(O)c(-c2ccc(O)cc2)oc2cc(O)cc(O)c12
REMARK SMILES IDX 5 1 3 2 2 3 1 4 21 5 19 6 18 7 16 8 15 9 14 10 13 11 6 12
REMARK SMILES IDX 7 13 8 14 9 15 12 16 11 17 10 18 4 20 20 22 17 24
REMARK H PARENT 10 19 4 21 20 23 17 25
REMARK Flexibility Score: inf
ROOT
ATOM      1  C   UNL     1     -10.830  16.052 -29.875  1.00  0.00     0.180 A 
ATOM      2  C   UNL     1      -9.813  16.342 -30.800  1.00  0.00     0.208 A 
ATOM      3  C   UNL     1      -8.912  15.328 -31.161  1.00  0.00     0.238 A 
ATOM      4  O   UNL     1      -8.036  15.580 -32.030  1.00  0.00    -0.285 OA
ATOM      5  C   UNL     1      -9.029  14.042 -30.582  1.00  0.00     0.111 A 
ATOM      6  C   UNL     1      -8.146  12.951 -30.845  1.00  0.00     0.134 A 
ATOM      7  C   UNL     1      -8.436  11.687 -30.317  1.00  0.00     0.093 A 
ATOM      8  C   UNL     1      -9.539  11.490 -29.482  1.00  0.00     0.123 A 
ATOM      9  C   UNL     1     -10.372  12.561 -29.172  1.00  0.00     0.094 A 
ATOM     10  C   UNL     1     -10.130  13.827 -29.712  1.00  0.00     0.146 A 
ATOM     11  O   UNL     1     -10.955  14.819 -29.400  1.00  0.00    -0.452 OA
ENDROOT
BRANCH   1  12
ATOM     12  C   UNL     1     -11.803  17.075 -29.426  1.00  0.00     0.021 A 
ATOM     13  C   UNL     1     -11.560  17.788 -28.240  1.00  0.00     0.016 A 
ATOM     14  C   UNL     1     -12.453  18.774 -27.811  1.00  0.00     0.047 A 
ATOM     15  C   UNL     1     -13.594  19.070 -28.569  1.00  0.00     0.115 A 
ATOM     16  C   UNL     1     -12.940  17.392 -30.193  1.00  0.00     0.016 A 
ATOM     17  C   UNL     1     -13.831  18.379 -29.761  1.00  0.00     0.047 A 
BRANCH  15  18
ATOM     18  O   UNL     1     -14.491  20.049 -28.150  1.00  0.00    -0.508 OA
ATOM     19  H   UNL     1     -14.194  20.828 -27.574  1.00  0.00     0.293 HD
ENDBRANCH  15  18
ENDBRANCH   1  12
BRANCH   2  20
ATOM     20  O   UNL     1      -9.728  17.614 -31.376  1.00  0.00    -0.502 OA
ATOM     21  H   UNL     1     -10.293  18.392 -31.060  1.00  0.00     0.293 HD
ENDBRANCH   2  20
BRANCH   6  22
ATOM     22  O   UNL     1      -6.969  13.062 -31.590  1.00  0.00    -0.507 OA
ATOM     23  H   UNL     1      -6.919  13.404 -32.538  1.00  0.00     0.293 HD
ENDBRANCH   6  22
BRANCH   8  24
ATOM     24  O   UNL     1      -9.809  10.232 -28.948  1.00  0.00    -0.508 OA
ATOM     25  H   UNL     1     -10.529   9.634 -29.338  1.00  0.00     0.293 HD
ENDBRANCH   8  24
TORSDOF 5
ENDMDL
MODEL 5
REMARK VINA RESULT:    -5.219      2.432      3.180
REMARK INTER + INTRA:          -6.379
REMARK INTER:                  -6.079
REMARK INTRA:                  -0.300
REMARK UNBOUND:                -0.245
REMARK SMILES O=c1c(O)c(-c2ccc(O)cc2)oc2cc(O)cc(O)c12
REMARK SMILES IDX 5 1 3 2 2 3 1 4 21 5 19 6 18 7 16 8 15 9 14 10 13 11 6 12
REMARK SMILES IDX 7 13 8 14 9 15 12 16 11 17 10 18 4 20 20 22 17 24
REMARK H PARENT 10 19 4 21 20 23 17 25
REMARK Flexibility Score: inf
ROOT
ATOM      1  C   UNL     1     -16.259  17.517 -14.616  1.00  0.00     0.180 A 
ATOM      2  C   UNL     1     -16.051  18.906 -14.579  1.00  0.00     0.208 A 
ATOM      3  C   UNL     1     -14.896  19.438 -15.174  1.00  0.00     0.238 A 
ATOM      4  O   UNL     1     -14.742  20.687 -15.185  1.00  0.00    -0.285 OA
ATOM      5  C   UNL     1     -13.957  18.573 -15.785  1.00  0.00     0.111 A 
ATOM      6  C   UNL     1     -12.732  18.999 -16.382  1.00  0.00     0.134 A 
ATOM      7  C   UNL     1     -11.942  18.071 -17.072  1.00  0.00     0.093 A 
ATOM      8  C   UNL     1     -12.298  16.722 -17.129  1.00  0.00     0.123 A 
ATOM      9  C   UNL     1     -13.460  16.286 -16.498  1.00  0.00     0.094 A 
ATOM     10  C   UNL     1     -14.288  17.194 -15.833  1.00  0.00     0.146 A 
ATOM     11  O   UNL     1     -15.393  16.739 -15.254  1.00  0.00    -0.452 OA
ENDROOT
BRANCH   1  12
ATOM     12  C   UNL     1     -17.441  16.880 -13.990  1.00  0.00     0.021 A 
ATOM     13  C   UNL     1     -18.584  16.626 -14.767  1.00  0.00     0.016 A 
ATOM     14  C   UNL     1     -19.701  16.005 -14.201  1.00  0.00     0.047 A 
ATOM     15  C   UNL     1     -19.684  15.615 -12.855  1.00  0.00     0.115 A 
ATOM     16  C   UNL     1     -17.423  16.468 -12.644  1.00  0.00     0.016 A 
ATOM     17  C   UNL     1     -18.543  15.846 -12.082  1.00  0.00     0.047 A 
BRANCH  15  18
ATOM     18  O   UNL     1     -20.792  14.996 -12.280  1.00  0.00    -0.508 OA
ATOM     19  H   UNL     1     -20.914  14.958 -11.275  1.00  0.00     0.293 HD
ENDBRANCH  15  18
ENDBRANCH   1  12
BRANCH   2  20
ATOM     20  O   UNL     1     -17.003  19.744 -13.990  1.00  0.00    -0.502 OA
ATOM     21  H   UNL     1     -17.328  19.614 -13.040  1.00  0.00     0.293 HD
ENDBRANCH   2  20
BRANCH   6  22
ATOM     22  O   UNL     1     -12.238  20.304 -16.304  1.00  0.00    -0.507 OA
ATOM     23  H   UNL     1     -12.793  21.137 -16.434  1.00  0.00     0.293 HD
ENDBRANCH   6  22
BRANCH   8  24
ATOM     24  O   UNL     1     -11.497  15.803 -17.804  1.00  0.00    -0.508 OA
ATOM     25  H   UNL     1     -10.723  16.102 -18.387  1.00  0.00     0.293 HD
ENDBRANCH   8  24
TORSDOF 5
ENDMDL
MODEL 6
REMARK VINA RESULT:    -5.129      9.890     11.797
REMARK INTER + INTRA:          -6.273
REMARK INTER:                  -6.242
REMARK INTRA:                  -0.031
REMARK UNBOUND:                -0.245
REMARK SMILES O=c1c(O)c(-c2ccc(O)cc2)oc2cc(O)cc(O)c12
REMARK SMILES IDX 5 1 3 2 2 3 1 4 21 5 19 6 18 7 16 8 15 9 14 10 13 11 6 12
REMARK SMILES IDX 7 13 8 14 9 15 12 16 11 17 10 18 4 20 20 22 17 24
REMARK H PARENT 10 19 4 21 20 23 17 25
REMARK Flexibility Score: inf
ROOT
ATOM      1  C   UNL     1     -11.923   8.605 -15.434  1.00  0.00     0.180 A 
ATOM      2  C   UNL     1     -11.754   8.457 -16.821  1.00  0.00     0.208 A 
ATOM      3  C   UNL     1     -12.686   7.693 -17.543  1.00  0.00     0.238 A 
ATOM      4  O   UNL     1     -12.559   7.609 -18.792  1.00  0.00    -0.285 OA
ATOM      5  C   UNL     1     -13.764   7.074 -16.867  1.00  0.00     0.111 A 
ATOM      6  C   UNL     1     -14.743   6.244 -17.491  1.00  0.00     0.134 A 
ATOM      7  C   UNL     1     -15.841   5.792 -16.748  1.00  0.00     0.093 A 
ATOM      8  C   UNL     1     -15.958   6.084 -15.386  1.00  0.00     0.123 A 
ATOM      9  C   UNL     1     -14.976   6.843 -14.754  1.00  0.00     0.094 A 
ATOM     10  C   UNL     1     -13.889   7.339 -15.477  1.00  0.00     0.146 A 
ATOM     11  O   UNL     1     -12.981   8.067 -14.839  1.00  0.00    -0.452 OA
ENDROOT
BRANCH   1  12
ATOM     12  C   UNL     1     -10.970   9.374 -14.602  1.00  0.00     0.021 A 
ATOM     13  C   UNL     1     -10.738  10.730 -14.889  1.00  0.00     0.016 A 
ATOM     14  C   UNL     1      -9.859  11.480 -14.102  1.00  0.00     0.047 A 
ATOM     15  C   UNL     1      -9.213  10.889 -13.008  1.00  0.00     0.115 A 
ATOM     16  C   UNL     1     -10.333   8.793 -13.490  1.00  0.00     0.016 A 
ATOM     17  C   UNL     1      -9.455   9.546 -12.704  1.00  0.00     0.047 A 
BRANCH  15  18
ATOM     18  O   UNL     1      -8.335  11.627 -12.217  1.00  0.00    -0.508 OA
ATOM     19  H   UNL     1      -7.784  11.189 -11.489  1.00  0.00     0.293 HD
ENDBRANCH  15  18
ENDBRANCH   1  12
BRANCH   2  20
ATOM     20  O   UNL     1     -10.694   9.095 -17.473  1.00  0.00    -0.502 OA
ATOM     21  H   UNL     1     -10.839   9.821 -18.163  1.00  0.00     0.293 HD
ENDBRANCH   2  20
BRANCH   6  22
ATOM     22  O   UNL     1     -14.672   5.818 -18.820  1.00  0.00    -0.507 OA
ATOM     23  H   UNL     1     -13.854   5.896 -19.406  1.00  0.00     0.293 HD
ENDBRANCH   6  22
BRANCH   8  24
ATOM     24  O   UNL     1     -17.045   5.616 -14.651  1.00  0.00    -0.508 OA
ATOM     25  H   UNL     1     -17.979   5.980 -14.795  1.00  0.00     0.293 HD
ENDBRANCH   8  24
TORSDOF 5
ENDMDL
MODEL 7
REMARK VINA RESULT:    -5.110     12.172     14.648
REMARK INTER + INTRA:          -6.251
REMARK INTER:                  -5.977
REMARK INTRA:                  -0.274
REMARK UNBOUND:                -0.245
REMARK SMILES O=c1c(O)c(-c2ccc(O)cc2)oc2cc(O)cc(O)c12
REMARK SMILES IDX 5 1 3 2 2 3 1 4 21 5 19 6 18 7 16 8 15 9 14 10 13 11 6 12
REMARK SMILES IDX 7 13 8 14 9 15 12 16 11 17 10 18 4 20 20 22 17 24
REMARK H PARENT 10 19 4 21 20 23 17 25
REMARK Flexibility Score: inf
ROOT
ATOM      1  C   UNL     1      -9.644  13.180 -27.059  1.00  0.00     0.180 A 
ATOM      2  C   UNL     1     -10.050  14.413 -27.596  1.00  0.00     0.208 A 
ATOM      3  C   UNL     1      -9.925  14.628 -28.978  1.00  0.00     0.238 A 
ATOM      4  O   UNL     1     -10.340  15.714 -29.460  1.00  0.00    -0.285 OA
ATOM      5  C   UNL     1      -9.382  13.614 -29.802  1.00  0.00     0.111 A 
ATOM      6  C   UNL     1      -9.171  13.738 -31.209  1.00  0.00     0.134 A 
ATOM      7  C   UNL     1      -8.750  12.624 -31.945  1.00  0.00     0.093 A 
ATOM      8  C   UNL     1      -8.466  11.410 -31.315  1.00  0.00     0.123 A 
ATOM      9  C   UNL     1      -8.611  11.296 -29.935  1.00  0.00     0.094 A 
ATOM     10  C   UNL     1      -9.065  12.379 -29.178  1.00  0.00     0.146 A 
ATOM     11  O   UNL     1      -9.200  12.224 -27.866  1.00  0.00    -0.452 OA
ENDROOT
BRANCH   1  12
ATOM     12  C   UNL     1      -9.722  12.888 -25.609  1.00  0.00     0.021 A 
ATOM     13  C   UNL     1     -10.752  12.065 -25.123  1.00  0.00     0.016 A 
ATOM     14  C   UNL     1     -10.830  11.758 -23.761  1.00  0.00     0.047 A 
ATOM     15  C   UNL     1      -9.872  12.257 -22.870  1.00  0.00     0.115 A 
ATOM     16  C   UNL     1      -8.751  13.369 -24.711  1.00  0.00     0.016 A 
ATOM     17  C   UNL     1      -8.832  13.060 -23.350  1.00  0.00     0.047 A 
BRANCH  15  18
ATOM     18  O   UNL     1      -9.941  11.959 -21.511  1.00  0.00    -0.508 OA
ATOM     19  H   UNL     1     -10.553  11.233 -21.159  1.00  0.00     0.293 HD
ENDBRANCH  15  18
ENDBRANCH   1  12
BRANCH   2  20
ATOM     20  O   UNL     1     -10.605  15.393 -26.767  1.00  0.00    -0.502 OA
ATOM     21  H   UNL     1     -11.577  15.380 -26.486  1.00  0.00     0.293 HD
ENDBRANCH   2  20
BRANCH   6  22
ATOM     22  O   UNL     1      -9.335  14.930 -31.920  1.00  0.00    -0.507 OA
ATOM     23  H   UNL     1     -10.175  15.490 -31.917  1.00  0.00     0.293 HD
ENDBRANCH   6  22
BRANCH   8  24
ATOM     24  O   UNL     1      -8.032  10.311 -32.054  1.00  0.00    -0.508 OA
ATOM     25  H   UNL     1      -8.300  10.183 -33.022  1.00  0.00     0.293 HD
ENDBRANCH   8  24
TORSDOF 5
ENDMDL
MODEL 8
REMARK VINA RESULT:    -5.094      2.616      6.466
REMARK INTER + INTRA:          -6.233
REMARK INTER:                  -5.995
REMARK INTRA:                  -0.238
REMARK UNBOUND:                -0.245
REMARK SMILES O=c1c(O)c(-c2ccc(O)cc2)oc2cc(O)cc(O)c12
REMARK SMILES IDX 5 1 3 2 2 3 1 4 21 5 19 6 18 7 16 8 15 9 14 10 13 11 6 12
REMARK SMILES IDX 7 13 8 14 9 15 12 16 11 17 10 18 4 20 20 22 17 24
REMARK H PARENT 10 19 4 21 20 23 17 25
REMARK Flexibility Score: inf
ROOT
ATOM      1  C   UNL     1     -18.410  15.850 -17.631  1.00  0.00     0.180 A 
ATOM      2  C   UNL     1     -17.480  16.856 -17.320  1.00  0.00     0.208 A 
ATOM      3  C   UNL     1     -17.403  17.327 -15.999  1.00  0.00     0.238 A 
ATOM      4  O   UNL     1     -16.531  18.189 -15.715  1.00  0.00    -0.285 OA
ATOM      5  C   UNL     1     -18.266  16.796 -15.011  1.00  0.00     0.111 A 
ATOM      6  C   UNL     1     -18.301  17.228 -13.650  1.00  0.00     0.134 A 
ATOM      7  C   UNL     1     -19.104  16.541 -12.730  1.00  0.00     0.093 A 
ATOM      8  C   UNL     1     -19.921  15.484 -13.135  1.00  0.00     0.123 A 
ATOM      9  C   UNL     1     -19.938  15.095 -14.471  1.00  0.00     0.094 A 
ATOM     10  C   UNL     1     -19.122  15.736 -15.406  1.00  0.00     0.146 A 
ATOM     11  O   UNL     1     -19.160  15.326 -16.668  1.00  0.00    -0.452 OA
ENDROOT
BRANCH   1  12
ATOM     12  C   UNL     1     -18.568  15.320 -19.005  1.00  0.00     0.021 A 
ATOM     13  C   UNL     1     -18.128  14.019 -19.300  1.00  0.00     0.016 A 
ATOM     14  C   UNL     1     -18.289  13.492 -20.585  1.00  0.00     0.047 A 
ATOM     15  C   UNL     1     -18.905  14.253 -21.587  1.00  0.00     0.115 A 
ATOM     16  C   UNL     1     -19.204  16.071 -20.011  1.00  0.00     0.016 A 
ATOM     17  C   UNL     1     -19.364  15.540 -21.295  1.00  0.00     0.047 A 
BRANCH  15  18
ATOM     18  O   UNL     1     -19.069  13.738 -22.871  1.00  0.00    -0.508 OA
ATOM     19  H   UNL     1     -18.975  14.324 -23.692  1.00  0.00     0.293 HD
ENDBRANCH  15  18
ENDBRANCH   1  12
BRANCH   2  20
ATOM     20  O   UNL     1     -16.622  17.351 -18.307  1.00  0.00    -0.502 OA
ATOM     21  H   UNL     1     -16.477  16.875 -19.188  1.00  0.00     0.293 HD
ENDBRANCH   2  20
BRANCH   6  22
ATOM     22  O   UNL     1     -17.595  18.330 -13.162  1.00  0.00    -0.507 OA
ATOM     23  H   UNL     1     -17.460  18.539 -12.184  1.00  0.00     0.293 HD
ENDBRANCH   6  22
BRANCH   8  24
ATOM     24  O   UNL     1     -20.729  14.818 -12.214  1.00  0.00    -0.508 OA
ATOM     25  H   UNL     1     -20.616  13.828 -12.029  1.00  0.00     0.293 HD
ENDBRANCH   8  24
TORSDOF 5
ENDMDL
MODEL 9
REMARK VINA RESULT:    -4.987     12.399     15.871
REMARK INTER + INTRA:          -6.107
REMARK INTER:                  -5.819
REMARK INTRA:                  -0.288
REMARK UNBOUND:                -0.245
REMARK SMILES O=c1c(O)c(-c2ccc(O)cc2)oc2cc(O)cc(O)c12
REMARK SMILES IDX 5 1 3 2 2 3 1 4 21 5 19 6 18 7 16 8 15 9 14 10 13 11 6 12
REMARK SMILES IDX 7 13 8 14 9 15 12 16 11 17 10 18 4 20 20 22 17 24
REMARK H PARENT 10 19 4 21 20 23 17 25
REMARK Flexibility Score: inf
ROOT
ATOM      1  C   UNL     1     -11.019  14.945 -30.301  1.00  0.00     0.180 A 
ATOM      2  C   UNL     1     -10.745  16.247 -30.753  1.00  0.00     0.208 A 
ATOM      3  C   UNL     1     -11.648  17.278 -30.450  1.00  0.00     0.238 A 
ATOM      4  O   UNL     1     -11.370  18.451 -30.812  1.00  0.00    -0.285 OA
ATOM      5  C   UNL     1     -12.822  16.992 -29.713  1.00  0.00     0.111 A 
ATOM      6  C   UNL     1     -13.827  17.951 -29.384  1.00  0.00     0.134 A 
ATOM      7  C   UNL     1     -14.881  17.584 -28.538  1.00  0.00     0.093 A 
ATOM      8  C   UNL     1     -15.002  16.275 -28.064  1.00  0.00     0.123 A 
ATOM      9  C   UNL     1     -14.060  15.318 -28.428  1.00  0.00     0.094 A 
ATOM     10  C   UNL     1     -12.977  15.662 -29.241  1.00  0.00     0.146 A 
ATOM     11  O   UNL     1     -12.095  14.721 -29.555  1.00  0.00    -0.452 OA
ENDROOT
BRANCH   1  12
ATOM     12  C   UNL     1     -10.127  13.802 -30.601  1.00  0.00     0.021 A 
ATOM     13  C   UNL     1      -9.221  13.356 -29.624  1.00  0.00     0.016 A 
ATOM     14  C   UNL     1      -8.386  12.264 -29.879  1.00  0.00     0.047 A 
ATOM     15  C   UNL     1      -8.457  11.594 -31.108  1.00  0.00     0.115 A 
ATOM     16  C   UNL     1     -10.207  13.112 -31.825  1.00  0.00     0.016 A 
ATOM     17  C   UNL     1      -9.371  12.019 -32.076  1.00  0.00     0.047 A 
BRANCH  15  18
ATOM     18  O   UNL     1      -7.629  10.506 -31.373  1.00  0.00    -0.508 OA
ATOM     19  H   UNL     1      -8.003   9.626 -31.711  1.00  0.00     0.293 HD
ENDBRANCH  15  18
ENDBRANCH   1  12
BRANCH   2  20
ATOM     20  O   UNL     1      -9.568  16.512 -31.461  1.00  0.00    -0.502 OA
ATOM     21  H   UNL     1      -9.567  16.992 -32.352  1.00  0.00     0.293 HD
ENDBRANCH   2  20
BRANCH   6  22
ATOM     22  O   UNL     1     -13.850  19.258 -29.879  1.00  0.00    -0.507 OA
ATOM     23  H   UNL     1     -13.615  20.080 -29.342  1.00  0.00     0.293 HD
ENDBRANCH   6  22
BRANCH   8  24
ATOM     24  O   UNL     1     -16.064  15.915 -27.236  1.00  0.00    -0.508 OA
ATOM     25  H   UNL     1     -16.549  16.600 -26.668  1.00  0.00     0.293 HD
ENDBRANCH   8  24
TORSDOF 5
ENDMDL
