MODEL 1
REMARK VINA RESULT:    -6.422      0.000      0.000
REMARK INTER + INTRA:          -8.068
REMARK INTER:                  -7.736
REMARK INTRA:                  -0.332
REMARK UNBOUND:                -0.332
REMARK SMILES O=c1c(O)c(-c2ccc(O)c(O)c2)oc2cc(O)cc(O)c12
REMARK SMILES IDX 5 1 3 2 2 3 1 4 22 5 20 6 19 7 17 8 16 9 15 10 14 11 6 12
REMARK SMILES IDX 7 13 8 14 9 15 13 16 11 17 10 18 12 20 4 22 21 24 18 26
REMARK H PARENT 10 19 12 21 4 23 21 25 18 27
REMARK Flexibility Score: inf
ROOT
ATOM      1  C   UNL     1       3.423 -17.819 -37.402  1.00  0.00     0.180 A 
ATOM      2  C   UNL     1       2.383 -18.675 -37.809  1.00  0.00     0.208 A 
ATOM      3  C   UNL     1       1.153 -18.618 -37.135  1.00  0.00     0.238 A 
ATOM      4  O   UNL     1       0.210 -19.372 -37.498  1.00  0.00    -0.285 OA
ATOM      5  C   UNL     1       0.991 -17.724 -36.057  1.00  0.00     0.111 A 
ATOM      6  C   UNL     1      -0.215 -17.607 -35.323  1.00  0.00     0.134 A 
ATOM      7  C   UNL     1      -0.293 -16.699 -34.256  1.00  0.00     0.093 A 
ATOM      8  C   UNL     1       0.804 -15.909 -33.910  1.00  0.00     0.123 A 
ATOM      9  C   UNL     1       1.997 -16.019 -34.631  1.00  0.00     0.094 A 
ATOM     10  C   UNL     1       2.097 -16.918 -35.698  1.00  0.00     0.146 A 
ATOM     11  O   UNL     1       3.239 -17.000 -36.371  1.00  0.00    -0.452 OA
ENDROOT
BRANCH   1  12
ATOM     12  C   UNL     1       4.742 -17.808 -38.074  1.00  0.00     0.025 A 
ATOM     13  C   UNL     1       5.781 -18.607 -37.571  1.00  0.00     0.016 A 
ATOM     14  C   UNL     1       7.039 -18.596 -38.178  1.00  0.00     0.051 A 
ATOM     15  C   UNL     1       7.285 -17.777 -39.284  1.00  0.00     0.157 A 
ATOM     16  C   UNL     1       4.997 -16.968 -39.173  1.00  0.00     0.062 A 
ATOM     17  C   UNL     1       6.260 -16.955 -39.782  1.00  0.00     0.158 A 
BRANCH  15  18
ATOM     18  O   UNL     1       8.550 -17.789 -39.869  1.00  0.00    -0.504 OA
ATOM     19  H   UNL     1       8.758 -17.266 -40.711  1.00  0.00     0.293 HD
ENDBRANCH  15  18
BRANCH  17  20
ATOM     20  O   UNL     1       6.502 -16.125 -40.877  1.00  0.00    -0.504 OA
ATOM     21  H   UNL     1       7.198 -16.357 -41.575  1.00  0.00     0.293 HD
ENDBRANCH  17  20
ENDBRANCH   1  12
BRANCH   2  22
ATOM     22  O   UNL     1       2.586 -19.587 -38.848  1.00  0.00    -0.502 OA
ATOM     23  H   UNL     1       1.819 -19.990 -39.374  1.00  0.00     0.293 HD
ENDBRANCH   2  22
BRANCH   6  24
ATOM     24  O   UNL     1      -1.329 -18.382 -35.644  1.00  0.00    -0.507 OA
ATOM     25  H   UNL     1      -1.479 -19.296 -35.232  1.00  0.00     0.293 HD
ENDBRANCH   6  24
BRANCH   8  26
ATOM     26  O   UNL     1       0.699 -15.016 -32.845  1.00  0.00    -0.508 OA
ATOM     27  H   UNL     1       0.398 -15.320 -31.927  1.00  0.00     0.293 HD
ENDBRANCH   8  26
TORSDOF 6
ENDMDL
MODEL 2
REMARK VINA RESULT:    -6.379      3.127      8.305
REMARK INTER + INTRA:          -8.016
REMARK INTER:                  -7.710
REMARK INTRA:                  -0.306
REMARK UNBOUND:                -0.332
REMARK SMILES O=c1c(O)c(-c2ccc(O)c(O)c2)oc2cc(O)cc(O)c12
REMARK SMILES IDX 5 1 3 2 2 3 1 4 22 5 20 6 19 7 17 8 16 9 15 10 14 11 6 12
REMARK SMILES IDX 7 13 8 14 9 15 13 16 11 17 10 18 12 20 4 22 21 24 18 26
REMARK H PARENT 10 19 12 21 4 23 21 25 18 27
REMARK Flexibility Score: inf
ROOT
ATOM      1  C   UNL     1       6.995 -17.699 -38.594  1.00  0.00     0.180 A 
ATOM      2  C   UNL     1       7.099 -16.322 -38.867  1.00  0.00     0.208 A 
ATOM      3  C   UNL     1       8.336 -15.804 -39.284  1.00  0.00     0.238 A 
ATOM      4  O   UNL     1       8.438 -14.574 -39.543  1.00  0.00    -0.285 OA
ATOM      5  C   UNL     1       9.447 -16.664 -39.401  1.00  0.00     0.111 A 
ATOM      6  C   UNL     1      10.728 -16.222 -39.811  1.00  0.00     0.134 A 
ATOM      7  C   UNL     1      11.786 -17.139 -39.894  1.00  0.00     0.093 A 
ATOM      8  C   UNL     1      11.591 -18.484 -39.576  1.00  0.00     0.123 A 
ATOM      9  C   UNL     1      10.328 -18.927 -39.170  1.00  0.00     0.094 A 
ATOM     10  C   UNL     1       9.259 -18.030 -39.082  1.00  0.00     0.146 A 
ATOM     11  O   UNL     1       8.068 -18.476 -38.700  1.00  0.00    -0.452 OA
ENDROOT
BRANCH   1  12
ATOM     12  C   UNL     1       5.721 -18.323 -38.167  1.00  0.00     0.025 A 
ATOM     13  C   UNL     1       5.355 -18.286 -36.812  1.00  0.00     0.016 A 
ATOM     14  C   UNL     1       4.168 -18.886 -36.384  1.00  0.00     0.051 A 
ATOM     15  C   UNL     1       3.338 -19.544 -37.297  1.00  0.00     0.157 A 
ATOM     16  C   UNL     1       4.897 -19.003 -39.080  1.00  0.00     0.062 A 
ATOM     17  C   UNL     1       3.706 -19.608 -38.652  1.00  0.00     0.158 A 
BRANCH  15  18
ATOM     18  O   UNL     1       2.159 -20.132 -36.841  1.00  0.00    -0.504 OA
ATOM     19  H   UNL     1       1.342 -20.225 -37.430  1.00  0.00     0.293 HD
ENDBRANCH  15  18
BRANCH  17  20
ATOM     20  O   UNL     1       2.891 -20.275 -39.565  1.00  0.00    -0.504 OA
ATOM     21  H   UNL     1       1.914 -20.032 -39.681  1.00  0.00     0.293 HD
ENDBRANCH  17  20
ENDBRANCH   1  12
BRANCH   2  22
ATOM     22  O   UNL     1       5.995 -15.483 -38.695  1.00  0.00    -0.502 OA
ATOM     23  H   UNL     1       6.086 -14.478 -38.608  1.00  0.00     0.293 HD
ENDBRANCH   2  22
BRANCH   6  24
ATOM     24  O   UNL     1      10.956 -14.884 -40.136  1.00  0.00    -0.507 OA
ATOM     25  H   UNL     1      11.130 -14.589 -41.090  1.00  0.00     0.293 HD
ENDBRANCH   6  24
BRANCH   8  26
ATOM     26  O   UNL     1      12.660 -19.374 -39.665  1.00  0.00    -0.508 OA
ATOM     27  H   UNL     1      13.427 -19.217 -40.307  1.00  0.00     0.293 HD
ENDBRANCH   8  26
TORSDOF 6
ENDMDL
MODEL 3
REMARK VINA RESULT:    -6.373      2.304      7.946
REMARK INTER + INTRA:          -8.009
REMARK INTER:                  -7.707
REMARK INTRA:                  -0.302
REMARK UNBOUND:                -0.332
REMARK SMILES O=c1c(O)c(-c2ccc(O)c(O)c2)oc2cc(O)cc(O)c12
REMARK SMILES IDX 5 1 3 2 2 3 1 4 22 5 20 6 19 7 17 8 16 9 15 10 14 11 6 12
REMARK SMILES IDX 7 13 8 14 9 15 13 16 11 17 10 18 12 20 4 22 21 24 18 26
REMARK H PARENT 10 19 12 21 4 23 21 25 18 27
REMARK Flexibility Score: inf
ROOT
ATOM      1  C   UNL     1       6.136 -17.682 -38.980  1.00  0.00     0.180 A 
ATOM      2  C   UNL     1       6.274 -16.554 -39.811  1.00  0.00     0.208 A 
ATOM      3  C   UNL     1       7.554 -16.199 -40.266  1.00  0.00     0.238 A 
ATOM      4  O   UNL     1       7.688 -15.197 -41.020  1.00  0.00    -0.285 OA
ATOM      5  C   UNL     1       8.671 -16.961 -39.868  1.00  0.00     0.111 A 
ATOM      6  C   UNL     1       9.994 -16.668 -40.280  1.00  0.00     0.134 A 
ATOM      7  C   UNL     1      11.054 -17.470 -39.833  1.00  0.00     0.093 A 
ATOM      8  C   UNL     1      10.820 -18.556 -38.986  1.00  0.00     0.123 A 
ATOM      9  C   UNL     1       9.516 -18.850 -38.576  1.00  0.00     0.094 A 
ATOM     10  C   UNL     1       8.444 -18.064 -39.011  1.00  0.00     0.146 A 
ATOM     11  O   UNL     1       7.215 -18.368 -38.613  1.00  0.00    -0.452 OA
ENDROOT
BRANCH   1  12
ATOM     12  C   UNL     1       4.819 -18.131 -38.474  1.00  0.00     0.025 A 
ATOM     13  C   UNL     1       4.124 -19.141 -39.158  1.00  0.00     0.016 A 
ATOM     14  C   UNL     1       2.870 -19.565 -38.710  1.00  0.00     0.051 A 
ATOM     15  C   UNL     1       2.285 -18.977 -37.585  1.00  0.00     0.157 A 
ATOM     16  C   UNL     1       4.219 -17.526 -37.356  1.00  0.00     0.062 A 
ATOM     17  C   UNL     1       2.959 -17.948 -36.906  1.00  0.00     0.158 A 
BRANCH  15  18
ATOM     18  O   UNL     1       1.033 -19.422 -37.161  1.00  0.00    -0.504 OA
ATOM     19  H   UNL     1       0.847 -20.397 -36.964  1.00  0.00     0.293 HD
ENDBRANCH  15  18
BRANCH  17  20
ATOM     20  O   UNL     1       2.375 -17.348 -35.792  1.00  0.00    -0.504 OA
ATOM     21  H   UNL     1       1.891 -16.460 -35.860  1.00  0.00     0.293 HD
ENDBRANCH  17  20
ENDBRANCH   1  12
BRANCH   2  22
ATOM     22  O   UNL     1       5.157 -15.787 -40.149  1.00  0.00    -0.502 OA
ATOM     23  H   UNL     1       4.484 -15.473 -39.459  1.00  0.00     0.293 HD
ENDBRANCH   2  22
BRANCH   6  24
ATOM     24  O   UNL     1      10.262 -15.591 -41.125  1.00  0.00    -0.507 OA
ATOM     25  H   UNL     1       9.899 -14.663 -40.937  1.00  0.00     0.293 HD
ENDBRANCH   6  24
BRANCH   8  26
ATOM     26  O   UNL     1      11.892 -19.335 -38.555  1.00  0.00    -0.508 OA
ATOM     27  H   UNL     1      12.434 -19.084 -37.738  1.00  0.00     0.293 HD
ENDBRANCH   8  26
TORSDOF 6
ENDMDL
MODEL 4
REMARK VINA RESULT:    -6.149      2.680      4.766
REMARK INTER + INTRA:          -7.739
REMARK INTER:                  -7.689
REMARK INTRA:                  -0.050
REMARK UNBOUND:                -0.332
REMARK SMILES O=c1c(O)c(-c2ccc(O)c(O)c2)oc2cc(O)cc(O)c12
REMARK SMILES IDX 5 1 3 2 2 3 1 4 22 5 20 6 19 7 17 8 16 9 15 10 14 11 6 12
REMARK SMILES IDX 7 13 8 14 9 15 13 16 11 17 10 18 12 20 4 22 21 24 18 26
REMARK H PARENT 10 19 12 21 4 23 21 25 18 27
REMARK Flexibility Score: inf
ROOT
ATOM      1  C   UNL     1       5.823 -16.661 -39.492  1.00  0.00     0.180 A 
ATOM      2  C   UNL     1       4.875 -15.807 -38.896  1.00  0.00     0.208 A 
ATOM      3  C   UNL     1       3.910 -16.358 -38.039  1.00  0.00     0.238 A 
ATOM      4  O   UNL     1       3.063 -15.601 -37.490  1.00  0.00    -0.285 OA
ATOM      5  C   UNL     1       3.895 -17.749 -37.809  1.00  0.00     0.111 A 
ATOM      6  C   UNL     1       2.953 -18.383 -36.962  1.00  0.00     0.134 A 
ATOM      7  C   UNL     1       2.999 -19.775 -36.792  1.00  0.00     0.093 A 
ATOM      8  C   UNL     1       3.963 -20.543 -37.449  1.00  0.00     0.123 A 
ATOM      9  C   UNL     1       4.895 -19.922 -38.286  1.00  0.00     0.094 A 
ATOM     10  C   UNL     1       4.868 -18.536 -38.469  1.00  0.00     0.146 A 
ATOM     11  O   UNL     1       5.768 -17.970 -39.264  1.00  0.00    -0.452 OA
ENDROOT
BRANCH   1  12
ATOM     12  C   UNL     1       6.883 -16.153 -40.393  1.00  0.00     0.025 A 
ATOM     13  C   UNL     1       6.525 -15.428 -41.541  1.00  0.00     0.016 A 
ATOM     14  C   UNL     1       7.507 -14.957 -42.415  1.00  0.00     0.051 A 
ATOM     15  C   UNL     1       8.858 -15.217 -42.167  1.00  0.00     0.157 A 
ATOM     16  C   UNL     1       8.240 -16.432 -40.157  1.00  0.00     0.062 A 
ATOM     17  C   UNL     1       9.228 -15.963 -41.035  1.00  0.00     0.158 A 
BRANCH  15  18
ATOM     18  O   UNL     1       9.817 -14.734 -43.057  1.00  0.00    -0.504 OA
ATOM     19  H   UNL     1      10.789 -14.626 -42.795  1.00  0.00     0.293 HD
ENDBRANCH  15  18
BRANCH  17  20
ATOM     20  O   UNL     1      10.573 -16.237 -40.789  1.00  0.00    -0.504 OA
ATOM     21  H   UNL     1      11.297 -15.554 -40.976  1.00  0.00     0.293 HD
ENDBRANCH  17  20
ENDBRANCH   1  12
BRANCH   2  22
ATOM     22  O   UNL     1       4.881 -14.439 -39.180  1.00  0.00    -0.502 OA
ATOM     23  H   UNL     1       4.060 -13.857 -39.063  1.00  0.00     0.293 HD
ENDBRANCH   2  22
BRANCH   6  24
ATOM     24  O   UNL     1       1.978 -17.645 -36.292  1.00  0.00    -0.507 OA
ATOM     25  H   UNL     1       2.211 -16.820 -35.751  1.00  0.00     0.293 HD
ENDBRANCH   6  24
BRANCH   8  26
ATOM     26  O   UNL     1       3.985 -21.923 -37.263  1.00  0.00    -0.508 OA
ATOM     27  H   UNL     1       4.185 -22.557 -38.028  1.00  0.00     0.293 HD
ENDBRANCH   8  26
TORSDOF 6
ENDMDL
MODEL 5
REMARK VINA RESULT:    -5.989      2.218      6.851
REMARK INTER + INTRA:          -7.547
REMARK INTER:                  -7.220
REMARK INTRA:                  -0.327
REMARK UNBOUND:                -0.332
REMARK SMILES O=c1c(O)c(-c2ccc(O)c(O)c2)oc2cc(O)cc(O)c12
REMARK SMILES IDX 5 1 3 2 2 3 1 4 22 5 20 6 19 7 17 8 16 9 15 10 14 11 6 12
REMARK SMILES IDX 7 13 8 14 9 15 13 16 11 17 10 18 12 20 4 22 21 24 18 26
REMARK H PARENT 10 19 12 21 4 23 21 25 18 27
REMARK Flexibility Score: inf
ROOT
ATOM      1  C   UNL     1       2.303 -16.381 -36.302  1.00  0.00     0.180 A 
ATOM      2  C   UNL     1       3.029 -15.757 -37.334  1.00  0.00     0.208 A 
ATOM      3  C   UNL     1       3.827 -16.548 -38.176  1.00  0.00     0.238 A 
ATOM      4  O   UNL     1       4.473 -16.002 -39.111  1.00  0.00    -0.285 OA
ATOM      5  C   UNL     1       3.902 -17.939 -37.959  1.00  0.00     0.111 A 
ATOM      6  C   UNL     1       4.686 -18.806 -38.760  1.00  0.00     0.134 A 
ATOM      7  C   UNL     1       4.715 -20.179 -38.474  1.00  0.00     0.093 A 
ATOM      8  C   UNL     1       3.979 -20.702 -37.408  1.00  0.00     0.123 A 
ATOM      9  C   UNL     1       3.202 -19.851 -36.615  1.00  0.00     0.094 A 
ATOM     10  C   UNL     1       3.159 -18.479 -36.883  1.00  0.00     0.146 A 
ATOM     11  O   UNL     1       2.410 -17.693 -36.118  1.00  0.00    -0.452 OA
ENDROOT
BRANCH   1  12
ATOM     12  C   UNL     1       1.425 -15.617 -35.385  1.00  0.00     0.025 A 
ATOM     13  C   UNL     1       1.903 -15.252 -34.116  1.00  0.00     0.016 A 
ATOM     14  C   UNL     1       1.085 -14.550 -33.228  1.00  0.00     0.051 A 
ATOM     15  C   UNL     1      -0.224 -14.216 -33.585  1.00  0.00     0.157 A 
ATOM     16  C   UNL     1       0.101 -15.299 -35.734  1.00  0.00     0.062 A 
ATOM     17  C   UNL     1      -0.722 -14.596 -34.843  1.00  0.00     0.158 A 
BRANCH  15  18
ATOM     18  O   UNL     1      -1.017 -13.513 -32.678  1.00  0.00    -0.504 OA
ATOM     19  H   UNL     1      -1.864 -13.037 -32.960  1.00  0.00     0.293 HD
ENDBRANCH  15  18
BRANCH  17  20
ATOM     20  O   UNL     1      -2.032 -14.279 -35.200  1.00  0.00    -0.504 OA
ATOM     21  H   UNL     1      -2.770 -14.218 -34.509  1.00  0.00     0.293 HD
ENDBRANCH  17  20
ENDBRANCH   1  12
BRANCH   2  22
ATOM     22  O   UNL     1       2.976 -14.370 -37.496  1.00  0.00    -0.502 OA
ATOM     23  H   UNL     1       2.421 -13.929 -38.220  1.00  0.00     0.293 HD
ENDBRANCH   2  22
BRANCH   6  24
ATOM     24  O   UNL     1       5.433 -18.315 -39.831  1.00  0.00    -0.507 OA
ATOM     25  H   UNL     1       4.990 -17.907 -40.646  1.00  0.00     0.293 HD
ENDBRANCH   6  24
BRANCH   8  26
ATOM     26  O   UNL     1       4.026 -22.069 -37.145  1.00  0.00    -0.508 OA
ATOM     27  H   UNL     1       3.411 -22.720 -37.618  1.00  0.00     0.293 HD
ENDBRANCH   8  26
TORSDOF 6
ENDMDL
MODEL 6
REMARK VINA RESULT:    -5.973      1.637      7.251
REMARK INTER + INTRA:          -7.528
REMARK INTER:                  -7.206
REMARK INTRA:                  -0.322
REMARK UNBOUND:                -0.332
REMARK SMILES O=c1c(O)c(-c2ccc(O)c(O)c2)oc2cc(O)cc(O)c12
REMARK SMILES IDX 5 1 3 2 2 3 1 4 22 5 20 6 19 7 17 8 16 9 15 10 14 11 6 12
REMARK SMILES IDX 7 13 8 14 9 15 13 16 11 17 10 18 12 20 4 22 21 24 18 26
REMARK H PARENT 10 19 12 21 4 23 21 25 18 27
REMARK Flexibility Score: inf
ROOT
ATOM      1  C   UNL     1       4.393 -17.137 -38.232  1.00  0.00     0.180 A 
ATOM      2  C   UNL     1       4.512 -16.194 -39.271  1.00  0.00     0.208 A 
ATOM      3  C   UNL     1       5.748 -16.056 -39.923  1.00  0.00     0.238 A 
ATOM      4  O   UNL     1       5.863 -15.223 -40.863  1.00  0.00    -0.285 OA
ATOM      5  C   UNL     1       6.843 -16.845 -39.515  1.00  0.00     0.111 A 
ATOM      6  C   UNL     1       8.121 -16.764 -40.118  1.00  0.00     0.134 A 
ATOM      7  C   UNL     1       9.164 -17.577 -39.647  1.00  0.00     0.093 A 
ATOM      8  C   UNL     1       8.954 -18.466 -38.591  1.00  0.00     0.123 A 
ATOM      9  C   UNL     1       7.693 -18.550 -37.992  1.00  0.00     0.094 A 
ATOM     10  C   UNL     1       6.640 -17.749 -38.446  1.00  0.00     0.146 A 
ATOM     11  O   UNL     1       5.451 -17.852 -37.864  1.00  0.00    -0.452 OA
ENDROOT
BRANCH   1  12
ATOM     12  C   UNL     1       3.118 -17.354 -37.509  1.00  0.00     0.025 A 
ATOM     13  C   UNL     1       2.818 -16.564 -36.388  1.00  0.00     0.016 A 
ATOM     14  C   UNL     1       1.631 -16.765 -35.679  1.00  0.00     0.051 A 
ATOM     15  C   UNL     1       0.736 -17.766 -36.066  1.00  0.00     0.157 A 
ATOM     16  C   UNL     1       2.227 -18.375 -37.884  1.00  0.00     0.062 A 
ATOM     17  C   UNL     1       1.037 -18.579 -37.172  1.00  0.00     0.158 A 
BRANCH  15  18
ATOM     18  O   UNL     1      -0.441 -17.943 -35.340  1.00  0.00    -0.504 OA
ATOM     19  H   UNL     1      -1.303 -17.476 -35.591  1.00  0.00     0.293 HD
ENDBRANCH  15  18
BRANCH  17  20
ATOM     20  O   UNL     1       0.155 -19.589 -37.555  1.00  0.00    -0.504 OA
ATOM     21  H   UNL     1      -0.452 -20.046 -36.885  1.00  0.00     0.293 HD
ENDBRANCH  17  20
ENDBRANCH   1  12
BRANCH   2  22
ATOM     22  O   UNL     1       3.425 -15.390 -39.622  1.00  0.00    -0.502 OA
ATOM     23  H   UNL     1       2.935 -14.815 -38.947  1.00  0.00     0.293 HD
ENDBRANCH   2  22
BRANCH   6  24
ATOM     24  O   UNL     1       8.364 -15.887 -41.175  1.00  0.00    -0.507 OA
ATOM     25  H   UNL     1       9.298 -15.557 -41.390  1.00  0.00     0.293 HD
ENDBRANCH   6  24
BRANCH   8  26
ATOM     26  O   UNL     1      10.007 -19.261 -38.142  1.00  0.00    -0.508 OA
ATOM     27  H   UNL     1      10.563 -19.813 -38.784  1.00  0.00     0.293 HD
ENDBRANCH   8  26
TORSDOF 6
ENDMDL
MODEL 7
REMARK VINA RESULT:    -5.962      3.010      5.323
REMARK INTER + INTRA:          -7.514
REMARK INTER:                  -7.499
REMARK INTRA:                  -0.016
REMARK UNBOUND:                -0.332
REMARK SMILES O=c1c(O)c(-c2ccc(O)c(O)c2)oc2cc(O)cc(O)c12
REMARK SMILES IDX 5 1 3 2 2 3 1 4 22 5 20 6 19 7 17 8 16 9 15 10 14 11 6 12
REMARK SMILES IDX 7 13 8 14 9 15 13 16 11 17 10 18 12 20 4 22 21 24 18 26
REMARK H PARENT 10 19 12 21 4 23 21 25 18 27
REMARK Flexibility Score: inf
ROOT
ATOM      1  C   UNL     1       7.220 -17.284 -38.877  1.00  0.00     0.180 A 
ATOM      2  C   UNL     1       6.904 -15.912 -38.909  1.00  0.00     0.208 A 
ATOM      3  C   UNL     1       5.557 -15.524 -38.821  1.00  0.00     0.238 A 
ATOM      4  O   UNL     1       5.262 -14.298 -38.837  1.00  0.00    -0.285 OA
ATOM      5  C   UNL     1       4.554 -16.510 -38.725  1.00  0.00     0.111 A 
ATOM      6  C   UNL     1       3.174 -16.203 -38.636  1.00  0.00     0.134 A 
ATOM      7  C   UNL     1       2.235 -17.242 -38.551  1.00  0.00     0.093 A 
ATOM      8  C   UNL     1       2.646 -18.576 -38.554  1.00  0.00     0.123 A 
ATOM      9  C   UNL     1       4.007 -18.886 -38.641  1.00  0.00     0.094 A 
ATOM     10  C   UNL     1       4.960 -17.865 -38.725  1.00  0.00     0.146 A 
ATOM     11  O   UNL     1       6.246 -18.185 -38.801  1.00  0.00    -0.452 OA
ENDROOT
BRANCH   1  12
ATOM     12  C   UNL     1       8.617 -17.770 -38.947  1.00  0.00     0.025 A 
ATOM     13  C   UNL     1       9.435 -17.371 -40.016  1.00  0.00     0.016 A 
ATOM     14  C   UNL     1      10.750 -17.835 -40.112  1.00  0.00     0.051 A 
ATOM     15  C   UNL     1      11.262 -18.715 -39.154  1.00  0.00     0.157 A 
ATOM     16  C   UNL     1       9.127 -18.672 -37.996  1.00  0.00     0.062 A 
ATOM     17  C   UNL     1      10.445 -19.140 -38.092  1.00  0.00     0.158 A 
BRANCH  15  18
ATOM     18  O   UNL     1      12.578 -19.160 -39.275  1.00  0.00    -0.504 OA
ATOM     19  H   UNL     1      12.914 -19.623 -40.110  1.00  0.00     0.293 HD
ENDBRANCH  15  18
BRANCH  17  20
ATOM     20  O   UNL     1      10.945 -20.029 -37.141  1.00  0.00    -0.504 OA
ATOM     21  H   UNL     1      10.330 -20.542 -36.520  1.00  0.00     0.293 HD
ENDBRANCH  17  20
ENDBRANCH   1  12
BRANCH   2  22
ATOM     22  O   UNL     1       7.914 -14.958 -39.056  1.00  0.00    -0.502 OA
ATOM     23  H   UNL     1       8.895 -15.209 -39.096  1.00  0.00     0.293 HD
ENDBRANCH   2  22
BRANCH   6  24
ATOM     24  O   UNL     1       2.731 -14.880 -38.631  1.00  0.00    -0.507 OA
ATOM     25  H   UNL     1       3.183 -14.169 -38.068  1.00  0.00     0.293 HD
ENDBRANCH   6  24
BRANCH   8  26
ATOM     26  O   UNL     1       1.693 -19.589 -38.470  1.00  0.00    -0.508 OA
ATOM     27  H   UNL     1       1.033 -19.758 -39.220  1.00  0.00     0.293 HD
ENDBRANCH   8  26
TORSDOF 6
ENDMDL
MODEL 8
REMARK VINA RESULT:    -5.956      3.645      7.796
REMARK INTER + INTRA:          -7.507
REMARK INTER:                  -7.288
REMARK INTRA:                  -0.219
REMARK UNBOUND:                -0.332
REMARK SMILES O=c1c(O)c(-c2ccc(O)c(O)c2)oc2cc(O)cc(O)c12
REMARK SMILES IDX 5 1 3 2 2 3 1 4 22 5 20 6 19 7 17 8 16 9 15 10 14 11 6 12
REMARK SMILES IDX 7 13 8 14 9 15 13 16 11 17 10 18 12 20 4 22 21 24 18 26
REMARK H PARENT 10 19 12 21 4 23 21 25 18 27
REMARK Flexibility Score: inf
ROOT
ATOM      1  C   UNL     1       6.595 -17.572 -39.390  1.00  0.00     0.180 A 
ATOM      2  C   UNL     1       7.985 -17.767 -39.493  1.00  0.00     0.208 A 
ATOM      3  C   UNL     1       8.742 -16.864 -40.257  1.00  0.00     0.238 A 
ATOM      4  O   UNL     1       9.990 -17.022 -40.347  1.00  0.00    -0.285 OA
ATOM      5  C   UNL     1       8.097 -15.799 -40.918  1.00  0.00     0.111 A 
ATOM      6  C   UNL     1       8.786 -14.849 -41.710  1.00  0.00     0.134 A 
ATOM      7  C   UNL     1       8.070 -13.823 -42.344  1.00  0.00     0.093 A 
ATOM      8  C   UNL     1       6.684 -13.728 -42.203  1.00  0.00     0.123 A 
ATOM      9  C   UNL     1       5.998 -14.663 -41.422  1.00  0.00     0.094 A 
ATOM     10  C   UNL     1       6.693 -15.693 -40.781  1.00  0.00     0.146 A 
ATOM     11  O   UNL     1       6.019 -16.565 -40.040  1.00  0.00    -0.452 OA
ENDROOT
BRANCH   1  12
ATOM     12  C   UNL     1       5.732 -18.470 -38.588  1.00  0.00     0.025 A 
ATOM     13  C   UNL     1       4.753 -19.242 -39.232  1.00  0.00     0.016 A 
ATOM     14  C   UNL     1       3.914 -20.081 -38.494  1.00  0.00     0.051 A 
ATOM     15  C   UNL     1       4.029 -20.148 -37.102  1.00  0.00     0.157 A 
ATOM     16  C   UNL     1       5.831 -18.522 -37.187  1.00  0.00     0.062 A 
ATOM     17  C   UNL     1       4.989 -19.361 -36.443  1.00  0.00     0.158 A 
BRANCH  15  18
ATOM     18  O   UNL     1       3.179 -20.995 -36.391  1.00  0.00    -0.504 OA
ATOM     19  H   UNL     1       2.204 -21.109 -36.638  1.00  0.00     0.293 HD
ENDBRANCH  15  18
BRANCH  17  20
ATOM     20  O   UNL     1       5.099 -19.413 -35.054  1.00  0.00    -0.504 OA
ATOM     21  H   UNL     1       4.327 -19.714 -34.472  1.00  0.00     0.293 HD
ENDBRANCH  17  20
ENDBRANCH   1  12
BRANCH   2  22
ATOM     22  O   UNL     1       8.593 -18.859 -38.868  1.00  0.00    -0.502 OA
ATOM     23  H   UNL     1       8.068 -19.670 -38.562  1.00  0.00     0.293 HD
ENDBRANCH   2  22
BRANCH   6  24
ATOM     24  O   UNL     1      10.170 -14.917 -41.872  1.00  0.00    -0.507 OA
ATOM     25  H   UNL     1      10.632 -14.523 -42.684  1.00  0.00     0.293 HD
ENDBRANCH   6  24
BRANCH   8  26
ATOM     26  O   UNL     1       5.997 -12.699 -42.845  1.00  0.00    -0.508 OA
ATOM     27  H   UNL     1       6.466 -11.848 -43.131  1.00  0.00     0.293 HD
ENDBRANCH   8  26
TORSDOF 6
ENDMDL
MODEL 9
REMARK VINA RESULT:    -5.953      1.476      2.249
REMARK INTER + INTRA:          -7.503
REMARK INTER:                  -7.354
REMARK INTRA:                  -0.149
REMARK UNBOUND:                -0.332
REMARK SMILES O=c1c(O)c(-c2ccc(O)c(O)c2)oc2cc(O)cc(O)c12
REMARK SMILES IDX 5 1 3 2 2 3 1 4 22 5 20 6 19 7 17 8 16 9 15 10 14 11 6 12
REMARK SMILES IDX 7 13 8 14 9 15 13 16 11 17 10 18 12 20 4 22 21 24 18 26
REMARK H PARENT 10 19 12 21 4 23 21 25 18 27
REMARK Flexibility Score: inf
ROOT
ATOM      1  C   UNL     1       4.736 -17.667 -37.821  1.00  0.00     0.180 A 
ATOM      2  C   UNL     1       4.033 -18.648 -38.546  1.00  0.00     0.208 A 
ATOM      3  C   UNL     1       2.690 -18.899 -38.223  1.00  0.00     0.238 A 
ATOM      4  O   UNL     1       2.047 -19.767 -38.873  1.00  0.00    -0.285 OA
ATOM      5  C   UNL     1       2.082 -18.183 -37.171  1.00  0.00     0.111 A 
ATOM      6  C   UNL     1       0.735 -18.379 -36.781  1.00  0.00     0.134 A 
ATOM      7  C   UNL     1       0.205 -17.633 -35.717  1.00  0.00     0.093 A 
ATOM      8  C   UNL     1       0.991 -16.699 -35.039  1.00  0.00     0.123 A 
ATOM      9  C   UNL     1       2.322 -16.501 -35.421  1.00  0.00     0.094 A 
ATOM     10  C   UNL     1       2.870 -17.234 -36.479  1.00  0.00     0.146 A 
ATOM     11  O   UNL     1       4.134 -17.023 -36.826  1.00  0.00    -0.452 OA
ENDROOT
BRANCH   1  12
ATOM     12  C   UNL     1       6.149 -17.333 -38.114  1.00  0.00     0.025 A 
ATOM     13  C   UNL     1       6.468 -16.061 -38.615  1.00  0.00     0.016 A 
ATOM     14  C   UNL     1       7.791 -15.731 -38.918  1.00  0.00     0.051 A 
ATOM     15  C   UNL     1       8.812 -16.670 -38.742  1.00  0.00     0.157 A 
ATOM     16  C   UNL     1       7.174 -18.283 -37.958  1.00  0.00     0.062 A 
ATOM     17  C   UNL     1       8.502 -17.954 -38.264  1.00  0.00     0.158 A 
BRANCH  15  18
ATOM     18  O   UNL     1      10.124 -16.312 -39.052  1.00  0.00    -0.504 OA
ATOM     19  H   UNL     1      10.456 -16.260 -40.007  1.00  0.00     0.293 HD
ENDBRANCH  15  18
BRANCH  17  20
ATOM     20  O   UNL     1       9.514 -18.900 -38.099  1.00  0.00    -0.504 OA
ATOM     21  H   UNL     1      10.084 -18.926 -37.262  1.00  0.00     0.293 HD
ENDBRANCH  17  20
ENDBRANCH   1  12
BRANCH   2  22
ATOM     22  O   UNL     1       4.675 -19.378 -39.550  1.00  0.00    -0.502 OA
ATOM     23  H   UNL     1       4.169 -19.977 -40.193  1.00  0.00     0.293 HD
ENDBRANCH   2  22
BRANCH   6  24
ATOM     24  O   UNL     1      -0.077 -19.304 -37.437  1.00  0.00    -0.507 OA
ATOM     25  H   UNL     1      -0.120 -19.352 -38.449  1.00  0.00     0.293 HD
ENDBRANCH   6  24
BRANCH   8  26
ATOM     26  O   UNL     1       0.440 -15.973 -33.985  1.00  0.00    -0.508 OA
ATOM     27  H   UNL     1      -0.285 -16.363 -33.396  1.00  0.00     0.293 HD
ENDBRANCH   8  26
TORSDOF 6
ENDMDL
