MODEL 1
REMARK VINA RESULT:    -5.451      0.000      0.000
REMARK INTER + INTRA:          -6.712
REMARK INTER:                  -6.407
REMARK INTRA:                  -0.305
REMARK UNBOUND:                -0.305
REMARK SMILES O=c1cc(-c2ccc(O)c(O)c2)oc2cc(O)cc(O)c12
REMARK SMILES IDX 4 1 3 2 2 3 1 4 21 5 19 6 18 7 16 8 15 9 14 10 13 11 5 12
REMARK SMILES IDX 6 13 7 14 8 15 12 16 10 17 9 18 11 20 20 22 17 24
REMARK H PARENT 9 19 11 21 20 23 17 25
REMARK Flexibility Score: inf
ROOT
ATOM      1  C   UNL     1      27.955   5.670 -13.363  1.00  0.00     0.138 A 
ATOM      2  C   UNL     1      28.887   6.610 -13.832  1.00  0.00     0.100 A 
ATOM      3  C   UNL     1      29.727   6.273 -14.894  1.00  0.00     0.197 A 
ATOM      4  O   UNL     1      30.559   7.124 -15.310  1.00  0.00    -0.289 OA
ATOM      5  C   UNL     1      29.628   4.996 -15.482  1.00  0.00     0.107 A 
ATOM      6  C   UNL     1      30.442   4.574 -16.560  1.00  0.00     0.134 A 
ATOM      7  C   UNL     1      30.276   3.287 -17.093  1.00  0.00     0.093 A 
ATOM      8  C   UNL     1      29.316   2.417 -16.571  1.00  0.00     0.123 A 
ATOM      9  C   UNL     1      28.509   2.830 -15.505  1.00  0.00     0.094 A 
ATOM     10  C   UNL     1      28.658   4.107 -14.959  1.00  0.00     0.146 A 
ATOM     11  O   UNL     1      27.880   4.476 -13.945  1.00  0.00    -0.456 OA
ENDROOT
BRANCH   1  12
ATOM     12  C   UNL     1      27.035   5.973 -12.237  1.00  0.00     0.021 A 
ATOM     13  C   UNL     1      27.416   6.819 -11.177  1.00  0.00     0.016 A 
ATOM     14  C   UNL     1      26.533   7.079 -10.126  1.00  0.00     0.051 A 
ATOM     15  C   UNL     1      25.260   6.495 -10.111  1.00  0.00     0.157 A 
ATOM     16  C   UNL     1      25.760   5.380 -12.207  1.00  0.00     0.062 A 
ATOM     17  C   UNL     1      24.874   5.643 -11.152  1.00  0.00     0.158 A 
BRANCH  15  18
ATOM     18  O   UNL     1      24.377   6.754  -9.065  1.00  0.00    -0.504 OA
ATOM     19  H   UNL     1      23.481   6.286  -9.000  1.00  0.00     0.293 HD
ENDBRANCH  15  18
BRANCH  17  20
ATOM     20  O   UNL     1      23.608   5.060 -11.132  1.00  0.00    -0.504 OA
ATOM     21  H   UNL     1      23.116   4.887 -10.263  1.00  0.00     0.293 HD
ENDBRANCH  17  20
ENDBRANCH   1  12
BRANCH   6  22
ATOM     22  O   UNL     1      31.410   5.420 -17.103  1.00  0.00    -0.507 OA
ATOM     23  H   UNL     1      31.161   6.295 -17.551  1.00  0.00     0.293 HD
ENDBRANCH   6  22
BRANCH   8  24
ATOM     24  O   UNL     1      29.171   1.145 -17.118  1.00  0.00    -0.508 OA
ATOM     25  H   UNL     1      28.265   0.696 -17.187  1.00  0.00     0.293 HD
ENDBRANCH   8  24
TORSDOF 5
ENDMDL
MODEL 2
REMARK VINA RESULT:    -4.849      1.125      2.654
REMARK INTER + INTRA:          -6.005
REMARK INTER:                  -5.722
REMARK INTRA:                  -0.283
REMARK UNBOUND:                -0.305
REMARK SMILES O=c1cc(-c2ccc(O)c(O)c2)oc2cc(O)cc(O)c12
REMARK SMILES IDX 4 1 3 2 2 3 1 4 21 5 19 6 18 7 16 8 15 9 14 10 13 11 5 12
REMARK SMILES IDX 6 13 7 14 8 15 12 16 10 17 9 18 11 20 20 22 17 24
REMARK H PARENT 9 19 11 21 20 23 17 25
REMARK Flexibility Score: inf
ROOT
ATOM      1  C   UNL     1      27.839   5.179 -13.430  1.00  0.00     0.138 A 
ATOM      2  C   UNL     1      27.761   3.845 -13.864  1.00  0.00     0.100 A 
ATOM      3  C   UNL     1      28.605   3.404 -14.884  1.00  0.00     0.197 A 
ATOM      4  O   UNL     1      28.529   2.205 -15.266  1.00  0.00    -0.289 OA
ATOM      5  C   UNL     1      29.525   4.301 -15.463  1.00  0.00     0.107 A 
ATOM      6  C   UNL     1      30.415   3.937 -16.501  1.00  0.00     0.134 A 
ATOM      7  C   UNL     1      31.305   4.889 -17.020  1.00  0.00     0.093 A 
ATOM      8  C   UNL     1      31.322   6.194 -16.522  1.00  0.00     0.123 A 
ATOM      9  C   UNL     1      30.445   6.560 -15.495  1.00  0.00     0.094 A 
ATOM     10  C   UNL     1      29.550   5.627 -14.965  1.00  0.00     0.146 A 
ATOM     11  O   UNL     1      28.725   5.998 -13.991  1.00  0.00    -0.456 OA
ENDROOT
BRANCH   1  12
ATOM     12  C   UNL     1      26.967   5.703 -12.349  1.00  0.00     0.021 A 
ATOM     13  C   UNL     1      27.431   6.653 -11.418  1.00  0.00     0.016 A 
ATOM     14  C   UNL     1      26.590   7.122 -10.406  1.00  0.00     0.051 A 
ATOM     15  C   UNL     1      25.277   6.644 -10.299  1.00  0.00     0.157 A 
ATOM     16  C   UNL     1      25.652   5.220 -12.226  1.00  0.00     0.062 A 
ATOM     17  C   UNL     1      24.808   5.691 -11.209  1.00  0.00     0.158 A 
BRANCH  15  18
ATOM     18  O   UNL     1      24.436   7.111  -9.290  1.00  0.00    -0.504 OA
ATOM     19  H   UNL     1      24.122   6.506  -8.541  1.00  0.00     0.293 HD
ENDBRANCH  15  18
BRANCH  17  20
ATOM     20  O   UNL     1      23.502   5.215 -11.099  1.00  0.00    -0.504 OA
ATOM     21  H   UNL     1      23.103   4.596 -11.794  1.00  0.00     0.293 HD
ENDBRANCH  17  20
ENDBRANCH   1  12
BRANCH   6  22
ATOM     22  O   UNL     1      30.421   2.641 -17.019  1.00  0.00    -0.507 OA
ATOM     23  H   UNL     1      31.165   1.986 -16.808  1.00  0.00     0.293 HD
ENDBRANCH   6  22
BRANCH   8  24
ATOM     24  O   UNL     1      32.216   7.120 -17.054  1.00  0.00    -0.508 OA
ATOM     25  H   UNL     1      32.844   6.878 -17.812  1.00  0.00     0.293 HD
ENDBRANCH   8  24
TORSDOF 5
ENDMDL
MODEL 3
REMARK VINA RESULT:    -4.745      1.572      7.144
REMARK INTER + INTRA:          -5.882
REMARK INTER:                  -5.592
REMARK INTRA:                  -0.291
REMARK UNBOUND:                -0.305
REMARK SMILES O=c1cc(-c2ccc(O)c(O)c2)oc2cc(O)cc(O)c12
REMARK SMILES IDX 4 1 3 2 2 3 1 4 21 5 19 6 18 7 16 8 15 9 14 10 13 11 5 12
REMARK SMILES IDX 6 13 7 14 8 15 12 16 10 17 9 18 11 20 20 22 17 24
REMARK H PARENT 9 19 11 21 20 23 17 25
REMARK Flexibility Score: inf
ROOT
ATOM      1  C   UNL     1      27.591   4.780 -14.157  1.00  0.00     0.138 A 
ATOM      2  C   UNL     1      26.824   3.635 -14.427  1.00  0.00     0.100 A 
ATOM      3  C   UNL     1      25.669   3.391 -13.684  1.00  0.00     0.197 A 
ATOM      4  O   UNL     1      24.985   2.361 -13.935  1.00  0.00    -0.289 OA
ATOM      5  C   UNL     1      25.286   4.297 -12.675  1.00  0.00     0.107 A 
ATOM      6  C   UNL     1      24.132   4.124 -11.875  1.00  0.00     0.134 A 
ATOM      7  C   UNL     1      23.818   5.076 -10.893  1.00  0.00     0.093 A 
ATOM      8  C   UNL     1      24.632   6.194 -10.698  1.00  0.00     0.123 A 
ATOM      9  C   UNL     1      25.775   6.370 -11.486  1.00  0.00     0.094 A 
ATOM     10  C   UNL     1      26.107   5.433 -12.468  1.00  0.00     0.146 A 
ATOM     11  O   UNL     1      27.198   5.621 -13.203  1.00  0.00    -0.456 OA
ENDROOT
BRANCH   1  12
ATOM     12  C   UNL     1      28.829   5.091 -14.916  1.00  0.00     0.021 A 
ATOM     13  C   UNL     1      29.359   6.395 -14.968  1.00  0.00     0.016 A 
ATOM     14  C   UNL     1      30.520   6.659 -15.698  1.00  0.00     0.051 A 
ATOM     15  C   UNL     1      31.167   5.630 -16.394  1.00  0.00     0.157 A 
ATOM     16  C   UNL     1      29.478   4.067 -15.629  1.00  0.00     0.062 A 
ATOM     17  C   UNL     1      30.645   4.333 -16.361  1.00  0.00     0.158 A 
BRANCH  15  18
ATOM     18  O   UNL     1      32.327   5.892 -17.123  1.00  0.00    -0.504 OA
ATOM     19  H   UNL     1      32.288   6.261 -18.065  1.00  0.00     0.293 HD
ENDBRANCH  15  18
BRANCH  17  20
ATOM     20  O   UNL     1      31.289   3.312 -17.059  1.00  0.00    -0.504 OA
ATOM     21  H   UNL     1      31.999   2.737 -16.621  1.00  0.00     0.293 HD
ENDBRANCH  17  20
ENDBRANCH   1  12
BRANCH   6  22
ATOM     22  O   UNL     1      23.298   3.018 -12.047  1.00  0.00    -0.507 OA
ATOM     23  H   UNL     1      23.515   2.286 -12.713  1.00  0.00     0.293 HD
ENDBRANCH   6  22
BRANCH   8  24
ATOM     24  O   UNL     1      24.298   7.125  -9.717  1.00  0.00    -0.508 OA
ATOM     25  H   UNL     1      24.431   6.929  -8.732  1.00  0.00     0.293 HD
ENDBRANCH   8  24
TORSDOF 5
ENDMDL
MODEL 4
REMARK VINA RESULT:    -4.330      3.010      6.598
REMARK INTER + INTRA:          -5.394
REMARK INTER:                  -5.111
REMARK INTRA:                  -0.284
REMARK UNBOUND:                -0.305
REMARK SMILES O=c1cc(-c2ccc(O)c(O)c2)oc2cc(O)cc(O)c12
REMARK SMILES IDX 4 1 3 2 2 3 1 4 21 5 19 6 18 7 16 8 15 9 14 10 13 11 5 12
REMARK SMILES IDX 6 13 7 14 8 15 12 16 10 17 9 18 11 20 20 22 17 24
REMARK H PARENT 9 19 11 21 20 23 17 25
REMARK Flexibility Score: inf
ROOT
ATOM      1  C   UNL     1      28.321   4.550 -14.838  1.00  0.00     0.138 A 
ATOM      2  C   UNL     1      27.034   4.943 -15.241  1.00  0.00     0.100 A 
ATOM      3  C   UNL     1      25.918   4.339 -14.661  1.00  0.00     0.197 A 
ATOM      4  O   UNL     1      24.767   4.699 -15.027  1.00  0.00    -0.289 OA
ATOM      5  C   UNL     1      26.098   3.345 -13.678  1.00  0.00     0.107 A 
ATOM      6  C   UNL     1      25.022   2.681 -13.041  1.00  0.00     0.134 A 
ATOM      7  C   UNL     1      25.286   1.706 -12.068  1.00  0.00     0.093 A 
ATOM      8  C   UNL     1      26.599   1.383 -11.720  1.00  0.00     0.123 A 
ATOM      9  C   UNL     1      27.667   2.036 -12.346  1.00  0.00     0.094 A 
ATOM     10  C   UNL     1      27.426   3.009 -13.319  1.00  0.00     0.146 A 
ATOM     11  O   UNL     1      28.456   3.615 -13.901  1.00  0.00    -0.456 OA
ENDROOT
BRANCH   1  12
ATOM     12  C   UNL     1      29.544   5.159 -15.420  1.00  0.00     0.021 A 
ATOM     13  C   UNL     1      29.741   6.554 -15.438  1.00  0.00     0.016 A 
ATOM     14  C   UNL     1      30.897   7.099 -16.000  1.00  0.00     0.051 A 
ATOM     15  C   UNL     1      31.872   6.264 -16.562  1.00  0.00     0.157 A 
ATOM     16  C   UNL     1      30.522   4.329 -15.998  1.00  0.00     0.062 A 
ATOM     17  C   UNL     1      31.683   4.877 -16.562  1.00  0.00     0.158 A 
BRANCH  15  18
ATOM     18  O   UNL     1      33.027   6.805 -17.123  1.00  0.00    -0.504 OA
ATOM     19  H   UNL     1      33.898   6.847 -16.607  1.00  0.00     0.293 HD
ENDBRANCH  15  18
BRANCH  17  20
ATOM     20  O   UNL     1      32.653   4.049 -17.125  1.00  0.00    -0.504 OA
ATOM     21  H   UNL     1      32.988   3.221 -16.645  1.00  0.00     0.293 HD
ENDBRANCH  17  20
ENDBRANCH   1  12
BRANCH   6  22
ATOM     22  O   UNL     1      23.699   2.983 -13.367  1.00  0.00    -0.507 OA
ATOM     23  H   UNL     1      23.295   3.890 -13.167  1.00  0.00     0.293 HD
ENDBRANCH   6  22
BRANCH   8  24
ATOM     24  O   UNL     1      26.834   0.411 -10.750  1.00  0.00    -0.508 OA
ATOM     25  H   UNL     1      27.461   0.578  -9.972  1.00  0.00     0.293 HD
ENDBRANCH   8  24
TORSDOF 5
ENDMDL
MODEL 5
REMARK VINA RESULT:    -4.164      3.008      4.480
REMARK INTER + INTRA:          -5.200
REMARK INTER:                  -4.910
REMARK INTRA:                  -0.290
REMARK UNBOUND:                -0.305
REMARK SMILES O=c1cc(-c2ccc(O)c(O)c2)oc2cc(O)cc(O)c12
REMARK SMILES IDX 4 1 3 2 2 3 1 4 21 5 19 6 18 7 16 8 15 9 14 10 13 11 5 12
REMARK SMILES IDX 6 13 7 14 8 15 12 16 10 17 9 18 11 20 20 22 17 24
REMARK H PARENT 9 19 11 21 20 23 17 25
REMARK Flexibility Score: inf
ROOT
ATOM      1  C   UNL     1      27.156   4.021 -13.564  1.00  0.00     0.138 A 
ATOM      2  C   UNL     1      27.210   4.400 -14.916  1.00  0.00     0.100 A 
ATOM      3  C   UNL     1      28.205   5.279 -15.343  1.00  0.00     0.197 A 
ATOM      4  O   UNL     1      28.247   5.611 -16.559  1.00  0.00    -0.289 OA
ATOM      5  C   UNL     1      29.144   5.772 -14.415  1.00  0.00     0.107 A 
ATOM      6  C   UNL     1      30.183   6.667 -14.765  1.00  0.00     0.134 A 
ATOM      7  C   UNL     1      31.080   7.108 -13.781  1.00  0.00     0.093 A 
ATOM      8  C   UNL     1      30.960   6.673 -12.459  1.00  0.00     0.123 A 
ATOM      9  C   UNL     1      29.934   5.788 -12.108  1.00  0.00     0.094 A 
ATOM     10  C   UNL     1      29.029   5.338 -13.072  1.00  0.00     0.146 A 
ATOM     11  O   UNL     1      28.062   4.498 -12.714  1.00  0.00    -0.456 OA
ENDROOT
BRANCH   1  12
ATOM     12  C   UNL     1      26.119   3.089 -13.052  1.00  0.00     0.021 A 
ATOM     13  C   UNL     1      24.751   3.277 -13.331  1.00  0.00     0.016 A 
ATOM     14  C   UNL     1      23.798   2.389 -12.829  1.00  0.00     0.051 A 
ATOM     15  C   UNL     1      24.191   1.304 -12.034  1.00  0.00     0.157 A 
ATOM     16  C   UNL     1      26.503   2.005 -12.243  1.00  0.00     0.062 A 
ATOM     17  C   UNL     1      25.545   1.113 -11.739  1.00  0.00     0.158 A 
BRANCH  15  18
ATOM     18  O   UNL     1      23.241   0.416 -11.532  1.00  0.00    -0.504 OA
ATOM     19  H   UNL     1      22.392   0.744 -11.087  1.00  0.00     0.293 HD
ENDBRANCH  15  18
BRANCH  17  20
ATOM     20  O   UNL     1      25.933   0.034 -10.945  1.00  0.00    -0.504 OA
ATOM     21  H   UNL     1      26.456  -0.745 -11.328  1.00  0.00     0.293 HD
ENDBRANCH  17  20
ENDBRANCH   1  12
BRANCH   6  22
ATOM     22  O   UNL     1      30.329   7.119 -16.077  1.00  0.00    -0.507 OA
ATOM     23  H   UNL     1      30.965   7.873 -16.313  1.00  0.00     0.293 HD
ENDBRANCH   6  22
BRANCH   8  24
ATOM     24  O   UNL     1      31.864   7.125 -11.501  1.00  0.00    -0.508 OA
ATOM     25  H   UNL     1      32.835   6.833 -11.507  1.00  0.00     0.293 HD
ENDBRANCH   8  24
TORSDOF 5
ENDMDL
MODEL 6
REMARK VINA RESULT:    -3.436      1.512      6.913
REMARK INTER + INTRA:          -4.345
REMARK INTER:                  -4.051
REMARK INTRA:                  -0.293
REMARK UNBOUND:                -0.305
REMARK SMILES O=c1cc(-c2ccc(O)c(O)c2)oc2cc(O)cc(O)c12
REMARK SMILES IDX 4 1 3 2 2 3 1 4 21 5 19 6 18 7 16 8 15 9 14 10 13 11 5 12
REMARK SMILES IDX 6 13 7 14 8 15 12 16 10 17 9 18 11 20 20 22 17 24
REMARK H PARENT 9 19 11 21 20 23 17 25
REMARK Flexibility Score: inf
ROOT
ATOM      1  C   UNL     1      27.411   4.991 -13.139  1.00  0.00     0.138 A 
ATOM      2  C   UNL     1      27.731   5.931 -12.144  1.00  0.00     0.100 A 
ATOM      3  C   UNL     1      26.770   6.282 -11.196  1.00  0.00     0.197 A 
ATOM      4  O   UNL     1      27.067   7.125 -10.306  1.00  0.00    -0.289 OA
ATOM      5  C   UNL     1      25.493   5.688 -11.246  1.00  0.00     0.107 A 
ATOM      6  C   UNL     1      24.461   5.987 -10.325  1.00  0.00     0.134 A 
ATOM      7  C   UNL     1      23.219   5.347 -10.441  1.00  0.00     0.093 A 
ATOM      8  C   UNL     1      22.988   4.416 -11.456  1.00  0.00     0.123 A 
ATOM      9  C   UNL     1      24.005   4.115 -12.370  1.00  0.00     0.094 A 
ATOM     10  C   UNL     1      25.250   4.742 -12.273  1.00  0.00     0.146 A 
ATOM     11  O   UNL     1      26.199   4.442 -13.153  1.00  0.00    -0.456 OA
ENDROOT
BRANCH   1  12
ATOM     12  C   UNL     1      28.394   4.580 -14.173  1.00  0.00     0.021 A 
ATOM     13  C   UNL     1      29.172   5.523 -14.872  1.00  0.00     0.016 A 
ATOM     14  C   UNL     1      30.082   5.107 -15.846  1.00  0.00     0.051 A 
ATOM     15  C   UNL     1      30.226   3.746 -16.146  1.00  0.00     0.157 A 
ATOM     16  C   UNL     1      28.535   3.217 -14.489  1.00  0.00     0.062 A 
ATOM     17  C   UNL     1      29.450   2.800 -15.467  1.00  0.00     0.158 A 
BRANCH  15  18
ATOM     18  O   UNL     1      31.134   3.329 -17.117  1.00  0.00    -0.504 OA
ATOM     19  H   UNL     1      32.133   3.439 -16.990  1.00  0.00     0.293 HD
ENDBRANCH  15  18
BRANCH  17  20
ATOM     20  O   UNL     1      29.592   1.446 -15.770  1.00  0.00    -0.504 OA
ATOM     21  H   UNL     1      28.922   0.758 -15.447  1.00  0.00     0.293 HD
ENDBRANCH  17  20
ENDBRANCH   1  12
BRANCH   6  22
ATOM     22  O   UNL     1      24.662   6.913  -9.300  1.00  0.00    -0.507 OA
ATOM     23  H   UNL     1      24.578   7.910  -9.459  1.00  0.00     0.293 HD
ENDBRANCH   6  22
BRANCH   8  24
ATOM     24  O   UNL     1      21.746   3.794 -11.549  1.00  0.00    -0.508 OA
ATOM     25  H   UNL     1      21.642   2.874 -11.962  1.00  0.00     0.293 HD
ENDBRANCH   8  24
TORSDOF 5
ENDMDL
MODEL 7
REMARK VINA RESULT:    -3.310      1.219      1.980
REMARK INTER + INTRA:          -4.196
REMARK INTER:                  -3.904
REMARK INTRA:                  -0.293
REMARK UNBOUND:                -0.305
REMARK SMILES O=c1cc(-c2ccc(O)c(O)c2)oc2cc(O)cc(O)c12
REMARK SMILES IDX 4 1 3 2 2 3 1 4 21 5 19 6 18 7 16 8 15 9 14 10 13 11 5 12
REMARK SMILES IDX 6 13 7 14 8 15 12 16 10 17 9 18 11 20 20 22 17 24
REMARK H PARENT 9 19 11 21 20 23 17 25
REMARK Flexibility Score: inf
ROOT
ATOM      1  C   UNL     1      26.933   4.595 -13.754  1.00  0.00     0.138 A 
ATOM      2  C   UNL     1      27.713   5.739 -13.989  1.00  0.00     0.100 A 
ATOM      3  C   UNL     1      28.828   5.651 -14.823  1.00  0.00     0.197 A 
ATOM      4  O   UNL     1      29.521   6.684 -15.030  1.00  0.00    -0.289 OA
ATOM      5  C   UNL     1      29.154   4.417 -15.420  1.00  0.00     0.107 A 
ATOM      6  C   UNL     1      30.267   4.241 -16.277  1.00  0.00     0.134 A 
ATOM      7  C   UNL     1      30.520   2.979 -16.836  1.00  0.00     0.093 A 
ATOM      8  C   UNL     1      29.685   1.895 -16.557  1.00  0.00     0.123 A 
ATOM      9  C   UNL     1      28.584   2.064 -15.710  1.00  0.00     0.094 A 
ATOM     10  C   UNL     1      28.314   3.311 -15.142  1.00  0.00     0.146 A 
ATOM     11  O   UNL     1      27.263   3.447 -14.340  1.00  0.00    -0.456 OA
ENDROOT
BRANCH   1  12
ATOM     12  C   UNL     1      25.736   4.630 -12.876  1.00  0.00     0.021 A 
ATOM     13  C   UNL     1      24.781   3.594 -12.883  1.00  0.00     0.016 A 
ATOM     14  C   UNL     1      23.660   3.658 -12.052  1.00  0.00     0.051 A 
ATOM     15  C   UNL     1      23.468   4.759 -11.208  1.00  0.00     0.157 A 
ATOM     16  C   UNL     1      25.528   5.738 -12.034  1.00  0.00     0.062 A 
ATOM     17  C   UNL     1      24.402   5.801 -11.200  1.00  0.00     0.158 A 
BRANCH  15  18
ATOM     18  O   UNL     1      22.350   4.825 -10.377  1.00  0.00    -0.504 OA
ATOM     19  H   UNL     1      21.422   4.988 -10.750  1.00  0.00     0.293 HD
ENDBRANCH  15  18
BRANCH  17  20
ATOM     20  O   UNL     1      24.206   6.898 -10.361  1.00  0.00    -0.504 OA
ATOM     21  H   UNL     1      24.899   7.170  -9.674  1.00  0.00     0.293 HD
ENDBRANCH  17  20
ENDBRANCH   1  12
BRANCH   6  22
ATOM     22  O   UNL     1      31.119   5.305 -16.575  1.00  0.00    -0.507 OA
ATOM     23  H   UNL     1      32.110   5.268 -16.369  1.00  0.00     0.293 HD
ENDBRANCH   6  22
BRANCH   8  24
ATOM     24  O   UNL     1      29.958   0.653 -17.125  1.00  0.00    -0.508 OA
ATOM     25  H   UNL     1      29.964   0.518 -18.129  1.00  0.00     0.293 HD
ENDBRANCH   8  24
TORSDOF 5
ENDMDL
MODEL 8
REMARK VINA RESULT:    -3.031      1.900      6.490
REMARK INTER + INTRA:          -3.868
REMARK INTER:                  -3.549
REMARK INTRA:                  -0.319
REMARK UNBOUND:                -0.305
REMARK SMILES O=c1cc(-c2ccc(O)c(O)c2)oc2cc(O)cc(O)c12
REMARK SMILES IDX 4 1 3 2 2 3 1 4 21 5 19 6 18 7 16 8 15 9 14 10 13 11 5 12
REMARK SMILES IDX 6 13 7 14 8 15 12 16 10 17 9 18 11 20 20 22 17 24
REMARK H PARENT 9 19 11 21 20 23 17 25
REMARK Flexibility Score: inf
ROOT
ATOM      1  C   UNL     1      27.881   5.457 -13.973  1.00  0.00     0.138 A 
ATOM      2  C   UNL     1      27.311   6.472 -13.186  1.00  0.00     0.100 A 
ATOM      3  C   UNL     1      26.159   6.202 -12.446  1.00  0.00     0.197 A 
ATOM      4  O   UNL     1      25.655   7.118 -11.741  1.00  0.00    -0.289 OA
ATOM      5  C   UNL     1      25.584   4.916 -12.497  1.00  0.00     0.107 A 
ATOM      6  C   UNL     1      24.417   4.560 -11.780  1.00  0.00     0.134 A 
ATOM      7  C   UNL     1      23.912   3.255 -11.881  1.00  0.00     0.093 A 
ATOM      8  C   UNL     1      24.548   2.303 -12.681  1.00  0.00     0.123 A 
ATOM      9  C   UNL     1      25.703   2.650 -13.392  1.00  0.00     0.094 A 
ATOM     10  C   UNL     1      26.222   3.944 -13.306  1.00  0.00     0.146 A 
ATOM     11  O   UNL     1      27.319   4.251 -13.992  1.00  0.00    -0.456 OA
ENDROOT
BRANCH   1  12
ATOM     12  C   UNL     1      29.106   5.687 -14.780  1.00  0.00     0.021 A 
ATOM     13  C   UNL     1      29.757   6.936 -14.799  1.00  0.00     0.016 A 
ATOM     14  C   UNL     1      30.903   7.125 -15.574  1.00  0.00     0.051 A 
ATOM     15  C   UNL     1      31.414   6.076 -16.350  1.00  0.00     0.157 A 
ATOM     16  C   UNL     1      29.618   4.643 -15.571  1.00  0.00     0.062 A 
ATOM     17  C   UNL     1      30.770   4.834 -16.350  1.00  0.00     0.158 A 
BRANCH  15  18
ATOM     18  O   UNL     1      32.558   6.262 -17.124  1.00  0.00    -0.504 OA
ATOM     19  H   UNL     1      33.075   5.477 -17.502  1.00  0.00     0.293 HD
ENDBRANCH  15  18
BRANCH  17  20
ATOM     20  O   UNL     1      31.278   3.793 -17.125  1.00  0.00    -0.504 OA
ATOM     21  H   UNL     1      32.148   3.331 -16.888  1.00  0.00     0.293 HD
ENDBRANCH  17  20
ENDBRANCH   1  12
BRANCH   6  22
ATOM     22  O   UNL     1      23.759   5.488 -10.973  1.00  0.00    -0.507 OA
ATOM     23  H   UNL     1      24.231   6.310 -10.613  1.00  0.00     0.293 HD
ENDBRANCH   6  22
BRANCH   8  24
ATOM     24  O   UNL     1      24.026   1.015 -12.763  1.00  0.00    -0.508 OA
ATOM     25  H   UNL     1      24.141   0.346 -12.010  1.00  0.00     0.293 HD
ENDBRANCH   8  24
TORSDOF 5
ENDMDL
MODEL 9
REMARK VINA RESULT:    -2.997      2.634      3.460
REMARK INTER + INTRA:          -3.828
REMARK INTER:                  -3.546
REMARK INTRA:                  -0.282
REMARK UNBOUND:                -0.305
REMARK SMILES O=c1cc(-c2ccc(O)c(O)c2)oc2cc(O)cc(O)c12
REMARK SMILES IDX 4 1 3 2 2 3 1 4 21 5 19 6 18 7 16 8 15 9 14 10 13 11 5 12
REMARK SMILES IDX 6 13 7 14 8 15 12 16 10 17 9 18 11 20 20 22 17 24
REMARK H PARENT 9 19 11 21 20 23 17 25
REMARK Flexibility Score: inf
ROOT
ATOM      1  C   UNL     1      26.736   6.013 -12.032  1.00  0.00     0.138 A 
ATOM      2  C   UNL     1      27.788   6.170 -11.114  1.00  0.00     0.100 A 
ATOM      3  C   UNL     1      29.065   6.483 -11.579  1.00  0.00     0.197 A 
ATOM      4  O   UNL     1      30.002   6.623 -10.748  1.00  0.00    -0.289 OA
ATOM      5  C   UNL     1      29.283   6.639 -12.963  1.00  0.00     0.107 A 
ATOM      6  C   UNL     1      30.545   6.954 -13.518  1.00  0.00     0.134 A 
ATOM      7  C   UNL     1      30.677   7.099 -14.908  1.00  0.00     0.093 A 
ATOM      8  C   UNL     1      29.574   6.935 -15.749  1.00  0.00     0.123 A 
ATOM      9  C   UNL     1      28.323   6.623 -15.205  1.00  0.00     0.094 A 
ATOM     10  C   UNL     1      28.170   6.474 -13.824  1.00  0.00     0.146 A 
ATOM     11  O   UNL     1      26.972   6.176 -13.331  1.00  0.00    -0.456 OA
ENDROOT
BRANCH   1  12
ATOM     12  C   UNL     1      25.356   5.681 -11.593  1.00  0.00     0.021 A 
ATOM     13  C   UNL     1      24.666   6.473 -10.655  1.00  0.00     0.016 A 
ATOM     14  C   UNL     1      23.373   6.131 -10.255  1.00  0.00     0.051 A 
ATOM     15  C   UNL     1      22.749   4.990 -10.776  1.00  0.00     0.157 A 
ATOM     16  C   UNL     1      24.728   4.530 -12.101  1.00  0.00     0.062 A 
ATOM     17  C   UNL     1      23.428   4.187 -11.699  1.00  0.00     0.158 A 
BRANCH  15  18
ATOM     18  O   UNL     1      21.458   4.647 -10.379  1.00  0.00    -0.504 OA
ATOM     19  H   UNL     1      21.213   3.694 -10.141  1.00  0.00     0.293 HD
ENDBRANCH  15  18
BRANCH  17  20
ATOM     20  O   UNL     1      22.807   3.050 -12.214  1.00  0.00    -0.504 OA
ATOM     21  H   UNL     1      23.176   2.564 -13.023  1.00  0.00     0.293 HD
ENDBRANCH  17  20
ENDBRANCH   1  12
BRANCH   6  22
ATOM     22  O   UNL     1      31.665   7.125 -12.704  1.00  0.00    -0.507 OA
ATOM     23  H   UNL     1      31.661   7.766 -11.919  1.00  0.00     0.293 HD
ENDBRANCH   6  22
BRANCH   8  24
ATOM     24  O   UNL     1      29.731   7.084 -17.125  1.00  0.00    -0.508 OA
ATOM     25  H   UNL     1      30.608   6.871 -17.585  1.00  0.00     0.293 HD
ENDBRANCH   8  24
TORSDOF 5
ENDMDL
