MODEL 1
REMARK VINA RESULT:    -3.497      0.000      0.000
REMARK INTER + INTRA:          -3.465
REMARK INTER:                  -3.804
REMARK INTRA:                   0.339
REMARK UNBOUND:                 0.339
REMARK SMILES C[C@@H]1[C@H](C)CC[C@@]2(C(=O)[O-])CC[C@]3(C)C(=CC[C@@H]4[C@]5(C)CC[C@H](O)C(C)(C)[C@@H]5CC[C@]43C)[C@@H]12
REMARK SMILES IDX 7 1 6 2 11 3 33 4 5 5 12 6 15 7 2 8 3 9 13 10 16 11 1 12
REMARK SMILES IDX 4 13 14 14 31 15 17 16 18 17 30 18 32 19 19 20 29 21 28 22
REMARK SMILES IDX 21 23 20 24 25 25 22 26 23 27 26 28 27 29 8 30 9 31 10 32
REMARK SMILES IDX 24 33
REMARK H PARENT 24 34
REMARK Flexibility Score: inf
ROOT
ATOM      1  C   UNL     1      27.700 -17.183  16.187  1.00  0.00     0.017 C 
ATOM      2  C   UNL     1      28.519 -16.819  14.911  1.00  0.00     0.014 C 
ATOM      3  C   UNL     1      28.138 -18.609  16.644  1.00  0.00     0.014 C 
ATOM      4  C   UNL     1      27.927 -16.119  17.357  1.00  0.00     0.030 C 
ATOM      5  C   UNL     1      29.856 -16.161  15.248  1.00  0.00     0.004 C 
ATOM      6  C   UNL     1      27.620 -18.949  18.047  1.00  0.00     0.013 C 
ATOM      7  C   UNL     1      28.744 -16.709  18.539  1.00  0.00    -0.063 C 
ATOM      8  C   UNL     1      28.381 -14.708  16.826  1.00  0.00    -0.003 C 
ATOM      9  C   UNL     1      29.664 -14.781  15.914  1.00  0.00    -0.011 C 
ATOM     10  C   UNL     1      28.193 -18.012  19.180  1.00  0.00    -0.006 C 
ATOM     11  C   UNL     1      29.831 -16.074  19.068  1.00  0.00    -0.027 C 
ATOM     12  C   UNL     1      27.193 -13.957  16.178  1.00  0.00     0.008 C 
ATOM     13  C   UNL     1      29.773 -13.648  14.875  1.00  0.00     0.008 C 
ATOM     14  C   UNL     1      26.973 -17.597  20.065  1.00  0.00     0.017 C 
ATOM     15  C   UNL     1      29.345 -18.755  20.036  1.00  0.00    -0.020 C 
ATOM     16  C   UNL     1      30.687 -16.593  20.202  1.00  0.00     0.032 C 
ATOM     17  C   UNL     1      29.992 -17.705  21.012  1.00  0.00     0.006 C 
ATOM     18  C   UNL     1      28.791 -19.966  20.863  1.00  0.00     0.008 C 
ATOM     19  C   UNL     1      30.417 -19.295  19.028  1.00  0.00     0.012 C 
ATOM     20  C   UNL     1      30.763 -18.252  22.306  1.00  0.00    -0.025 C 
ATOM     21  C   UNL     1      28.546 -19.668  22.350  1.00  0.00     0.005 C 
ATOM     22  C   UNL     1      29.794 -19.185  23.164  1.00  0.00     0.003 C 
ATOM     23  C   UNL     1      32.125 -18.970  22.000  1.00  0.00     0.010 C 
ATOM     24  C   UNL     1      31.110 -16.987  23.160  1.00  0.00     0.012 C 
ATOM     25  C   UNL     1      30.518 -20.296  24.057  1.00  0.00    -0.006 C 
ATOM     26  C   UNL     1      32.092 -20.510  21.964  1.00  0.00     0.033 C 
ATOM     27  C   UNL     1      31.523 -21.182  23.230  1.00  0.00     0.120 C 
ATOM     28  C   UNL     1      29.480 -21.188  24.810  1.00  0.00     0.014 C 
ATOM     29  C   UNL     1      31.322 -19.612  25.204  1.00  0.00     0.014 C 
ENDROOT
BRANCH   1  30
ATOM     30  C   UNL     1      26.229 -17.259  15.764  1.00  0.00     0.048 C 
ATOM     31  O   UNL     1      25.493 -16.235  15.860  1.00  0.00    -0.550 OA
ATOM     32  O   UNL     1      25.654 -18.450  15.340  1.00  0.00    -0.550 OA
ENDBRANCH   1  30
BRANCH  27  33
ATOM     33  O   UNL     1      30.993 -22.445  22.903  1.00  0.00    -0.393 OA
ATOM     34  H   UNL     1      30.334 -22.689  23.601  1.00  0.00     0.210 HD
ENDBRANCH  27  33
TORSDOF 2
ENDMDL
MODEL 2
REMARK VINA RESULT:    -3.409     11.850     14.579
REMARK INTER + INTRA:          -3.369
REMARK INTER:                  -3.102
REMARK INTRA:                  -0.267
REMARK UNBOUND:                 0.339
REMARK SMILES C[C@@H]1[C@H](C)CC[C@@]2(C(=O)[O-])CC[C@]3(C)C(=CC[C@@H]4[C@]5(C)CC[C@H](O)C(C)(C)[C@@H]5CC[C@]43C)[C@@H]12
REMARK SMILES IDX 7 1 6 2 11 3 33 4 5 5 12 6 15 7 2 8 3 9 13 10 16 11 1 12
REMARK SMILES IDX 4 13 14 14 31 15 17 16 18 17 30 18 32 19 19 20 29 21 28 22
REMARK SMILES IDX 21 23 20 24 25 25 22 26 23 27 26 28 27 29 8 30 9 31 10 32
REMARK SMILES IDX 24 33
REMARK H PARENT 24 34
REMARK Flexibility Score: inf
ROOT
ATOM      1  C   UNL     1      28.843  -9.196  28.920  1.00  0.00     0.017 C 
ATOM      2  C   UNL     1      29.560  -8.810  27.589  1.00  0.00     0.014 C 
ATOM      3  C   UNL     1      27.686  -8.175  29.151  1.00  0.00     0.014 C 
ATOM      4  C   UNL     1      28.279 -10.689  28.873  1.00  0.00     0.030 C 
ATOM      5  C   UNL     1      28.911  -9.462  26.370  1.00  0.00     0.004 C 
ATOM      6  C   UNL     1      26.734  -8.627  30.264  1.00  0.00     0.013 C 
ATOM      7  C   UNL     1      26.727 -10.731  28.816  1.00  0.00    -0.063 C 
ATOM      8  C   UNL     1      29.042 -11.604  27.844  1.00  0.00    -0.003 C 
ATOM      9  C   UNL     1      29.070 -10.998  26.389  1.00  0.00    -0.011 C 
ATOM     10  C   UNL     1      25.972  -9.971  29.942  1.00  0.00    -0.006 C 
ATOM     11  C   UNL     1      26.046 -11.478  27.898  1.00  0.00    -0.027 C 
ATOM     12  C   UNL     1      30.438 -11.995  28.386  1.00  0.00     0.008 C 
ATOM     13  C   UNL     1      30.277 -11.438  25.539  1.00  0.00     0.008 C 
ATOM     14  C   UNL     1      26.076 -10.854  31.228  1.00  0.00     0.017 C 
ATOM     15  C   UNL     1      24.440  -9.695  29.511  1.00  0.00    -0.020 C 
ATOM     16  C   UNL     1      24.541 -11.553  27.767  1.00  0.00     0.032 C 
ATOM     17  C   UNL     1      23.808 -11.052  29.028  1.00  0.00     0.006 C 
ATOM     18  C   UNL     1      23.583  -9.109  30.686  1.00  0.00     0.008 C 
ATOM     19  C   UNL     1      24.452  -8.652  28.341  1.00  0.00     0.012 C 
ATOM     20  C   UNL     1      22.212 -11.190  29.044  1.00  0.00    -0.025 C 
ATOM     21  C   UNL     1      22.694 -10.135  31.404  1.00  0.00     0.005 C 
ATOM     22  C   UNL     1      21.653 -10.885  30.506  1.00  0.00     0.003 C 
ATOM     23  C   UNL     1      21.471 -10.333  27.957  1.00  0.00     0.010 C 
ATOM     24  C   UNL     1      21.912 -12.689  28.706  1.00  0.00     0.012 C 
ATOM     25  C   UNL     1      20.152 -10.338  30.571  1.00  0.00    -0.006 C 
ATOM     26  C   UNL     1      20.878  -8.993  28.434  1.00  0.00     0.033 C 
ATOM     27  C   UNL     1      19.917  -9.094  29.636  1.00  0.00     0.120 C 
ATOM     28  C   UNL     1      19.724 -10.018  32.039  1.00  0.00     0.014 C 
ATOM     29  C   UNL     1      19.161 -11.457  30.130  1.00  0.00     0.014 C 
ENDROOT
BRANCH   1  30
ATOM     30  C   UNL     1      29.865  -9.008  30.046  1.00  0.00     0.048 C 
ATOM     31  O   UNL     1      30.758  -8.119  29.944  1.00  0.00    -0.550 OA
ATOM     32  O   UNL     1      29.886  -9.843  31.157  1.00  0.00    -0.550 OA
ENDBRANCH   1  30
BRANCH  27  33
ATOM     33  O   UNL     1      19.906  -7.875  30.342  1.00  0.00    -0.393 OA
ATOM     34  H   UNL     1      19.013  -7.464  30.228  1.00  0.00     0.210 HD
ENDBRANCH  27  33
TORSDOF 2
ENDMDL
MODEL 3
REMARK VINA RESULT:    -1.595     12.105     14.664
REMARK INTER + INTRA:          -1.396
REMARK INTER:                  -1.877
REMARK INTRA:                   0.481
REMARK UNBOUND:                 0.339
REMARK SMILES C[C@@H]1[C@H](C)CC[C@@]2(C(=O)[O-])CC[C@]3(C)C(=CC[C@@H]4[C@]5(C)CC[C@H](O)C(C)(C)[C@@H]5CC[C@]43C)[C@@H]12
REMARK SMILES IDX 7 1 6 2 11 3 33 4 5 5 12 6 15 7 2 8 3 9 13 10 16 11 1 12
REMARK SMILES IDX 4 13 14 14 31 15 17 16 18 17 30 18 32 19 19 20 29 21 28 22
REMARK SMILES IDX 21 23 20 24 25 25 22 26 23 27 26 28 27 29 8 30 9 31 10 32
REMARK SMILES IDX 24 33
REMARK H PARENT 24 34
REMARK Flexibility Score: inf
ROOT
ATOM      1  C   UNL     1      22.346  -9.836  32.138  1.00  0.00     0.017 C 
ATOM      2  C   UNL     1      21.471 -10.914  32.852  1.00  0.00     0.014 C 
ATOM      3  C   UNL     1      23.842 -10.158  32.442  1.00  0.00     0.014 C 
ATOM      4  C   UNL     1      22.081  -9.812  30.564  1.00  0.00     0.030 C 
ATOM      5  C   UNL     1      21.250 -12.150  31.982  1.00  0.00     0.004 C 
ATOM      6  C   UNL     1      24.796  -9.348  31.557  1.00  0.00     0.013 C 
ATOM      7  C   UNL     1      23.292 -10.352  29.754  1.00  0.00    -0.063 C 
ATOM      8  C   UNL     1      20.666 -10.377  30.167  1.00  0.00    -0.003 C 
ATOM      9  C   UNL     1      20.407 -11.826  30.730  1.00  0.00    -0.011 C 
ATOM     10  C   UNL     1      24.662  -9.669  30.018  1.00  0.00    -0.006 C 
ATOM     11  C   UNL     1      23.160 -11.303  28.782  1.00  0.00    -0.027 C 
ATOM     12  C   UNL     1      19.551  -9.362  30.516  1.00  0.00     0.008 C 
ATOM     13  C   UNL     1      18.921 -12.163  30.965  1.00  0.00     0.008 C 
ATOM     14  C   UNL     1      24.624  -8.288  29.285  1.00  0.00     0.017 C 
ATOM     15  C   UNL     1      25.872 -10.604  29.500  1.00  0.00    -0.020 C 
ATOM     16  C   UNL     1      24.291 -11.891  27.968  1.00  0.00     0.032 C 
ATOM     17  C   UNL     1      25.570 -11.031  28.017  1.00  0.00     0.006 C 
ATOM     18  C   UNL     1      27.261  -9.878  29.562  1.00  0.00     0.008 C 
ATOM     19  C   UNL     1      25.933 -11.866  30.429  1.00  0.00     0.012 C 
ATOM     20  C   UNL     1      26.797 -11.502  27.101  1.00  0.00    -0.025 C 
ATOM     21  C   UNL     1      27.753  -9.321  28.218  1.00  0.00     0.005 C 
ATOM     22  C   UNL     1      27.916 -10.366  27.063  1.00  0.00     0.003 C 
ATOM     23  C   UNL     1      27.408 -12.894  27.492  1.00  0.00     0.010 C 
ATOM     24  C   UNL     1      26.213 -11.663  25.658  1.00  0.00     0.012 C 
ATOM     25  C   UNL     1      29.407 -10.874  26.788  1.00  0.00    -0.006 C 
ATOM     26  C   UNL     1      28.687 -12.861  28.350  1.00  0.00     0.033 C 
ATOM     27  C   UNL     1      29.846 -12.029  27.764  1.00  0.00     0.120 C 
ATOM     28  C   UNL     1      30.429  -9.693  26.828  1.00  0.00     0.014 C 
ATOM     29  C   UNL     1      29.521 -11.416  25.331  1.00  0.00     0.014 C 
ENDROOT
BRANCH   1  30
ATOM     30  C   UNL     1      22.014  -8.491  32.792  1.00  0.00     0.048 C 
ATOM     31  O   UNL     1      20.959  -7.875  32.465  1.00  0.00    -0.550 OA
ATOM     32  O   UNL     1      22.882  -7.885  33.692  1.00  0.00    -0.550 OA
ENDBRANCH   1  30
BRANCH  27  33
ATOM     33  O   UNL     1      30.682 -11.575  28.804  1.00  0.00    -0.393 OA
ATOM     34  H   UNL     1      30.882 -12.345  29.392  1.00  0.00     0.210 HD
ENDBRANCH  27  33
TORSDOF 2
ENDMDL
