MODEL 1
REMARK VINA RESULT:    -3.600      0.000      0.000
REMARK INTER + INTRA:          -4.277
REMARK INTER:                  -4.126
REMARK INTRA:                  -0.151
REMARK UNBOUND:                -0.151
REMARK SMILES O=C([O-])C=Cc1ccc(O)cc1
REMARK SMILES IDX 6 1 7 2 12 3 8 4 11 5 9 6 5 7 4 8 2 9 1 10 3 11 10 12
REMARK H PARENT 10 13
REMARK Flexibility Score: inf
ROOT
ATOM      1  C   UNL     1      73.773  40.220  21.352  1.00  0.00    -0.025 A 
ATOM      2  C   UNL     1      73.525  40.832  22.598  1.00  0.00     0.012 A 
ATOM      3  C   UNL     1      74.960  40.532  20.668  1.00  0.00     0.012 A 
ATOM      4  C   UNL     1      74.459  41.715  23.150  1.00  0.00     0.047 A 
ATOM      5  C   UNL     1      75.891  41.415  21.224  1.00  0.00     0.047 A 
ATOM      6  C   UNL     1      75.646  42.006  22.465  1.00  0.00     0.115 A 
ENDROOT
BRANCH   1   7
ATOM      7  C   UNL     1      72.811  39.286  20.716  1.00  0.00     0.010 C 
ATOM      8  C   UNL     1      73.167  38.332  19.845  1.00  0.00     0.025 C 
BRANCH   8   9
ATOM      9  C   UNL     1      72.177  37.433  19.229  1.00  0.00     0.064 C 
ATOM     10  O   UNL     1      71.008  37.848  19.017  1.00  0.00    -0.545 OA
ATOM     11  O   UNL     1      72.513  36.131  18.875  1.00  0.00    -0.545 OA
ENDBRANCH   8   9
ENDBRANCH   1   7
BRANCH   6  12
ATOM     12  O   UNL     1      76.582  42.883  23.008  1.00  0.00    -0.508 OA
ATOM     13  H   UNL     1      77.231  42.586  23.727  1.00  0.00     0.293 HD
ENDBRANCH   6  12
TORSDOF 3
ENDMDL
MODEL 2
REMARK VINA RESULT:    -3.514      9.873     10.925
REMARK INTER + INTRA:          -4.178
REMARK INTER:                  -4.040
REMARK INTRA:                  -0.139
REMARK UNBOUND:                -0.151
REMARK SMILES O=C([O-])C=Cc1ccc(O)cc1
REMARK SMILES IDX 6 1 7 2 12 3 8 4 11 5 9 6 5 7 4 8 2 9 1 10 3 11 10 12
REMARK H PARENT 10 13
REMARK Flexibility Score: inf
ROOT
ATOM      1  C   UNL     1      74.513  42.557  31.158  1.00  0.00    -0.025 A 
ATOM      2  C   UNL     1      74.959  41.758  30.086  1.00  0.00     0.012 A 
ATOM      3  C   UNL     1      75.464  43.099  32.040  1.00  0.00     0.012 A 
ATOM      4  C   UNL     1      76.325  41.530  29.893  1.00  0.00     0.047 A 
ATOM      5  C   UNL     1      76.829  42.868  31.844  1.00  0.00     0.047 A 
ATOM      6  C   UNL     1      77.264  42.087  30.771  1.00  0.00     0.115 A 
ENDROOT
BRANCH   1   7
ATOM      7  C   UNL     1      73.076  42.822  31.416  1.00  0.00     0.010 C 
ATOM      8  C   UNL     1      72.110  41.908  31.249  1.00  0.00     0.025 C 
BRANCH   8   9
ATOM      9  C   UNL     1      70.694  42.218  31.506  1.00  0.00     0.064 C 
ATOM     10  O   UNL     1      70.249  42.164  32.682  1.00  0.00    -0.545 OA
ATOM     11  O   UNL     1      69.838  42.572  30.470  1.00  0.00    -0.545 OA
ENDBRANCH   8   9
ENDBRANCH   1   7
BRANCH   6  12
ATOM     12  O   UNL     1      78.627  41.867  30.587  1.00  0.00    -0.508 OA
ATOM     13  H   UNL     1      79.272  42.633  30.435  1.00  0.00     0.293 HD
ENDBRANCH   6  12
TORSDOF 3
ENDMDL
MODEL 3
REMARK VINA RESULT:    -3.502      3.406      4.785
REMARK INTER + INTRA:          -4.164
REMARK INTER:                  -4.022
REMARK INTRA:                  -0.142
REMARK UNBOUND:                -0.151
REMARK SMILES O=C([O-])C=Cc1ccc(O)cc1
REMARK SMILES IDX 6 1 7 2 12 3 8 4 11 5 9 6 5 7 4 8 2 9 1 10 3 11 10 12
REMARK H PARENT 10 13
REMARK Flexibility Score: inf
ROOT
ATOM      1  C   UNL     1      72.960  40.643  21.535  1.00  0.00    -0.025 A 
ATOM      2  C   UNL     1      74.293  40.507  21.972  1.00  0.00     0.012 A 
ATOM      3  C   UNL     1      72.648  40.330  20.202  1.00  0.00     0.012 A 
ATOM      4  C   UNL     1      75.280  40.044  21.095  1.00  0.00     0.047 A 
ATOM      5  C   UNL     1      73.637  39.868  19.329  1.00  0.00     0.047 A 
ATOM      6  C   UNL     1      74.954  39.721  19.772  1.00  0.00     0.115 A 
ENDROOT
BRANCH   1   7
ATOM      7  C   UNL     1      71.876  41.140  22.420  1.00  0.00     0.010 C 
ATOM      8  C   UNL     1      71.119  42.209  22.140  1.00  0.00     0.025 C 
BRANCH   8   9
ATOM      9  C   UNL     1      70.061  42.673  23.052  1.00  0.00     0.064 C 
ATOM     10  O   UNL     1      70.338  42.907  24.257  1.00  0.00    -0.545 OA
ATOM     11  O   UNL     1      68.758  42.859  22.604  1.00  0.00    -0.545 OA
ENDBRANCH   8   9
ENDBRANCH   1   7
BRANCH   6  12
ATOM     12  O   UNL     1      75.929  39.259  18.892  1.00  0.00    -0.508 OA
ATOM     13  H   UNL     1      75.713  39.048  17.925  1.00  0.00     0.293 HD
ENDBRANCH   6  12
TORSDOF 3
ENDMDL
MODEL 4
REMARK VINA RESULT:    -3.414      1.849      5.609
REMARK INTER + INTRA:          -4.064
REMARK INTER:                  -3.927
REMARK INTRA:                  -0.137
REMARK UNBOUND:                -0.151
REMARK SMILES O=C([O-])C=Cc1ccc(O)cc1
REMARK SMILES IDX 6 1 7 2 12 3 8 4 11 5 9 6 5 7 4 8 2 9 1 10 3 11 10 12
REMARK H PARENT 10 13
REMARK Flexibility Score: inf
ROOT
ATOM      1  C   UNL     1      73.941  40.376  20.717  1.00  0.00    -0.025 A 
ATOM      2  C   UNL     1      74.056  38.987  20.925  1.00  0.00     0.012 A 
ATOM      3  C   UNL     1      72.687  40.908  20.370  1.00  0.00     0.012 A 
ATOM      4  C   UNL     1      72.935  38.159  20.811  1.00  0.00     0.047 A 
ATOM      5  C   UNL     1      71.568  40.077  20.257  1.00  0.00     0.047 A 
ATOM      6  C   UNL     1      71.687  38.703  20.479  1.00  0.00     0.115 A 
ENDROOT
BRANCH   1   7
ATOM      7  C   UNL     1      75.100  41.299  20.814  1.00  0.00     0.010 C 
ATOM      8  C   UNL     1      75.879  41.625  19.774  1.00  0.00     0.025 C 
BRANCH   8   9
ATOM      9  C   UNL     1      77.026  42.537  19.919  1.00  0.00     0.064 C 
ATOM     10  O   UNL     1      77.748  42.791  18.920  1.00  0.00    -0.545 OA
ATOM     11  O   UNL     1      77.325  43.125  21.142  1.00  0.00    -0.545 OA
ENDBRANCH   8   9
ENDBRANCH   1   7
BRANCH   6  12
ATOM     12  O   UNL     1      70.565  37.886  20.365  1.00  0.00    -0.508 OA
ATOM     13  H   UNL     1      70.142  37.449  21.175  1.00  0.00     0.293 HD
ENDBRANCH   6  12
TORSDOF 3
ENDMDL
MODEL 5
REMARK VINA RESULT:    -3.389      0.681      1.749
REMARK INTER + INTRA:          -4.035
REMARK INTER:                  -3.890
REMARK INTRA:                  -0.145
REMARK UNBOUND:                -0.151
REMARK SMILES O=C([O-])C=Cc1ccc(O)cc1
REMARK SMILES IDX 6 1 7 2 12 3 8 4 11 5 9 6 5 7 4 8 2 9 1 10 3 11 10 12
REMARK H PARENT 10 13
REMARK Flexibility Score: inf
ROOT
ATOM      1  C   UNL     1      74.185  40.622  20.656  1.00  0.00    -0.025 A 
ATOM      2  C   UNL     1      75.155  41.443  20.046  1.00  0.00     0.012 A 
ATOM      3  C   UNL     1      74.084  40.618  22.057  1.00  0.00     0.012 A 
ATOM      4  C   UNL     1      75.984  42.256  20.826  1.00  0.00     0.047 A 
ATOM      5  C   UNL     1      74.915  41.432  22.833  1.00  0.00     0.047 A 
ATOM      6  C   UNL     1      75.864  42.255  22.221  1.00  0.00     0.115 A 
ENDROOT
BRANCH   1   7
ATOM      7  C   UNL     1      73.287  39.731  19.878  1.00  0.00     0.010 C 
ATOM      8  C   UNL     1      73.051  38.452  20.196  1.00  0.00     0.025 C 
BRANCH   8   9
ATOM      9  C   UNL     1      72.161  37.601  19.388  1.00  0.00     0.064 C 
ATOM     10  O   UNL     1      72.483  36.407  19.158  1.00  0.00    -0.545 OA
ATOM     11  O   UNL     1      70.967  38.096  18.875  1.00  0.00    -0.545 OA
ENDBRANCH   8   9
ENDBRANCH   1   7
BRANCH   6  12
ATOM     12  O   UNL     1      76.684  43.061  23.006  1.00  0.00    -0.508 OA
ATOM     13  H   UNL     1      77.035  43.949  22.666  1.00  0.00     0.293 HD
ENDBRANCH   6  12
TORSDOF 3
ENDMDL
MODEL 6
REMARK VINA RESULT:    -3.299      3.035      5.796
REMARK INTER + INTRA:          -3.931
REMARK INTER:                  -3.798
REMARK INTRA:                  -0.133
REMARK UNBOUND:                -0.151
REMARK SMILES O=C([O-])C=Cc1ccc(O)cc1
REMARK SMILES IDX 6 1 7 2 12 3 8 4 11 5 9 6 5 7 4 8 2 9 1 10 3 11 10 12
REMARK H PARENT 10 13
REMARK Flexibility Score: inf
ROOT
ATOM      1  C   UNL     1      71.740  39.896  20.826  1.00  0.00    -0.025 A 
ATOM      2  C   UNL     1      72.906  39.202  21.206  1.00  0.00     0.012 A 
ATOM      3  C   UNL     1      70.959  39.385  19.775  1.00  0.00     0.012 A 
ATOM      4  C   UNL     1      73.263  38.013  20.561  1.00  0.00     0.047 A 
ATOM      5  C   UNL     1      71.319  38.197  19.133  1.00  0.00     0.047 A 
ATOM      6  C   UNL     1      72.469  37.506  19.525  1.00  0.00     0.115 A 
ENDROOT
BRANCH   1   7
ATOM      7  C   UNL     1      71.320  41.167  21.468  1.00  0.00     0.010 C 
ATOM      8  C   UNL     1      70.927  41.260  22.745  1.00  0.00     0.025 C 
BRANCH   8   9
ATOM      9  C   UNL     1      70.508  42.541  23.339  1.00  0.00     0.064 C 
ATOM     10  O   UNL     1      71.263  43.120  24.163  1.00  0.00    -0.545 OA
ATOM     11  O   UNL     1      69.293  43.125  23.001  1.00  0.00    -0.545 OA
ENDBRANCH   8   9
ENDBRANCH   1   7
BRANCH   6  12
ATOM     12  O   UNL     1      72.816  36.323  18.877  1.00  0.00    -0.508 OA
ATOM     13  H   UNL     1      72.836  35.437  19.368  1.00  0.00     0.293 HD
ENDBRANCH   6  12
TORSDOF 3
ENDMDL
MODEL 7
REMARK VINA RESULT:    -3.206      1.468      5.704
REMARK INTER + INTRA:          -3.826
REMARK INTER:                  -3.689
REMARK INTRA:                  -0.136
REMARK UNBOUND:                -0.151
REMARK SMILES O=C([O-])C=Cc1ccc(O)cc1
REMARK SMILES IDX 6 1 7 2 12 3 8 4 11 5 9 6 5 7 4 8 2 9 1 10 3 11 10 12
REMARK H PARENT 10 13
REMARK Flexibility Score: inf
ROOT
ATOM      1  C   UNL     1      73.539  39.719  21.092  1.00  0.00    -0.025 A 
ATOM      2  C   UNL     1      73.267  38.349  20.897  1.00  0.00     0.012 A 
ATOM      3  C   UNL     1      72.673  40.669  20.525  1.00  0.00     0.012 A 
ATOM      4  C   UNL     1      72.141  37.948  20.172  1.00  0.00     0.047 A 
ATOM      5  C   UNL     1      71.548  40.263  19.801  1.00  0.00     0.047 A 
ATOM      6  C   UNL     1      71.277  38.905  19.624  1.00  0.00     0.115 A 
ENDROOT
BRANCH   1   7
ATOM      7  C   UNL     1      74.726  40.200  21.843  1.00  0.00     0.010 C 
ATOM      8  C   UNL     1      74.657  40.790  23.043  1.00  0.00     0.025 C 
BRANCH   8   9
ATOM      9  C   UNL     1      75.861  41.262  23.748  1.00  0.00     0.064 C 
ATOM     10  O   UNL     1      76.390  42.353  23.411  1.00  0.00    -0.545 OA
ATOM     11  O   UNL     1      76.422  40.523  24.782  1.00  0.00    -0.545 OA
ENDBRANCH   8   9
ENDBRANCH   1   7
BRANCH   6  12
ATOM     12  O   UNL     1      70.152  38.515  18.902  1.00  0.00    -0.508 OA
ATOM     13  H   UNL     1      70.038  38.760  17.925  1.00  0.00     0.293 HD
ENDBRANCH   6  12
TORSDOF 3
ENDMDL
MODEL 8
REMARK VINA RESULT:    -2.964      3.267      5.325
REMARK INTER + INTRA:          -3.548
REMARK INTER:                  -3.410
REMARK INTRA:                  -0.138
REMARK UNBOUND:                -0.151
REMARK SMILES O=C([O-])C=Cc1ccc(O)cc1
REMARK SMILES IDX 6 1 7 2 12 3 8 4 11 5 9 6 5 7 4 8 2 9 1 10 3 11 10 12
REMARK H PARENT 10 13
REMARK Flexibility Score: inf
ROOT
ATOM      1  C   UNL     1      73.606  41.961  21.382  1.00  0.00    -0.025 A 
ATOM      2  C   UNL     1      72.957  42.872  22.240  1.00  0.00     0.012 A 
ATOM      3  C   UNL     1      73.166  40.627  21.351  1.00  0.00     0.012 A 
ATOM      4  C   UNL     1      71.879  42.455  23.027  1.00  0.00     0.047 A 
ATOM      5  C   UNL     1      72.088  40.215  22.139  1.00  0.00     0.047 A 
ATOM      6  C   UNL     1      71.440  41.126  22.977  1.00  0.00     0.115 A 
ENDROOT
BRANCH   1   7
ATOM      7  C   UNL     1      74.762  42.347  20.533  1.00  0.00     0.010 C 
ATOM      8  C   UNL     1      76.016  42.458  20.991  1.00  0.00     0.025 C 
BRANCH   8   9
ATOM      9  C   UNL     1      77.131  42.855  20.115  1.00  0.00     0.064 C 
ATOM     10  O   UNL     1      76.942  42.953  18.875  1.00  0.00    -0.545 OA
ATOM     11  O   UNL     1      78.391  43.124  20.636  1.00  0.00    -0.545 OA
ENDBRANCH   8   9
ENDBRANCH   1   7
BRANCH   6  12
ATOM     12  O   UNL     1      70.366  40.702  23.756  1.00  0.00    -0.508 OA
ATOM     13  H   UNL     1      70.383  40.777  24.766  1.00  0.00     0.293 HD
ENDBRANCH   6  12
TORSDOF 3
ENDMDL
