MODEL 1
REMARK VINA RESULT:    -3.907      0.000      0.000
REMARK INTER + INTRA:          -7.666
REMARK INTER:                  -6.192
REMARK INTRA:                  -1.474
REMARK UNBOUND:                -1.474
REMARK SMILES CCCCCCCCCCCC(=O)[O-]
REMARK SMILES IDX 7 1 8 2 9 3 10 4 11 5 12 6 13 7 14 8 6 9 5 10 4 11 3 12 2 13
REMARK SMILES IDX 1 14
REMARK H PARENT
REMARK Flexibility Score: inf
ROOT
ATOM      1  C   UNL     1     104.024 307.368 203.321  1.00  0.00     0.000 C 
ENDROOT
BRANCH   1   2
ATOM      2  C   UNL     1     103.782 307.989 201.937  1.00  0.00     0.000 C 
BRANCH   2   3
ATOM      3  C   UNL     1     105.068 308.095 201.101  1.00  0.00     0.000 C 
BRANCH   3   4
ATOM      4  C   UNL     1     105.125 309.431 200.351  1.00  0.00     0.006 C 
BRANCH   4   5
ATOM      5  C   UNL     1     104.752 310.597 201.274  1.00  0.00     0.053 C 
BRANCH   5   6
ATOM      6  C   UNL     1     103.578 311.344 200.725  1.00  0.00     0.041 C 
ATOM      7  O   UNL     1     102.831 310.807 199.864  1.00  0.00    -0.550 OA
ATOM      8  O   UNL     1     103.336 312.651 201.126  1.00  0.00    -0.550 OA
ENDBRANCH   5   6
ENDBRANCH   4   5
ENDBRANCH   3   4
ENDBRANCH   2   3
ENDBRANCH   1   2
BRANCH   1   9
ATOM      9  C   UNL     1     104.868 308.273 204.235  1.00  0.00     0.000 C 
BRANCH   9  10
ATOM     10  C   UNL     1     104.013 309.094 205.217  1.00  0.00    -0.000 C 
BRANCH  10  11
ATOM     11  C   UNL     1     103.860 310.588 204.862  1.00  0.00    -0.000 C 
BRANCH  11  12
ATOM     12  C   UNL     1     102.512 310.976 204.223  1.00  0.00    -0.000 C 
BRANCH  12  13
ATOM     13  C   UNL     1     101.430 309.884 204.284  1.00  0.00    -0.003 C 
ATOM     14  C   UNL     1     100.786 309.608 202.925  1.00  0.00     0.004 C 
ENDBRANCH  12  13
ENDBRANCH  11  12
ENDBRANCH  10  11
ENDBRANCH   9  10
ENDBRANCH   1   9
TORSDOF 10
ENDMDL
MODEL 2
REMARK VINA RESULT:    -3.899      1.581      2.389
REMARK INTER + INTRA:          -7.652
REMARK INTER:                  -6.617
REMARK INTRA:                  -1.034
REMARK UNBOUND:                -1.474
REMARK SMILES CCCCCCCCCCCC(=O)[O-]
REMARK SMILES IDX 7 1 8 2 9 3 10 4 11 5 12 6 13 7 14 8 6 9 5 10 4 11 3 12 2 13
REMARK SMILES IDX 1 14
REMARK H PARENT
REMARK Flexibility Score: inf
ROOT
ATOM      1  C   UNL     1     103.680 307.976 201.939  1.00  0.00     0.000 C 
ENDROOT
BRANCH   1   2
ATOM      2  C   UNL     1     104.989 308.103 201.145  1.00  0.00     0.000 C 
BRANCH   2   3
ATOM      3  C   UNL     1     105.046 309.381 200.293  1.00  0.00     0.000 C 
BRANCH   3   4
ATOM      4  C   UNL     1     103.829 310.274 200.563  1.00  0.00     0.006 C 
BRANCH   4   5
ATOM      5  C   UNL     1     104.200 311.451 201.471  1.00  0.00     0.053 C 
BRANCH   5   6
ATOM      6  C   UNL     1     103.040 311.831 202.335  1.00  0.00     0.041 C 
ATOM      7  O   UNL     1     101.955 311.196 202.254  1.00  0.00    -0.550 OA
ATOM      8  O   UNL     1     103.140 312.916 203.197  1.00  0.00    -0.550 OA
ENDBRANCH   5   6
ENDBRANCH   4   5
ENDBRANCH   3   4
ENDBRANCH   2   3
ENDBRANCH   1   2
BRANCH   1   9
ATOM      9  C   UNL     1     103.869 307.236 203.274  1.00  0.00     0.000 C 
BRANCH   9  10
ATOM     10  C   UNL     1     104.933 307.890 204.174  1.00  0.00    -0.000 C 
BRANCH  10  11
ATOM     11  C   UNL     1     104.719 309.391 204.456  1.00  0.00    -0.000 C 
BRANCH  11  12
ATOM     12  C   UNL     1     103.528 309.722 205.377  1.00  0.00    -0.000 C 
BRANCH  12  13
ATOM     13  C   UNL     1     103.882 310.563 206.616  1.00  0.00    -0.003 C 
ATOM     14  C   UNL     1     104.617 311.857 206.266  1.00  0.00     0.004 C 
ENDBRANCH  12  13
ENDBRANCH  11  12
ENDBRANCH  10  11
ENDBRANCH   9  10
ENDBRANCH   1   9
TORSDOF 10
ENDMDL
MODEL 3
REMARK VINA RESULT:    -3.898      1.913      3.918
REMARK INTER + INTRA:          -7.650
REMARK INTER:                  -6.156
REMARK INTRA:                  -1.494
REMARK UNBOUND:                -1.474
REMARK SMILES CCCCCCCCCCCC(=O)[O-]
REMARK SMILES IDX 7 1 8 2 9 3 10 4 11 5 12 6 13 7 14 8 6 9 5 10 4 11 3 12 2 13
REMARK SMILES IDX 1 14
REMARK H PARENT
REMARK Flexibility Score: inf
ROOT
ATOM      1  C   UNL     1     104.347 307.364 203.458  1.00  0.00     0.000 C 
ENDROOT
BRANCH   1   2
ATOM      2  C   UNL     1     104.646 308.547 204.393  1.00  0.00     0.000 C 
BRANCH   2   3
ATOM      3  C   UNL     1     103.386 309.347 204.760  1.00  0.00     0.000 C 
BRANCH   3   4
ATOM      4  C   UNL     1     103.739 310.554 205.636  1.00  0.00     0.006 C 
BRANCH   4   5
ATOM      5  C   UNL     1     104.827 311.411 204.980  1.00  0.00     0.053 C 
BRANCH   5   6
ATOM      6  C   UNL     1     104.278 312.748 204.595  1.00  0.00     0.041 C 
ATOM      7  O   UNL     1     104.857 313.442 203.717  1.00  0.00    -0.550 OA
ATOM      8  O   UNL     1     103.155 313.251 205.239  1.00  0.00    -0.550 OA
ENDBRANCH   5   6
ENDBRANCH   4   5
ENDBRANCH   3   4
ENDBRANCH   2   3
ENDBRANCH   1   2
BRANCH   1   9
ATOM      9  C   UNL     1     103.848 307.817 202.075  1.00  0.00     0.000 C 
BRANCH   9  10
ATOM     10  C   UNL     1     104.995 308.089 201.085  1.00  0.00    -0.000 C 
BRANCH  10  11
ATOM     11  C   UNL     1     104.968 309.480 200.418  1.00  0.00    -0.000 C 
BRANCH  11  12
ATOM     12  C   UNL     1     104.704 310.661 201.374  1.00  0.00    -0.000 C 
BRANCH  12  13
ATOM     13  C   UNL     1     103.487 311.528 201.010  1.00  0.00    -0.003 C 
ATOM     14  C   UNL     1     102.261 311.224 201.872  1.00  0.00     0.004 C 
ENDBRANCH  12  13
ENDBRANCH  11  12
ENDBRANCH  10  11
ENDBRANCH   9  10
ENDBRANCH   1   9
TORSDOF 10
ENDMDL
MODEL 4
REMARK VINA RESULT:    -3.882      2.052      3.768
REMARK INTER + INTRA:          -7.625
REMARK INTER:                  -6.260
REMARK INTRA:                  -1.365
REMARK UNBOUND:                -1.474
REMARK SMILES CCCCCCCCCCCC(=O)[O-]
REMARK SMILES IDX 7 1 8 2 9 3 10 4 11 5 12 6 13 7 14 8 6 9 5 10 4 11 3 12 2 13
REMARK SMILES IDX 1 14
REMARK H PARENT
REMARK Flexibility Score: inf
ROOT
ATOM      1  C   UNL     1     105.075 308.150 201.122  1.00  0.00     0.000 C 
ENDROOT
BRANCH   1   2
ATOM      2  C   UNL     1     103.839 307.807 201.968  1.00  0.00     0.000 C 
BRANCH   2   3
ATOM      3  C   UNL     1     104.202 307.345 203.388  1.00  0.00     0.000 C 
BRANCH   3   4
ATOM      4  C   UNL     1     104.686 308.523 204.242  1.00  0.00     0.006 C 
BRANCH   4   5
ATOM      5  C   UNL     1     103.509 309.390 204.702  1.00  0.00     0.053 C 
BRANCH   5   6
ATOM      6  C   UNL     1     104.000 310.569 205.480  1.00  0.00     0.041 C 
ATOM      7  O   UNL     1     103.950 310.563 206.738  1.00  0.00    -0.550 OA
ATOM      8  O   UNL     1     104.469 311.695 204.814  1.00  0.00    -0.550 OA
ENDBRANCH   5   6
ENDBRANCH   4   5
ENDBRANCH   3   4
ENDBRANCH   2   3
ENDBRANCH   1   2
BRANCH   1   9
ATOM      9  C   UNL     1     104.959 309.523 200.437  1.00  0.00     0.000 C 
BRANCH   9  10
ATOM     10  C   UNL     1     104.847 310.684 201.441  1.00  0.00    -0.000 C 
BRANCH  10  11
ATOM     11  C   UNL     1     103.628 311.608 201.240  1.00  0.00    -0.000 C 
BRANCH  11  12
ATOM     12  C   UNL     1     102.328 310.896 200.815  1.00  0.00    -0.000 C 
BRANCH  12  13
ATOM     13  C   UNL     1     101.182 310.977 201.838  1.00  0.00    -0.003 C 
ATOM     14  C   UNL     1     100.732 309.604 202.338  1.00  0.00     0.004 C 
ENDBRANCH  12  13
ENDBRANCH  11  12
ENDBRANCH  10  11
ENDBRANCH   9  10
ENDBRANCH   1   9
TORSDOF 10
ENDMDL
MODEL 5
REMARK VINA RESULT:    -3.801     16.335     18.584
REMARK INTER + INTRA:          -7.496
REMARK INTER:                  -6.125
REMARK INTRA:                  -1.372
REMARK UNBOUND:                -1.474
REMARK SMILES CCCCCCCCCCCC(=O)[O-]
REMARK SMILES IDX 7 1 8 2 9 3 10 4 11 5 12 6 13 7 14 8 6 9 5 10 4 11 3 12 2 13
REMARK SMILES IDX 1 14
REMARK H PARENT
REMARK Flexibility Score: inf
ROOT
ATOM      1  C   UNL     1      86.014 318.177 203.541  1.00  0.00     0.000 C 
ENDROOT
BRANCH   1   2
ATOM      2  C   UNL     1      85.003 318.103 202.387  1.00  0.00     0.000 C 
BRANCH   2   3
ATOM      3  C   UNL     1      84.875 316.689 201.799  1.00  0.00     0.000 C 
BRANCH   3   4
ATOM      4  C   UNL     1      86.112 315.845 202.128  1.00  0.00     0.006 C 
BRANCH   4   5
ATOM      5  C   UNL     1      85.711 314.467 202.666  1.00  0.00     0.053 C 
BRANCH   5   6
ATOM      6  C   UNL     1      86.758 313.451 202.334  1.00  0.00     0.041 C 
ATOM      7  O   UNL     1      86.579 312.644 201.384  1.00  0.00    -0.550 OA
ATOM      8  O   UNL     1      87.910 313.363 203.105  1.00  0.00    -0.550 OA
ENDBRANCH   5   6
ENDBRANCH   4   5
ENDBRANCH   3   4
ENDBRANCH   2   3
ENDBRANCH   1   2
BRANCH   1   9
ATOM      9  C   UNL     1      85.336 318.160 204.922  1.00  0.00     0.000 C 
BRANCH   9  10
ATOM     10  C   UNL     1      85.242 316.746 205.524  1.00  0.00    -0.000 C 
BRANCH  10  11
ATOM     11  C   UNL     1      86.375 316.374 206.502  1.00  0.00    -0.000 C 
BRANCH  11  12
ATOM     12  C   UNL     1      87.267 315.199 206.056  1.00  0.00    -0.000 C 
BRANCH  12  13
ATOM     13  C   UNL     1      88.750 315.554 205.851  1.00  0.00    -0.003 C 
ATOM     14  C   UNL     1      88.994 316.379 204.588  1.00  0.00     0.004 C 
ENDBRANCH  12  13
ENDBRANCH  11  12
ENDBRANCH  10  11
ENDBRANCH   9  10
ENDBRANCH   1   9
TORSDOF 10
ENDMDL
MODEL 6
REMARK VINA RESULT:    -3.754      2.119      3.126
REMARK INTER + INTRA:          -7.422
REMARK INTER:                  -6.030
REMARK INTRA:                  -1.392
REMARK UNBOUND:                -1.474
REMARK SMILES CCCCCCCCCCCC(=O)[O-]
REMARK SMILES IDX 7 1 8 2 9 3 10 4 11 5 12 6 13 7 14 8 6 9 5 10 4 11 3 12 2 13
REMARK SMILES IDX 1 14
REMARK H PARENT
REMARK Flexibility Score: inf
ROOT
ATOM      1  C   UNL     1     104.705 308.236 201.127  1.00  0.00     0.000 C 
ENDROOT
BRANCH   1   2
ATOM      2  C   UNL     1     104.255 309.661 200.766  1.00  0.00     0.000 C 
BRANCH   2   3
ATOM      3  C   UNL     1     105.071 310.743 201.491  1.00  0.00     0.000 C 
BRANCH   3   4
ATOM      4  C   UNL     1     104.150 311.729 202.217  1.00  0.00     0.006 C 
BRANCH   4   5
ATOM      5  C   UNL     1     104.840 312.323 203.450  1.00  0.00     0.053 C 
BRANCH   5   6
ATOM      6  C   UNL     1     104.226 313.638 203.811  1.00  0.00     0.041 C 
ATOM      7  O   UNL     1     104.772 314.713 203.447  1.00  0.00    -0.550 OA
ATOM      8  O   UNL     1     103.077 313.678 204.591  1.00  0.00    -0.550 OA
ENDBRANCH   5   6
ENDBRANCH   4   5
ENDBRANCH   3   4
ENDBRANCH   2   3
ENDBRANCH   1   2
BRANCH   1   9
ATOM      9  C   UNL     1     103.969 307.679 202.358  1.00  0.00     0.000 C 
BRANCH   9  10
ATOM     10  C   UNL     1     104.825 307.724 203.637  1.00  0.00    -0.000 C 
BRANCH  10  11
ATOM     11  C   UNL     1     104.354 308.732 204.705  1.00  0.00    -0.000 C 
BRANCH  11  12
ATOM     12  C   UNL     1     102.916 309.257 204.523  1.00  0.00    -0.000 C 
BRANCH  12  13
ATOM     13  C   UNL     1     102.507 310.374 205.499  1.00  0.00    -0.003 C 
ATOM     14  C   UNL     1     103.583 310.677 206.541  1.00  0.00     0.004 C 
ENDBRANCH  12  13
ENDBRANCH  11  12
ENDBRANCH  10  11
ENDBRANCH   9  10
ENDBRANCH   1   9
TORSDOF 10
ENDMDL
MODEL 7
REMARK VINA RESULT:    -3.739      2.102      4.337
REMARK INTER + INTRA:          -7.398
REMARK INTER:                  -6.270
REMARK INTRA:                  -1.128
REMARK UNBOUND:                -1.474
REMARK SMILES CCCCCCCCCCCC(=O)[O-]
REMARK SMILES IDX 7 1 8 2 9 3 10 4 11 5 12 6 13 7 14 8 6 9 5 10 4 11 3 12 2 13
REMARK SMILES IDX 1 14
REMARK H PARENT
REMARK Flexibility Score: inf
ROOT
ATOM      1  C   UNL     1     104.702 309.060 204.305  1.00  0.00     0.000 C 
ENDROOT
BRANCH   1   2
ATOM      2  C   UNL     1     103.399 309.629 204.889  1.00  0.00     0.000 C 
BRANCH   2   3
ATOM      3  C   UNL     1     103.644 310.595 206.059  1.00  0.00     0.000 C 
BRANCH   3   4
ATOM      4  C   UNL     1     104.852 311.497 205.780  1.00  0.00     0.006 C 
BRANCH   4   5
ATOM      5  C   UNL     1     104.496 312.973 205.987  1.00  0.00     0.053 C 
BRANCH   5   6
ATOM      6  C   UNL     1     104.096 313.601 204.690  1.00  0.00     0.041 C 
ATOM      7  O   UNL     1     104.948 314.214 203.993  1.00  0.00    -0.550 OA
ATOM      8  O   UNL     1     102.772 313.552 204.272  1.00  0.00    -0.550 OA
ENDBRANCH   5   6
ENDBRANCH   4   5
ENDBRANCH   3   4
ENDBRANCH   2   3
ENDBRANCH   1   2
BRANCH   1   9
ATOM      9  C   UNL     1     104.508 307.672 203.671  1.00  0.00     0.000 C 
BRANCH   9  10
ATOM     10  C   UNL     1     103.952 307.742 202.237  1.00  0.00    -0.000 C 
BRANCH  10  11
ATOM     11  C   UNL     1     104.985 308.109 201.152  1.00  0.00    -0.000 C 
BRANCH  11  12
ATOM     12  C   UNL     1     104.624 309.336 200.291  1.00  0.00    -0.000 C 
BRANCH  12  13
ATOM     13  C   UNL     1     103.539 310.249 200.889  1.00  0.00    -0.003 C 
ATOM     14  C   UNL     1     104.118 311.461 201.620  1.00  0.00     0.004 C 
ENDBRANCH  12  13
ENDBRANCH  11  12
ENDBRANCH  10  11
ENDBRANCH   9  10
ENDBRANCH   1   9
TORSDOF 10
ENDMDL
MODEL 8
REMARK VINA RESULT:    -3.707     16.524     19.216
REMARK INTER + INTRA:          -7.349
REMARK INTER:                  -6.140
REMARK INTRA:                  -1.209
REMARK UNBOUND:                -1.474
REMARK SMILES CCCCCCCCCCCC(=O)[O-]
REMARK SMILES IDX 7 1 8 2 9 3 10 4 11 5 12 6 13 7 14 8 6 9 5 10 4 11 3 12 2 13
REMARK SMILES IDX 1 14
REMARK H PARENT
REMARK Flexibility Score: inf
ROOT
ATOM      1  C   UNL     1      86.022 318.044 203.436  1.00  0.00     0.000 C 
ENDROOT
BRANCH   1   2
ATOM      2  C   UNL     1      85.528 318.276 204.873  1.00  0.00     0.000 C 
BRANCH   2   3
ATOM      3  C   UNL     1      85.165 316.968 205.594  1.00  0.00     0.000 C 
BRANCH   3   4
ATOM      4  C   UNL     1      86.373 316.409 206.355  1.00  0.00     0.006 C 
BRANCH   4   5
ATOM      5  C   UNL     1      86.016 315.100 207.068  1.00  0.00     0.053 C 
BRANCH   5   6
ATOM      6  C   UNL     1      86.019 313.959 206.101  1.00  0.00     0.041 C 
ATOM      7  O   UNL     1      84.932 313.496 205.664  1.00  0.00    -0.550 OA
ATOM      8  O   UNL     1      87.220 313.375 205.719  1.00  0.00    -0.550 OA
ENDBRANCH   5   6
ENDBRANCH   4   5
ENDBRANCH   3   4
ENDBRANCH   2   3
ENDBRANCH   1   2
BRANCH   1   9
ATOM      9  C   UNL     1      84.875 317.729 202.461  1.00  0.00     0.000 C 
BRANCH   9  10
ATOM     10  C   UNL     1      85.113 316.440 201.654  1.00  0.00    -0.000 C 
BRANCH  10  11
ATOM     11  C   UNL     1      85.268 315.158 202.499  1.00  0.00    -0.000 C 
BRANCH  11  12
ATOM     12  C   UNL     1      86.672 314.522 202.476  1.00  0.00    -0.000 C 
BRANCH  12  13
ATOM     13  C   UNL     1      87.814 315.489 202.115  1.00  0.00    -0.003 C 
ATOM     14  C   UNL     1      88.711 315.821 203.307  1.00  0.00     0.004 C 
ENDBRANCH  12  13
ENDBRANCH  11  12
ENDBRANCH  10  11
ENDBRANCH   9  10
ENDBRANCH   1   9
TORSDOF 10
ENDMDL
MODEL 9
REMARK VINA RESULT:    -3.705      1.480      2.640
REMARK INTER + INTRA:          -7.345
REMARK INTER:                  -6.057
REMARK INTRA:                  -1.288
REMARK UNBOUND:                -1.474
REMARK SMILES CCCCCCCCCCCC(=O)[O-]
REMARK SMILES IDX 7 1 8 2 9 3 10 4 11 5 12 6 13 7 14 8 6 9 5 10 4 11 3 12 2 13
REMARK SMILES IDX 1 14
REMARK H PARENT
REMARK Flexibility Score: inf
ROOT
ATOM      1  C   UNL     1     104.927 308.109 201.130  1.00  0.00     0.000 C 
ENDROOT
BRANCH   1   2
ATOM      2  C   UNL     1     104.649 309.462 200.456  1.00  0.00     0.000 C 
BRANCH   2   3
ATOM      3  C   UNL     1     104.955 310.657 201.372  1.00  0.00     0.000 C 
BRANCH   3   4
ATOM      4  C   UNL     1     103.715 311.539 201.556  1.00  0.00     0.006 C 
BRANCH   4   5
ATOM      5  C   UNL     1     102.547 311.033 200.702  1.00  0.00     0.053 C 
BRANCH   5   6
ATOM      6  C   UNL     1     101.288 310.995 201.507  1.00  0.00     0.041 C 
ATOM      7  O   UNL     1     100.781 309.891 201.840  1.00  0.00    -0.550 OA
ATOM      8  O   UNL     1     100.646 312.179 201.850  1.00  0.00    -0.550 OA
ENDBRANCH   5   6
ENDBRANCH   4   5
ENDBRANCH   3   4
ENDBRANCH   2   3
ENDBRANCH   1   2
BRANCH   1   9
ATOM      9  C   UNL     1     103.909 307.781 202.236  1.00  0.00     0.000 C 
BRANCH   9  10
ATOM     10  C   UNL     1     104.564 307.607 203.618  1.00  0.00    -0.000 C 
BRANCH  10  11
ATOM     11  C   UNL     1     104.327 308.768 204.606  1.00  0.00    -0.000 C 
BRANCH  11  12
ATOM     12  C   UNL     1     102.958 309.466 204.481  1.00  0.00    -0.000 C 
BRANCH  12  13
ATOM     13  C   UNL     1     102.717 310.603 205.489  1.00  0.00    -0.003 C 
ATOM     14  C   UNL     1     103.869 310.773 206.480  1.00  0.00     0.004 C 
ENDBRANCH  12  13
ENDBRANCH  11  12
ENDBRANCH  10  11
ENDBRANCH   9  10
ENDBRANCH   1   9
TORSDOF 10
ENDMDL
