MODEL 1
REMARK VINA RESULT:    -3.464      0.000      0.000
REMARK INTER + INTRA:          -8.602
REMARK INTER:                  -6.502
REMARK INTRA:                  -2.101
REMARK UNBOUND:                -2.101
REMARK SMILES CCCCCCCCC=CCCCCCCCC(=O)[O-]
REMARK SMILES IDX 10 1 9 2 11 3 12 4 13 5 14 6 15 7 16 8 17 9 18 10 19 11
REMARK SMILES IDX 20 12 8 13 7 14 6 15 5 16 4 17 3 18 2 19 1 20
REMARK H PARENT
REMARK Flexibility Score: inf
ROOT
ATOM      1  C   UNL     1      42.999  58.551  30.783  1.00  0.00    -0.031 C 
ATOM      2  C   UNL     1      44.262  58.817  30.398  1.00  0.00    -0.031 C 
ENDROOT
BRANCH   1   3
ATOM      3  C   UNL     1      42.379  57.175  30.842  1.00  0.00     0.027 C 
BRANCH   3   4
ATOM      4  C   UNL     1      41.837  56.868  32.243  1.00  0.00     0.004 C 
BRANCH   4   5
ATOM      5  C   UNL     1      41.408  55.397  32.387  1.00  0.00     0.000 C 
BRANCH   5   6
ATOM      6  C   UNL     1      41.892  54.513  31.224  1.00  0.00     0.000 C 
BRANCH   6   7
ATOM      7  C   UNL     1      42.830  53.360  31.627  1.00  0.00     0.000 C 
BRANCH   7   8
ATOM      8  C   UNL     1      44.005  53.822  32.502  1.00  0.00     0.006 C 
BRANCH   8   9
ATOM      9  C   UNL     1      43.976  53.129  33.868  1.00  0.00     0.053 C 
BRANCH   9  10
ATOM     10  C   UNL     1      44.210  54.120  34.964  1.00  0.00     0.041 C 
ATOM     11  O   UNL     1      43.317  54.958  35.261  1.00  0.00    -0.550 OA
ATOM     12  O   UNL     1      45.384  54.073  35.705  1.00  0.00    -0.550 OA
ENDBRANCH   9  10
ENDBRANCH   8   9
ENDBRANCH   7   8
ENDBRANCH   6   7
ENDBRANCH   5   6
ENDBRANCH   4   5
ENDBRANCH   3   4
ENDBRANCH   1   3
BRANCH   2  13
ATOM     13  C   UNL     1      45.288  57.777  30.018  1.00  0.00     0.027 C 
BRANCH  13  14
ATOM     14  C   UNL     1      46.613  58.407  29.565  1.00  0.00     0.004 C 
BRANCH  14  15
ATOM     15  C   UNL     1      47.475  57.424  28.759  1.00  0.00     0.000 C 
BRANCH  15  16
ATOM     16  C   UNL     1      46.962  57.293  27.319  1.00  0.00     0.000 C 
BRANCH  16  17
ATOM     17  C   UNL     1      46.426  55.881  27.054  1.00  0.00    -0.000 C 
BRANCH  17  18
ATOM     18  C   UNL     1      46.871  54.906  28.154  1.00  0.00    -0.000 C 
BRANCH  18  19
ATOM     19  C   UNL     1      45.730  53.997  28.635  1.00  0.00    -0.003 C 
ATOM     20  C   UNL     1      44.352  54.629  28.446  1.00  0.00     0.004 C 
ENDBRANCH  18  19
ENDBRANCH  17  18
ENDBRANCH  16  17
ENDBRANCH  15  16
ENDBRANCH  14  15
ENDBRANCH  13  14
ENDBRANCH   2  13
TORSDOF 15
ENDMDL
MODEL 2
REMARK VINA RESULT:    -3.420      2.809      6.460
REMARK INTER + INTRA:          -8.520
REMARK INTER:                  -6.458
REMARK INTRA:                  -2.063
REMARK UNBOUND:                -2.101
REMARK SMILES CCCCCCCCC=CCCCCCCCC(=O)[O-]
REMARK SMILES IDX 10 1 9 2 11 3 12 4 13 5 14 6 15 7 16 8 17 9 18 10 19 11
REMARK SMILES IDX 20 12 8 13 7 14 6 15 5 16 4 17 3 18 2 19 1 20
REMARK H PARENT
REMARK Flexibility Score: inf
ROOT
ATOM      1  C   UNL     1      45.595  55.150  26.795  1.00  0.00    -0.031 C 
ATOM      2  C   UNL     1      45.046  54.497  27.838  1.00  0.00    -0.031 C 
ENDROOT
BRANCH   1   3
ATOM      3  C   UNL     1      46.978  55.756  26.778  1.00  0.00     0.027 C 
BRANCH   3   4
ATOM      4  C   UNL     1      46.934  57.251  27.117  1.00  0.00     0.004 C 
BRANCH   4   5
ATOM      5  C   UNL     1      47.915  57.617  28.244  1.00  0.00     0.000 C 
BRANCH   5   6
ATOM      6  C   UNL     1      47.208  57.958  29.568  1.00  0.00     0.000 C 
BRANCH   6   7
ATOM      7  C   UNL     1      45.670  57.903  29.521  1.00  0.00     0.000 C 
BRANCH   7   8
ATOM      8  C   UNL     1      45.005  58.941  30.438  1.00  0.00     0.006 C 
BRANCH   8   9
ATOM      9  C   UNL     1      43.536  58.588  30.689  1.00  0.00     0.053 C 
BRANCH   9  10
ATOM     10  C   UNL     1      42.638  59.636  30.112  1.00  0.00     0.041 C 
ATOM     11  O   UNL     1      43.044  60.824  29.996  1.00  0.00    -0.550 OA
ATOM     12  O   UNL     1      41.380  59.289  29.636  1.00  0.00    -0.550 OA
ENDBRANCH   9  10
ENDBRANCH   8   9
ENDBRANCH   7   8
ENDBRANCH   6   7
ENDBRANCH   5   6
ENDBRANCH   4   5
ENDBRANCH   3   4
ENDBRANCH   1   3
BRANCH   2  13
ATOM     13  C   UNL     1      45.748  54.210  29.144  1.00  0.00     0.027 C 
BRANCH  13  14
ATOM     14  C   UNL     1      44.814  54.378  30.352  1.00  0.00     0.004 C 
BRANCH  14  15
ATOM     15  C   UNL     1      43.452  54.964  29.953  1.00  0.00     0.000 C 
BRANCH  15  16
ATOM     16  C   UNL     1      42.399  54.703  31.037  1.00  0.00     0.000 C 
BRANCH  16  17
ATOM     17  C   UNL     1      42.966  53.810  32.149  1.00  0.00    -0.000 C 
BRANCH  17  18
ATOM     18  C   UNL     1      42.556  54.330  33.535  1.00  0.00    -0.000 C 
BRANCH  18  19
ATOM     19  C   UNL     1      41.334  55.260  33.479  1.00  0.00    -0.003 C 
ATOM     20  C   UNL     1      41.704  56.732  33.649  1.00  0.00     0.004 C 
ENDBRANCH  18  19
ENDBRANCH  17  18
ENDBRANCH  16  17
ENDBRANCH  15  16
ENDBRANCH  14  15
ENDBRANCH  13  14
ENDBRANCH   2  13
TORSDOF 15
ENDMDL
MODEL 3
REMARK VINA RESULT:    -3.420     13.759     15.729
REMARK INTER + INTRA:          -8.519
REMARK INTER:                  -5.864
REMARK INTRA:                  -2.655
REMARK UNBOUND:                -2.101
REMARK SMILES CCCCCCCCC=CCCCCCCCC(=O)[O-]
REMARK SMILES IDX 10 1 9 2 11 3 12 4 13 5 14 6 15 7 16 8 17 9 18 10 19 11
REMARK SMILES IDX 20 12 8 13 7 14 6 15 5 16 4 17 3 18 2 19 1 20
REMARK H PARENT
REMARK Flexibility Score: inf
ROOT
ATOM      1  C   UNL     1      44.742  68.293  33.851  1.00  0.00    -0.031 C 
ATOM      2  C   UNL     1      45.436  68.822  32.825  1.00  0.00    -0.031 C 
ENDROOT
BRANCH   1   3
ATOM      3  C   UNL     1      45.101  68.438  35.311  1.00  0.00     0.027 C 
BRANCH   3   4
ATOM      4  C   UNL     1      43.893  68.892  36.138  1.00  0.00     0.004 C 
BRANCH   4   5
ATOM      5  C   UNL     1      42.573  68.310  35.603  1.00  0.00     0.000 C 
BRANCH   5   6
ATOM      6  C   UNL     1      41.453  69.360  35.495  1.00  0.00     0.000 C 
BRANCH   6   7
ATOM      7  C   UNL     1      41.502  70.478  36.553  1.00  0.00     0.000 C 
BRANCH   7   8
ATOM      8  C   UNL     1      40.513  71.618  36.266  1.00  0.00     0.006 C 
BRANCH   8   9
ATOM      9  C   UNL     1      39.791  71.395  34.933  1.00  0.00     0.053 C 
BRANCH   9  10
ATOM     10  C   UNL     1      38.309  71.442  35.125  1.00  0.00     0.041 C 
ATOM     11  O   UNL     1      37.745  70.629  35.906  1.00  0.00    -0.550 OA
ATOM     12  O   UNL     1      37.557  72.428  34.498  1.00  0.00    -0.550 OA
ENDBRANCH   9  10
ENDBRANCH   8   9
ENDBRANCH   7   8
ENDBRANCH   6   7
ENDBRANCH   5   6
ENDBRANCH   4   5
ENDBRANCH   3   4
ENDBRANCH   1   3
BRANCH   2  13
ATOM     13  C   UNL     1      46.655  69.702  32.968  1.00  0.00     0.027 C 
BRANCH  13  14
ATOM     14  C   UNL     1      47.200  70.163  31.607  1.00  0.00     0.004 C 
BRANCH  14  15
ATOM     15  C   UNL     1      46.542  71.467  31.134  1.00  0.00     0.000 C 
BRANCH  15  16
ATOM     16  C   UNL     1      45.541  71.200  30.002  1.00  0.00     0.000 C 
BRANCH  16  17
ATOM     17  C   UNL     1      44.125  71.625  30.409  1.00  0.00    -0.000 C 
BRANCH  17  18
ATOM     18  C   UNL     1      44.149  72.459  31.700  1.00  0.00    -0.000 C 
BRANCH  18  19
ATOM     19  C   UNL     1      43.297  71.840  32.818  1.00  0.00    -0.003 C 
ATOM     20  C   UNL     1      43.916  72.022  34.203  1.00  0.00     0.004 C 
ENDBRANCH  18  19
ENDBRANCH  17  18
ENDBRANCH  16  17
ENDBRANCH  15  16
ENDBRANCH  14  15
ENDBRANCH  13  14
ENDBRANCH   2  13
TORSDOF 15
ENDMDL
MODEL 4
REMARK VINA RESULT:    -3.368     13.803     16.645
REMARK INTER + INTRA:          -8.423
REMARK INTER:                  -6.547
REMARK INTRA:                  -1.875
REMARK UNBOUND:                -2.101
REMARK SMILES CCCCCCCCC=CCCCCCCCC(=O)[O-]
REMARK SMILES IDX 10 1 9 2 11 3 12 4 13 5 14 6 15 7 16 8 17 9 18 10 19 11
REMARK SMILES IDX 20 12 8 13 7 14 6 15 5 16 4 17 3 18 2 19 1 20
REMARK H PARENT
REMARK Flexibility Score: inf
ROOT
ATOM      1  C   UNL     1      44.474  69.740  33.970  1.00  0.00    -0.031 C 
ATOM      2  C   UNL     1      44.019  68.715  34.716  1.00  0.00    -0.031 C 
ENDROOT
BRANCH   1   3
ATOM      3  C   UNL     1      44.128  71.194  34.185  1.00  0.00     0.027 C 
BRANCH   3   4
ATOM      4  C   UNL     1      43.269  71.738  33.037  1.00  0.00     0.004 C 
BRANCH   4   5
ATOM      5  C   UNL     1      43.772  73.102  32.534  1.00  0.00     0.000 C 
BRANCH   5   6
ATOM      6  C   UNL     1      44.128  73.096  31.036  1.00  0.00     0.000 C 
BRANCH   6   7
ATOM      7  C   UNL     1      44.161  71.704  30.378  1.00  0.00     0.000 C 
BRANCH   7   8
ATOM      8  C   UNL     1      45.549  71.330  29.837  1.00  0.00     0.006 C 
BRANCH   8   9
ATOM      9  C   UNL     1      46.500  70.955  30.977  1.00  0.00     0.053 C 
BRANCH   9  10
ATOM     10  C   UNL     1      46.800  69.490  30.949  1.00  0.00     0.041 C 
ATOM     11  O   UNL     1      45.904  68.665  30.625  1.00  0.00    -0.550 OA
ATOM     12  O   UNL     1      48.088  69.039  31.210  1.00  0.00    -0.550 OA
ENDBRANCH   9  10
ENDBRANCH   8   9
ENDBRANCH   7   8
ENDBRANCH   6   7
ENDBRANCH   5   6
ENDBRANCH   4   5
ENDBRANCH   3   4
ENDBRANCH   1   3
BRANCH   2  13
ATOM     13  C   UNL     1      43.134  68.856  35.931  1.00  0.00     0.027 C 
BRANCH  13  14
ATOM     14  C   UNL     1      41.647  68.946  35.558  1.00  0.00     0.004 C 
BRANCH  14  15
ATOM     15  C   UNL     1      41.004  70.250  36.053  1.00  0.00     0.000 C 
BRANCH  15  16
ATOM     16  C   UNL     1      40.297  70.986  34.908  1.00  0.00     0.000 C 
BRANCH  16  17
ATOM     17  C   UNL     1      39.868  72.394  35.342  1.00  0.00    -0.000 C 
BRANCH  17  18
ATOM     18  C   UNL     1      38.408  72.669  34.954  1.00  0.00    -0.000 C 
BRANCH  18  19
ATOM     19  C   UNL     1      37.514  71.429  35.103  1.00  0.00    -0.003 C 
ATOM     20  C   UNL     1      36.838  71.027  33.793  1.00  0.00     0.004 C 
ENDBRANCH  18  19
ENDBRANCH  17  18
ENDBRANCH  16  17
ENDBRANCH  15  16
ENDBRANCH  14  15
ENDBRANCH  13  14
ENDBRANCH   2  13
TORSDOF 15
ENDMDL
MODEL 5
REMARK VINA RESULT:    -3.361      1.753      2.394
REMARK INTER + INTRA:          -8.409
REMARK INTER:                  -6.538
REMARK INTRA:                  -1.871
REMARK UNBOUND:                -2.101
REMARK SMILES CCCCCCCCC=CCCCCCCCC(=O)[O-]
REMARK SMILES IDX 10 1 9 2 11 3 12 4 13 5 14 6 15 7 16 8 17 9 18 10 19 11
REMARK SMILES IDX 20 12 8 13 7 14 6 15 5 16 4 17 3 18 2 19 1 20
REMARK H PARENT
REMARK Flexibility Score: inf
ROOT
ATOM      1  C   UNL     1      42.814  58.784  30.797  1.00  0.00    -0.031 C 
ATOM      2  C   UNL     1      44.110  58.894  30.450  1.00  0.00    -0.031 C 
ENDROOT
BRANCH   1   3
ATOM      3  C   UNL     1      42.018  57.500  30.793  1.00  0.00     0.027 C 
BRANCH   3   4
ATOM      4  C   UNL     1      41.856  56.941  32.211  1.00  0.00     0.004 C 
BRANCH   4   5
ATOM      5  C   UNL     1      41.582  55.427  32.208  1.00  0.00     0.000 C 
BRANCH   5   6
ATOM      6  C   UNL     1      42.728  54.608  32.828  1.00  0.00     0.000 C 
BRANCH   6   7
ATOM      7  C   UNL     1      42.434  54.024  34.222  1.00  0.00     0.000 C 
BRANCH   7   8
ATOM      8  C   UNL     1      43.032  54.862  35.362  1.00  0.00     0.006 C 
BRANCH   8   9
ATOM      9  C   UNL     1      41.995  55.109  36.462  1.00  0.00     0.053 C 
BRANCH   9  10
ATOM     10  C   UNL     1      40.861  55.932  35.938  1.00  0.00     0.041 C 
ATOM     11  O   UNL     1      39.698  55.449  35.890  1.00  0.00    -0.550 OA
ATOM     12  O   UNL     1      41.073  57.254  35.570  1.00  0.00    -0.550 OA
ENDBRANCH   9  10
ENDBRANCH   8   9
ENDBRANCH   7   8
ENDBRANCH   6   7
ENDBRANCH   5   6
ENDBRANCH   4   5
ENDBRANCH   3   4
ENDBRANCH   1   3
BRANCH   2  13
ATOM     13  C   UNL     1      45.001  57.740  30.056  1.00  0.00     0.027 C 
BRANCH  13  14
ATOM     14  C   UNL     1      46.382  58.212  29.577  1.00  0.00     0.004 C 
BRANCH  14  15
ATOM     15  C   UNL     1      47.155  57.097  28.857  1.00  0.00     0.000 C 
BRANCH  15  16
ATOM     16  C   UNL     1      46.206  55.999  28.361  1.00  0.00     0.000 C 
BRANCH  16  17
ATOM     17  C   UNL     1      46.589  54.635  28.950  1.00  0.00    -0.000 C 
BRANCH  17  18
ATOM     18  C   UNL     1      45.340  53.849  29.378  1.00  0.00    -0.000 C 
BRANCH  18  19
ATOM     19  C   UNL     1      44.042  54.455  28.823  1.00  0.00    -0.003 C 
ATOM     20  C   UNL     1      42.804  53.641  29.196  1.00  0.00     0.004 C 
ENDBRANCH  18  19
ENDBRANCH  17  18
ENDBRANCH  16  17
ENDBRANCH  15  16
ENDBRANCH  14  15
ENDBRANCH  13  14
ENDBRANCH   2  13
TORSDOF 15
ENDMDL
MODEL 6
REMARK VINA RESULT:    -3.331      3.327      6.269
REMARK INTER + INTRA:          -8.353
REMARK INTER:                  -6.378
REMARK INTRA:                  -1.975
REMARK UNBOUND:                -2.101
REMARK SMILES CCCCCCCCC=CCCCCCCCC(=O)[O-]
REMARK SMILES IDX 10 1 9 2 11 3 12 4 13 5 14 6 15 7 16 8 17 9 18 10 19 11
REMARK SMILES IDX 20 12 8 13 7 14 6 15 5 16 4 17 3 18 2 19 1 20
REMARK H PARENT
REMARK Flexibility Score: inf
ROOT
ATOM      1  C   UNL     1      44.162  58.840  30.437  1.00  0.00    -0.031 C 
ATOM      2  C   UNL     1      42.904  58.645  30.875  1.00  0.00    -0.031 C 
ENDROOT
BRANCH   1   3
ATOM      3  C   UNL     1      45.110  57.750  29.998  1.00  0.00     0.027 C 
BRANCH   3   4
ATOM      4  C   UNL     1      46.470  58.326  29.586  1.00  0.00     0.004 C 
BRANCH   4   5
ATOM      5  C   UNL     1      47.309  57.314  28.787  1.00  0.00     0.000 C 
BRANCH   5   6
ATOM      6  C   UNL     1      46.723  57.014  27.395  1.00  0.00     0.000 C 
BRANCH   6   7
ATOM      7  C   UNL     1      46.737  55.530  26.986  1.00  0.00     0.000 C 
BRANCH   7   8
ATOM      8  C   UNL     1      45.345  54.881  27.038  1.00  0.00     0.006 C 
BRANCH   8   9
ATOM      9  C   UNL     1      44.850  54.534  25.631  1.00  0.00     0.053 C 
BRANCH   9  10
ATOM     10  C   UNL     1      43.714  53.564  25.699  1.00  0.00     0.041 C 
ATOM     11  O   UNL     1      43.160  53.313  26.803  1.00  0.00    -0.550 OA
ATOM     12  O   UNL     1      43.218  52.990  24.535  1.00  0.00    -0.550 OA
ENDBRANCH   9  10
ENDBRANCH   8   9
ENDBRANCH   7   8
ENDBRANCH   6   7
ENDBRANCH   5   6
ENDBRANCH   4   5
ENDBRANCH   3   4
ENDBRANCH   1   3
BRANCH   2  13
ATOM     13  C   UNL     1      42.209  57.306  30.942  1.00  0.00     0.027 C 
BRANCH  13  14
ATOM     14  C   UNL     1      41.884  56.893  32.385  1.00  0.00     0.004 C 
BRANCH  14  15
ATOM     15  C   UNL     1      41.879  55.367  32.561  1.00  0.00     0.000 C 
BRANCH  15  16
ATOM     16  C   UNL     1      41.740  54.656  31.210  1.00  0.00     0.000 C 
BRANCH  16  17
ATOM     17  C   UNL     1      42.849  53.614  31.020  1.00  0.00    -0.000 C 
BRANCH  17  18
ATOM     18  C   UNL     1      43.994  54.178  30.165  1.00  0.00    -0.000 C 
BRANCH  18  19
ATOM     19  C   UNL     1      45.310  54.301  30.948  1.00  0.00    -0.003 C 
ATOM     20  C   UNL     1      45.245  53.633  32.321  1.00  0.00     0.004 C 
ENDBRANCH  18  19
ENDBRANCH  17  18
ENDBRANCH  16  17
ENDBRANCH  15  16
ENDBRANCH  14  15
ENDBRANCH  13  14
ENDBRANCH   2  13
TORSDOF 15
ENDMDL
MODEL 7
REMARK VINA RESULT:    -3.319     13.916     16.131
REMARK INTER + INTRA:          -8.330
REMARK INTER:                  -6.085
REMARK INTRA:                  -2.245
REMARK UNBOUND:                -2.101
REMARK SMILES CCCCCCCCC=CCCCCCCCC(=O)[O-]
REMARK SMILES IDX 10 1 9 2 11 3 12 4 13 5 14 6 15 7 16 8 17 9 18 10 19 11
REMARK SMILES IDX 20 12 8 13 7 14 6 15 5 16 4 17 3 18 2 19 1 20
REMARK H PARENT
REMARK Flexibility Score: inf
ROOT
ATOM      1  C   UNL     1      43.802  68.703  35.013  1.00  0.00    -0.031 C 
ATOM      2  C   UNL     1      44.506  69.307  34.036  1.00  0.00    -0.031 C 
ENDROOT
BRANCH   1   3
ATOM      3  C   UNL     1      43.694  69.191  36.438  1.00  0.00     0.027 C 
BRANCH   3   4
ATOM      4  C   UNL     1      42.514  70.155  36.608  1.00  0.00     0.004 C 
BRANCH   4   5
ATOM      5  C   UNL     1      41.301  69.741  35.757  1.00  0.00     0.000 C 
BRANCH   5   6
ATOM      6  C   UNL     1      40.871  70.826  34.755  1.00  0.00     0.000 C 
BRANCH   6   7
ATOM      7  C   UNL     1      40.469  72.174  35.383  1.00  0.00     0.000 C 
BRANCH   7   8
ATOM      8  C   UNL     1      39.063  72.151  36.001  1.00  0.00     0.006 C 
BRANCH   8   9
ATOM      9  C   UNL     1      38.051  72.848  35.086  1.00  0.00     0.053 C 
BRANCH   9  10
ATOM     10  C   UNL     1      37.179  71.841  34.405  1.00  0.00     0.041 C 
ATOM     11  O   UNL     1      37.281  70.618  34.691  1.00  0.00    -0.550 OA
ATOM     12  O   UNL     1      36.203  72.259  33.509  1.00  0.00    -0.550 OA
ENDBRANCH   9  10
ENDBRANCH   8   9
ENDBRANCH   7   8
ENDBRANCH   6   7
ENDBRANCH   5   6
ENDBRANCH   4   5
ENDBRANCH   3   4
ENDBRANCH   1   3
BRANCH   2  13
ATOM     13  C   UNL     1      45.256  70.609  34.190  1.00  0.00     0.027 C 
BRANCH  13  14
ATOM     14  C   UNL     1      44.379  71.826  33.859  1.00  0.00     0.004 C 
BRANCH  14  15
ATOM     15  C   UNL     1      43.564  71.618  32.574  1.00  0.00     0.000 C 
BRANCH  15  16
ATOM     16  C   UNL     1      44.163  72.413  31.407  1.00  0.00     0.000 C 
BRANCH  16  17
ATOM     17  C   UNL     1      44.523  71.486  30.239  1.00  0.00    -0.000 C 
BRANCH  17  18
ATOM     18  C   UNL     1      45.943  70.921  30.401  1.00  0.00    -0.000 C 
BRANCH  18  19
ATOM     19  C   UNL     1      45.948  69.413  30.696  1.00  0.00    -0.003 C 
ATOM     20  C   UNL     1      47.318  68.903  31.138  1.00  0.00     0.004 C 
ENDBRANCH  18  19
ENDBRANCH  17  18
ENDBRANCH  16  17
ENDBRANCH  15  16
ENDBRANCH  14  15
ENDBRANCH  13  14
ENDBRANCH   2  13
TORSDOF 15
ENDMDL
MODEL 8
REMARK VINA RESULT:    -3.298      1.128      1.662
REMARK INTER + INTRA:          -8.290
REMARK INTER:                  -6.391
REMARK INTRA:                  -1.900
REMARK UNBOUND:                -2.101
REMARK SMILES CCCCCCCCC=CCCCCCCCC(=O)[O-]
REMARK SMILES IDX 10 1 9 2 11 3 12 4 13 5 14 6 15 7 16 8 17 9 18 10 19 11
REMARK SMILES IDX 20 12 8 13 7 14 6 15 5 16 4 17 3 18 2 19 1 20
REMARK H PARENT
REMARK Flexibility Score: inf
ROOT
ATOM      1  C   UNL     1      42.524  58.513  30.768  1.00  0.00    -0.031 C 
ATOM      2  C   UNL     1      43.676  59.064  30.340  1.00  0.00    -0.031 C 
ENDROOT
BRANCH   1   3
ATOM      3  C   UNL     1      42.419  57.305  31.669  1.00  0.00     0.027 C 
BRANCH   3   4
ATOM      4  C   UNL     1      41.373  56.312  31.149  1.00  0.00     0.004 C 
BRANCH   4   5
ATOM      5  C   UNL     1      41.994  54.950  30.793  1.00  0.00     0.000 C 
BRANCH   5   6
ATOM      6  C   UNL     1      43.460  55.060  30.337  1.00  0.00     0.000 C 
BRANCH   6   7
ATOM      7  C   UNL     1      44.452  54.165  31.104  1.00  0.00     0.000 C 
BRANCH   7   8
ATOM      8  C   UNL     1      43.778  53.326  32.199  1.00  0.00     0.006 C 
BRANCH   8   9
ATOM      9  C   UNL     1      44.359  53.655  33.578  1.00  0.00     0.053 C 
BRANCH   9  10
ATOM     10  C   UNL     1      43.306  54.243  34.463  1.00  0.00     0.041 C 
ATOM     11  O   UNL     1      43.634  54.884  35.498  1.00  0.00    -0.550 OA
ATOM     12  O   UNL     1      41.966  54.146  34.110  1.00  0.00    -0.550 OA
ENDBRANCH   9  10
ENDBRANCH   8   9
ENDBRANCH   7   8
ENDBRANCH   6   7
ENDBRANCH   5   6
ENDBRANCH   4   5
ENDBRANCH   3   4
ENDBRANCH   1   3
BRANCH   2  13
ATOM     13  C   UNL     1      45.057  58.602  30.740  1.00  0.00     0.027 C 
BRANCH  13  14
ATOM     14  C   UNL     1      45.754  57.820  29.617  1.00  0.00     0.004 C 
BRANCH  14  15
ATOM     15  C   UNL     1      47.177  58.333  29.352  1.00  0.00     0.000 C 
BRANCH  15  16
ATOM     16  C   UNL     1      47.880  57.483  28.286  1.00  0.00     0.000 C 
BRANCH  16  17
ATOM     17  C   UNL     1      47.016  57.358  27.025  1.00  0.00    -0.000 C 
BRANCH  17  18
ATOM     18  C   UNL     1      47.403  56.111  26.214  1.00  0.00    -0.000 C 
BRANCH  18  19
ATOM     19  C   UNL     1      46.193  55.224  25.883  1.00  0.00    -0.003 C 
ATOM     20  C   UNL     1      45.255  55.035  27.074  1.00  0.00     0.004 C 
ENDBRANCH  18  19
ENDBRANCH  17  18
ENDBRANCH  16  17
ENDBRANCH  15  16
ENDBRANCH  14  15
ENDBRANCH  13  14
ENDBRANCH   2  13
TORSDOF 15
ENDMDL
MODEL 9
REMARK VINA RESULT:    -3.273     18.854     20.880
REMARK INTER + INTRA:          -8.243
REMARK INTER:                  -5.578
REMARK INTRA:                  -2.665
REMARK UNBOUND:                -2.101
REMARK SMILES CCCCCCCCC=CCCCCCCCC(=O)[O-]
REMARK SMILES IDX 10 1 9 2 11 3 12 4 13 5 14 6 15 7 16 8 17 9 18 10 19 11
REMARK SMILES IDX 20 12 8 13 7 14 6 15 5 16 4 17 3 18 2 19 1 20
REMARK H PARENT
REMARK Flexibility Score: inf
ROOT
ATOM      1  C   UNL     1      30.588  69.912  21.788  1.00  0.00    -0.031 C 
ATOM      2  C   UNL     1      30.315  70.911  20.926  1.00  0.00    -0.031 C 
ENDROOT
BRANCH   1   3
ATOM      3  C   UNL     1      29.617  68.833  22.205  1.00  0.00     0.027 C 
BRANCH   3   4
ATOM      4  C   UNL     1      30.116  67.444  21.792  1.00  0.00     0.004 C 
BRANCH   4   5
ATOM      5  C   UNL     1      28.987  66.399  21.793  1.00  0.00     0.000 C 
BRANCH   5   6
ATOM      6  C   UNL     1      29.504  64.956  21.655  1.00  0.00     0.000 C 
BRANCH   6   7
ATOM      7  C   UNL     1      30.044  64.328  22.953  1.00  0.00     0.000 C 
BRANCH   7   8
ATOM      8  C   UNL     1      31.490  63.828  22.821  1.00  0.00     0.006 C 
BRANCH   8   9
ATOM      9  C   UNL     1      32.064  64.170  21.443  1.00  0.00     0.053 C 
BRANCH   9  10
ATOM     10  C   UNL     1      33.511  63.798  21.371  1.00  0.00     0.041 C 
ATOM     11  O   UNL     1      34.323  64.530  20.744  1.00  0.00    -0.550 OA
ATOM     12  O   UNL     1      33.977  62.683  22.056  1.00  0.00    -0.550 OA
ENDBRANCH   9  10
ENDBRANCH   8   9
ENDBRANCH   7   8
ENDBRANCH   6   7
ENDBRANCH   5   6
ENDBRANCH   4   5
ENDBRANCH   3   4
ENDBRANCH   1   3
BRANCH   2  13
ATOM     13  C   UNL     1      29.010  71.082  20.186  1.00  0.00     0.027 C 
BRANCH  13  14
ATOM     14  C   UNL     1      29.061  70.482  18.773  1.00  0.00     0.004 C 
BRANCH  14  15
ATOM     15  C   UNL     1      28.573  69.026  18.746  1.00  0.00     0.000 C 
BRANCH  15  16
ATOM     16  C   UNL     1      29.627  68.101  18.126  1.00  0.00     0.000 C 
BRANCH  16  17
ATOM     17  C   UNL     1      30.937  68.857  17.868  1.00  0.00    -0.000 C 
BRANCH  17  18
ATOM     18  C   UNL     1      32.077  68.294  18.731  1.00  0.00    -0.000 C 
BRANCH  18  19
ATOM     19  C   UNL     1      33.104  69.366  19.125  1.00  0.00    -0.003 C 
ATOM     20  C   UNL     1      33.012  70.620  18.256  1.00  0.00     0.004 C 
ENDBRANCH  18  19
ENDBRANCH  17  18
ENDBRANCH  16  17
ENDBRANCH  15  16
ENDBRANCH  14  15
ENDBRANCH  13  14
ENDBRANCH   2  13
TORSDOF 15
ENDMDL
