MODEL 1
REMARK VINA RESULT:    -3.790      0.000      0.000
REMARK INTER + INTRA:         -14.092
REMARK INTER:                  -9.550
REMARK INTRA:                  -4.542
REMARK UNBOUND:                -4.542
REMARK SMILES CCCCCCCCCCCCCCCCCCCCCCCCCCCC(=O)[O-]
REMARK SMILES IDX 15 1 16 2 17 3 18 4 19 5 20 6 21 7 22 8 23 9 24 10 25 11
REMARK SMILES IDX 26 12 27 13 28 14 29 15 30 16 14 17 13 18 12 19 11 20 10 21
REMARK SMILES IDX 9 22 8 23 7 24 6 25 5 26 4 27 3 28 2 29 1 30
REMARK H PARENT
REMARK Flexibility Score: inf
ROOT
ATOM      1  C   UNL     1     -94.217 146.881 240.403  1.00  0.00     0.000 C 
ENDROOT
BRANCH   1   2
ATOM      2  C   UNL     1     -93.279 145.748 239.962  1.00  0.00     0.000 C 
BRANCH   2   3
ATOM      3  C   UNL     1     -92.023 146.266 239.240  1.00  0.00     0.000 C 
BRANCH   3   4
ATOM      4  C   UNL     1     -91.851 145.667 237.832  1.00  0.00     0.000 C 
BRANCH   4   5
ATOM      5  C   UNL     1     -92.932 146.083 236.817  1.00  0.00     0.000 C 
BRANCH   5   6
ATOM      6  C   UNL     1     -92.608 145.635 235.381  1.00  0.00     0.000 C 
BRANCH   6   7
ATOM      7  C   UNL     1     -93.158 146.607 234.325  1.00  0.00     0.000 C 
BRANCH   7   8
ATOM      8  C   UNL     1     -94.123 147.642 234.929  1.00  0.00     0.000 C 
BRANCH   8   9
ATOM      9  C   UNL     1     -94.582 148.690 233.902  1.00  0.00     0.000 C 
BRANCH   9  10
ATOM     10  C   UNL     1     -95.768 149.527 234.406  1.00  0.00     0.000 C 
BRANCH  10  11
ATOM     11  C   UNL     1     -95.328 150.502 235.504  1.00  0.00     0.000 C 
BRANCH  11  12
ATOM     12  C   UNL     1     -95.738 151.941 235.155  1.00  0.00     0.006 C 
BRANCH  12  13
ATOM     13  C   UNL     1     -97.257 152.093 235.002  1.00  0.00     0.053 C 
BRANCH  13  14
ATOM     14  C   UNL     1     -97.742 153.407 235.533  1.00  0.00     0.041 C 
ATOM     15  O   UNL     1     -97.227 154.483 235.129  1.00  0.00    -0.550 OA
ATOM     16  O   UNL     1     -98.789 153.445 236.446  1.00  0.00    -0.550 OA
ENDBRANCH  13  14
ENDBRANCH  12  13
ENDBRANCH  11  12
ENDBRANCH  10  11
ENDBRANCH   9  10
ENDBRANCH   8   9
ENDBRANCH   7   8
ENDBRANCH   6   7
ENDBRANCH   5   6
ENDBRANCH   4   5
ENDBRANCH   3   4
ENDBRANCH   2   3
ENDBRANCH   1   2
BRANCH   1  17
ATOM     17  C   UNL     1     -93.904 148.214 239.701  1.00  0.00     0.000 C 
BRANCH  17  18
ATOM     18  C   UNL     1     -94.961 148.590 238.651  1.00  0.00     0.000 C 
BRANCH  18  19
ATOM     19  C   UNL     1     -96.135 147.596 238.611  1.00  0.00     0.000 C 
BRANCH  19  20
ATOM     20  C   UNL     1     -97.015 147.772 237.363  1.00  0.00     0.000 C 
BRANCH  20  21
ATOM     21  C   UNL     1     -98.438 148.241 237.702  1.00  0.00     0.000 C 
BRANCH  21  22
ATOM     22  C   UNL     1     -98.695 149.651 237.152  1.00  0.00    -0.000 C 
BRANCH  22  23
ATOM     23  C   UNL     1     -99.943 150.315 237.760  1.00  0.00    -0.000 C 
BRANCH  23  24
ATOM     24  C   UNL     1     -99.685 151.185 239.009  1.00  0.00    -0.000 C 
BRANCH  24  25
ATOM     25  C   UNL     1    -100.289 150.642 240.316  1.00  0.00    -0.000 C 
BRANCH  25  26
ATOM     26  C   UNL     1     -99.283 149.826 241.143  1.00  0.00    -0.000 C 
BRANCH  26  27
ATOM     27  C   UNL     1     -97.823 150.208 240.845  1.00  0.00    -0.000 C 
BRANCH  27  28
ATOM     28  C   UNL     1     -96.807 149.536 241.794  1.00  0.00    -0.000 C 
BRANCH  28  29
ATOM     29  C   UNL     1     -97.467 148.484 242.699  1.00  0.00    -0.003 C 
ATOM     30  C   UNL     1     -97.327 147.085 242.108  1.00  0.00     0.004 C 
ENDBRANCH  28  29
ENDBRANCH  27  28
ENDBRANCH  26  27
ENDBRANCH  25  26
ENDBRANCH  24  25
ENDBRANCH  23  24
ENDBRANCH  22  23
ENDBRANCH  21  22
ENDBRANCH  20  21
ENDBRANCH  19  20
ENDBRANCH  18  19
ENDBRANCH  17  18
ENDBRANCH   1  17
TORSDOF 26
ENDMDL
MODEL 2
REMARK VINA RESULT:    -3.713      1.207      3.348
REMARK INTER + INTRA:         -13.899
REMARK INTER:                  -9.430
REMARK INTRA:                  -4.469
REMARK UNBOUND:                -4.542
REMARK SMILES CCCCCCCCCCCCCCCCCCCCCCCCCCCC(=O)[O-]
REMARK SMILES IDX 15 1 16 2 17 3 18 4 19 5 20 6 21 7 22 8 23 9 24 10 25 11
REMARK SMILES IDX 26 12 27 13 28 14 29 15 30 16 14 17 13 18 12 19 11 20 10 21
REMARK SMILES IDX 9 22 8 23 7 24 6 25 5 26 4 27 3 28 2 29 1 30
REMARK H PARENT
REMARK Flexibility Score: inf
ROOT
ATOM      1  C   UNL     1     -93.155 146.376 237.932  1.00  0.00     0.000 C 
ENDROOT
BRANCH   1   2
ATOM      2  C   UNL     1     -92.202 145.903 236.824  1.00  0.00     0.000 C 
BRANCH   2   3
ATOM      3  C   UNL     1     -92.890 145.807 235.452  1.00  0.00     0.000 C 
BRANCH   3   4
ATOM      4  C   UNL     1     -92.185 146.643 234.368  1.00  0.00     0.000 C 
BRANCH   4   5
ATOM      5  C   UNL     1     -93.115 147.565 233.557  1.00  0.00     0.000 C 
BRANCH   5   6
ATOM      6  C   UNL     1     -94.572 147.070 233.528  1.00  0.00     0.000 C 
BRANCH   6   7
ATOM      7  C   UNL     1     -95.558 148.125 234.053  1.00  0.00     0.000 C 
BRANCH   7   8
ATOM      8  C   UNL     1     -94.931 149.528 234.129  1.00  0.00     0.000 C 
BRANCH   8   9
ATOM      9  C   UNL     1     -95.359 150.299 235.388  1.00  0.00     0.000 C 
BRANCH   9  10
ATOM     10  C   UNL     1     -95.585 151.794 235.115  1.00  0.00     0.000 C 
BRANCH  10  11
ATOM     11  C   UNL     1     -96.439 152.002 233.859  1.00  0.00     0.000 C 
BRANCH  11  12
ATOM     12  C   UNL     1     -97.537 153.047 234.111  1.00  0.00     0.006 C 
BRANCH  12  13
ATOM     13  C   UNL     1     -97.310 153.829 235.411  1.00  0.00     0.053 C 
BRANCH  13  14
ATOM     14  C   UNL     1     -98.540 154.568 235.839  1.00  0.00     0.041 C 
ATOM     15  O   UNL     1     -98.720 155.761 235.478  1.00  0.00    -0.550 OA
ATOM     16  O   UNL     1     -99.505 153.928 236.607  1.00  0.00    -0.550 OA
ENDBRANCH  13  14
ENDBRANCH  12  13
ENDBRANCH  11  12
ENDBRANCH  10  11
ENDBRANCH   9  10
ENDBRANCH   8   9
ENDBRANCH   7   8
ENDBRANCH   6   7
ENDBRANCH   5   6
ENDBRANCH   4   5
ENDBRANCH   3   4
ENDBRANCH   2   3
ENDBRANCH   1   2
BRANCH   1  17
ATOM     17  C   UNL     1     -94.235 147.339 237.411  1.00  0.00     0.000 C 
BRANCH  17  18
ATOM     18  C   UNL     1     -94.540 148.475 238.400  1.00  0.00     0.000 C 
BRANCH  18  19
ATOM     19  C   UNL     1     -93.908 148.240 239.784  1.00  0.00     0.000 C 
BRANCH  19  20
ATOM     20  C   UNL     1     -94.953 147.898 240.858  1.00  0.00     0.000 C 
BRANCH  20  21
ATOM     21  C   UNL     1     -96.319 148.545 240.583  1.00  0.00     0.000 C 
BRANCH  21  22
ATOM     22  C   UNL     1     -96.593 149.685 241.575  1.00  0.00    -0.000 C 
BRANCH  22  23
ATOM     23  C   UNL     1     -97.935 150.395 241.318  1.00  0.00    -0.000 C 
BRANCH  23  24
ATOM     24  C   UNL     1     -98.730 149.882 240.099  1.00  0.00    -0.000 C 
BRANCH  24  25
ATOM     25  C   UNL     1     -99.185 150.973 239.114  1.00  0.00    -0.000 C 
BRANCH  25  26
ATOM     26  C   UNL     1     -99.871 150.398 237.864  1.00  0.00    -0.000 C 
BRANCH  26  27
ATOM     27  C   UNL     1     -98.982 150.478 236.611  1.00  0.00    -0.000 C 
BRANCH  27  28
ATOM     28  C   UNL     1     -98.643 149.096 236.010  1.00  0.00    -0.000 C 
BRANCH  28  29
ATOM     29  C   UNL     1     -97.885 148.202 237.004  1.00  0.00    -0.003 C 
ATOM     30  C   UNL     1     -97.910 146.742 236.561  1.00  0.00     0.004 C 
ENDBRANCH  28  29
ENDBRANCH  27  28
ENDBRANCH  26  27
ENDBRANCH  25  26
ENDBRANCH  24  25
ENDBRANCH  23  24
ENDBRANCH  22  23
ENDBRANCH  21  22
ENDBRANCH  20  21
ENDBRANCH  19  20
ENDBRANCH  18  19
ENDBRANCH  17  18
ENDBRANCH   1  17
TORSDOF 26
ENDMDL
MODEL 3
REMARK VINA RESULT:    -3.692      1.454      2.552
REMARK INTER + INTRA:         -13.845
REMARK INTER:                  -8.384
REMARK INTRA:                  -5.461
REMARK UNBOUND:                -4.542
REMARK SMILES CCCCCCCCCCCCCCCCCCCCCCCCCCCC(=O)[O-]
REMARK SMILES IDX 15 1 16 2 17 3 18 4 19 5 20 6 21 7 22 8 23 9 24 10 25 11
REMARK SMILES IDX 26 12 27 13 28 14 29 15 30 16 14 17 13 18 12 19 11 20 10 21
REMARK SMILES IDX 9 22 8 23 7 24 6 25 5 26 4 27 3 28 2 29 1 30
REMARK H PARENT
REMARK Flexibility Score: inf
ROOT
ATOM      1  C   UNL     1     -94.416 148.338 240.548  1.00  0.00     0.000 C 
ENDROOT
BRANCH   1   2
ATOM      2  C   UNL     1     -93.600 147.957 239.304  1.00  0.00     0.000 C 
BRANCH   2   3
ATOM      3  C   UNL     1     -94.288 148.376 237.993  1.00  0.00     0.000 C 
BRANCH   3   4
ATOM      4  C   UNL     1     -94.811 147.177 237.182  1.00  0.00     0.000 C 
BRANCH   4   5
ATOM      5  C   UNL     1     -93.815 146.011 237.037  1.00  0.00     0.000 C 
BRANCH   5   6
ATOM      6  C   UNL     1     -92.729 146.278 235.980  1.00  0.00     0.000 C 
BRANCH   6   7
ATOM      7  C   UNL     1     -93.288 146.259 234.549  1.00  0.00     0.000 C 
BRANCH   7   8
ATOM      8  C   UNL     1     -92.861 147.495 233.737  1.00  0.00     0.000 C 
BRANCH   8   9
ATOM      9  C   UNL     1     -94.045 148.175 233.031  1.00  0.00     0.000 C 
BRANCH   9  10
ATOM     10  C   UNL     1     -94.923 148.981 234.001  1.00  0.00     0.000 C 
BRANCH  10  11
ATOM     11  C   UNL     1     -96.338 148.395 234.081  1.00  0.00     0.000 C 
BRANCH  11  12
ATOM     12  C   UNL     1     -97.232 149.246 234.997  1.00  0.00     0.006 C 
BRANCH  12  13
ATOM     13  C   UNL     1     -96.469 150.416 235.631  1.00  0.00     0.053 C 
BRANCH  13  14
ATOM     14  C   UNL     1     -97.163 151.723 235.401  1.00  0.00     0.041 C 
ATOM     15  O   UNL     1     -98.404 151.825 235.592  1.00  0.00    -0.550 OA
ATOM     16  O   UNL     1     -96.432 152.840 235.012  1.00  0.00    -0.550 OA
ENDBRANCH  13  14
ENDBRANCH  12  13
ENDBRANCH  11  12
ENDBRANCH  10  11
ENDBRANCH   9  10
ENDBRANCH   8   9
ENDBRANCH   7   8
ENDBRANCH   6   7
ENDBRANCH   5   6
ENDBRANCH   4   5
ENDBRANCH   3   4
ENDBRANCH   2   3
ENDBRANCH   1   2
BRANCH   1  17
ATOM     17  C   UNL     1     -94.729 147.127 241.444  1.00  0.00     0.000 C 
BRANCH  17  18
ATOM     18  C   UNL     1     -94.651 145.795 240.683  1.00  0.00     0.000 C 
BRANCH  18  19
ATOM     19  C   UNL     1     -96.040 145.236 240.326  1.00  0.00     0.000 C 
BRANCH  19  20
ATOM     20  C   UNL     1     -97.158 145.836 241.193  1.00  0.00     0.000 C 
BRANCH  20  21
ATOM     21  C   UNL     1     -98.385 146.255 240.369  1.00  0.00     0.000 C 
BRANCH  21  22
ATOM     22  C   UNL     1     -98.059 146.266 238.869  1.00  0.00    -0.000 C 
BRANCH  22  23
ATOM     23  C   UNL     1     -98.382 147.610 238.193  1.00  0.00    -0.000 C 
BRANCH  23  24
ATOM     24  C   UNL     1     -97.733 148.849 238.845  1.00  0.00    -0.000 C 
BRANCH  24  25
ATOM     25  C   UNL     1     -98.702 150.003 239.158  1.00  0.00    -0.000 C 
BRANCH  25  26
ATOM     26  C   UNL     1     -98.898 150.223 240.666  1.00  0.00    -0.000 C 
BRANCH  26  27
ATOM     27  C   UNL     1     -97.571 150.212 241.444  1.00  0.00    -0.000 C 
BRANCH  27  28
ATOM     28  C   UNL     1     -97.565 149.227 242.634  1.00  0.00    -0.000 C 
BRANCH  28  29
ATOM     29  C   UNL     1     -98.834 149.346 243.491  1.00  0.00    -0.003 C 
ATOM     30  C   UNL     1     -98.600 150.251 244.698  1.00  0.00     0.004 C 
ENDBRANCH  28  29
ENDBRANCH  27  28
ENDBRANCH  26  27
ENDBRANCH  25  26
ENDBRANCH  24  25
ENDBRANCH  23  24
ENDBRANCH  22  23
ENDBRANCH  21  22
ENDBRANCH  20  21
ENDBRANCH  19  20
ENDBRANCH  18  19
ENDBRANCH  17  18
ENDBRANCH   1  17
TORSDOF 26
ENDMDL
MODEL 4
REMARK VINA RESULT:    -3.683      2.144      5.580
REMARK INTER + INTRA:         -13.823
REMARK INTER:                  -8.976
REMARK INTRA:                  -4.847
REMARK UNBOUND:                -4.542
REMARK SMILES CCCCCCCCCCCCCCCCCCCCCCCCCCCC(=O)[O-]
REMARK SMILES IDX 15 1 16 2 17 3 18 4 19 5 20 6 21 7 22 8 23 9 24 10 25 11
REMARK SMILES IDX 26 12 27 13 28 14 29 15 30 16 14 17 13 18 12 19 11 20 10 21
REMARK SMILES IDX 9 22 8 23 7 24 6 25 5 26 4 27 3 28 2 29 1 30
REMARK H PARENT
REMARK Flexibility Score: inf
ROOT
ATOM      1  C   UNL     1     -92.866 145.693 236.878  1.00  0.00     0.000 C 
ENDROOT
BRANCH   1   2
ATOM      2  C   UNL     1     -91.608 145.654 237.758  1.00  0.00     0.000 C 
BRANCH   2   3
ATOM      3  C   UNL     1     -91.893 146.047 239.218  1.00  0.00     0.000 C 
BRANCH   3   4
ATOM      4  C   UNL     1     -93.347 145.768 239.640  1.00  0.00     0.000 C 
BRANCH   4   5
ATOM      5  C   UNL     1     -94.133 147.008 240.106  1.00  0.00     0.000 C 
BRANCH   5   6
ATOM      6  C   UNL     1     -93.645 148.309 239.445  1.00  0.00     0.000 C 
BRANCH   6   7
ATOM      7  C   UNL     1     -94.559 148.760 238.295  1.00  0.00     0.000 C 
BRANCH   7   8
ATOM      8  C   UNL     1     -95.807 147.870 238.155  1.00  0.00     0.000 C 
BRANCH   8   9
ATOM      9  C   UNL     1     -97.096 148.686 237.970  1.00  0.00     0.000 C 
BRANCH   9  10
ATOM     10  C   UNL     1     -98.309 148.031 238.649  1.00  0.00     0.000 C 
BRANCH  10  11
ATOM     11  C   UNL     1     -97.869 147.080 239.768  1.00  0.00     0.000 C 
BRANCH  11  12
ATOM     12  C   UNL     1     -98.376 147.568 241.134  1.00  0.00     0.006 C 
BRANCH  12  13
ATOM     13  C   UNL     1     -97.257 148.182 241.984  1.00  0.00     0.053 C 
BRANCH  13  14
ATOM     14  C   UNL     1     -96.978 149.601 241.597  1.00  0.00     0.041 C 
ATOM     15  O   UNL     1     -95.795 149.980 241.387  1.00  0.00    -0.550 OA
ATOM     16  O   UNL     1     -98.027 150.497 241.432  1.00  0.00    -0.550 OA
ENDBRANCH  13  14
ENDBRANCH  12  13
ENDBRANCH  11  12
ENDBRANCH  10  11
ENDBRANCH   9  10
ENDBRANCH   8   9
ENDBRANCH   7   8
ENDBRANCH   6   7
ENDBRANCH   5   6
ENDBRANCH   4   5
ENDBRANCH   3   4
ENDBRANCH   2   3
ENDBRANCH   1   2
BRANCH   1  17
ATOM     17  C   UNL     1     -92.551 146.039 235.412  1.00  0.00     0.000 C 
BRANCH  17  18
ATOM     18  C   UNL     1     -93.440 147.169 234.869  1.00  0.00     0.000 C 
BRANCH  18  19
ATOM     19  C   UNL     1     -94.918 146.755 234.754  1.00  0.00     0.000 C 
BRANCH  19  20
ATOM     20  C   UNL     1     -95.848 147.953 234.503  1.00  0.00     0.000 C 
BRANCH  20  21
ATOM     21  C   UNL     1     -95.087 149.210 234.052  1.00  0.00     0.000 C 
BRANCH  21  22
ATOM     22  C   UNL     1     -95.310 150.367 235.037  1.00  0.00    -0.000 C 
BRANCH  22  23
ATOM     23  C   UNL     1     -95.541 151.717 234.335  1.00  0.00    -0.000 C 
BRANCH  23  24
ATOM     24  C   UNL     1     -96.331 152.760 235.154  1.00  0.00    -0.000 C 
BRANCH  24  25
ATOM     25  C   UNL     1     -97.503 153.421 234.408  1.00  0.00    -0.000 C 
BRANCH  25  26
ATOM     26  C   UNL     1     -98.770 153.534 235.270  1.00  0.00    -0.000 C 
BRANCH  26  27
ATOM     27  C   UNL     1     -98.777 152.543 236.447  1.00  0.00    -0.000 C 
BRANCH  27  28
ATOM     28  C   UNL     1     -99.676 151.311 236.206  1.00  0.00    -0.000 C 
BRANCH  28  29
ATOM     29  C   UNL     1     -98.979 150.242 235.351  1.00  0.00    -0.003 C 
ATOM     30  C   UNL     1     -99.972 149.539 234.431  1.00  0.00     0.004 C 
ENDBRANCH  28  29
ENDBRANCH  27  28
ENDBRANCH  26  27
ENDBRANCH  25  26
ENDBRANCH  24  25
ENDBRANCH  23  24
ENDBRANCH  22  23
ENDBRANCH  21  22
ENDBRANCH  20  21
ENDBRANCH  19  20
ENDBRANCH  18  19
ENDBRANCH  17  18
ENDBRANCH   1  17
TORSDOF 26
ENDMDL
MODEL 5
REMARK VINA RESULT:    -3.661      3.218      7.655
REMARK INTER + INTRA:         -13.767
REMARK INTER:                  -9.045
REMARK INTRA:                  -4.722
REMARK UNBOUND:                -4.542
REMARK SMILES CCCCCCCCCCCCCCCCCCCCCCCCCCCC(=O)[O-]
REMARK SMILES IDX 15 1 16 2 17 3 18 4 19 5 20 6 21 7 22 8 23 9 24 10 25 11
REMARK SMILES IDX 26 12 27 13 28 14 29 15 30 16 14 17 13 18 12 19 11 20 10 21
REMARK SMILES IDX 9 22 8 23 7 24 6 25 5 26 4 27 3 28 2 29 1 30
REMARK H PARENT
REMARK Flexibility Score: inf
ROOT
ATOM      1  C   UNL     1     -94.857 147.211 241.147  1.00  0.00     0.000 C 
ENDROOT
BRANCH   1   2
ATOM      2  C   UNL     1     -94.425 148.628 240.741  1.00  0.00     0.000 C 
BRANCH   2   3
ATOM      3  C   UNL     1     -95.415 149.707 241.215  1.00  0.00     0.000 C 
BRANCH   3   4
ATOM      4  C   UNL     1     -96.809 149.140 241.541  1.00  0.00     0.000 C 
BRANCH   4   5
ATOM      5  C   UNL     1     -97.988 150.000 241.051  1.00  0.00     0.000 C 
BRANCH   5   6
ATOM      6  C   UNL     1     -99.238 149.168 240.715  1.00  0.00     0.000 C 
BRANCH   6   7
ATOM      7  C   UNL     1     -98.983 147.657 240.830  1.00  0.00     0.000 C 
BRANCH   7   8
ATOM      8  C   UNL     1     -99.745 147.022 242.007  1.00  0.00     0.000 C 
BRANCH   8   9
ATOM      9  C   UNL     1     -98.843 146.769 243.225  1.00  0.00     0.000 C 
BRANCH   9  10
ATOM     10  C   UNL     1     -99.136 147.735 244.384  1.00  0.00     0.000 C 
BRANCH  10  11
ATOM     11  C   UNL     1    -100.363 148.603 244.082  1.00  0.00     0.000 C 
BRANCH  11  12
ATOM     12  C   UNL     1    -100.031 150.095 244.241  1.00  0.00     0.006 C 
BRANCH  12  13
ATOM     13  C   UNL     1     -98.620 150.320 244.799  1.00  0.00     0.053 C 
BRANCH  13  14
ATOM     14  C   UNL     1     -98.615 151.318 245.916  1.00  0.00     0.041 C 
ATOM     15  O   UNL     1     -97.591 151.460 246.635  1.00  0.00    -0.550 OA
ATOM     16  O   UNL     1     -99.730 152.117 246.140  1.00  0.00    -0.550 OA
ENDBRANCH  13  14
ENDBRANCH  12  13
ENDBRANCH  11  12
ENDBRANCH  10  11
ENDBRANCH   9  10
ENDBRANCH   8   9
ENDBRANCH   7   8
ENDBRANCH   6   7
ENDBRANCH   5   6
ENDBRANCH   4   5
ENDBRANCH   3   4
ENDBRANCH   2   3
ENDBRANCH   1   2
BRANCH   1  17
ATOM     17  C   UNL     1     -94.239 146.125 240.248  1.00  0.00     0.000 C 
BRANCH  17  18
ATOM     18  C   UNL     1     -93.362 146.713 239.132  1.00  0.00     0.000 C 
BRANCH  18  19
ATOM     19  C   UNL     1     -92.001 146.004 239.013  1.00  0.00     0.000 C 
BRANCH  19  20
ATOM     20  C   UNL     1     -91.655 145.630 237.563  1.00  0.00     0.000 C 
BRANCH  20  21
ATOM     21  C   UNL     1     -92.795 145.944 236.582  1.00  0.00     0.000 C 
BRANCH  21  22
ATOM     22  C   UNL     1     -92.244 146.255 235.183  1.00  0.00    -0.000 C 
BRANCH  22  23
ATOM     23  C   UNL     1     -93.283 146.917 234.261  1.00  0.00    -0.000 C 
BRANCH  23  24
ATOM     24  C   UNL     1     -94.552 147.441 234.966  1.00  0.00    -0.000 C 
BRANCH  24  25
ATOM     25  C   UNL     1     -94.997 148.851 234.541  1.00  0.00    -0.000 C 
BRANCH  25  26
ATOM     26  C   UNL     1     -95.639 149.644 235.690  1.00  0.00    -0.000 C 
BRANCH  26  27
ATOM     27  C   UNL     1     -95.304 149.060 237.074  1.00  0.00    -0.000 C 
BRANCH  27  28
ATOM     28  C   UNL     1     -96.554 148.713 237.913  1.00  0.00    -0.000 C 
BRANCH  28  29
ATOM     29  C   UNL     1     -96.997 147.255 237.717  1.00  0.00    -0.003 C 
ATOM     30  C   UNL     1     -98.328 147.180 236.975  1.00  0.00     0.004 C 
ENDBRANCH  28  29
ENDBRANCH  27  28
ENDBRANCH  26  27
ENDBRANCH  25  26
ENDBRANCH  24  25
ENDBRANCH  23  24
ENDBRANCH  22  23
ENDBRANCH  21  22
ENDBRANCH  20  21
ENDBRANCH  19  20
ENDBRANCH  18  19
ENDBRANCH  17  18
ENDBRANCH   1  17
TORSDOF 26
ENDMDL
MODEL 6
REMARK VINA RESULT:    -3.628      1.558      2.752
REMARK INTER + INTRA:         -13.684
REMARK INTER:                  -8.571
REMARK INTRA:                  -5.113
REMARK UNBOUND:                -4.542
REMARK SMILES CCCCCCCCCCCCCCCCCCCCCCCCCCCC(=O)[O-]
REMARK SMILES IDX 15 1 16 2 17 3 18 4 19 5 20 6 21 7 22 8 23 9 24 10 25 11
REMARK SMILES IDX 26 12 27 13 28 14 29 15 30 16 14 17 13 18 12 19 11 20 10 21
REMARK SMILES IDX 9 22 8 23 7 24 6 25 5 26 4 27 3 28 2 29 1 30
REMARK H PARENT
REMARK Flexibility Score: inf
ROOT
ATOM      1  C   UNL     1     -94.240 147.336 237.264  1.00  0.00     0.000 C 
ENDROOT
BRANCH   1   2
ATOM      2  C   UNL     1     -93.123 146.403 237.757  1.00  0.00     0.000 C 
BRANCH   2   3
ATOM      3  C   UNL     1     -92.323 145.774 236.603  1.00  0.00     0.000 C 
BRANCH   3   4
ATOM      4  C   UNL     1     -92.929 146.076 235.221  1.00  0.00     0.000 C 
BRANCH   4   5
ATOM      5  C   UNL     1     -91.917 146.547 234.160  1.00  0.00     0.000 C 
BRANCH   5   6
ATOM      6  C   UNL     1     -92.477 147.651 233.246  1.00  0.00     0.000 C 
BRANCH   6   7
ATOM      7  C   UNL     1     -93.795 148.237 233.776  1.00  0.00     0.000 C 
BRANCH   7   8
ATOM      8  C   UNL     1     -95.023 147.687 233.028  1.00  0.00     0.000 C 
BRANCH   8   9
ATOM      9  C   UNL     1     -96.176 147.321 233.976  1.00  0.00     0.000 C 
BRANCH   9  10
ATOM     10  C   UNL     1     -97.158 148.484 234.186  1.00  0.00     0.000 C 
BRANCH  10  11
ATOM     11  C   UNL     1     -97.653 148.534 235.635  1.00  0.00     0.000 C 
BRANCH  11  12
ATOM     12  C   UNL     1     -97.307 149.881 236.288  1.00  0.00     0.006 C 
BRANCH  12  13
ATOM     13  C   UNL     1     -96.388 150.735 235.405  1.00  0.00     0.053 C 
BRANCH  13  14
ATOM     14  C   UNL     1     -97.026 152.039 235.035  1.00  0.00     0.041 C 
ATOM     15  O   UNL     1     -98.128 152.056 234.426  1.00  0.00    -0.550 OA
ATOM     16  O   UNL     1     -96.421 153.237 235.396  1.00  0.00    -0.550 OA
ENDBRANCH  13  14
ENDBRANCH  12  13
ENDBRANCH  11  12
ENDBRANCH  10  11
ENDBRANCH   9  10
ENDBRANCH   8   9
ENDBRANCH   7   8
ENDBRANCH   6   7
ENDBRANCH   5   6
ENDBRANCH   4   5
ENDBRANCH   3   4
ENDBRANCH   2   3
ENDBRANCH   1   2
BRANCH   1  17
ATOM     17  C   UNL     1     -94.486 148.518 238.218  1.00  0.00     0.000 C 
BRANCH  17  18
ATOM     18  C   UNL     1     -93.839 148.309 239.596  1.00  0.00     0.000 C 
BRANCH  18  19
ATOM     19  C   UNL     1     -94.845 148.456 240.750  1.00  0.00     0.000 C 
BRANCH  19  20
ATOM     20  C   UNL     1     -95.126 147.122 241.462  1.00  0.00     0.000 C 
BRANCH  20  21
ATOM     21  C   UNL     1     -95.680 146.049 240.512  1.00  0.00     0.000 C 
BRANCH  21  22
ATOM     22  C   UNL     1     -97.209 146.149 240.406  1.00  0.00    -0.000 C 
BRANCH  22  23
ATOM     23  C   UNL     1     -97.676 146.944 239.174  1.00  0.00    -0.000 C 
BRANCH  23  24
ATOM     24  C   UNL     1     -99.171 147.329 239.165  1.00  0.00    -0.000 C 
BRANCH  24  25
ATOM     25  C   UNL     1     -99.492 148.705 239.772  1.00  0.00    -0.000 C 
BRANCH  25  26
ATOM     26  C   UNL     1     -98.280 149.651 239.779  1.00  0.00    -0.000 C 
BRANCH  26  27
ATOM     27  C   UNL     1     -97.976 150.213 241.178  1.00  0.00    -0.000 C 
BRANCH  27  28
ATOM     28  C   UNL     1     -98.708 149.465 242.314  1.00  0.00    -0.000 C 
BRANCH  28  29
ATOM     29  C   UNL     1     -97.745 148.997 243.415  1.00  0.00    -0.003 C 
ATOM     30  C   UNL     1     -97.987 147.534 243.774  1.00  0.00     0.004 C 
ENDBRANCH  28  29
ENDBRANCH  27  28
ENDBRANCH  26  27
ENDBRANCH  25  26
ENDBRANCH  24  25
ENDBRANCH  23  24
ENDBRANCH  22  23
ENDBRANCH  21  22
ENDBRANCH  20  21
ENDBRANCH  19  20
ENDBRANCH  18  19
ENDBRANCH  17  18
ENDBRANCH   1  17
TORSDOF 26
ENDMDL
MODEL 7
REMARK VINA RESULT:    -3.626      1.305      2.086
REMARK INTER + INTRA:         -13.680
REMARK INTER:                  -8.619
REMARK INTRA:                  -5.061
REMARK UNBOUND:                -4.542
REMARK SMILES CCCCCCCCCCCCCCCCCCCCCCCCCCCC(=O)[O-]
REMARK SMILES IDX 15 1 16 2 17 3 18 4 19 5 20 6 21 7 22 8 23 9 24 10 25 11
REMARK SMILES IDX 26 12 27 13 28 14 29 15 30 16 14 17 13 18 12 19 11 20 10 21
REMARK SMILES IDX 9 22 8 23 7 24 6 25 5 26 4 27 3 28 2 29 1 30
REMARK H PARENT
REMARK Flexibility Score: inf
ROOT
ATOM      1  C   UNL     1     -93.533 148.239 239.518  1.00  0.00     0.000 C 
ENDROOT
BRANCH   1   2
ATOM      2  C   UNL     1     -94.162 147.892 238.160  1.00  0.00     0.000 C 
BRANCH   2   3
ATOM      3  C   UNL     1     -93.639 146.563 237.587  1.00  0.00     0.000 C 
BRANCH   3   4
ATOM      4  C   UNL     1     -94.618 145.912 236.594  1.00  0.00     0.000 C 
BRANCH   4   5
ATOM      5  C   UNL     1     -94.040 145.657 235.190  1.00  0.00     0.000 C 
BRANCH   5   6
ATOM      6  C   UNL     1     -92.735 146.430 234.930  1.00  0.00     0.000 C 
BRANCH   6   7
ATOM      7  C   UNL     1     -92.953 147.664 234.041  1.00  0.00     0.000 C 
BRANCH   7   8
ATOM      8  C   UNL     1     -94.343 147.673 233.381  1.00  0.00     0.000 C 
BRANCH   8   9
ATOM      9  C   UNL     1     -95.119 148.972 233.656  1.00  0.00     0.000 C 
BRANCH   9  10
ATOM     10  C   UNL     1     -95.347 149.214 235.156  1.00  0.00     0.000 C 
BRANCH  10  11
ATOM     11  C   UNL     1     -96.083 150.538 235.394  1.00  0.00     0.000 C 
BRANCH  11  12
ATOM     12  C   UNL     1     -95.600 151.618 234.414  1.00  0.00     0.006 C 
BRANCH  12  13
ATOM     13  C   UNL     1     -96.734 152.551 233.971  1.00  0.00     0.053 C 
BRANCH  13  14
ATOM     14  C   UNL     1     -97.355 153.264 235.133  1.00  0.00     0.041 C 
ATOM     15  O   UNL     1     -96.717 154.166 235.738  1.00  0.00    -0.550 OA
ATOM     16  O   UNL     1     -98.653 152.958 235.524  1.00  0.00    -0.550 OA
ENDBRANCH  13  14
ENDBRANCH  12  13
ENDBRANCH  11  12
ENDBRANCH  10  11
ENDBRANCH   9  10
ENDBRANCH   8   9
ENDBRANCH   7   8
ENDBRANCH   6   7
ENDBRANCH   5   6
ENDBRANCH   4   5
ENDBRANCH   3   4
ENDBRANCH   2   3
ENDBRANCH   1   2
BRANCH   1  17
ATOM     17  C   UNL     1     -94.566 148.265 240.658  1.00  0.00     0.000 C 
BRANCH  17  18
ATOM     18  C   UNL     1     -94.654 146.926 241.405  1.00  0.00     0.000 C 
BRANCH  18  19
ATOM     19  C   UNL     1     -96.105 146.455 241.606  1.00  0.00     0.000 C 
BRANCH  19  20
ATOM     20  C   UNL     1     -96.681 145.767 240.358  1.00  0.00     0.000 C 
BRANCH  20  21
ATOM     21  C   UNL     1     -97.885 146.520 239.769  1.00  0.00     0.000 C 
BRANCH  21  22
ATOM     22  C   UNL     1     -97.825 146.533 238.235  1.00  0.00    -0.000 C 
BRANCH  22  23
ATOM     23  C   UNL     1     -97.875 147.953 237.643  1.00  0.00    -0.000 C 
BRANCH  23  24
ATOM     24  C   UNL     1     -97.631 149.097 238.651  1.00  0.00    -0.000 C 
BRANCH  24  25
ATOM     25  C   UNL     1     -98.871 149.941 238.991  1.00  0.00    -0.000 C 
BRANCH  25  26
ATOM     26  C   UNL     1     -98.852 150.474 240.432  1.00  0.00    -0.000 C 
BRANCH  26  27
ATOM     27  C   UNL     1     -97.561 150.106 241.183  1.00  0.00    -0.000 C 
BRANCH  27  28
ATOM     28  C   UNL     1     -97.807 149.638 242.634  1.00  0.00    -0.000 C 
BRANCH  28  29
ATOM     29  C   UNL     1     -99.264 149.212 242.866  1.00  0.00    -0.003 C 
ATOM     30  C   UNL     1     -99.385 147.694 242.965  1.00  0.00     0.004 C 
ENDBRANCH  28  29
ENDBRANCH  27  28
ENDBRANCH  26  27
ENDBRANCH  25  26
ENDBRANCH  24  25
ENDBRANCH  23  24
ENDBRANCH  22  23
ENDBRANCH  21  22
ENDBRANCH  20  21
ENDBRANCH  19  20
ENDBRANCH  18  19
ENDBRANCH  17  18
ENDBRANCH   1  17
TORSDOF 26
ENDMDL
MODEL 8
REMARK VINA RESULT:    -3.617      1.385      3.232
REMARK INTER + INTRA:         -13.658
REMARK INTER:                  -9.343
REMARK INTRA:                  -4.315
REMARK UNBOUND:                -4.542
REMARK SMILES CCCCCCCCCCCCCCCCCCCCCCCCCCCC(=O)[O-]
REMARK SMILES IDX 15 1 16 2 17 3 18 4 19 5 20 6 21 7 22 8 23 9 24 10 25 11
REMARK SMILES IDX 26 12 27 13 28 14 29 15 30 16 14 17 13 18 12 19 11 20 10 21
REMARK SMILES IDX 9 22 8 23 7 24 6 25 5 26 4 27 3 28 2 29 1 30
REMARK H PARENT
REMARK Flexibility Score: inf
ROOT
ATOM      1  C   UNL     1     -93.122 146.386 237.826  1.00  0.00     0.000 C 
ENDROOT
BRANCH   1   2
ATOM      2  C   UNL     1     -92.450 145.774 236.588  1.00  0.00     0.000 C 
BRANCH   2   3
ATOM      3  C   UNL     1     -93.285 145.957 235.309  1.00  0.00     0.000 C 
BRANCH   3   4
ATOM      4  C   UNL     1     -92.492 146.614 234.164  1.00  0.00     0.000 C 
BRANCH   4   5
ATOM      5  C   UNL     1     -93.323 147.524 233.241  1.00  0.00     0.000 C 
BRANCH   5   6
ATOM      6  C   UNL     1     -94.044 148.651 234.002  1.00  0.00     0.000 C 
BRANCH   6   7
ATOM      7  C   UNL     1     -95.564 148.437 234.064  1.00  0.00     0.000 C 
BRANCH   7   8
ATOM      8  C   UNL     1     -96.265 149.469 234.965  1.00  0.00     0.000 C 
BRANCH   8   9
ATOM      9  C   UNL     1     -95.320 150.593 235.420  1.00  0.00     0.000 C 
BRANCH   9  10
ATOM     10  C   UNL     1     -95.902 151.992 235.163  1.00  0.00     0.000 C 
BRANCH  10  11
ATOM     11  C   UNL     1     -97.012 151.941 234.106  1.00  0.00     0.000 C 
BRANCH  11  12
ATOM     12  C   UNL     1     -98.305 152.579 234.639  1.00  0.00     0.006 C 
BRANCH  12  13
ATOM     13  C   UNL     1     -98.062 153.425 235.895  1.00  0.00     0.053 C 
BRANCH  13  14
ATOM     14  C   UNL     1     -98.186 154.891 235.612  1.00  0.00     0.041 C 
ATOM     15  O   UNL     1     -97.156 155.613 235.546  1.00  0.00    -0.550 OA
ATOM     16  O   UNL     1     -99.436 155.452 235.385  1.00  0.00    -0.550 OA
ENDBRANCH  13  14
ENDBRANCH  12  13
ENDBRANCH  11  12
ENDBRANCH  10  11
ENDBRANCH   9  10
ENDBRANCH   8   9
ENDBRANCH   7   8
ENDBRANCH   6   7
ENDBRANCH   5   6
ENDBRANCH   4   5
ENDBRANCH   3   4
ENDBRANCH   2   3
ENDBRANCH   1   2
BRANCH   1  17
ATOM     17  C   UNL     1     -94.444 147.098 237.489  1.00  0.00     0.000 C 
BRANCH  17  18
ATOM     18  C   UNL     1     -94.584 148.450 238.205  1.00  0.00     0.000 C 
BRANCH  18  19
ATOM     19  C   UNL     1     -93.852 148.482 239.558  1.00  0.00     0.000 C 
BRANCH  19  20
ATOM     20  C   UNL     1     -94.819 148.462 240.753  1.00  0.00     0.000 C 
BRANCH  20  21
ATOM     21  C   UNL     1     -94.941 147.071 241.392  1.00  0.00     0.000 C 
BRANCH  21  22
ATOM     22  C   UNL     1     -96.410 146.628 241.462  1.00  0.00    -0.000 C 
BRANCH  22  23
ATOM     23  C   UNL     1     -97.031 146.385 240.076  1.00  0.00    -0.000 C 
BRANCH  23  24
ATOM     24  C   UNL     1     -98.443 146.975 239.872  1.00  0.00    -0.000 C 
BRANCH  24  25
ATOM     25  C   UNL     1     -98.563 147.991 238.723  1.00  0.00    -0.000 C 
BRANCH  25  26
ATOM     26  C   UNL     1     -97.967 149.363 239.075  1.00  0.00    -0.000 C 
BRANCH  26  27
ATOM     27  C   UNL     1     -98.755 150.084 240.182  1.00  0.00    -0.000 C 
BRANCH  27  28
ATOM     28  C   UNL     1     -97.999 150.156 241.527  1.00  0.00    -0.000 C 
BRANCH  28  29
ATOM     29  C   UNL     1     -98.699 149.346 242.629  1.00  0.00    -0.003 C 
ATOM     30  C   UNL     1     -98.287 149.832 244.016  1.00  0.00     0.004 C 
ENDBRANCH  28  29
ENDBRANCH  27  28
ENDBRANCH  26  27
ENDBRANCH  25  26
ENDBRANCH  24  25
ENDBRANCH  23  24
ENDBRANCH  22  23
ENDBRANCH  21  22
ENDBRANCH  20  21
ENDBRANCH  19  20
ENDBRANCH  18  19
ENDBRANCH  17  18
ENDBRANCH   1  17
TORSDOF 26
ENDMDL
MODEL 9
REMARK VINA RESULT:    -3.615      1.512      4.058
REMARK INTER + INTRA:         -13.652
REMARK INTER:                  -8.771
REMARK INTRA:                  -4.881
REMARK UNBOUND:                -4.542
REMARK SMILES CCCCCCCCCCCCCCCCCCCCCCCCCCCC(=O)[O-]
REMARK SMILES IDX 15 1 16 2 17 3 18 4 19 5 20 6 21 7 22 8 23 9 24 10 25 11
REMARK SMILES IDX 26 12 27 13 28 14 29 15 30 16 14 17 13 18 12 19 11 20 10 21
REMARK SMILES IDX 9 22 8 23 7 24 6 25 5 26 4 27 3 28 2 29 1 30
REMARK H PARENT
REMARK Flexibility Score: inf
ROOT
ATOM      1  C   UNL     1     -95.222 145.251 235.067  1.00  0.00     0.000 C 
ENDROOT
BRANCH   1   2
ATOM      2  C   UNL     1     -94.062 145.289 236.074  1.00  0.00     0.000 C 
BRANCH   2   3
ATOM      3  C   UNL     1     -92.861 146.103 235.563  1.00  0.00     0.000 C 
BRANCH   3   4
ATOM      4  C   UNL     1     -92.870 146.289 234.035  1.00  0.00     0.000 C 
BRANCH   4   5
ATOM      5  C   UNL     1     -92.876 147.756 233.563  1.00  0.00     0.000 C 
BRANCH   5   6
ATOM      6  C   UNL     1     -94.261 148.225 233.086  1.00  0.00     0.000 C 
BRANCH   6   7
ATOM      7  C   UNL     1     -95.101 148.824 234.224  1.00  0.00     0.000 C 
BRANCH   7   8
ATOM      8  C   UNL     1     -95.454 150.301 233.977  1.00  0.00     0.000 C 
BRANCH   8   9
ATOM      9  C   UNL     1     -95.460 151.131 235.271  1.00  0.00     0.000 C 
BRANCH   9  10
ATOM     10  C   UNL     1     -96.240 152.447 235.123  1.00  0.00     0.000 C 
BRANCH  10  11
ATOM     11  C   UNL     1     -97.308 152.334 234.030  1.00  0.00     0.000 C 
BRANCH  11  12
ATOM     12  C   UNL     1     -97.750 153.726 233.550  1.00  0.00     0.006 C 
BRANCH  12  13
ATOM     13  C   UNL     1     -99.032 154.201 234.245  1.00  0.00     0.053 C 
BRANCH  13  14
ATOM     14  C   UNL     1     -98.804 155.447 235.043  1.00  0.00     0.041 C 
ATOM     15  O   UNL     1     -99.647 156.383 235.012  1.00  0.00    -0.550 OA
ATOM     16  O   UNL     1     -97.680 155.561 235.851  1.00  0.00    -0.550 OA
ENDBRANCH  13  14
ENDBRANCH  12  13
ENDBRANCH  11  12
ENDBRANCH  10  11
ENDBRANCH   9  10
ENDBRANCH   8   9
ENDBRANCH   7   8
ENDBRANCH   6   7
ENDBRANCH   5   6
ENDBRANCH   4   5
ENDBRANCH   3   4
ENDBRANCH   2   3
ENDBRANCH   1   2
BRANCH   1  17
ATOM     17  C   UNL     1     -96.555 145.708 235.684  1.00  0.00     0.000 C 
BRANCH  17  18
ATOM     18  C   UNL     1     -96.375 146.347 237.070  1.00  0.00     0.000 C 
BRANCH  18  19
ATOM     19  C   UNL     1     -96.914 147.787 237.133  1.00  0.00     0.000 C 
BRANCH  19  20
ATOM     20  C   UNL     1     -96.067 148.695 238.039  1.00  0.00     0.000 C 
BRANCH  20  21
ATOM     21  C   UNL     1     -94.558 148.505 237.824  1.00  0.00     0.000 C 
BRANCH  21  22
ATOM     22  C   UNL     1     -93.842 148.259 239.160  1.00  0.00    -0.000 C 
BRANCH  22  23
ATOM     23  C   UNL     1     -93.212 146.857 239.254  1.00  0.00    -0.000 C 
BRANCH  23  24
ATOM     24  C   UNL     1     -93.975 145.850 240.140  1.00  0.00    -0.000 C 
BRANCH  24  25
ATOM     25  C   UNL     1     -94.962 146.479 241.139  1.00  0.00    -0.000 C 
BRANCH  25  26
ATOM     26  C   UNL     1     -96.431 146.211 240.774  1.00  0.00    -0.000 C 
BRANCH  26  27
ATOM     27  C   UNL     1     -97.361 147.372 241.166  1.00  0.00    -0.000 C 
BRANCH  27  28
ATOM     28  C   UNL     1     -96.671 148.443 242.038  1.00  0.00    -0.000 C 
BRANCH  28  29
ATOM     29  C   UNL     1     -96.817 149.854 241.448  1.00  0.00    -0.003 C 
ATOM     30  C   UNL     1     -98.182 150.036 240.789  1.00  0.00     0.004 C 
ENDBRANCH  28  29
ENDBRANCH  27  28
ENDBRANCH  26  27
ENDBRANCH  25  26
ENDBRANCH  24  25
ENDBRANCH  23  24
ENDBRANCH  22  23
ENDBRANCH  21  22
ENDBRANCH  20  21
ENDBRANCH  19  20
ENDBRANCH  18  19
ENDBRANCH  17  18
ENDBRANCH   1  17
TORSDOF 26
ENDMDL
