MODEL 1
REMARK VINA RESULT:    -3.225      0.000      0.000
REMARK INTER + INTRA:         -12.764
REMARK INTER:                  -8.127
REMARK INTRA:                  -4.636
REMARK UNBOUND:                -4.636
REMARK SMILES CCCCCCCCCCCCCCCCCCCCCCCCCCCC(=O)[O-]
REMARK SMILES IDX 15 1 16 2 17 3 18 4 19 5 20 6 21 7 22 8 23 9 24 10 25 11
REMARK SMILES IDX 26 12 27 13 28 14 29 15 30 16 14 17 13 18 12 19 11 20 10 21
REMARK SMILES IDX 9 22 8 23 7 24 6 25 5 26 4 27 3 28 2 29 1 30
REMARK H PARENT
REMARK Flexibility Score: inf
ROOT
ATOM      1  C   UNL     1       4.574   0.354  -5.640  1.00  0.00     0.000 C 
ENDROOT
BRANCH   1   2
ATOM      2  C   UNL     1       6.022  -0.019  -5.278  1.00  0.00     0.000 C 
BRANCH   2   3
ATOM      3  C   UNL     1       6.402  -1.440  -5.722  1.00  0.00     0.000 C 
BRANCH   3   4
ATOM      4  C   UNL     1       5.185  -2.384  -5.789  1.00  0.00     0.000 C 
BRANCH   4   5
ATOM      5  C   UNL     1       5.579  -3.876  -5.805  1.00  0.00     0.000 C 
BRANCH   5   6
ATOM      6  C   UNL     1       6.870  -4.198  -5.026  1.00  0.00     0.000 C 
BRANCH   6   7
ATOM      7  C   UNL     1       7.416  -5.624  -5.219  1.00  0.00     0.000 C 
BRANCH   7   8
ATOM      8  C   UNL     1       8.168  -5.804  -6.547  1.00  0.00     0.000 C 
BRANCH   8   9
ATOM      9  C   UNL     1       8.508  -7.282  -6.791  1.00  0.00     0.000 C 
BRANCH   9  10
ATOM     10  C   UNL     1       9.007  -7.994  -5.522  1.00  0.00     0.000 C 
BRANCH  10  11
ATOM     11  C   UNL     1       8.234  -9.272  -5.142  1.00  0.00     0.000 C 
BRANCH  11  12
ATOM     12  C   UNL     1       8.262  -9.632  -3.643  1.00  0.00     0.006 C 
BRANCH  12  13
ATOM     13  C   UNL     1       7.725  -8.531  -2.715  1.00  0.00     0.053 C 
BRANCH  13  14
ATOM     14  C   UNL     1       8.768  -8.053  -1.750  1.00  0.00     0.041 C 
ATOM     15  O   UNL     1       8.438  -7.684  -0.591  1.00  0.00    -0.550 OA
ATOM     16  O   UNL     1      10.108  -8.055  -2.120  1.00  0.00    -0.550 OA
ENDBRANCH  13  14
ENDBRANCH  12  13
ENDBRANCH  11  12
ENDBRANCH  10  11
ENDBRANCH   9  10
ENDBRANCH   8   9
ENDBRANCH   7   8
ENDBRANCH   6   7
ENDBRANCH   5   6
ENDBRANCH   4   5
ENDBRANCH   3   4
ENDBRANCH   2   3
ENDBRANCH   1   2
BRANCH   1  17
ATOM     17  C   UNL     1       4.465   1.743  -6.292  1.00  0.00     0.000 C 
BRANCH  17  18
ATOM     18  C   UNL     1       4.159   1.668  -7.797  1.00  0.00     0.000 C 
BRANCH  18  19
ATOM     19  C   UNL     1       5.419   1.429  -8.645  1.00  0.00     0.000 C 
BRANCH  19  20
ATOM     20  C   UNL     1       5.241   0.279  -9.653  1.00  0.00     0.000 C 
BRANCH  20  21
ATOM     21  C   UNL     1       4.314  -0.828  -9.123  1.00  0.00     0.000 C 
BRANCH  21  22
ATOM     22  C   UNL     1       4.769  -2.235  -9.547  1.00  0.00    -0.000 C 
BRANCH  22  23
ATOM     23  C   UNL     1       6.265  -2.279  -9.927  1.00  0.00    -0.000 C 
BRANCH  23  24
ATOM     24  C   UNL     1       7.111  -3.203  -9.032  1.00  0.00    -0.000 C 
BRANCH  24  25
ATOM     25  C   UNL     1       8.620  -2.955  -9.167  1.00  0.00    -0.000 C 
BRANCH  25  26
ATOM     26  C   UNL     1       9.230  -2.509  -7.830  1.00  0.00    -0.000 C 
BRANCH  26  27
ATOM     27  C   UNL     1       9.922  -1.145  -7.975  1.00  0.00    -0.000 C 
BRANCH  27  28
ATOM     28  C   UNL     1       8.925   0.022  -8.031  1.00  0.00    -0.000 C 
BRANCH  28  29
ATOM     29  C   UNL     1       9.083   0.991  -6.851  1.00  0.00    -0.003 C 
ATOM     30  C   UNL     1       8.471   2.351  -7.173  1.00  0.00     0.004 C 
ENDBRANCH  28  29
ENDBRANCH  27  28
ENDBRANCH  26  27
ENDBRANCH  25  26
ENDBRANCH  24  25
ENDBRANCH  23  24
ENDBRANCH  22  23
ENDBRANCH  21  22
ENDBRANCH  20  21
ENDBRANCH  19  20
ENDBRANCH  18  19
ENDBRANCH  17  18
ENDBRANCH   1  17
TORSDOF 26
ENDMDL
MODEL 2
REMARK VINA RESULT:    -3.065      8.788     12.828
REMARK INTER + INTRA:         -12.359
REMARK INTER:                  -9.807
REMARK INTRA:                  -2.553
REMARK UNBOUND:                -4.636
REMARK SMILES CCCCCCCCCCCCCCCCCCCCCCCCCCCC(=O)[O-]
REMARK SMILES IDX 15 1 16 2 17 3 18 4 19 5 20 6 21 7 22 8 23 9 24 10 25 11
REMARK SMILES IDX 26 12 27 13 28 14 29 15 30 16 14 17 13 18 12 19 11 20 10 21
REMARK SMILES IDX 9 22 8 23 7 24 6 25 5 26 4 27 3 28 2 29 1 30
REMARK H PARENT
REMARK Flexibility Score: inf
ROOT
ATOM      1  C   UNL     1       5.480   8.593  -3.402  1.00  0.00     0.000 C 
ENDROOT
BRANCH   1   2
ATOM      2  C   UNL     1       4.488   8.123  -4.480  1.00  0.00     0.000 C 
BRANCH   2   3
ATOM      3  C   UNL     1       3.918   9.280  -5.315  1.00  0.00     0.000 C 
BRANCH   3   4
ATOM      4  C   UNL     1       4.065   9.044  -6.831  1.00  0.00     0.000 C 
BRANCH   4   5
ATOM      5  C   UNL     1       5.069   7.922  -7.172  1.00  0.00     0.000 C 
BRANCH   5   6
ATOM      6  C   UNL     1       5.901   8.181  -8.444  1.00  0.00     0.000 C 
BRANCH   6   7
ATOM      7  C   UNL     1       6.592   6.943  -9.041  1.00  0.00     0.000 C 
BRANCH   7   8
ATOM      8  C   UNL     1       6.245   5.644  -8.296  1.00  0.00     0.000 C 
BRANCH   8   9
ATOM      9  C   UNL     1       5.279   4.778  -9.119  1.00  0.00     0.000 C 
BRANCH   9  10
ATOM     10  C   UNL     1       5.123   3.357  -8.550  1.00  0.00     0.000 C 
BRANCH  10  11
ATOM     11  C   UNL     1       5.107   3.267  -7.011  1.00  0.00     0.000 C 
BRANCH  11  12
ATOM     12  C   UNL     1       4.152   2.205  -6.429  1.00  0.00     0.006 C 
BRANCH  12  13
ATOM     13  C   UNL     1       4.674   0.763  -6.521  1.00  0.00     0.053 C 
BRANCH  13  14
ATOM     14  C   UNL     1       5.428   0.361  -5.290  1.00  0.00     0.041 C 
ATOM     15  O   UNL     1       5.361   1.064  -4.246  1.00  0.00    -0.550 OA
ATOM     16  O   UNL     1       6.173  -0.814  -5.286  1.00  0.00    -0.550 OA
ENDBRANCH  13  14
ENDBRANCH  12  13
ENDBRANCH  11  12
ENDBRANCH  10  11
ENDBRANCH   9  10
ENDBRANCH   8   9
ENDBRANCH   7   8
ENDBRANCH   6   7
ENDBRANCH   5   6
ENDBRANCH   4   5
ENDBRANCH   3   4
ENDBRANCH   2   3
ENDBRANCH   1   2
BRANCH   1  17
ATOM     17  C   UNL     1       4.972   9.819  -2.625  1.00  0.00     0.000 C 
BRANCH  17  18
ATOM     18  C   UNL     1       5.418   9.814  -1.154  1.00  0.00     0.000 C 
BRANCH  18  19
ATOM     19  C   UNL     1       4.961   8.552  -0.403  1.00  0.00     0.000 C 
BRANCH  19  20
ATOM     20  C   UNL     1       6.113   7.872   0.360  1.00  0.00     0.000 C 
BRANCH  20  21
ATOM     21  C   UNL     1       7.479   8.110  -0.306  1.00  0.00     0.000 C 
BRANCH  21  22
ATOM     22  C   UNL     1       8.547   8.594   0.691  1.00  0.00    -0.000 C 
BRANCH  22  23
ATOM     23  C   UNL     1       8.049   9.767   1.561  1.00  0.00    -0.000 C 
BRANCH  23  24
ATOM     24  C   UNL     1       8.409   9.637   3.053  1.00  0.00    -0.000 C 
BRANCH  24  25
ATOM     25  C   UNL     1       9.297   8.421   3.354  1.00  0.00    -0.000 C 
BRANCH  25  26
ATOM     26  C   UNL     1       8.718   7.582   4.501  1.00  0.00    -0.000 C 
BRANCH  26  27
ATOM     27  C   UNL     1       7.204   7.391   4.327  1.00  0.00    -0.000 C 
BRANCH  27  28
ATOM     28  C   UNL     1       6.423   7.623   5.630  1.00  0.00    -0.000 C 
BRANCH  28  29
ATOM     29  C   UNL     1       5.181   8.503   5.426  1.00  0.00    -0.003 C 
ATOM     30  C   UNL     1       5.031   8.907   3.962  1.00  0.00     0.004 C 
ENDBRANCH  28  29
ENDBRANCH  27  28
ENDBRANCH  26  27
ENDBRANCH  25  26
ENDBRANCH  24  25
ENDBRANCH  23  24
ENDBRANCH  22  23
ENDBRANCH  21  22
ENDBRANCH  20  21
ENDBRANCH  19  20
ENDBRANCH  18  19
ENDBRANCH  17  18
ENDBRANCH   1  17
TORSDOF 26
ENDMDL
MODEL 3
REMARK VINA RESULT:    -3.005      5.695     10.414
REMARK INTER + INTRA:         -12.208
REMARK INTER:                  -8.548
REMARK INTRA:                  -3.660
REMARK UNBOUND:                -4.636
REMARK SMILES CCCCCCCCCCCCCCCCCCCCCCCCCCCC(=O)[O-]
REMARK SMILES IDX 15 1 16 2 17 3 18 4 19 5 20 6 21 7 22 8 23 9 24 10 25 11
REMARK SMILES IDX 26 12 27 13 28 14 29 15 30 16 14 17 13 18 12 19 11 20 10 21
REMARK SMILES IDX 9 22 8 23 7 24 6 25 5 26 4 27 3 28 2 29 1 30
REMARK H PARENT
REMARK Flexibility Score: inf
ROOT
ATOM      1  C   UNL     1       5.179   1.166  -5.447  1.00  0.00     0.000 C 
ENDROOT
BRANCH   1   2
ATOM      2  C   UNL     1       3.981   1.159  -6.411  1.00  0.00     0.000 C 
BRANCH   2   3
ATOM      3  C   UNL     1       4.099   2.217  -7.520  1.00  0.00     0.000 C 
BRANCH   3   4
ATOM      4  C   UNL     1       5.338   3.118  -7.348  1.00  0.00     0.000 C 
BRANCH   4   5
ATOM      5  C   UNL     1       5.601   4.023  -8.570  1.00  0.00     0.000 C 
BRANCH   5   6
ATOM      6  C   UNL     1       6.671   5.107  -8.338  1.00  0.00     0.000 C 
BRANCH   6   7
ATOM      7  C   UNL     1       6.336   6.495  -8.910  1.00  0.00     0.000 C 
BRANCH   7   8
ATOM      8  C   UNL     1       4.866   6.630  -9.337  1.00  0.00     0.000 C 
BRANCH   8   9
ATOM      9  C   UNL     1       4.426   8.101  -9.343  1.00  0.00     0.000 C 
BRANCH   9  10
ATOM     10  C   UNL     1       5.002   8.898  -8.158  1.00  0.00     0.000 C 
BRANCH  10  11
ATOM     11  C   UNL     1       4.103   8.949  -6.907  1.00  0.00     0.000 C 
BRANCH  11  12
ATOM     12  C   UNL     1       4.830   9.308  -5.595  1.00  0.00     0.006 C 
BRANCH  12  13
ATOM     13  C   UNL     1       4.592   8.318  -4.445  1.00  0.00     0.053 C 
BRANCH  13  14
ATOM     14  C   UNL     1       5.446   8.628  -3.253  1.00  0.00     0.041 C 
ATOM     15  O   UNL     1       4.957   8.577  -2.092  1.00  0.00    -0.550 OA
ATOM     16  O   UNL     1       6.791   8.933  -3.424  1.00  0.00    -0.550 OA
ENDBRANCH  13  14
ENDBRANCH  12  13
ENDBRANCH  11  12
ENDBRANCH  10  11
ENDBRANCH   9  10
ENDBRANCH   8   9
ENDBRANCH   7   8
ENDBRANCH   6   7
ENDBRANCH   5   6
ENDBRANCH   4   5
ENDBRANCH   3   4
ENDBRANCH   2   3
ENDBRANCH   1   2
BRANCH   1  17
ATOM     17  C   UNL     1       6.235   0.108  -5.808  1.00  0.00     0.000 C 
BRANCH  17  18
ATOM     18  C   UNL     1       5.723  -1.329  -5.613  1.00  0.00     0.000 C 
BRANCH  18  19
ATOM     19  C   UNL     1       6.862  -2.363  -5.591  1.00  0.00     0.000 C 
BRANCH  19  20
ATOM     20  C   UNL     1       6.361  -3.782  -5.264  1.00  0.00     0.000 C 
BRANCH  20  21
ATOM     21  C   UNL     1       5.897  -4.544  -6.518  1.00  0.00     0.000 C 
BRANCH  21  22
ATOM     22  C   UNL     1       6.913  -4.459  -7.671  1.00  0.00    -0.000 C 
BRANCH  22  23
ATOM     23  C   UNL     1       6.234  -4.514  -9.056  1.00  0.00    -0.000 C 
BRANCH  23  24
ATOM     24  C   UNL     1       4.847  -3.847  -9.101  1.00  0.00    -0.000 C 
BRANCH  24  25
ATOM     25  C   UNL     1       4.816  -2.579  -9.966  1.00  0.00    -0.000 C 
BRANCH  25  26
ATOM     26  C   UNL     1       4.737  -1.316  -9.096  1.00  0.00    -0.000 C 
BRANCH  26  27
ATOM     27  C   UNL     1       5.842  -0.320  -9.478  1.00  0.00    -0.000 C 
BRANCH  27  28
ATOM     28  C   UNL     1       7.185  -1.008  -9.770  1.00  0.00    -0.000 C 
BRANCH  28  29
ATOM     29  C   UNL     1       8.212  -0.797  -8.649  1.00  0.00    -0.003 C 
ATOM     30  C   UNL     1       9.312  -1.852  -8.708  1.00  0.00     0.004 C 
ENDBRANCH  28  29
ENDBRANCH  27  28
ENDBRANCH  26  27
ENDBRANCH  25  26
ENDBRANCH  24  25
ENDBRANCH  23  24
ENDBRANCH  22  23
ENDBRANCH  21  22
ENDBRANCH  20  21
ENDBRANCH  19  20
ENDBRANCH  18  19
ENDBRANCH  17  18
ENDBRANCH   1  17
TORSDOF 26
ENDMDL
MODEL 4
REMARK VINA RESULT:    -2.970      5.723     10.420
REMARK INTER + INTRA:         -12.120
REMARK INTER:                  -7.936
REMARK INTRA:                  -4.185
REMARK UNBOUND:                -4.636
REMARK SMILES CCCCCCCCCCCCCCCCCCCCCCCCCCCC(=O)[O-]
REMARK SMILES IDX 15 1 16 2 17 3 18 4 19 5 20 6 21 7 22 8 23 9 24 10 25 11
REMARK SMILES IDX 26 12 27 13 28 14 29 15 30 16 14 17 13 18 12 19 11 20 10 21
REMARK SMILES IDX 9 22 8 23 7 24 6 25 5 26 4 27 3 28 2 29 1 30
REMARK H PARENT
REMARK Flexibility Score: inf
ROOT
ATOM      1  C   UNL     1       4.767  -0.009  -5.500  1.00  0.00     0.000 C 
ENDROOT
BRANCH   1   2
ATOM      2  C   UNL     1       3.726   0.701  -6.383  1.00  0.00     0.000 C 
BRANCH   2   3
ATOM      3  C   UNL     1       4.079   2.171  -6.657  1.00  0.00     0.000 C 
BRANCH   3   4
ATOM      4  C   UNL     1       3.741   2.601  -8.099  1.00  0.00     0.000 C 
BRANCH   4   5
ATOM      5  C   UNL     1       4.863   2.268  -9.105  1.00  0.00     0.000 C 
BRANCH   5   6
ATOM      6  C   UNL     1       5.315   3.464  -9.968  1.00  0.00     0.000 C 
BRANCH   6   7
ATOM      7  C   UNL     1       5.072   4.851  -9.348  1.00  0.00     0.000 C 
BRANCH   7   8
ATOM      8  C   UNL     1       6.176   5.271  -8.364  1.00  0.00     0.000 C 
BRANCH   8   9
ATOM      9  C   UNL     1       6.325   6.799  -8.323  1.00  0.00     0.000 C 
BRANCH   9  10
ATOM     10  C   UNL     1       5.000   7.532  -8.601  1.00  0.00     0.000 C 
BRANCH  10  11
ATOM     11  C   UNL     1       4.859   8.907  -7.919  1.00  0.00     0.000 C 
BRANCH  11  12
ATOM     12  C   UNL     1       3.416   9.312  -7.557  1.00  0.00     0.006 C 
BRANCH  12  13
ATOM     13  C   UNL     1       3.234   9.788  -6.108  1.00  0.00     0.053 C 
BRANCH  13  14
ATOM     14  C   UNL     1       4.275   9.214  -5.195  1.00  0.00     0.041 C 
ATOM     15  O   UNL     1       5.247   9.922  -4.817  1.00  0.00    -0.550 OA
ATOM     16  O   UNL     1       4.147   7.910  -4.731  1.00  0.00    -0.550 OA
ENDBRANCH  13  14
ENDBRANCH  12  13
ENDBRANCH  11  12
ENDBRANCH  10  11
ENDBRANCH   9  10
ENDBRANCH   8   9
ENDBRANCH   7   8
ENDBRANCH   6   7
ENDBRANCH   5   6
ENDBRANCH   4   5
ENDBRANCH   3   4
ENDBRANCH   2   3
ENDBRANCH   1   2
BRANCH   1  17
ATOM     17  C   UNL     1       6.038   0.831  -5.290  1.00  0.00     0.000 C 
BRANCH  17  18
ATOM     18  C   UNL     1       7.099   0.580  -6.374  1.00  0.00     0.000 C 
BRANCH  18  19
ATOM     19  C   UNL     1       7.788   1.875  -6.836  1.00  0.00     0.000 C 
BRANCH  19  20
ATOM     20  C   UNL     1       8.977   1.605  -7.778  1.00  0.00     0.000 C 
BRANCH  20  21
ATOM     21  C   UNL     1       8.726   2.127  -9.203  1.00  0.00     0.000 C 
BRANCH  21  22
ATOM     22  C   UNL     1       8.112   1.059 -10.125  1.00  0.00    -0.000 C 
BRANCH  22  23
ATOM     23  C   UNL     1       8.806  -0.312  -9.979  1.00  0.00    -0.000 C 
BRANCH  23  24
ATOM     24  C   UNL     1       7.850  -1.461  -9.609  1.00  0.00    -0.000 C 
BRANCH  24  25
ATOM     25  C   UNL     1       6.381  -1.021  -9.528  1.00  0.00    -0.000 C 
BRANCH  25  26
ATOM     26  C   UNL     1       5.584  -1.921  -8.574  1.00  0.00    -0.000 C 
BRANCH  26  27
ATOM     27  C   UNL     1       6.512  -2.914  -7.857  1.00  0.00    -0.000 C 
BRANCH  27  28
ATOM     28  C   UNL     1       5.748  -4.079  -7.211  1.00  0.00    -0.000 C 
BRANCH  28  29
ATOM     29  C   UNL     1       5.642  -3.941  -5.685  1.00  0.00    -0.003 C 
ATOM     30  C   UNL     1       6.834  -3.173  -5.121  1.00  0.00     0.004 C 
ENDBRANCH  28  29
ENDBRANCH  27  28
ENDBRANCH  26  27
ENDBRANCH  25  26
ENDBRANCH  24  25
ENDBRANCH  23  24
ENDBRANCH  22  23
ENDBRANCH  21  22
ENDBRANCH  20  21
ENDBRANCH  19  20
ENDBRANCH  18  19
ENDBRANCH  17  18
ENDBRANCH   1  17
TORSDOF 26
ENDMDL
MODEL 5
REMARK VINA RESULT:    -2.895      6.095     10.860
REMARK INTER + INTRA:         -11.932
REMARK INTER:                  -8.766
REMARK INTRA:                  -3.165
REMARK UNBOUND:                -4.636
REMARK SMILES CCCCCCCCCCCCCCCCCCCCCCCCCCCC(=O)[O-]
REMARK SMILES IDX 15 1 16 2 17 3 18 4 19 5 20 6 21 7 22 8 23 9 24 10 25 11
REMARK SMILES IDX 26 12 27 13 28 14 29 15 30 16 14 17 13 18 12 19 11 20 10 21
REMARK SMILES IDX 9 22 8 23 7 24 6 25 5 26 4 27 3 28 2 29 1 30
REMARK H PARENT
REMARK Flexibility Score: inf
ROOT
ATOM      1  C   UNL     1       3.027   2.243  -9.818  1.00  0.00     0.000 C 
ENDROOT
BRANCH   1   2
ATOM      2  C   UNL     1       3.548   3.661 -10.110  1.00  0.00     0.000 C 
BRANCH   2   3
ATOM      3  C   UNL     1       4.974   3.893  -9.588  1.00  0.00     0.000 C 
BRANCH   3   4
ATOM      4  C   UNL     1       5.294   5.388  -9.385  1.00  0.00     0.000 C 
BRANCH   4   5
ATOM      5  C   UNL     1       6.328   5.637  -8.266  1.00  0.00     0.000 C 
BRANCH   5   6
ATOM      6  C   UNL     1       6.927   7.057  -8.262  1.00  0.00     0.000 C 
BRANCH   6   7
ATOM      7  C   UNL     1       5.903   8.203  -8.210  1.00  0.00     0.000 C 
BRANCH   7   8
ATOM      8  C   UNL     1       5.821   8.873  -6.829  1.00  0.00     0.000 C 
BRANCH   8   9
ATOM      9  C   UNL     1       4.475   8.574  -6.151  1.00  0.00     0.000 C 
BRANCH   9  10
ATOM     10  C   UNL     1       4.602   8.407  -4.626  1.00  0.00     0.000 C 
BRANCH  10  11
ATOM     11  C   UNL     1       5.096   9.657  -3.871  1.00  0.00     0.000 C 
BRANCH  11  12
ATOM     12  C   UNL     1       5.702   9.382  -2.479  1.00  0.00     0.006 C 
BRANCH  12  13
ATOM     13  C   UNL     1       4.835   8.495  -1.573  1.00  0.00     0.053 C 
BRANCH  13  14
ATOM     14  C   UNL     1       5.375   8.423  -0.177  1.00  0.00     0.041 C 
ATOM     15  O   UNL     1       4.994   9.251   0.694  1.00  0.00    -0.550 OA
ATOM     16  O   UNL     1       6.269   7.416   0.171  1.00  0.00    -0.550 OA
ENDBRANCH  13  14
ENDBRANCH  12  13
ENDBRANCH  11  12
ENDBRANCH  10  11
ENDBRANCH   9  10
ENDBRANCH   8   9
ENDBRANCH   7   8
ENDBRANCH   6   7
ENDBRANCH   5   6
ENDBRANCH   4   5
ENDBRANCH   3   4
ENDBRANCH   2   3
ENDBRANCH   1   2
BRANCH   1  17
ATOM     17  C   UNL     1       4.142   1.185  -9.848  1.00  0.00     0.000 C 
BRANCH  17  18
ATOM     18  C   UNL     1       4.140   0.288  -8.600  1.00  0.00     0.000 C 
BRANCH  18  19
ATOM     19  C   UNL     1       3.895   1.079  -7.304  1.00  0.00     0.000 C 
BRANCH  19  20
ATOM     20  C   UNL     1       4.417   0.343  -6.056  1.00  0.00     0.000 C 
BRANCH  20  21
ATOM     21  C   UNL     1       5.571   1.095  -5.371  1.00  0.00     0.000 C 
BRANCH  21  22
ATOM     22  C   UNL     1       6.164   2.204  -6.257  1.00  0.00    -0.000 C 
BRANCH  22  23
ATOM     23  C   UNL     1       7.563   1.838  -6.796  1.00  0.00    -0.000 C 
BRANCH  23  24
ATOM     24  C   UNL     1       7.546   1.190  -8.193  1.00  0.00    -0.000 C 
BRANCH  24  25
ATOM     25  C   UNL     1       8.638   0.127  -8.377  1.00  0.00    -0.000 C 
BRANCH  25  26
ATOM     26  C   UNL     1       8.676  -0.842  -7.186  1.00  0.00    -0.000 C 
BRANCH  26  27
ATOM     27  C   UNL     1       7.422  -1.728  -7.164  1.00  0.00    -0.000 C 
BRANCH  27  28
ATOM     28  C   UNL     1       7.064  -2.214  -5.751  1.00  0.00    -0.000 C 
BRANCH  28  29
ATOM     29  C   UNL     1       6.057  -3.374  -5.763  1.00  0.00    -0.003 C 
ATOM     30  C   UNL     1       6.552  -4.537  -4.909  1.00  0.00     0.004 C 
ENDBRANCH  28  29
ENDBRANCH  27  28
ENDBRANCH  26  27
ENDBRANCH  25  26
ENDBRANCH  24  25
ENDBRANCH  23  24
ENDBRANCH  22  23
ENDBRANCH  21  22
ENDBRANCH  20  21
ENDBRANCH  19  20
ENDBRANCH  18  19
ENDBRANCH  17  18
ENDBRANCH   1  17
TORSDOF 26
ENDMDL
MODEL 6
REMARK VINA RESULT:    -2.893      3.404      5.414
REMARK INTER + INTRA:         -11.927
REMARK INTER:                  -7.801
REMARK INTRA:                  -4.126
REMARK UNBOUND:                -4.636
REMARK SMILES CCCCCCCCCCCCCCCCCCCCCCCCCCCC(=O)[O-]
REMARK SMILES IDX 15 1 16 2 17 3 18 4 19 5 20 6 21 7 22 8 23 9 24 10 25 11
REMARK SMILES IDX 26 12 27 13 28 14 29 15 30 16 14 17 13 18 12 19 11 20 10 21
REMARK SMILES IDX 9 22 8 23 7 24 6 25 5 26 4 27 3 28 2 29 1 30
REMARK H PARENT
REMARK Flexibility Score: inf
ROOT
ATOM      1  C   UNL     1       6.258  -0.448  -5.588  1.00  0.00     0.000 C 
ENDROOT
BRANCH   1   2
ATOM      2  C   UNL     1       5.621  -1.685  -6.246  1.00  0.00     0.000 C 
BRANCH   2   3
ATOM      3  C   UNL     1       6.556  -2.904  -6.258  1.00  0.00     0.000 C 
BRANCH   3   4
ATOM      4  C   UNL     1       6.106  -4.003  -5.274  1.00  0.00     0.000 C 
BRANCH   4   5
ATOM      5  C   UNL     1       7.161  -5.115  -5.090  1.00  0.00     0.000 C 
BRANCH   5   6
ATOM      6  C   UNL     1       7.571  -5.822  -6.397  1.00  0.00     0.000 C 
BRANCH   6   7
ATOM      7  C   UNL     1       9.038  -5.630  -6.816  1.00  0.00     0.000 C 
BRANCH   7   8
ATOM      8  C   UNL     1       9.205  -4.653  -7.990  1.00  0.00     0.000 C 
BRANCH   8   9
ATOM      9  C   UNL     1       8.378  -5.104  -9.204  1.00  0.00     0.000 C 
BRANCH   9  10
ATOM     10  C   UNL     1       7.178  -4.180  -9.481  1.00  0.00     0.000 C 
BRANCH  10  11
ATOM     11  C   UNL     1       5.869  -4.904  -9.854  1.00  0.00     0.000 C 
BRANCH  11  12
ATOM     12  C   UNL     1       4.584  -4.250  -9.307  1.00  0.00     0.006 C 
BRANCH  12  13
ATOM     13  C   UNL     1       3.300  -4.659 -10.046  1.00  0.00     0.053 C 
BRANCH  13  14
ATOM     14  C   UNL     1       2.725  -5.934  -9.507  1.00  0.00     0.041 C 
ATOM     15  O   UNL     1       1.745  -5.903  -8.715  1.00  0.00    -0.550 OA
ATOM     16  O   UNL     1       3.249  -7.156  -9.913  1.00  0.00    -0.550 OA
ENDBRANCH  13  14
ENDBRANCH  12  13
ENDBRANCH  11  12
ENDBRANCH  10  11
ENDBRANCH   9  10
ENDBRANCH   8   9
ENDBRANCH   7   8
ENDBRANCH   6   7
ENDBRANCH   5   6
ENDBRANCH   4   5
ENDBRANCH   3   4
ENDBRANCH   2   3
ENDBRANCH   1   2
BRANCH   1  17
ATOM     17  C   UNL     1       5.212   0.541  -5.049  1.00  0.00     0.000 C 
BRANCH  17  18
ATOM     18  C   UNL     1       3.945   0.595  -5.918  1.00  0.00     0.000 C 
BRANCH  18  19
ATOM     19  C   UNL     1       4.100   1.527  -7.131  1.00  0.00     0.000 C 
BRANCH  19  20
ATOM     20  C   UNL     1       4.073   0.763  -8.468  1.00  0.00     0.000 C 
BRANCH  20  21
ATOM     21  C   UNL     1       4.078   1.707  -9.683  1.00  0.00     0.000 C 
BRANCH  21  22
ATOM     22  C   UNL     1       3.763   3.164  -9.303  1.00  0.00    -0.000 C 
BRANCH  22  23
ATOM     23  C   UNL     1       4.769   4.161  -9.916  1.00  0.00    -0.000 C 
BRANCH  23  24
ATOM     24  C   UNL     1       6.241   3.839  -9.601  1.00  0.00    -0.000 C 
BRANCH  24  25
ATOM     25  C   UNL     1       6.554   3.863  -8.098  1.00  0.00    -0.000 C 
BRANCH  25  26
ATOM     26  C   UNL     1       8.003   3.432  -7.826  1.00  0.00    -0.000 C 
BRANCH  26  27
ATOM     27  C   UNL     1       8.066   1.950  -7.428  1.00  0.00    -0.000 C 
BRANCH  27  28
ATOM     28  C   UNL     1       9.008   1.134  -8.327  1.00  0.00    -0.000 C 
BRANCH  28  29
ATOM     29  C   UNL     1       8.581  -0.336  -8.449  1.00  0.00    -0.003 C 
ATOM     30  C   UNL     1       7.428  -0.492  -9.435  1.00  0.00     0.004 C 
ENDBRANCH  28  29
ENDBRANCH  27  28
ENDBRANCH  26  27
ENDBRANCH  25  26
ENDBRANCH  24  25
ENDBRANCH  23  24
ENDBRANCH  22  23
ENDBRANCH  21  22
ENDBRANCH  20  21
ENDBRANCH  19  20
ENDBRANCH  18  19
ENDBRANCH  17  18
ENDBRANCH   1  17
TORSDOF 26
ENDMDL
MODEL 7
REMARK VINA RESULT:    -2.888      5.671     10.180
REMARK INTER + INTRA:         -11.913
REMARK INTER:                  -7.696
REMARK INTRA:                  -4.216
REMARK UNBOUND:                -4.636
REMARK SMILES CCCCCCCCCCCCCCCCCCCCCCCCCCCC(=O)[O-]
REMARK SMILES IDX 15 1 16 2 17 3 18 4 19 5 20 6 21 7 22 8 23 9 24 10 25 11
REMARK SMILES IDX 26 12 27 13 28 14 29 15 30 16 14 17 13 18 12 19 11 20 10 21
REMARK SMILES IDX 9 22 8 23 7 24 6 25 5 26 4 27 3 28 2 29 1 30
REMARK H PARENT
REMARK Flexibility Score: inf
ROOT
ATOM      1  C   UNL     1       4.860  -0.519  -5.336  1.00  0.00     0.000 C 
ENDROOT
BRANCH   1   2
ATOM      2  C   UNL     1       4.138   0.648  -6.032  1.00  0.00     0.000 C 
BRANCH   2   3
ATOM      3  C   UNL     1       5.074   1.824  -6.353  1.00  0.00     0.000 C 
BRANCH   3   4
ATOM      4  C   UNL     1       4.367   2.943  -7.143  1.00  0.00     0.000 C 
BRANCH   4   5
ATOM      5  C   UNL     1       3.950   2.507  -8.564  1.00  0.00     0.000 C 
BRANCH   5   6
ATOM      6  C   UNL     1       4.585   3.340  -9.694  1.00  0.00     0.000 C 
BRANCH   6   7
ATOM      7  C   UNL     1       4.929   4.794  -9.326  1.00  0.00     0.000 C 
BRANCH   7   8
ATOM      8  C   UNL     1       6.396   5.154  -9.607  1.00  0.00     0.000 C 
BRANCH   8   9
ATOM      9  C   UNL     1       6.728   6.561  -9.087  1.00  0.00     0.000 C 
BRANCH   9  10
ATOM     10  C   UNL     1       5.769   7.025  -7.976  1.00  0.00     0.000 C 
BRANCH  10  11
ATOM     11  C   UNL     1       5.468   8.536  -7.961  1.00  0.00     0.000 C 
BRANCH  11  12
ATOM     12  C   UNL     1       4.127   8.929  -7.308  1.00  0.00     0.006 C 
BRANCH  12  13
ATOM     13  C   UNL     1       4.257   9.908  -6.131  1.00  0.00     0.053 C 
BRANCH  13  14
ATOM     14  C   UNL     1       4.232   9.202  -4.810  1.00  0.00     0.041 C 
ATOM     15  O   UNL     1       4.098   7.949  -4.762  1.00  0.00    -0.550 OA
ATOM     16  O   UNL     1       4.398   9.925  -3.634  1.00  0.00    -0.550 OA
ENDBRANCH  13  14
ENDBRANCH  12  13
ENDBRANCH  11  12
ENDBRANCH  10  11
ENDBRANCH   9  10
ENDBRANCH   8   9
ENDBRANCH   7   8
ENDBRANCH   6   7
ENDBRANCH   5   6
ENDBRANCH   4   5
ENDBRANCH   3   4
ENDBRANCH   2   3
ENDBRANCH   1   2
BRANCH   1  17
ATOM     17  C   UNL     1       6.362  -0.564  -5.662  1.00  0.00     0.000 C 
BRANCH  17  18
ATOM     18  C   UNL     1       6.882  -1.997  -5.863  1.00  0.00     0.000 C 
BRANCH  18  19
ATOM     19  C   UNL     1       5.797  -3.058  -5.614  1.00  0.00     0.000 C 
BRANCH  19  20
ATOM     20  C   UNL     1       6.192  -4.443  -6.160  1.00  0.00     0.000 C 
BRANCH  20  21
ATOM     21  C   UNL     1       6.434  -4.427  -7.679  1.00  0.00     0.000 C 
BRANCH  21  22
ATOM     22  C   UNL     1       5.136  -4.245  -8.484  1.00  0.00    -0.000 C 
BRANCH  22  23
ATOM     23  C   UNL     1       5.308  -3.263  -9.662  1.00  0.00    -0.000 C 
BRANCH  23  24
ATOM     24  C   UNL     1       5.364  -1.783  -9.240  1.00  0.00    -0.000 C 
BRANCH  24  25
ATOM     25  C   UNL     1       6.693  -1.104  -9.601  1.00  0.00    -0.000 C 
BRANCH  25  26
ATOM     26  C   UNL     1       6.698   0.369  -9.170  1.00  0.00    -0.000 C 
BRANCH  26  27
ATOM     27  C   UNL     1       7.579   1.209 -10.107  1.00  0.00    -0.000 C 
BRANCH  27  28
ATOM     28  C   UNL     1       8.639   2.025  -9.352  1.00  0.00    -0.000 C 
BRANCH  28  29
ATOM     29  C   UNL     1       8.188   2.411  -7.935  1.00  0.00    -0.003 C 
ATOM     30  C   UNL     1       9.102   1.792  -6.882  1.00  0.00     0.004 C 
ENDBRANCH  28  29
ENDBRANCH  27  28
ENDBRANCH  26  27
ENDBRANCH  25  26
ENDBRANCH  24  25
ENDBRANCH  23  24
ENDBRANCH  22  23
ENDBRANCH  21  22
ENDBRANCH  20  21
ENDBRANCH  19  20
ENDBRANCH  18  19
ENDBRANCH  17  18
ENDBRANCH   1  17
TORSDOF 26
ENDMDL
MODEL 8
REMARK VINA RESULT:    -2.860      1.890      3.848
REMARK INTER + INTRA:         -11.843
REMARK INTER:                  -8.084
REMARK INTRA:                  -3.759
REMARK UNBOUND:                -4.636
REMARK SMILES CCCCCCCCCCCCCCCCCCCCCCCCCCCC(=O)[O-]
REMARK SMILES IDX 15 1 16 2 17 3 18 4 19 5 20 6 21 7 22 8 23 9 24 10 25 11
REMARK SMILES IDX 26 12 27 13 28 14 29 15 30 16 14 17 13 18 12 19 11 20 10 21
REMARK SMILES IDX 9 22 8 23 7 24 6 25 5 26 4 27 3 28 2 29 1 30
REMARK H PARENT
REMARK Flexibility Score: inf
ROOT
ATOM      1  C   UNL     1       5.251   0.750  -5.071  1.00  0.00     0.000 C 
ENDROOT
BRANCH   1   2
ATOM      2  C   UNL     1       6.344  -0.190  -5.608  1.00  0.00     0.000 C 
BRANCH   2   3
ATOM      3  C   UNL     1       5.814  -1.592  -5.944  1.00  0.00     0.000 C 
BRANCH   3   4
ATOM      4  C   UNL     1       6.812  -2.707  -5.571  1.00  0.00     0.000 C 
BRANCH   4   5
ATOM      5  C   UNL     1       6.212  -4.123  -5.705  1.00  0.00     0.000 C 
BRANCH   5   6
ATOM      6  C   UNL     1       7.246  -5.221  -6.021  1.00  0.00     0.000 C 
BRANCH   6   7
ATOM      7  C   UNL     1       7.649  -5.339  -7.502  1.00  0.00     0.000 C 
BRANCH   7   8
ATOM      8  C   UNL     1       9.171  -5.380  -7.709  1.00  0.00     0.000 C 
BRANCH   8   9
ATOM      9  C   UNL     1       9.828  -6.399  -6.766  1.00  0.00     0.000 C 
BRANCH   9  10
ATOM     10  C   UNL     1      10.036  -7.773  -7.428  1.00  0.00     0.000 C 
BRANCH  10  11
ATOM     11  C   UNL     1       8.820  -8.718  -7.368  1.00  0.00     0.000 C 
BRANCH  11  12
ATOM     12  C   UNL     1       8.180  -8.872  -5.973  1.00  0.00     0.006 C 
BRANCH  12  13
ATOM     13  C   UNL     1       9.169  -9.246  -4.858  1.00  0.00     0.053 C 
BRANCH  13  14
ATOM     14  C   UNL     1       8.767  -8.669  -3.535  1.00  0.00     0.041 C 
ATOM     15  O   UNL     1       8.940  -9.330  -2.476  1.00  0.00    -0.550 OA
ATOM     16  O   UNL     1       8.237  -7.385  -3.471  1.00  0.00    -0.550 OA
ENDBRANCH  13  14
ENDBRANCH  12  13
ENDBRANCH  11  12
ENDBRANCH  10  11
ENDBRANCH   9  10
ENDBRANCH   8   9
ENDBRANCH   7   8
ENDBRANCH   6   7
ENDBRANCH   5   6
ENDBRANCH   4   5
ENDBRANCH   3   4
ENDBRANCH   2   3
ENDBRANCH   1   2
BRANCH   1  17
ATOM     17  C   UNL     1       4.015   0.805  -5.984  1.00  0.00     0.000 C 
BRANCH  17  18
ATOM     18  C   UNL     1       3.887   2.144  -6.728  1.00  0.00     0.000 C 
BRANCH  18  19
ATOM     19  C   UNL     1       4.641   2.150  -8.068  1.00  0.00     0.000 C 
BRANCH  19  20
ATOM     20  C   UNL     1       3.977   1.244  -9.121  1.00  0.00     0.000 C 
BRANCH  20  21
ATOM     21  C   UNL     1       5.004   0.433  -9.930  1.00  0.00     0.000 C 
BRANCH  21  22
ATOM     22  C   UNL     1       6.372   0.345  -9.231  1.00  0.00    -0.000 C 
BRANCH  22  23
ATOM     23  C   UNL     1       7.307  -0.687  -9.897  1.00  0.00    -0.000 C 
BRANCH  23  24
ATOM     24  C   UNL     1       7.186  -2.107  -9.315  1.00  0.00    -0.000 C 
BRANCH  24  25
ATOM     25  C   UNL     1       6.184  -2.987 -10.076  1.00  0.00    -0.000 C 
BRANCH  25  26
ATOM     26  C   UNL     1       4.995  -3.372  -9.185  1.00  0.00    -0.000 C 
BRANCH  26  27
ATOM     27  C   UNL     1       4.515  -4.797  -9.502  1.00  0.00    -0.000 C 
BRANCH  27  28
ATOM     28  C   UNL     1       3.006  -4.865  -9.784  1.00  0.00    -0.000 C 
BRANCH  28  29
ATOM     29  C   UNL     1       2.291  -5.917  -8.924  1.00  0.00    -0.003 C 
ATOM     30  C   UNL     1       0.789  -5.911  -9.188  1.00  0.00     0.004 C 
ENDBRANCH  28  29
ENDBRANCH  27  28
ENDBRANCH  26  27
ENDBRANCH  25  26
ENDBRANCH  24  25
ENDBRANCH  23  24
ENDBRANCH  22  23
ENDBRANCH  21  22
ENDBRANCH  20  21
ENDBRANCH  19  20
ENDBRANCH  18  19
ENDBRANCH  17  18
ENDBRANCH   1  17
TORSDOF 26
ENDMDL
MODEL 9
REMARK VINA RESULT:    -2.859      5.080      9.353
REMARK INTER + INTRA:         -11.841
REMARK INTER:                  -7.573
REMARK INTRA:                  -4.268
REMARK UNBOUND:                -4.636
REMARK SMILES CCCCCCCCCCCCCCCCCCCCCCCCCCCC(=O)[O-]
REMARK SMILES IDX 15 1 16 2 17 3 18 4 19 5 20 6 21 7 22 8 23 9 24 10 25 11
REMARK SMILES IDX 26 12 27 13 28 14 29 15 30 16 14 17 13 18 12 19 11 20 10 21
REMARK SMILES IDX 9 22 8 23 7 24 6 25 5 26 4 27 3 28 2 29 1 30
REMARK H PARENT
REMARK Flexibility Score: inf
ROOT
ATOM      1  C   UNL     1       4.515   0.308  -5.630  1.00  0.00     0.000 C 
ENDROOT
BRANCH   1   2
ATOM      2  C   UNL     1       4.671   1.800  -5.970  1.00  0.00     0.000 C 
BRANCH   2   3
ATOM      3  C   UNL     1       3.832   2.228  -7.185  1.00  0.00     0.000 C 
BRANCH   3   4
ATOM      4  C   UNL     1       3.910   1.213  -8.343  1.00  0.00     0.000 C 
BRANCH   4   5
ATOM      5  C   UNL     1       4.716   1.738  -9.550  1.00  0.00     0.000 C 
BRANCH   5   6
ATOM      6  C   UNL     1       5.587   2.972  -9.242  1.00  0.00     0.000 C 
BRANCH   6   7
ATOM      7  C   UNL     1       7.097   2.701  -9.130  1.00  0.00     0.000 C 
BRANCH   7   8
ATOM      8  C   UNL     1       7.687   3.134  -7.779  1.00  0.00     0.000 C 
BRANCH   8   9
ATOM      9  C   UNL     1       9.159   3.545  -7.927  1.00  0.00     0.000 C 
BRANCH   9  10
ATOM     10  C   UNL     1       9.342   4.794  -8.807  1.00  0.00     0.000 C 
BRANCH  10  11
ATOM     11  C   UNL     1       8.755   6.095  -8.225  1.00  0.00     0.000 C 
BRANCH  11  12
ATOM     12  C   UNL     1       7.428   6.556  -8.862  1.00  0.00     0.006 C 
BRANCH  12  13
ATOM     13  C   UNL     1       6.858   7.855  -8.273  1.00  0.00     0.053 C 
BRANCH  13  14
ATOM     14  C   UNL     1       5.369   7.794  -8.119  1.00  0.00     0.041 C 
ATOM     15  O   UNL     1       4.656   7.297  -9.033  1.00  0.00    -0.550 OA
ATOM     16  O   UNL     1       4.773   8.250  -6.949  1.00  0.00    -0.550 OA
ENDBRANCH  13  14
ENDBRANCH  12  13
ENDBRANCH  11  12
ENDBRANCH  10  11
ENDBRANCH   9  10
ENDBRANCH   8   9
ENDBRANCH   7   8
ENDBRANCH   6   7
ENDBRANCH   5   6
ENDBRANCH   4   5
ENDBRANCH   3   4
ENDBRANCH   2   3
ENDBRANCH   1   2
BRANCH   1  17
ATOM     17  C   UNL     1       5.859  -0.374  -5.328  1.00  0.00     0.000 C 
BRANCH  17  18
ATOM     18  C   UNL     1       6.969   0.047  -6.305  1.00  0.00     0.000 C 
BRANCH  18  19
ATOM     19  C   UNL     1       7.493  -1.130  -7.145  1.00  0.00     0.000 C 
BRANCH  19  20
ATOM     20  C   UNL     1       6.894  -1.153  -8.564  1.00  0.00     0.000 C 
BRANCH  20  21
ATOM     21  C   UNL     1       5.509  -1.823  -8.605  1.00  0.00     0.000 C 
BRANCH  21  22
ATOM     22  C   UNL     1       5.547  -3.223  -9.241  1.00  0.00    -0.000 C 
BRANCH  22  23
ATOM     23  C   UNL     1       6.966  -3.829  -9.242  1.00  0.00    -0.000 C 
BRANCH  23  24
ATOM     24  C   UNL     1       6.990  -5.368  -9.201  1.00  0.00    -0.000 C 
BRANCH  24  25
ATOM     25  C   UNL     1       8.192  -5.931  -8.428  1.00  0.00    -0.000 C 
BRANCH  25  26
ATOM     26  C   UNL     1       8.361  -5.225  -7.075  1.00  0.00    -0.000 C 
BRANCH  26  27
ATOM     27  C   UNL     1       7.998  -6.168  -5.918  1.00  0.00    -0.000 C 
BRANCH  27  28
ATOM     28  C   UNL     1       7.156  -5.479  -4.834  1.00  0.00    -0.000 C 
BRANCH  28  29
ATOM     29  C   UNL     1       6.794  -4.032  -5.198  1.00  0.00    -0.003 C 
ATOM     30  C   UNL     1       5.330  -3.921  -5.610  1.00  0.00     0.004 C 
ENDBRANCH  28  29
ENDBRANCH  27  28
ENDBRANCH  26  27
ENDBRANCH  25  26
ENDBRANCH  24  25
ENDBRANCH  23  24
ENDBRANCH  22  23
ENDBRANCH  21  22
ENDBRANCH  20  21
ENDBRANCH  19  20
ENDBRANCH  18  19
ENDBRANCH  17  18
ENDBRANCH   1  17
TORSDOF 26
ENDMDL
