MODEL 1
REMARK VINA RESULT:    62.206      0.000      0.000
REMARK INTER + INTRA:          84.473
REMARK INTER:                  82.207
REMARK INTRA:                   2.266
REMARK UNBOUND:                 2.266
REMARK SMILES CC[C@H](C=C[C@@H](C)[C@H]1CC[C@H]2C3=CC[C@H]4C[C@@H](O)CC[C@@]4(C)[C@@H]3CC[C@@]12C)C(C)C
REMARK SMILES IDX 6 1 7 2 5 3 4 4 3 5 2 6 1 7 28 8 29 9 30 10 8 11 9 12 26 13
REMARK SMILES IDX 10 14 11 15 25 16 27 17 12 18 24 19 23 20 13 21 21 22 14 23
REMARK SMILES IDX 15 24 20 25 22 26 16 27 19 28 17 29 18 30
REMARK H PARENT 18 31
REMARK Flexibility Score: inf
ROOT
ATOM      1  C   UNL     1     -30.844  24.135   6.808  1.00  0.00     0.012 C 
ATOM      2  C   UNL     1     -31.418  24.693   8.122  1.00  0.00     0.012 C 
ENDROOT
BRANCH   1   3
ATOM      3  C   UNL     1     -29.653  24.971   6.381  1.00  0.00    -0.028 C 
ATOM      4  C   UNL     1     -28.767  25.471   7.259  1.00  0.00    -0.027 C 
BRANCH   4   5
ATOM      5  C   UNL     1     -27.572  26.291   6.814  1.00  0.00     0.014 C 
BRANCH   5   6
ATOM      6  C   UNL     1     -26.551  25.338   6.126  1.00  0.00     0.004 C 
ATOM      7  C   UNL     1     -25.318  26.073   5.594  1.00  0.00     0.004 C 
ENDBRANCH   5   6
BRANCH   5   8
ATOM      8  C   UNL     1     -28.043  27.454   5.883  1.00  0.00    -0.011 C 
ATOM      9  C   UNL     1     -29.571  27.481   5.714  1.00  0.00     0.008 C 
ATOM     10  C   UNL     1     -27.391  27.360   4.489  1.00  0.00     0.008 C 
ENDBRANCH   5   8
ENDBRANCH   4   5
ENDBRANCH   1   3
BRANCH   1  11
ATOM     11  C   UNL     1     -31.898  24.048   5.654  1.00  0.00     0.002 C 
ATOM     12  C   UNL     1     -32.078  22.599   5.160  1.00  0.00     0.005 C 
ATOM     13  C   UNL     1     -33.347  24.555   5.941  1.00  0.00    -0.023 C 
ATOM     14  C   UNL     1     -33.508  22.471   4.646  1.00  0.00     0.009 C 
ATOM     15  C   UNL     1     -34.163  23.838   4.841  1.00  0.00     0.021 C 
ATOM     16  C   UNL     1     -33.839  24.129   7.356  1.00  0.00     0.008 C 
ATOM     17  C   UNL     1     -33.467  26.091   5.751  1.00  0.00     0.012 C 
ATOM     18  C   UNL     1     -35.660  23.718   5.112  1.00  0.00    -0.067 C 
ATOM     19  C   UNL     1     -35.345  24.326   7.538  1.00  0.00     0.009 C 
ATOM     20  C   UNL     1     -36.145  23.462   6.537  1.00  0.00     0.021 C 
ATOM     21  C   UNL     1     -36.481  23.567   4.049  1.00  0.00    -0.027 C 
ATOM     22  C   UNL     1     -37.711  23.596   6.696  1.00  0.00    -0.023 C 
ATOM     23  C   UNL     1     -37.969  23.384   4.155  1.00  0.00     0.031 C 
ATOM     24  C   UNL     1     -38.422  22.846   5.525  1.00  0.00     0.002 C 
ATOM     25  C   UNL     1     -38.220  22.985   8.039  1.00  0.00     0.010 C 
ATOM     26  C   UNL     1     -38.139  25.090   6.676  1.00  0.00     0.012 C 
ATOM     27  C   UNL     1     -38.232  21.313   5.604  1.00  0.00     0.036 C 
ATOM     28  C   UNL     1     -38.064  21.459   8.124  1.00  0.00     0.032 C 
ATOM     29  C   UNL     1     -38.743  20.757   6.943  1.00  0.00     0.114 C 
BRANCH  29  30
ATOM     30  O   UNL     1     -38.482  19.381   7.019  1.00  0.00    -0.393 OA
ATOM     31  H   UNL     1     -37.526  19.256   6.778  1.00  0.00     0.210 HD
ENDBRANCH  29  30
ENDBRANCH   1  11
TORSDOF 6
ENDMDL
