MODEL 1
REMARK VINA RESULT:    -7.411      0.000      0.000
REMARK INTER + INTRA:          -7.659
REMARK INTER:                  -8.061
REMARK INTRA:                   0.402
REMARK UNBOUND:                 0.402
REMARK SMILES C[C@@H]1[C@@H](C)CC[C@]2(C(=O)[O-])CC[C@]3(C)C(=CC[C@H]4[C@@]5(C)CC[C@H](O)C(C)(C)[C@H]5CC[C@]43C)[C@@H]12
REMARK SMILES IDX 7 1 6 2 11 3 33 4 5 5 12 6 15 7 2 8 3 9 13 10 16 11 1 12
REMARK SMILES IDX 4 13 14 14 31 15 17 16 18 17 30 18 32 19 19 20 29 21 28 22
REMARK SMILES IDX 21 23 20 24 25 25 22 26 23 27 26 28 27 29 8 30 9 31 10 32
REMARK SMILES IDX 24 33
REMARK H PARENT 24 34
REMARK Flexibility Score: inf
ROOT
ATOM      1  C   UNL     1     -11.362  37.250 159.920  1.00  0.00     0.017 C 
ATOM      2  C   UNL     1     -12.563  37.266 158.942  1.00  0.00     0.014 C 
ATOM      3  C   UNL     1     -11.575  36.082 160.931  1.00  0.00     0.014 C 
ATOM      4  C   UNL     1     -11.339  38.577 160.742  1.00  0.00     0.030 C 
ATOM      5  C   UNL     1     -12.596  38.520 158.063  1.00  0.00     0.004 C 
ATOM      6  C   UNL     1     -10.545  36.057 162.091  1.00  0.00     0.013 C 
ATOM      7  C   UNL     1     -10.201  38.480 161.773  1.00  0.00    -0.063 C 
ATOM      8  C   UNL     1     -11.423  39.883 159.879  1.00  0.00    -0.003 C 
ATOM      9  C   UNL     1     -12.642  39.809 158.910  1.00  0.00    -0.011 C 
ATOM     10  C   UNL     1     -10.364  37.416 162.872  1.00  0.00    -0.006 C 
ATOM     11  C   UNL     1      -8.992  38.974 161.457  1.00  0.00    -0.027 C 
ATOM     12  C   UNL     1     -11.529  41.120 160.795  1.00  0.00     0.008 C 
ATOM     13  C   UNL     1     -12.715  41.026 157.971  1.00  0.00     0.008 C 
ATOM     14  C   UNL     1     -11.680  37.717 163.669  1.00  0.00     0.017 C 
ATOM     15  C   UNL     1      -9.111  37.354 163.905  1.00  0.00    -0.020 C 
ATOM     16  C   UNL     1      -7.769  38.798 162.286  1.00  0.00     0.032 C 
ATOM     17  C   UNL     1      -7.736  37.513 163.159  1.00  0.00     0.006 C 
ATOM     18  C   UNL     1      -9.195  38.507 164.965  1.00  0.00     0.008 C 
ATOM     19  C   UNL     1      -9.180  35.968 164.639  1.00  0.00     0.012 C 
ATOM     20  C   UNL     1      -6.426  37.427 164.120  1.00  0.00    -0.025 C 
ATOM     21  C   UNL     1      -7.860  39.002 165.586  1.00  0.00     0.005 C 
ATOM     22  C   UNL     1      -6.726  37.944 165.605  1.00  0.00     0.003 C 
ATOM     23  C   UNL     1      -5.232  38.235 163.489  1.00  0.00     0.010 C 
ATOM     24  C   UNL     1      -5.982  35.926 164.162  1.00  0.00     0.012 C 
ATOM     25  C   UNL     1      -5.458  38.349 166.495  1.00  0.00    -0.006 C 
ATOM     26  C   UNL     1      -4.016  38.424 164.391  1.00  0.00     0.033 C 
ATOM     27  C   UNL     1      -4.418  39.156 165.671  1.00  0.00     0.120 C 
ATOM     28  C   UNL     1      -4.798  37.077 167.111  1.00  0.00     0.014 C 
ATOM     29  C   UNL     1      -5.863  39.219 167.718  1.00  0.00     0.014 C 
ENDROOT
BRANCH   1  30
ATOM     30  C   UNL     1     -10.075  37.009 159.127  1.00  0.00     0.048 C 
ATOM     31  O   UNL     1      -9.497  35.890 159.149  1.00  0.00    -0.550 OA
ATOM     32  O   UNL     1      -9.458  38.050 158.440  1.00  0.00    -0.550 OA
ENDBRANCH   1  30
BRANCH  27  33
ATOM     33  O   UNL     1      -3.266  39.407 166.440  1.00  0.00    -0.393 OA
ATOM     34  H   UNL     1      -2.612  39.868 165.850  1.00  0.00     0.210 HD
ENDBRANCH  27  33
TORSDOF 2
ENDMDL
MODEL 2
REMARK VINA RESULT:    -6.610      5.367      8.178
REMARK INTER + INTRA:          -6.788
REMARK INTER:                  -7.191
REMARK INTRA:                   0.404
REMARK UNBOUND:                 0.402
REMARK SMILES C[C@@H]1[C@@H](C)CC[C@]2(C(=O)[O-])CC[C@]3(C)C(=CC[C@H]4[C@@]5(C)CC[C@H](O)C(C)(C)[C@H]5CC[C@]43C)[C@@H]12
REMARK SMILES IDX 7 1 6 2 11 3 33 4 5 5 12 6 15 7 2 8 3 9 13 10 16 11 1 12
REMARK SMILES IDX 4 13 14 14 31 15 17 16 18 17 30 18 32 19 19 20 29 21 28 22
REMARK SMILES IDX 21 23 20 24 25 25 22 26 23 27 26 28 27 29 8 30 9 31 10 32
REMARK SMILES IDX 24 33
REMARK H PARENT 24 34
REMARK Flexibility Score: inf
ROOT
ATOM      1  C   UNL     1      -5.668  38.532 165.383  1.00  0.00     0.017 C 
ATOM      2  C   UNL     1      -6.649  39.704 165.133  1.00  0.00     0.014 C 
ATOM      3  C   UNL     1      -5.048  38.117 164.013  1.00  0.00     0.014 C 
ATOM      4  C   UNL     1      -6.454  37.298 165.929  1.00  0.00     0.030 C 
ATOM      5  C   UNL     1      -7.508  40.031 166.359  1.00  0.00     0.004 C 
ATOM      6  C   UNL     1      -4.184  36.829 164.076  1.00  0.00     0.013 C 
ATOM      7  C   UNL     1      -5.467  36.125 166.064  1.00  0.00    -0.063 C 
ATOM      8  C   UNL     1      -7.383  37.605 167.153  1.00  0.00    -0.003 C 
ATOM      9  C   UNL     1      -8.322  38.807 166.828  1.00  0.00    -0.011 C 
ATOM     10  C   UNL     1      -4.870  35.581 164.755  1.00  0.00    -0.006 C 
ATOM     11  C   UNL     1      -4.859  35.917 167.244  1.00  0.00    -0.027 C 
ATOM     12  C   UNL     1      -8.208  36.354 167.522  1.00  0.00     0.008 C 
ATOM     13  C   UNL     1      -9.191  39.211 168.032  1.00  0.00     0.008 C 
ATOM     14  C   UNL     1      -6.043  35.091 163.836  1.00  0.00     0.017 C 
ATOM     15  C   UNL     1      -3.817  34.364 164.979  1.00  0.00    -0.020 C 
ATOM     16  C   UNL     1      -3.767  34.932 167.465  1.00  0.00     0.032 C 
ATOM     17  C   UNL     1      -2.888  34.622 166.221  1.00  0.00     0.006 C 
ATOM     18  C   UNL     1      -4.565  33.010 165.238  1.00  0.00     0.008 C 
ATOM     19  C   UNL     1      -2.960  34.242 163.670  1.00  0.00     0.012 C 
ATOM     20  C   UNL     1      -1.779  33.465 166.494  1.00  0.00    -0.025 C 
ATOM     21  C   UNL     1      -3.819  31.933 166.073  1.00  0.00     0.005 C 
ATOM     22  C   UNL     1      -2.272  32.022 166.006  1.00  0.00     0.003 C 
ATOM     23  C   UNL     1      -1.395  33.425 168.020  1.00  0.00     0.010 C 
ATOM     24  C   UNL     1      -0.484  33.873 165.715  1.00  0.00     0.012 C 
ATOM     25  C   UNL     1      -1.509  30.756 166.621  1.00  0.00    -0.006 C 
ATOM     26  C   UNL     1      -0.536  32.241 168.452  1.00  0.00     0.033 C 
ATOM     27  C   UNL     1      -1.253  30.928 168.143  1.00  0.00     0.120 C 
ATOM     28  C   UNL     1      -0.167  30.511 165.865  1.00  0.00     0.014 C 
ATOM     29  C   UNL     1      -2.319  29.442 166.427  1.00  0.00     0.014 C 
ENDROOT
BRANCH   1  30
ATOM     30  C   UNL     1      -4.556  39.004 166.323  1.00  0.00     0.048 C 
ATOM     31  O   UNL     1      -4.715  39.002 167.572  1.00  0.00    -0.550 OA
ATOM     32  O   UNL     1      -3.376  39.539 165.814  1.00  0.00    -0.550 OA
ENDBRANCH   1  30
BRANCH  27  33
ATOM     33  O   UNL     1      -0.487  29.855 168.639  1.00  0.00    -0.393 OA
ATOM     34  H   UNL     1       0.087  29.534 167.894  1.00  0.00     0.210 HD
ENDBRANCH  27  33
TORSDOF 2
ENDMDL
MODEL 3
REMARK VINA RESULT:    -6.402      5.001     10.479
REMARK INTER + INTRA:          -6.562
REMARK INTER:                  -6.953
REMARK INTRA:                   0.391
REMARK UNBOUND:                 0.402
REMARK SMILES C[C@@H]1[C@@H](C)CC[C@]2(C(=O)[O-])CC[C@]3(C)C(=CC[C@H]4[C@@]5(C)CC[C@H](O)C(C)(C)[C@H]5CC[C@]43C)[C@@H]12
REMARK SMILES IDX 7 1 6 2 11 3 33 4 5 5 12 6 15 7 2 8 3 9 13 10 16 11 1 12
REMARK SMILES IDX 4 13 14 14 31 15 17 16 18 17 30 18 32 19 19 20 29 21 28 22
REMARK SMILES IDX 21 23 20 24 25 25 22 26 23 27 26 28 27 29 8 30 9 31 10 32
REMARK SMILES IDX 24 33
REMARK H PARENT 24 34
REMARK Flexibility Score: inf
ROOT
ATOM      1  C   UNL     1      -0.786  32.133 167.821  1.00  0.00     0.017 C 
ATOM      2  C   UNL     1       0.098  30.947 168.281  1.00  0.00     0.014 C 
ATOM      3  C   UNL     1      -1.683  32.563 169.023  1.00  0.00     0.014 C 
ATOM      4  C   UNL     1      -1.739  31.663 166.677  1.00  0.00     0.030 C 
ATOM      5  C   UNL     1       0.837  30.274 167.120  1.00  0.00     0.004 C 
ATOM      6  C   UNL     1      -2.759  33.621 168.659  1.00  0.00     0.013 C 
ATOM      7  C   UNL     1      -2.672  32.834 166.321  1.00  0.00    -0.063 C 
ATOM      8  C   UNL     1      -1.024  30.923 165.494  1.00  0.00    -0.003 C 
ATOM      9  C   UNL     1      -0.141  29.762 166.041  1.00  0.00    -0.011 C 
ATOM     10  C   UNL     1      -3.662  33.274 167.413  1.00  0.00    -0.006 C 
ATOM     11  C   UNL     1      -2.325  33.663 165.323  1.00  0.00    -0.027 C 
ATOM     12  C   UNL     1      -2.070  30.388 164.492  1.00  0.00     0.008 C 
ATOM     13  C   UNL     1       0.658  29.062 164.928  1.00  0.00     0.008 C 
ATOM     14  C   UNL     1      -4.577  32.053 167.780  1.00  0.00     0.017 C 
ATOM     15  C   UNL     1      -4.593  34.532 166.976  1.00  0.00    -0.020 C 
ATOM     16  C   UNL     1      -3.044  34.922 164.987  1.00  0.00     0.032 C 
ATOM     17  C   UNL     1      -3.773  35.609 166.175  1.00  0.00     0.006 C 
ATOM     18  C   UNL     1      -5.771  34.068 166.050  1.00  0.00     0.008 C 
ATOM     19  C   UNL     1      -5.181  35.156 168.290  1.00  0.00     0.012 C 
ATOM     20  C   UNL     1      -4.625  36.920 165.729  1.00  0.00    -0.025 C 
ATOM     21  C   UNL     1      -6.344  35.111 165.052  1.00  0.00     0.005 C 
ATOM     22  C   UNL     1      -6.174  36.588 165.494  1.00  0.00     0.003 C 
ATOM     23  C   UNL     1      -4.000  37.565 164.437  1.00  0.00     0.010 C 
ATOM     24  C   UNL     1      -4.479  37.977 166.875  1.00  0.00     0.012 C 
ATOM     25  C   UNL     1      -7.010  37.641 164.623  1.00  0.00    -0.006 C 
ATOM     26  C   UNL     1      -4.830  38.665 163.783  1.00  0.00     0.033 C 
ATOM     27  C   UNL     1      -6.204  38.127 163.388  1.00  0.00     0.120 C 
ATOM     28  C   UNL     1      -7.442  38.853 165.505  1.00  0.00     0.014 C 
ATOM     29  C   UNL     1      -8.343  37.032 164.103  1.00  0.00     0.014 C 
ENDROOT
BRANCH   1  30
ATOM     30  C   UNL     1       0.116  33.301 167.415  1.00  0.00     0.048 C 
ATOM     31  O   UNL     1       0.125  34.375 168.072  1.00  0.00    -0.550 OA
ATOM     32  O   UNL     1       0.875  33.240 166.250  1.00  0.00    -0.550 OA
ENDBRANCH   1  30
BRANCH  27  33
ATOM     33  O   UNL     1      -6.913  39.129 162.699  1.00  0.00    -0.393 OA
ATOM     34  H   UNL     1      -7.582  38.674 162.124  1.00  0.00     0.210 HD
ENDBRANCH  27  33
TORSDOF 2
ENDMDL
MODEL 4
REMARK VINA RESULT:    -6.009      4.917      8.996
REMARK INTER + INTRA:          -6.134
REMARK INTER:                  -6.496
REMARK INTRA:                   0.361
REMARK UNBOUND:                 0.402
REMARK SMILES C[C@@H]1[C@@H](C)CC[C@]2(C(=O)[O-])CC[C@]3(C)C(=CC[C@H]4[C@@]5(C)CC[C@H](O)C(C)(C)[C@H]5CC[C@]43C)[C@@H]12
REMARK SMILES IDX 7 1 6 2 11 3 33 4 5 5 12 6 15 7 2 8 3 9 13 10 16 11 1 12
REMARK SMILES IDX 4 13 14 14 31 15 17 16 18 17 30 18 32 19 19 20 29 21 28 22
REMARK SMILES IDX 21 23 20 24 25 25 22 26 23 27 26 28 27 29 8 30 9 31 10 32
REMARK SMILES IDX 24 33
REMARK H PARENT 24 34
REMARK Flexibility Score: inf
ROOT
ATOM      1  C   UNL     1      -1.962  31.521 165.124  1.00  0.00     0.017 C 
ATOM      2  C   UNL     1      -1.209  30.252 164.655  1.00  0.00     0.014 C 
ATOM      3  C   UNL     1      -3.025  31.091 166.181  1.00  0.00     0.014 C 
ATOM      4  C   UNL     1      -2.733  32.148 163.920  1.00  0.00     0.030 C 
ATOM      5  C   UNL     1      -0.317  30.509 163.436  1.00  0.00     0.004 C 
ATOM      6  C   UNL     1      -3.988  32.231 166.607  1.00  0.00     0.013 C 
ATOM      7  C   UNL     1      -3.552  33.340 164.446  1.00  0.00    -0.063 C 
ATOM      8  C   UNL     1      -1.864  32.379 162.636  1.00  0.00    -0.003 C 
ATOM      9  C   UNL     1      -1.125  31.063 162.244  1.00  0.00    -0.011 C 
ATOM     10  C   UNL     1      -4.690  33.008 165.426  1.00  0.00    -0.006 C 
ATOM     11  C   UNL     1      -3.017  34.572 164.393  1.00  0.00    -0.027 C 
ATOM     12  C   UNL     1      -2.752  32.872 161.474  1.00  0.00     0.008 C 
ATOM     13  C   UNL     1      -0.182  31.259 161.044  1.00  0.00     0.008 C 
ATOM     14  C   UNL     1      -5.696  32.038 164.715  1.00  0.00     0.017 C 
ATOM     15  C   UNL     1      -5.489  34.318 165.960  1.00  0.00    -0.020 C 
ATOM     16  C   UNL     1      -3.624  35.779 165.015  1.00  0.00     0.032 C 
ATOM     17  C   UNL     1      -4.511  35.512 166.262  1.00  0.00     0.006 C 
ATOM     18  C   UNL     1      -6.518  34.826 164.890  1.00  0.00     0.008 C 
ATOM     19  C   UNL     1      -6.259  33.897 167.260  1.00  0.00     0.012 C 
ATOM     20  C   UNL     1      -5.230  36.853 166.835  1.00  0.00    -0.025 C 
ATOM     21  C   UNL     1      -6.882  36.336 164.914  1.00  0.00     0.005 C 
ATOM     22  C   UNL     1      -6.731  37.014 166.302  1.00  0.00     0.003 C 
ATOM     23  C   UNL     1      -4.380  38.126 166.472  1.00  0.00     0.010 C 
ATOM     24  C   UNL     1      -5.233  36.744 168.397  1.00  0.00     0.012 C 
ATOM     25  C   UNL     1      -7.375  38.477 166.397  1.00  0.00    -0.006 C 
ATOM     26  C   UNL     1      -5.051  39.468 166.752  1.00  0.00     0.033 C 
ATOM     27  C   UNL     1      -6.361  39.575 165.974  1.00  0.00     0.120 C 
ATOM     28  C   UNL     1      -7.900  38.746 167.842  1.00  0.00     0.014 C 
ATOM     29  C   UNL     1      -8.627  38.619 165.486  1.00  0.00     0.014 C 
ENDROOT
BRANCH   1  30
ATOM     30  C   UNL     1      -0.964  32.485 165.770  1.00  0.00     0.048 C 
ATOM     31  O   UNL     1      -0.184  33.181 165.067  1.00  0.00    -0.550 OA
ATOM     32  O   UNL     1      -0.826  32.543 167.153  1.00  0.00    -0.550 OA
ENDBRANCH   1  30
BRANCH  27  33
ATOM     33  O   UNL     1      -6.911  40.856 166.169  1.00  0.00    -0.393 OA
ATOM     34  H   UNL     1      -7.844  40.831 165.828  1.00  0.00     0.210 HD
ENDBRANCH  27  33
TORSDOF 2
ENDMDL
MODEL 5
REMARK VINA RESULT:    -5.951      4.824      7.403
REMARK INTER + INTRA:          -6.071
REMARK INTER:                  -6.427
REMARK INTRA:                   0.357
REMARK UNBOUND:                 0.402
REMARK SMILES C[C@@H]1[C@@H](C)CC[C@]2(C(=O)[O-])CC[C@]3(C)C(=CC[C@H]4[C@@]5(C)CC[C@H](O)C(C)(C)[C@H]5CC[C@]43C)[C@@H]12
REMARK SMILES IDX 7 1 6 2 11 3 33 4 5 5 12 6 15 7 2 8 3 9 13 10 16 11 1 12
REMARK SMILES IDX 4 13 14 14 31 15 17 16 18 17 30 18 32 19 19 20 29 21 28 22
REMARK SMILES IDX 21 23 20 24 25 25 22 26 23 27 26 28 27 29 8 30 9 31 10 32
REMARK SMILES IDX 24 33
REMARK H PARENT 24 34
REMARK Flexibility Score: inf
ROOT
ATOM      1  C   UNL     1      -4.888  30.866 162.315  1.00  0.00     0.017 C 
ATOM      2  C   UNL     1      -4.919  29.379 161.882  1.00  0.00     0.014 C 
ATOM      3  C   UNL     1      -3.473  31.174 162.893  1.00  0.00     0.014 C 
ATOM      4  C   UNL     1      -5.919  31.098 163.465  1.00  0.00     0.030 C 
ATOM      5  C   UNL     1      -6.329  28.892 161.535  1.00  0.00     0.004 C 
ATOM      6  C   UNL     1      -3.348  32.578 163.543  1.00  0.00     0.013 C 
ATOM      7  C   UNL     1      -5.785  32.555 163.939  1.00  0.00    -0.063 C 
ATOM      8  C   UNL     1      -7.362  30.566 163.165  1.00  0.00    -0.003 C 
ATOM      9  C   UNL     1      -7.303  29.074 162.717  1.00  0.00    -0.011 C 
ATOM     10  C   UNL     1      -4.453  32.935 164.611  1.00  0.00    -0.006 C 
ATOM     11  C   UNL     1      -6.584  33.492 163.402  1.00  0.00    -0.027 C 
ATOM     12  C   UNL     1      -8.257  30.725 164.413  1.00  0.00     0.008 C 
ATOM     13  C   UNL     1      -8.686  28.529 162.319  1.00  0.00     0.008 C 
ATOM     14  C   UNL     1      -4.250  32.022 165.869  1.00  0.00     0.017 C 
ATOM     15  C   UNL     1      -4.375  34.495 165.059  1.00  0.00    -0.020 C 
ATOM     16  C   UNL     1      -6.447  34.954 163.644  1.00  0.00     0.032 C 
ATOM     17  C   UNL     1      -5.010  35.442 163.976  1.00  0.00     0.006 C 
ATOM     18  C   UNL     1      -5.155  34.738 166.397  1.00  0.00     0.008 C 
ATOM     19  C   UNL     1      -2.859  34.843 165.271  1.00  0.00     0.012 C 
ATOM     20  C   UNL     1      -4.940  37.027 164.332  1.00  0.00    -0.025 C 
ATOM     21  C   UNL     1      -5.730  36.162 166.637  1.00  0.00     0.005 C 
ATOM     22  C   UNL     1      -4.963  37.297 165.910  1.00  0.00     0.003 C 
ATOM     23  C   UNL     1      -6.116  37.798 163.626  1.00  0.00     0.010 C 
ATOM     24  C   UNL     1      -3.609  37.580 163.721  1.00  0.00     0.012 C 
ATOM     25  C   UNL     1      -5.366  38.774 166.380  1.00  0.00    -0.006 C 
ATOM     26  C   UNL     1      -6.302  39.251 164.056  1.00  0.00     0.033 C 
ATOM     27  C   UNL     1      -6.562  39.328 165.559  1.00  0.00     0.120 C 
ATOM     28  C   UNL     1      -4.139  39.732 166.273  1.00  0.00     0.014 C 
ATOM     29  C   UNL     1      -5.770  38.814 167.882  1.00  0.00     0.014 C 
ENDROOT
BRANCH   1  30
ATOM     30  C   UNL     1      -5.140  31.748 161.090  1.00  0.00     0.048 C 
ATOM     31  O   UNL     1      -6.273  31.792 160.542  1.00  0.00    -0.550 OA
ATOM     32  O   UNL     1      -4.097  32.449 160.493  1.00  0.00    -0.550 OA
ENDBRANCH   1  30
BRANCH  27  33
ATOM     33  O   UNL     1      -6.828  40.664 165.914  1.00  0.00    -0.393 OA
ATOM     34  H   UNL     1      -7.061  41.149 165.078  1.00  0.00     0.210 HD
ENDBRANCH  27  33
TORSDOF 2
ENDMDL
MODEL 6
REMARK VINA RESULT:    -5.830      1.898      7.984
REMARK INTER + INTRA:          -5.940
REMARK INTER:                  -6.297
REMARK INTRA:                   0.358
REMARK UNBOUND:                 0.402
REMARK SMILES C[C@@H]1[C@@H](C)CC[C@]2(C(=O)[O-])CC[C@]3(C)C(=CC[C@H]4[C@@]5(C)CC[C@H](O)C(C)(C)[C@H]5CC[C@]43C)[C@@H]12
REMARK SMILES IDX 7 1 6 2 11 3 33 4 5 5 12 6 15 7 2 8 3 9 13 10 16 11 1 12
REMARK SMILES IDX 4 13 14 14 31 15 17 16 18 17 30 18 32 19 19 20 29 21 28 22
REMARK SMILES IDX 21 23 20 24 25 25 22 26 23 27 26 28 27 29 8 30 9 31 10 32
REMARK SMILES IDX 24 33
REMARK H PARENT 24 34
REMARK Flexibility Score: inf
ROOT
ATOM      1  C   UNL     1      -7.295  37.861 166.632  1.00  0.00     0.017 C 
ATOM      2  C   UNL     1      -6.219  37.883 167.746  1.00  0.00     0.014 C 
ATOM      3  C   UNL     1      -8.243  36.651 166.899  1.00  0.00     0.014 C 
ATOM      4  C   UNL     1      -6.612  37.618 165.249  1.00  0.00     0.030 C 
ATOM      5  C   UNL     1      -5.083  38.869 167.453  1.00  0.00     0.004 C 
ATOM      6  C   UNL     1      -9.263  36.387 165.759  1.00  0.00     0.013 C 
ATOM      7  C   UNL     1      -7.718  37.496 164.186  1.00  0.00    -0.063 C 
ATOM      8  C   UNL     1      -5.412  38.577 164.936  1.00  0.00    -0.003 C 
ATOM      9  C   UNL     1      -4.388  38.557 166.111  1.00  0.00    -0.011 C 
ATOM     10  C   UNL     1      -8.652  36.280 164.308  1.00  0.00    -0.006 C 
ATOM     11  C   UNL     1      -8.091  38.592 163.504  1.00  0.00    -0.027 C 
ATOM     12  C   UNL     1      -4.732  38.162 163.614  1.00  0.00     0.008 C 
ATOM     13  C   UNL     1      -3.236  39.553 165.897  1.00  0.00     0.008 C 
ATOM     14  C   UNL     1      -7.786  34.974 164.223  1.00  0.00     0.017 C 
ATOM     15  C   UNL     1      -9.810  36.234 163.170  1.00  0.00    -0.020 C 
ATOM     16  C   UNL     1      -9.252  38.651 162.576  1.00  0.00     0.032 C 
ATOM     17  C   UNL     1     -10.408  37.661 162.892  1.00  0.00     0.006 C 
ATOM     18  C   UNL     1      -9.242  35.700 161.808  1.00  0.00     0.008 C 
ATOM     19  C   UNL     1     -10.929  35.260 163.682  1.00  0.00     0.012 C 
ATOM     20  C   UNL     1     -11.601  37.697 161.787  1.00  0.00    -0.025 C 
ATOM     21  C   UNL     1      -9.954  36.167 160.509  1.00  0.00     0.005 C 
ATOM     22  C   UNL     1     -11.449  36.541 160.691  1.00  0.00     0.003 C 
ATOM     23  C   UNL     1     -11.659  39.108 161.092  1.00  0.00     0.010 C 
ATOM     24  C   UNL     1     -12.951  37.520 162.559  1.00  0.00     0.012 C 
ATOM     25  C   UNL     1     -12.253  36.740 159.320  1.00  0.00    -0.006 C 
ATOM     26  C   UNL     1     -12.581  39.207 159.881  1.00  0.00     0.033 C 
ATOM     27  C   UNL     1     -12.156  38.204 158.810  1.00  0.00     0.120 C 
ATOM     28  C   UNL     1     -13.745  36.322 159.500  1.00  0.00     0.014 C 
ATOM     29  C   UNL     1     -11.714  35.814 158.193  1.00  0.00     0.014 C 
ENDROOT
BRANCH   1  30
ATOM     30  C   UNL     1      -8.100  39.161 166.689  1.00  0.00     0.048 C 
ATOM     31  O   UNL     1      -7.611  40.248 166.282  1.00  0.00    -0.550 OA
ATOM     32  O   UNL     1      -9.358  39.192 167.283  1.00  0.00    -0.550 OA
ENDBRANCH   1  30
BRANCH  27  33
ATOM     33  O   UNL     1     -12.957  38.382 157.666  1.00  0.00    -0.393 OA
ATOM     34  H   UNL     1     -12.353  38.640 156.921  1.00  0.00     0.210 HD
ENDBRANCH  27  33
TORSDOF 2
ENDMDL
MODEL 7
REMARK VINA RESULT:    -5.829      1.566      8.049
REMARK INTER + INTRA:          -5.939
REMARK INTER:                  -6.297
REMARK INTRA:                   0.358
REMARK UNBOUND:                 0.402
REMARK SMILES C[C@@H]1[C@@H](C)CC[C@]2(C(=O)[O-])CC[C@]3(C)C(=CC[C@H]4[C@@]5(C)CC[C@H](O)C(C)(C)[C@H]5CC[C@]43C)[C@@H]12
REMARK SMILES IDX 7 1 6 2 11 3 33 4 5 5 12 6 15 7 2 8 3 9 13 10 16 11 1 12
REMARK SMILES IDX 4 13 14 14 31 15 17 16 18 17 30 18 32 19 19 20 29 21 28 22
REMARK SMILES IDX 21 23 20 24 25 25 22 26 23 27 26 28 27 29 8 30 9 31 10 32
REMARK SMILES IDX 24 33
REMARK H PARENT 24 34
REMARK Flexibility Score: inf
ROOT
ATOM      1  C   UNL     1      -6.601  38.054 166.594  1.00  0.00     0.017 C 
ATOM      2  C   UNL     1      -5.726  37.928 167.866  1.00  0.00     0.014 C 
ATOM      3  C   UNL     1      -8.015  38.550 167.025  1.00  0.00     0.014 C 
ATOM      4  C   UNL     1      -6.782  36.647 165.941  1.00  0.00     0.030 C 
ATOM      5  C   UNL     1      -4.399  37.210 167.604  1.00  0.00     0.004 C 
ATOM      6  C   UNL     1      -9.062  38.546 165.878  1.00  0.00     0.013 C 
ATOM      7  C   UNL     1      -7.740  36.796 164.746  1.00  0.00    -0.063 C 
ATOM      8  C   UNL     1      -5.447  35.861 165.704  1.00  0.00    -0.003 C 
ATOM      9  C   UNL     1      -4.619  35.797 167.023  1.00  0.00    -0.011 C 
ATOM     10  C   UNL     1      -9.189  37.193 165.077  1.00  0.00    -0.006 C 
ATOM     11  C   UNL     1      -7.227  36.998 163.521  1.00  0.00    -0.027 C 
ATOM     12  C   UNL     1      -5.753  34.440 165.184  1.00  0.00     0.008 C 
ATOM     13  C   UNL     1      -3.254  35.116 166.823  1.00  0.00     0.008 C 
ATOM     14  C   UNL     1      -9.802  36.103 166.025  1.00  0.00     0.017 C 
ATOM     15  C   UNL     1     -10.132  37.358 163.765  1.00  0.00    -0.020 C 
ATOM     16  C   UNL     1      -8.034  37.322 162.314  1.00  0.00     0.032 C 
ATOM     17  C   UNL     1      -9.370  38.069 162.588  1.00  0.00     0.006 C 
ATOM     18  C   UNL     1     -10.604  35.961 163.229  1.00  0.00     0.008 C 
ATOM     19  C   UNL     1     -11.385  38.199 164.194  1.00  0.00     0.012 C 
ATOM     20  C   UNL     1     -10.257  38.305 161.245  1.00  0.00    -0.025 C 
ATOM     21  C   UNL     1     -10.936  35.855 161.715  1.00  0.00     0.005 C 
ATOM     22  C   UNL     1     -11.387  37.186 161.059  1.00  0.00     0.003 C 
ATOM     23  C   UNL     1      -9.325  38.361 159.978  1.00  0.00     0.010 C 
ATOM     24  C   UNL     1     -10.925  39.714 161.375  1.00  0.00     0.012 C 
ATOM     25  C   UNL     1     -12.001  37.024 159.589  1.00  0.00    -0.006 C 
ATOM     26  C   UNL     1     -10.044  38.352 158.632  1.00  0.00     0.033 C 
ATOM     27  C   UNL     1     -10.898  37.091 158.498  1.00  0.00     0.120 C 
ATOM     28  C   UNL     1     -13.090  38.112 159.333  1.00  0.00     0.014 C 
ATOM     29  C   UNL     1     -12.746  35.669 159.419  1.00  0.00     0.014 C 
ENDROOT
BRANCH   1  30
ATOM     30  C   UNL     1      -5.967  39.080 165.652  1.00  0.00     0.048 C 
ATOM     31  O   UNL     1      -4.882  38.837 165.059  1.00  0.00    -0.550 OA
ATOM     32  O   UNL     1      -6.524  40.347 165.503  1.00  0.00    -0.550 OA
ENDBRANCH   1  30
BRANCH  27  33
ATOM     33  O   UNL     1     -11.471  37.057 157.213  1.00  0.00    -0.393 OA
ATOM     34  H   UNL     1     -12.310  37.588 157.250  1.00  0.00     0.210 HD
ENDBRANCH  27  33
TORSDOF 2
ENDMDL
MODEL 8
REMARK VINA RESULT:    -5.829      4.874     10.228
REMARK INTER + INTRA:          -5.938
REMARK INTER:                  -6.299
REMARK INTRA:                   0.361
REMARK UNBOUND:                 0.402
REMARK SMILES C[C@@H]1[C@@H](C)CC[C@]2(C(=O)[O-])CC[C@]3(C)C(=CC[C@H]4[C@@]5(C)CC[C@H](O)C(C)(C)[C@H]5CC[C@]43C)[C@@H]12
REMARK SMILES IDX 7 1 6 2 11 3 33 4 5 5 12 6 15 7 2 8 3 9 13 10 16 11 1 12
REMARK SMILES IDX 4 13 14 14 31 15 17 16 18 17 30 18 32 19 19 20 29 21 28 22
REMARK SMILES IDX 21 23 20 24 25 25 22 26 23 27 26 28 27 29 8 30 9 31 10 32
REMARK SMILES IDX 24 33
REMARK H PARENT 24 34
REMARK Flexibility Score: inf
ROOT
ATOM      1  C   UNL     1      -2.613  31.026 167.409  1.00  0.00     0.017 C 
ATOM      2  C   UNL     1      -1.736  29.763 167.602  1.00  0.00     0.014 C 
ATOM      3  C   UNL     1      -3.851  30.629 166.548  1.00  0.00     0.014 C 
ATOM      4  C   UNL     1      -1.814  32.099 166.605  1.00  0.00     0.030 C 
ATOM      5  C   UNL     1      -0.368  30.079 168.214  1.00  0.00     0.004 C 
ATOM      6  C   UNL     1      -4.728  31.833 166.112  1.00  0.00     0.013 C 
ATOM      7  C   UNL     1      -2.750  33.292 166.342  1.00  0.00    -0.063 C 
ATOM      8  C   UNL     1      -0.387  32.413 167.172  1.00  0.00    -0.003 C 
ATOM      9  C   UNL     1       0.420  31.092 167.357  1.00  0.00    -0.011 C 
ATOM     10  C   UNL     1      -3.955  33.025 165.424  1.00  0.00    -0.006 C 
ATOM     11  C   UNL     1      -2.746  34.326 167.200  1.00  0.00    -0.027 C 
ATOM     12  C   UNL     1       0.360  33.381 166.230  1.00  0.00     0.008 C 
ATOM     13  C   UNL     1       1.796  31.334 168.001  1.00  0.00     0.008 C 
ATOM     14  C   UNL     1      -3.424  32.541 164.030  1.00  0.00     0.017 C 
ATOM     15  C   UNL     1      -4.912  34.321 165.215  1.00  0.00    -0.020 C 
ATOM     16  C   UNL     1      -3.712  35.457 167.158  1.00  0.00     0.032 C 
ATOM     17  C   UNL     1      -5.104  35.122 166.555  1.00  0.00     0.006 C 
ATOM     18  C   UNL     1      -4.297  35.315 164.169  1.00  0.00     0.008 C 
ATOM     19  C   UNL     1      -6.294  33.800 164.685  1.00  0.00     0.012 C 
ATOM     20  C   UNL     1      -6.080  36.418 166.440  1.00  0.00    -0.025 C 
ATOM     21  C   UNL     1      -4.679  36.815 164.303  1.00  0.00     0.005 C 
ATOM     22  C   UNL     1      -6.051  37.073 164.979  1.00  0.00     0.003 C 
ATOM     23  C   UNL     1      -5.697  37.488 167.529  1.00  0.00     0.010 C 
ATOM     24  C   UNL     1      -7.531  35.935 166.775  1.00  0.00     0.012 C 
ATOM     25  C   UNL     1      -6.576  38.581 164.858  1.00  0.00    -0.006 C 
ATOM     26  C   UNL     1      -6.382  38.844 167.388  1.00  0.00     0.033 C 
ATOM     27  C   UNL     1      -6.058  39.461 166.028  1.00  0.00     0.120 C 
ATOM     28  C   UNL     1      -8.134  38.611 164.800  1.00  0.00     0.014 C 
ATOM     29  C   UNL     1      -6.115  39.249 163.531  1.00  0.00     0.014 C 
ENDROOT
BRANCH   1  30
ATOM     30  C   UNL     1      -3.083  31.522 168.778  1.00  0.00     0.048 C 
ATOM     31  O   UNL     1      -2.286  32.085 169.575  1.00  0.00    -0.550 OA
ATOM     32  O   UNL     1      -4.380  31.274 169.217  1.00  0.00    -0.550 OA
ENDBRANCH   1  30
BRANCH  27  33
ATOM     33  O   UNL     1      -6.618  40.751 165.962  1.00  0.00    -0.393 OA
ATOM     34  H   UNL     1      -7.048  40.930 166.839  1.00  0.00     0.210 HD
ENDBRANCH  27  33
TORSDOF 2
ENDMDL
MODEL 9
REMARK VINA RESULT:    -5.551      5.159      8.385
REMARK INTER + INTRA:          -5.636
REMARK INTER:                  -5.996
REMARK INTRA:                   0.360
REMARK UNBOUND:                 0.402
REMARK SMILES C[C@@H]1[C@@H](C)CC[C@]2(C(=O)[O-])CC[C@]3(C)C(=CC[C@H]4[C@@]5(C)CC[C@H](O)C(C)(C)[C@H]5CC[C@]43C)[C@@H]12
REMARK SMILES IDX 7 1 6 2 11 3 33 4 5 5 12 6 15 7 2 8 3 9 13 10 16 11 1 12
REMARK SMILES IDX 4 13 14 14 31 15 17 16 18 17 30 18 32 19 19 20 29 21 28 22
REMARK SMILES IDX 21 23 20 24 25 25 22 26 23 27 26 28 27 29 8 30 9 31 10 32
REMARK SMILES IDX 24 33
REMARK H PARENT 24 34
REMARK Flexibility Score: inf
ROOT
ATOM      1  C   UNL     1      -6.841  35.768 165.730  1.00  0.00     0.017 C 
ATOM      2  C   UNL     1      -8.070  36.710 165.686  1.00  0.00     0.014 C 
ATOM      3  C   UNL     1      -7.282  34.426 166.390  1.00  0.00     0.014 C 
ATOM      4  C   UNL     1      -5.735  36.391 166.640  1.00  0.00     0.030 C 
ATOM      5  C   UNL     1      -7.704  38.145 165.293  1.00  0.00     0.004 C 
ATOM      6  C   UNL     1      -6.110  33.448 166.674  1.00  0.00     0.013 C 
ATOM      7  C   UNL     1      -4.578  35.382 166.743  1.00  0.00    -0.063 C 
ATOM      8  C   UNL     1      -5.370  37.877 166.299  1.00  0.00    -0.003 C 
ATOM      9  C   UNL     1      -6.660  38.751 166.254  1.00  0.00    -0.011 C 
ATOM     10  C   UNL     1      -4.889  34.059 167.464  1.00  0.00    -0.006 C 
ATOM     11  C   UNL     1      -3.548  35.482 165.888  1.00  0.00    -0.027 C 
ATOM     12  C   UNL     1      -4.372  38.431 167.339  1.00  0.00     0.008 C 
ATOM     13  C   UNL     1      -6.368  40.201 165.831  1.00  0.00     0.008 C 
ATOM     14  C   UNL     1      -5.349  34.383 168.928  1.00  0.00     0.017 C 
ATOM     15  C   UNL     1      -3.629  33.034 167.510  1.00  0.00    -0.020 C 
ATOM     16  C   UNL     1      -2.454  34.481 165.768  1.00  0.00     0.032 C 
ATOM     17  C   UNL     1      -2.839  33.025 166.150  1.00  0.00     0.006 C 
ATOM     18  C   UNL     1      -2.609  33.442 168.630  1.00  0.00     0.008 C 
ATOM     19  C   UNL     1      -4.200  31.606 167.822  1.00  0.00     0.012 C 
ATOM     20  C   UNL     1      -1.581  31.996 166.100  1.00  0.00    -0.025 C 
ATOM     21  C   UNL     1      -1.126  33.030 168.426  1.00  0.00     0.005 C 
ATOM     22  C   UNL     1      -0.921  31.772 167.541  1.00  0.00     0.003 C 
ATOM     23  C   UNL     1      -0.500  32.505 165.075  1.00  0.00     0.010 C 
ATOM     24  C   UNL     1      -2.119  30.634 165.547  1.00  0.00     0.012 C 
ATOM     25  C   UNL     1       0.566  31.180 167.567  1.00  0.00    -0.006 C 
ATOM     26  C   UNL     1       0.830  31.756 165.096  1.00  0.00     0.033 C 
ATOM     27  C   UNL     1       1.462  31.841 166.484  1.00  0.00     0.120 C 
ATOM     28  C   UNL     1       0.538  29.631 167.380  1.00  0.00     0.014 C 
ATOM     29  C   UNL     1       1.255  31.402 168.944  1.00  0.00     0.014 C 
ENDROOT
BRANCH   1  30
ATOM     30  C   UNL     1      -6.366  35.500 164.300  1.00  0.00     0.048 C 
ATOM     31  O   UNL     1      -5.812  36.403 163.618  1.00  0.00    -0.550 OA
ATOM     32  O   UNL     1      -6.624  34.280 163.683  1.00  0.00    -0.550 OA
ENDBRANCH   1  30
BRANCH  27  33
ATOM     33  O   UNL     1       2.730  31.230 166.451  1.00  0.00    -0.393 OA
ATOM     34  H   UNL     1       3.314  31.794 165.878  1.00  0.00     0.210 HD
ENDBRANCH  27  33
TORSDOF 2
ENDMDL
