MODEL 1
REMARK VINA RESULT:    -6.673      0.000      0.000
REMARK INTER + INTRA:          -8.370
REMARK INTER:                  -8.038
REMARK INTRA:                  -0.332
REMARK UNBOUND:                -0.332
REMARK SMILES O=c1c(O)c(-c2ccc(O)c(O)c2)oc2cc(O)cc(O)c12
REMARK SMILES IDX 5 1 3 2 2 3 1 4 22 5 20 6 19 7 17 8 16 9 15 10 14 11 6 12
REMARK SMILES IDX 7 13 8 14 9 15 13 16 11 17 10 18 12 20 4 22 21 24 18 26
REMARK H PARENT 10 19 12 21 4 23 21 25 18 27
REMARK Flexibility Score: inf
ROOT
ATOM      1  C   UNL     1      86.362 -37.645  80.094  1.00  0.00     0.180 A 
ATOM      2  C   UNL     1      85.709 -37.106  78.973  1.00  0.00     0.208 A 
ATOM      3  C   UNL     1      84.368 -36.705  79.094  1.00  0.00     0.238 A 
ATOM      4  O   UNL     1      83.768 -36.293  78.068  1.00  0.00    -0.285 OA
ATOM      5  C   UNL     1      83.715 -36.797  80.346  1.00  0.00     0.111 A 
ATOM      6  C   UNL     1      82.373 -36.378  80.595  1.00  0.00     0.134 A 
ATOM      7  C   UNL     1      81.796 -36.615  81.849  1.00  0.00     0.093 A 
ATOM      8  C   UNL     1      82.531 -37.196  82.882  1.00  0.00     0.123 A 
ATOM      9  C   UNL     1      83.861 -37.558  82.667  1.00  0.00     0.094 A 
ATOM     10  C   UNL     1      84.452 -37.370  81.416  1.00  0.00     0.146 A 
ATOM     11  O   UNL     1      85.713 -37.749  81.248  1.00  0.00    -0.452 OA
ENDROOT
BRANCH   1  12
ATOM     12  C   UNL     1      87.770 -38.103  80.042  1.00  0.00     0.025 A 
ATOM     13  C   UNL     1      88.100 -39.409  79.640  1.00  0.00     0.016 A 
ATOM     14  C   UNL     1      89.434 -39.826  79.622  1.00  0.00     0.051 A 
ATOM     15  C   UNL     1      90.453 -38.951  80.017  1.00  0.00     0.157 A 
ATOM     16  C   UNL     1      88.793 -37.236  80.457  1.00  0.00     0.062 A 
ATOM     17  C   UNL     1      90.132 -37.654  80.439  1.00  0.00     0.158 A 
BRANCH  15  18
ATOM     18  O   UNL     1      91.784 -39.362  79.999  1.00  0.00    -0.504 OA
ATOM     19  H   UNL     1      92.042 -40.312  79.759  1.00  0.00     0.293 HD
ENDBRANCH  15  18
BRANCH  17  20
ATOM     20  O   UNL     1      91.148 -36.787  80.839  1.00  0.00    -0.504 OA
ATOM     21  H   UNL     1      91.838 -36.440  80.183  1.00  0.00     0.293 HD
ENDBRANCH  17  20
ENDBRANCH   1  12
BRANCH   2  22
ATOM     22  O   UNL     1      86.394 -36.952  77.766  1.00  0.00    -0.502 OA
ATOM     23  H   UNL     1      87.073 -37.628  77.435  1.00  0.00     0.293 HD
ENDBRANCH   2  22
BRANCH   6  24
ATOM     24  O   UNL     1      81.575 -35.708  79.662  1.00  0.00    -0.507 OA
ATOM     25  H   UNL     1      81.774 -34.795  79.282  1.00  0.00     0.293 HD
ENDBRANCH   6  24
BRANCH   8  26
ATOM     26  O   UNL     1      81.930 -37.401  84.122  1.00  0.00    -0.508 OA
ATOM     27  H   UNL     1      81.856 -38.326  84.529  1.00  0.00     0.293 HD
ENDBRANCH   8  26
TORSDOF 6
ENDMDL
MODEL 2
REMARK VINA RESULT:    -6.398     12.029     13.539
REMARK INTER + INTRA:          -8.039
REMARK INTER:                  -7.758
REMARK INTRA:                  -0.281
REMARK UNBOUND:                -0.332
REMARK SMILES O=c1c(O)c(-c2ccc(O)c(O)c2)oc2cc(O)cc(O)c12
REMARK SMILES IDX 5 1 3 2 2 3 1 4 22 5 20 6 19 7 17 8 16 9 15 10 14 11 6 12
REMARK SMILES IDX 7 13 8 14 9 15 13 16 11 17 10 18 12 20 4 22 21 24 18 26
REMARK H PARENT 10 19 12 21 4 23 21 25 18 27
REMARK Flexibility Score: inf
ROOT
ATOM      1  C   UNL     1      89.575 -28.154  71.720  1.00  0.00     0.180 A 
ATOM      2  C   UNL     1      88.969 -28.051  72.983  1.00  0.00     0.208 A 
ATOM      3  C   UNL     1      87.759 -28.725  73.215  1.00  0.00     0.238 A 
ATOM      4  O   UNL     1      87.184 -28.569  74.323  1.00  0.00    -0.285 OA
ATOM      5  C   UNL     1      87.199 -29.538  72.199  1.00  0.00     0.111 A 
ATOM      6  C   UNL     1      86.000 -30.302  72.339  1.00  0.00     0.134 A 
ATOM      7  C   UNL     1      85.484 -30.986  71.231  1.00  0.00     0.093 A 
ATOM      8  C   UNL     1      86.154 -30.987  70.008  1.00  0.00     0.123 A 
ATOM      9  C   UNL     1      87.355 -30.289  69.876  1.00  0.00     0.094 A 
ATOM     10  C   UNL     1      87.875 -29.565  70.951  1.00  0.00     0.146 A 
ATOM     11  O   UNL     1      89.009 -28.898  70.776  1.00  0.00    -0.452 OA
ENDROOT
BRANCH   1  12
ATOM     12  C   UNL     1      90.843 -27.461  71.395  1.00  0.00     0.025 A 
ATOM     13  C   UNL     1      90.861 -26.299  70.605  1.00  0.00     0.016 A 
ATOM     14  C   UNL     1      92.072 -25.676  70.291  1.00  0.00     0.051 A 
ATOM     15  C   UNL     1      93.282 -26.213  70.751  1.00  0.00     0.157 A 
ATOM     16  C   UNL     1      92.060 -28.007  71.836  1.00  0.00     0.062 A 
ATOM     17  C   UNL     1      93.276 -27.382  71.522  1.00  0.00     0.158 A 
BRANCH  15  18
ATOM     18  O   UNL     1      94.491 -25.594  70.443  1.00  0.00    -0.504 OA
ATOM     19  H   UNL     1      95.277 -26.119  70.078  1.00  0.00     0.293 HD
ENDBRANCH  15  18
BRANCH  17  20
ATOM     20  O   UNL     1      94.481 -27.918  71.972  1.00  0.00    -0.504 OA
ATOM     21  H   UNL     1      94.803 -27.775  72.923  1.00  0.00     0.293 HD
ENDBRANCH  17  20
ENDBRANCH   1  12
BRANCH   2  22
ATOM     22  O   UNL     1      89.576 -27.306  73.997  1.00  0.00    -0.502 OA
ATOM     23  H   UNL     1      90.379 -27.645  74.515  1.00  0.00     0.293 HD
ENDBRANCH   2  22
BRANCH   6  24
ATOM     24  O   UNL     1      85.296 -30.443  73.539  1.00  0.00    -0.507 OA
ATOM     25  H   UNL     1      85.407 -31.208  74.187  1.00  0.00     0.293 HD
ENDBRANCH   6  24
BRANCH   8  26
ATOM     26  O   UNL     1      85.620 -31.692  68.932  1.00  0.00    -0.508 OA
ATOM     27  H   UNL     1      85.965 -32.610  68.676  1.00  0.00     0.293 HD
ENDBRANCH   8  26
TORSDOF 6
ENDMDL
MODEL 3
REMARK VINA RESULT:    -6.236     16.157     18.334
REMARK INTER + INTRA:          -7.844
REMARK INTER:                  -7.521
REMARK INTRA:                  -0.322
REMARK UNBOUND:                -0.332
REMARK SMILES O=c1c(O)c(-c2ccc(O)c(O)c2)oc2cc(O)cc(O)c12
REMARK SMILES IDX 5 1 3 2 2 3 1 4 22 5 20 6 19 7 17 8 16 9 15 10 14 11 6 12
REMARK SMILES IDX 7 13 8 14 9 15 13 16 11 17 10 18 12 20 4 22 21 24 18 26
REMARK H PARENT 10 19 12 21 4 23 21 25 18 27
REMARK Flexibility Score: inf
ROOT
ATOM      1  C   UNL     1      91.609 -24.908  69.343  1.00  0.00     0.180 A 
ATOM      2  C   UNL     1      91.855 -23.734  70.074  1.00  0.00     0.208 A 
ATOM      3  C   UNL     1      92.601 -23.815  71.261  1.00  0.00     0.238 A 
ATOM      4  O   UNL     1      92.754 -22.773  71.949  1.00  0.00    -0.285 OA
ATOM      5  C   UNL     1      93.138 -25.059  71.673  1.00  0.00     0.111 A 
ATOM      6  C   UNL     1      93.946 -25.250  72.834  1.00  0.00     0.134 A 
ATOM      7  C   UNL     1      94.334 -26.544  73.201  1.00  0.00     0.093 A 
ATOM      8  C   UNL     1      93.998 -27.647  72.417  1.00  0.00     0.123 A 
ATOM      9  C   UNL     1      93.255 -27.466  71.249  1.00  0.00     0.094 A 
ATOM     10  C   UNL     1      92.820 -26.191  70.877  1.00  0.00     0.146 A 
ATOM     11  O   UNL     1      92.098 -26.067  69.771  1.00  0.00    -0.452 OA
ENDROOT
BRANCH   1  12
ATOM     12  C   UNL     1      90.819 -24.906  68.090  1.00  0.00     0.025 A 
ATOM     13  C   UNL     1      91.421 -24.659  66.844  1.00  0.00     0.016 A 
ATOM     14  C   UNL     1      90.650 -24.638  65.678  1.00  0.00     0.051 A 
ATOM     15  C   UNL     1      89.267 -24.850  65.742  1.00  0.00     0.157 A 
ATOM     16  C   UNL     1      89.429 -25.097  68.151  1.00  0.00     0.062 A 
ATOM     17  C   UNL     1      88.654 -25.077  66.982  1.00  0.00     0.158 A 
BRANCH  15  18
ATOM     18  O   UNL     1      88.495 -24.832  64.583  1.00  0.00    -0.504 OA
ATOM     19  H   UNL     1      88.865 -25.151  63.695  1.00  0.00     0.293 HD
ENDBRANCH  15  18
BRANCH  17  20
ATOM     20  O   UNL     1      87.276 -25.280  67.044  1.00  0.00    -0.504 OA
ATOM     21  H   UNL     1      86.873 -26.000  67.632  1.00  0.00     0.293 HD
ENDBRANCH  17  20
ENDBRANCH   1  12
BRANCH   2  22
ATOM     22  O   UNL     1      91.381 -22.505  69.610  1.00  0.00    -0.502 OA
ATOM     23  H   UNL     1      91.101 -21.759  70.236  1.00  0.00     0.293 HD
ENDBRANCH   2  22
BRANCH   6  24
ATOM     24  O   UNL     1      94.415 -24.209  73.643  1.00  0.00    -0.507 OA
ATOM     25  H   UNL     1      95.377 -23.914  73.704  1.00  0.00     0.293 HD
ENDBRANCH   6  24
BRANCH   8  26
ATOM     26  O   UNL     1      94.416 -28.919  72.803  1.00  0.00    -0.508 OA
ATOM     27  H   UNL     1      94.352 -29.228  73.766  1.00  0.00     0.293 HD
ENDBRANCH   8  26
TORSDOF 6
ENDMDL
MODEL 4
REMARK VINA RESULT:    -5.954     10.908     12.005
REMARK INTER + INTRA:          -7.504
REMARK INTER:                  -7.174
REMARK INTRA:                  -0.330
REMARK UNBOUND:                -0.332
REMARK SMILES O=c1c(O)c(-c2ccc(O)c(O)c2)oc2cc(O)cc(O)c12
REMARK SMILES IDX 5 1 3 2 2 3 1 4 22 5 20 6 19 7 17 8 16 9 15 10 14 11 6 12
REMARK SMILES IDX 7 13 8 14 9 15 13 16 11 17 10 18 12 20 4 22 21 24 18 26
REMARK H PARENT 10 19 12 21 4 23 21 25 18 27
REMARK Flexibility Score: inf
ROOT
ATOM      1  C   UNL     1      87.354 -29.353  72.412  1.00  0.00     0.180 A 
ATOM      2  C   UNL     1      86.283 -29.041  73.266  1.00  0.00     0.208 A 
ATOM      3  C   UNL     1      85.004 -29.537  72.963  1.00  0.00     0.238 A 
ATOM      4  O   UNL     1      84.037 -29.193  73.689  1.00  0.00    -0.285 OA
ATOM      5  C   UNL     1      84.824 -30.384  71.842  1.00  0.00     0.111 A 
ATOM      6  C   UNL     1      83.582 -30.980  71.467  1.00  0.00     0.134 A 
ATOM      7  C   UNL     1      83.500 -31.715  70.278  1.00  0.00     0.093 A 
ATOM      8  C   UNL     1      84.626 -31.929  69.484  1.00  0.00     0.123 A 
ATOM      9  C   UNL     1      85.857 -31.398  69.870  1.00  0.00     0.094 A 
ATOM     10  C   UNL     1      85.963 -30.627  71.030  1.00  0.00     0.146 A 
ATOM     11  O   UNL     1      87.148 -30.123  71.350  1.00  0.00    -0.452 OA
ENDROOT
BRANCH   1  12
ATOM     12  C   UNL     1      88.728 -28.855  72.656  1.00  0.00     0.025 A 
ATOM     13  C   UNL     1      89.180 -27.649  72.095  1.00  0.00     0.016 A 
ATOM     14  C   UNL     1      90.489 -27.211  72.320  1.00  0.00     0.051 A 
ATOM     15  C   UNL     1      91.366 -27.979  73.096  1.00  0.00     0.157 A 
ATOM     16  C   UNL     1      89.618 -29.631  73.416  1.00  0.00     0.062 A 
ATOM     17  C   UNL     1      90.931 -29.194  73.643  1.00  0.00     0.158 A 
BRANCH  15  18
ATOM     18  O   UNL     1      92.670 -27.546  73.324  1.00  0.00    -0.504 OA
ATOM     19  H   UNL     1      92.938 -26.578  73.192  1.00  0.00     0.293 HD
ENDBRANCH  15  18
BRANCH  17  20
ATOM     20  O   UNL     1      91.808 -29.959  74.409  1.00  0.00    -0.504 OA
ATOM     21  H   UNL     1      92.566 -29.534  74.930  1.00  0.00     0.293 HD
ENDBRANCH  17  20
ENDBRANCH   1  12
BRANCH   2  22
ATOM     22  O   UNL     1      86.496 -28.267  74.409  1.00  0.00    -0.502 OA
ATOM     23  H   UNL     1      87.244 -28.459  75.064  1.00  0.00     0.293 HD
ENDBRANCH   2  22
BRANCH   6  24
ATOM     24  O   UNL     1      82.413 -30.905  72.231  1.00  0.00    -0.507 OA
ATOM     25  H   UNL     1      81.560 -31.406  72.034  1.00  0.00     0.293 HD
ENDBRANCH   6  24
BRANCH   8  26
ATOM     26  O   UNL     1      84.511 -32.680  68.316  1.00  0.00    -0.508 OA
ATOM     27  H   UNL     1      83.697 -32.607  67.717  1.00  0.00     0.293 HD
ENDBRANCH   8  26
TORSDOF 6
ENDMDL
MODEL 5
REMARK VINA RESULT:    -5.921     16.638     18.403
REMARK INTER + INTRA:          -7.464
REMARK INTER:                  -7.133
REMARK INTRA:                  -0.331
REMARK UNBOUND:                -0.332
REMARK SMILES O=c1c(O)c(-c2ccc(O)c(O)c2)oc2cc(O)cc(O)c12
REMARK SMILES IDX 5 1 3 2 2 3 1 4 22 5 20 6 19 7 17 8 16 9 15 10 14 11 6 12
REMARK SMILES IDX 7 13 8 14 9 15 13 16 11 17 10 18 12 20 4 22 21 24 18 26
REMARK H PARENT 10 19 12 21 4 23 21 25 18 27
REMARK Flexibility Score: inf
ROOT
ATOM      1  C   UNL     1      91.945 -25.075  69.844  1.00  0.00     0.180 A 
ATOM      2  C   UNL     1      92.561 -23.826  70.029  1.00  0.00     0.208 A 
ATOM      3  C   UNL     1      92.537 -22.894  68.979  1.00  0.00     0.238 A 
ATOM      4  O   UNL     1      93.154 -21.807  69.124  1.00  0.00    -0.285 OA
ATOM      5  C   UNL     1      91.851 -23.200  67.779  1.00  0.00     0.111 A 
ATOM      6  C   UNL     1      91.724 -22.314  66.667  1.00  0.00     0.134 A 
ATOM      7  C   UNL     1      91.112 -22.764  65.490  1.00  0.00     0.093 A 
ATOM      8  C   UNL     1      90.567 -24.045  65.406  1.00  0.00     0.123 A 
ATOM      9  C   UNL     1      90.636 -24.901  66.506  1.00  0.00     0.094 A 
ATOM     10  C   UNL     1      91.274 -24.494  67.681  1.00  0.00     0.146 A 
ATOM     11  O   UNL     1      91.336 -25.347  68.695  1.00  0.00    -0.452 OA
ENDROOT
BRANCH   1  12
ATOM     12  C   UNL     1      91.940 -26.116  70.898  1.00  0.00     0.025 A 
ATOM     13  C   UNL     1      92.972 -27.066  70.994  1.00  0.00     0.016 A 
ATOM     14  C   UNL     1      92.934 -28.053  71.982  1.00  0.00     0.051 A 
ATOM     15  C   UNL     1      91.859 -28.114  72.879  1.00  0.00     0.157 A 
ATOM     16  C   UNL     1      90.855 -26.194  71.786  1.00  0.00     0.062 A 
ATOM     17  C   UNL     1      90.816 -27.184  72.779  1.00  0.00     0.158 A 
BRANCH  15  18
ATOM     18  O   UNL     1      91.818 -29.095  73.867  1.00  0.00    -0.504 OA
ATOM     19  H   UNL     1      91.706 -30.075  73.637  1.00  0.00     0.293 HD
ENDBRANCH  15  18
BRANCH  17  20
ATOM     20  O   UNL     1      89.744 -27.250  73.668  1.00  0.00    -0.504 OA
ATOM     21  H   UNL     1      89.219 -28.107  73.803  1.00  0.00     0.293 HD
ENDBRANCH  17  20
ENDBRANCH   1  12
BRANCH   2  22
ATOM     22  O   UNL     1      93.167 -23.514  71.248  1.00  0.00    -0.502 OA
ATOM     23  H   UNL     1      93.203 -22.569  71.611  1.00  0.00     0.293 HD
ENDBRANCH   2  22
BRANCH   6  24
ATOM     24  O   UNL     1      92.154 -20.983  66.672  1.00  0.00    -0.507 OA
ATOM     25  H   UNL     1      91.586 -20.191  66.412  1.00  0.00     0.293 HD
ENDBRANCH   6  24
BRANCH   8  26
ATOM     26  O   UNL     1      89.951 -24.454  64.225  1.00  0.00    -0.508 OA
ATOM     27  H   UNL     1      90.034 -23.916  63.371  1.00  0.00     0.293 HD
ENDBRANCH   8  26
TORSDOF 6
ENDMDL
MODEL 6
REMARK VINA RESULT:    -5.880     12.695     15.219
REMARK INTER + INTRA:          -7.415
REMARK INTER:                  -7.169
REMARK INTRA:                  -0.245
REMARK UNBOUND:                -0.332
REMARK SMILES O=c1c(O)c(-c2ccc(O)c(O)c2)oc2cc(O)cc(O)c12
REMARK SMILES IDX 5 1 3 2 2 3 1 4 22 5 20 6 19 7 17 8 16 9 15 10 14 11 6 12
REMARK SMILES IDX 7 13 8 14 9 15 13 16 11 17 10 18 12 20 4 22 21 24 18 26
REMARK H PARENT 10 19 12 21 4 23 21 25 18 27
REMARK Flexibility Score: inf
ROOT
ATOM      1  C   UNL     1      90.314 -27.825  72.738  1.00  0.00     0.180 A 
ATOM      2  C   UNL     1      91.483 -28.499  73.129  1.00  0.00     0.208 A 
ATOM      3  C   UNL     1      92.720 -28.064  72.629  1.00  0.00     0.238 A 
ATOM      4  O   UNL     1      93.754 -28.718  72.924  1.00  0.00    -0.285 OA
ATOM      5  C   UNL     1      92.780 -26.926  71.789  1.00  0.00     0.111 A 
ATOM      6  C   UNL     1      93.984 -26.368  71.260  1.00  0.00     0.134 A 
ATOM      7  C   UNL     1      93.912 -25.303  70.354  1.00  0.00     0.093 A 
ATOM      8  C   UNL     1      92.688 -24.734  70.005  1.00  0.00     0.123 A 
ATOM      9  C   UNL     1      91.509 -25.235  70.558  1.00  0.00     0.094 A 
ATOM     10  C   UNL     1      91.544 -26.322  71.436  1.00  0.00     0.146 A 
ATOM     11  O   UNL     1      90.398 -26.780  71.922  1.00  0.00    -0.452 OA
ENDROOT
BRANCH   1  12
ATOM     12  C   UNL     1      88.972 -28.234  73.211  1.00  0.00     0.025 A 
ATOM     13  C   UNL     1      88.366 -29.420  72.760  1.00  0.00     0.016 A 
ATOM     14  C   UNL     1      87.088 -29.772  73.202  1.00  0.00     0.051 A 
ATOM     15  C   UNL     1      86.392 -28.941  74.089  1.00  0.00     0.157 A 
ATOM     16  C   UNL     1      88.262 -27.393  74.083  1.00  0.00     0.062 A 
ATOM     17  C   UNL     1      86.979 -27.746  74.528  1.00  0.00     0.158 A 
BRANCH  15  18
ATOM     18  O   UNL     1      85.119 -29.289  74.533  1.00  0.00    -0.504 OA
ATOM     19  H   UNL     1      84.319 -29.276  73.913  1.00  0.00     0.293 HD
ENDBRANCH  15  18
BRANCH  17  20
ATOM     20  O   UNL     1      86.282 -26.917  75.405  1.00  0.00    -0.504 OA
ATOM     21  H   UNL     1      86.744 -26.462  76.184  1.00  0.00     0.293 HD
ENDBRANCH  17  20
ENDBRANCH   1  12
BRANCH   2  22
ATOM     22  O   UNL     1      91.411 -29.573  74.020  1.00  0.00    -0.502 OA
ATOM     23  H   UNL     1      91.206 -29.451  75.005  1.00  0.00     0.293 HD
ENDBRANCH   2  22
BRANCH   6  24
ATOM     24  O   UNL     1      95.267 -26.801  71.609  1.00  0.00    -0.507 OA
ATOM     25  H   UNL     1      96.108 -26.254  71.509  1.00  0.00     0.293 HD
ENDBRANCH   6  24
BRANCH   8  26
ATOM     26  O   UNL     1      92.656 -23.665  69.113  1.00  0.00    -0.508 OA
ATOM     27  H   UNL     1      92.921 -22.729  69.398  1.00  0.00     0.293 HD
ENDBRANCH   8  26
TORSDOF 6
ENDMDL
MODEL 7
REMARK VINA RESULT:    -5.852     13.566     15.730
REMARK INTER + INTRA:          -7.381
REMARK INTER:                  -7.474
REMARK INTRA:                   0.093
REMARK UNBOUND:                -0.332
REMARK SMILES O=c1c(O)c(-c2ccc(O)c(O)c2)oc2cc(O)cc(O)c12
REMARK SMILES IDX 5 1 3 2 2 3 1 4 22 5 20 6 19 7 17 8 16 9 15 10 14 11 6 12
REMARK SMILES IDX 7 13 8 14 9 15 13 16 11 17 10 18 12 20 4 22 21 24 18 26
REMARK H PARENT 10 19 12 21 4 23 21 25 18 27
REMARK Flexibility Score: inf
ROOT
ATOM      1  C   UNL     1      90.696 -27.184  72.220  1.00  0.00     0.180 A 
ATOM      2  C   UNL     1      91.951 -27.415  72.806  1.00  0.00     0.208 A 
ATOM      3  C   UNL     1      92.847 -26.342  72.943  1.00  0.00     0.238 A 
ATOM      4  O   UNL     1      93.996 -26.571  73.401  1.00  0.00    -0.285 OA
ATOM      5  C   UNL     1      92.456 -25.042  72.541  1.00  0.00     0.111 A 
ATOM      6  C   UNL     1      93.266 -23.873  72.674  1.00  0.00     0.134 A 
ATOM      7  C   UNL     1      92.816 -22.657  72.146  1.00  0.00     0.093 A 
ATOM      8  C   UNL     1      91.561 -22.552  71.546  1.00  0.00     0.123 A 
ATOM      9  C   UNL     1      90.738 -23.676  71.460  1.00  0.00     0.094 A 
ATOM     10  C   UNL     1      91.175 -24.912  71.944  1.00  0.00     0.146 A 
ATOM     11  O   UNL     1      90.369 -25.959  71.822  1.00  0.00    -0.452 OA
ENDROOT
BRANCH   1  12
ATOM     12  C   UNL     1      89.703 -28.266  72.028  1.00  0.00     0.025 A 
ATOM     13  C   UNL     1      89.443 -29.209  73.038  1.00  0.00     0.016 A 
ATOM     14  C   UNL     1      88.520 -30.237  72.825  1.00  0.00     0.051 A 
ATOM     15  C   UNL     1      87.854 -30.344  71.597  1.00  0.00     0.157 A 
ATOM     16  C   UNL     1      89.049 -28.392  70.792  1.00  0.00     0.062 A 
ATOM     17  C   UNL     1      88.122 -29.422  70.577  1.00  0.00     0.158 A 
BRANCH  15  18
ATOM     18  O   UNL     1      86.932 -31.366  71.381  1.00  0.00    -0.504 OA
ATOM     19  H   UNL     1      86.027 -31.184  70.964  1.00  0.00     0.293 HD
ENDBRANCH  15  18
BRANCH  17  20
ATOM     20  O   UNL     1      87.464 -29.536  69.353  1.00  0.00    -0.504 OA
ATOM     21  H   UNL     1      87.354 -28.741  68.735  1.00  0.00     0.293 HD
ENDBRANCH  17  20
ENDBRANCH   1  12
BRANCH   2  22
ATOM     22  O   UNL     1      92.289 -28.690  73.266  1.00  0.00    -0.502 OA
ATOM     23  H   UNL     1      91.727 -29.191  73.945  1.00  0.00     0.293 HD
ENDBRANCH   2  22
BRANCH   6  24
ATOM     24  O   UNL     1      94.498 -23.844  73.334  1.00  0.00    -0.507 OA
ATOM     25  H   UNL     1      95.398 -23.842  72.877  1.00  0.00     0.293 HD
ENDBRANCH   6  24
BRANCH   8  26
ATOM     26  O   UNL     1      91.139 -21.322  71.046  1.00  0.00    -0.508 OA
ATOM     27  H   UNL     1      90.988 -21.177  70.054  1.00  0.00     0.293 HD
ENDBRANCH   8  26
TORSDOF 6
ENDMDL
MODEL 8
REMARK VINA RESULT:    -5.828      1.203      2.994
REMARK INTER + INTRA:          -7.352
REMARK INTER:                  -7.036
REMARK INTRA:                  -0.316
REMARK UNBOUND:                -0.332
REMARK SMILES O=c1c(O)c(-c2ccc(O)c(O)c2)oc2cc(O)cc(O)c12
REMARK SMILES IDX 5 1 3 2 2 3 1 4 22 5 20 6 19 7 17 8 16 9 15 10 14 11 6 12
REMARK SMILES IDX 7 13 8 14 9 15 13 16 11 17 10 18 12 20 4 22 21 24 18 26
REMARK H PARENT 10 19 12 21 4 23 21 25 18 27
REMARK Flexibility Score: inf
ROOT
ATOM      1  C   UNL     1      86.225 -37.643  80.216  1.00  0.00     0.180 A 
ATOM      2  C   UNL     1      85.473 -37.718  81.400  1.00  0.00     0.208 A 
ATOM      3  C   UNL     1      84.142 -37.271  81.390  1.00  0.00     0.238 A 
ATOM      4  O   UNL     1      83.497 -37.272  82.471  1.00  0.00    -0.285 OA
ATOM      5  C   UNL     1      83.563 -36.808  80.184  1.00  0.00     0.111 A 
ATOM      6  C   UNL     1      82.209 -36.373  80.047  1.00  0.00     0.134 A 
ATOM      7  C   UNL     1      81.776 -35.836  78.829  1.00  0.00     0.093 A 
ATOM      8  C   UNL     1      82.626 -35.774  77.725  1.00  0.00     0.123 A 
ATOM      9  C   UNL     1      83.934 -36.247  77.832  1.00  0.00     0.094 A 
ATOM     10  C   UNL     1      84.408 -36.753  79.044  1.00  0.00     0.146 A 
ATOM     11  O   UNL     1      85.665 -37.172  79.107  1.00  0.00    -0.452 OA
ENDROOT
BRANCH   1  12
ATOM     12  C   UNL     1      87.639 -38.080  80.151  1.00  0.00     0.025 A 
ATOM     13  C   UNL     1      87.985 -39.386  79.764  1.00  0.00     0.016 A 
ATOM     14  C   UNL     1      89.325 -39.783  79.735  1.00  0.00     0.051 A 
ATOM     15  C   UNL     1      90.336 -38.885  80.103  1.00  0.00     0.157 A 
ATOM     16  C   UNL     1      88.655 -37.191  80.540  1.00  0.00     0.062 A 
ATOM     17  C   UNL     1      90.000 -37.588  80.510  1.00  0.00     0.158 A 
BRANCH  15  18
ATOM     18  O   UNL     1      91.673 -39.276  80.073  1.00  0.00    -0.504 OA
ATOM     19  H   UNL     1      91.968 -40.183  80.413  1.00  0.00     0.293 HD
ENDBRANCH  15  18
BRANCH  17  20
ATOM     20  O   UNL     1      91.006 -36.698  80.883  1.00  0.00    -0.504 OA
ATOM     21  H   UNL     1      91.919 -36.715  80.442  1.00  0.00     0.293 HD
ENDBRANCH  17  20
ENDBRANCH   1  12
BRANCH   2  22
ATOM     22  O   UNL     1      86.039 -38.250  82.561  1.00  0.00    -0.502 OA
ATOM     23  H   UNL     1      86.819 -38.897  82.540  1.00  0.00     0.293 HD
ENDBRANCH   2  22
BRANCH   6  24
ATOM     24  O   UNL     1      81.249 -36.470  81.059  1.00  0.00    -0.507 OA
ATOM     25  H   UNL     1      81.012 -35.731  81.703  1.00  0.00     0.293 HD
ENDBRANCH   6  24
BRANCH   8  26
ATOM     26  O   UNL     1      82.156 -35.248  76.523  1.00  0.00    -0.508 OA
ATOM     27  H   UNL     1      82.310 -35.722  75.641  1.00  0.00     0.293 HD
ENDBRANCH   8  26
TORSDOF 6
ENDMDL
MODEL 9
REMARK VINA RESULT:    -5.766     12.448     14.852
REMARK INTER + INTRA:          -7.278
REMARK INTER:                  -6.974
REMARK INTRA:                  -0.304
REMARK UNBOUND:                -0.332
REMARK SMILES O=c1c(O)c(-c2ccc(O)c(O)c2)oc2cc(O)cc(O)c12
REMARK SMILES IDX 5 1 3 2 2 3 1 4 22 5 20 6 19 7 17 8 16 9 15 10 14 11 6 12
REMARK SMILES IDX 7 13 8 14 9 15 13 16 11 17 10 18 12 20 4 22 21 24 18 26
REMARK H PARENT 10 19 12 21 4 23 21 25 18 27
REMARK Flexibility Score: inf
ROOT
ATOM      1  C   UNL     1      89.523 -27.957  71.909  1.00  0.00     0.180 A 
ATOM      2  C   UNL     1      89.297 -26.902  71.010  1.00  0.00     0.208 A 
ATOM      3  C   UNL     1      90.394 -26.157  70.546  1.00  0.00     0.238 A 
ATOM      4  O   UNL     1      90.178 -25.168  69.799  1.00  0.00    -0.285 OA
ATOM      5  C   UNL     1      91.706 -26.510  70.945  1.00  0.00     0.111 A 
ATOM      6  C   UNL     1      92.894 -25.854  70.501  1.00  0.00     0.134 A 
ATOM      7  C   UNL     1      94.131 -26.223  71.045  1.00  0.00     0.093 A 
ATOM      8  C   UNL     1      94.231 -27.264  71.966  1.00  0.00     0.123 A 
ATOM      9  C   UNL     1      93.083 -27.950  72.365  1.00  0.00     0.094 A 
ATOM     10  C   UNL     1      91.830 -27.580  71.870  1.00  0.00     0.146 A 
ATOM     11  O   UNL     1      90.762 -28.245  72.292  1.00  0.00    -0.452 OA
ENDROOT
BRANCH   1  12
ATOM     12  C   UNL     1      88.417 -28.778  72.454  1.00  0.00     0.025 A 
ATOM     13  C   UNL     1      87.854 -29.833  71.714  1.00  0.00     0.016 A 
ATOM     14  C   UNL     1      86.795 -30.578  72.239  1.00  0.00     0.051 A 
ATOM     15  C   UNL     1      86.275 -30.273  73.504  1.00  0.00     0.157 A 
ATOM     16  C   UNL     1      87.877 -28.462  73.712  1.00  0.00     0.062 A 
ATOM     17  C   UNL     1      86.815 -29.210  74.240  1.00  0.00     0.158 A 
BRANCH  15  18
ATOM     18  O   UNL     1      85.220 -31.014  74.032  1.00  0.00    -0.504 OA
ATOM     19  H   UNL     1      85.263 -32.024  74.096  1.00  0.00     0.293 HD
ENDBRANCH  15  18
BRANCH  17  20
ATOM     20  O   UNL     1      86.291 -28.903  75.495  1.00  0.00    -0.504 OA
ATOM     21  H   UNL     1      85.291 -28.846  75.653  1.00  0.00     0.293 HD
ENDBRANCH  17  20
ENDBRANCH   1  12
BRANCH   2  22
ATOM     22  O   UNL     1      88.003 -26.617  70.568  1.00  0.00    -0.502 OA
ATOM     23  H   UNL     1      87.790 -26.420  69.598  1.00  0.00     0.293 HD
ENDBRANCH   2  22
BRANCH   6  24
ATOM     24  O   UNL     1      92.920 -24.859  69.519  1.00  0.00    -0.507 OA
ATOM     25  H   UNL     1      92.157 -24.233  69.311  1.00  0.00     0.293 HD
ENDBRANCH   6  24
BRANCH   8  26
ATOM     26  O   UNL     1      95.481 -27.616  72.474  1.00  0.00    -0.508 OA
ATOM     27  H   UNL     1      95.715 -27.474  73.449  1.00  0.00     0.293 HD
ENDBRANCH   8  26
TORSDOF 6
ENDMDL
