MODEL 1
REMARK VINA RESULT:    -3.448      0.000      0.000
REMARK INTER + INTRA:         -13.544
REMARK INTER:                  -8.688
REMARK INTRA:                  -4.856
REMARK UNBOUND:                -4.856
REMARK SMILES CCCCCCCCCCCCCCCCCCCCCCCCCCCC(=O)[O-]
REMARK SMILES IDX 15 1 16 2 17 3 18 4 19 5 20 6 21 7 22 8 23 9 24 10 25 11
REMARK SMILES IDX 26 12 27 13 28 14 29 15 30 16 14 17 13 18 12 19 11 20 10 21
REMARK SMILES IDX 9 22 8 23 7 24 6 25 5 26 4 27 3 28 2 29 1 30
REMARK H PARENT
REMARK Flexibility Score: inf
ROOT
ATOM      1  C   UNL     1      47.491  31.614  87.495  1.00  0.00     0.000 C 
ENDROOT
BRANCH   1   2
ATOM      2  C   UNL     1      46.363  31.001  88.347  1.00  0.00     0.000 C 
BRANCH   2   3
ATOM      3  C   UNL     1      45.994  31.860  89.570  1.00  0.00     0.000 C 
BRANCH   3   4
ATOM      4  C   UNL     1      45.866  31.029  90.864  1.00  0.00     0.000 C 
BRANCH   4   5
ATOM      5  C   UNL     1      45.676  29.518  90.618  1.00  0.00     0.000 C 
BRANCH   5   6
ATOM      6  C   UNL     1      46.716  28.611  91.298  1.00  0.00     0.000 C 
BRANCH   6   7
ATOM      7  C   UNL     1      47.677  27.890  90.332  1.00  0.00     0.000 C 
BRANCH   7   8
ATOM      8  C   UNL     1      48.838  28.780  89.833  1.00  0.00     0.000 C 
BRANCH   8   9
ATOM      9  C   UNL     1      49.500  29.631  90.935  1.00  0.00     0.000 C 
BRANCH   9  10
ATOM     10  C   UNL     1      49.591  31.140  90.629  1.00  0.00     0.000 C 
BRANCH  10  11
ATOM     11  C   UNL     1      50.701  31.549  89.642  1.00  0.00     0.000 C 
BRANCH  11  12
ATOM     12  C   UNL     1      51.812  32.381  90.298  1.00  0.00     0.006 C 
BRANCH  12  13
ATOM     13  C   UNL     1      53.198  31.860  89.904  1.00  0.00     0.053 C 
BRANCH  13  14
ATOM     14  C   UNL     1      53.871  31.191  91.063  1.00  0.00     0.041 C 
ATOM     15  O   UNL     1      55.129  31.148  91.129  1.00  0.00    -0.550 OA
ATOM     16  O   UNL     1      53.109  30.621  92.077  1.00  0.00    -0.550 OA
ENDBRANCH  13  14
ENDBRANCH  12  13
ENDBRANCH  11  12
ENDBRANCH  10  11
ENDBRANCH   9  10
ENDBRANCH   8   9
ENDBRANCH   7   8
ENDBRANCH   6   7
ENDBRANCH   5   6
ENDBRANCH   4   5
ENDBRANCH   3   4
ENDBRANCH   2   3
ENDBRANCH   1   2
BRANCH   1  17
ATOM     17  C   UNL     1      47.875  33.059  87.862  1.00  0.00     0.000 C 
BRANCH  17  18
ATOM     18  C   UNL     1      48.620  33.791  86.738  1.00  0.00     0.000 C 
BRANCH  18  19
ATOM     19  C   UNL     1      48.672  35.302  87.011  1.00  0.00     0.000 C 
BRANCH  19  20
ATOM     20  C   UNL     1      50.070  35.783  87.437  1.00  0.00     0.000 C 
BRANCH  20  21
ATOM     21  C   UNL     1      51.122  34.667  87.601  1.00  0.00     0.000 C 
BRANCH  21  22
ATOM     22  C   UNL     1      52.587  35.144  87.639  1.00  0.00    -0.000 C 
BRANCH  22  23
ATOM     23  C   UNL     1      53.548  34.177  86.926  1.00  0.00    -0.000 C 
BRANCH  23  24
ATOM     24  C   UNL     1      52.829  32.975  86.289  1.00  0.00    -0.000 C 
BRANCH  24  25
ATOM     25  C   UNL     1      53.421  32.491  84.951  1.00  0.00    -0.000 C 
BRANCH  25  26
ATOM     26  C   UNL     1      52.468  32.698  83.763  1.00  0.00    -0.000 C 
BRANCH  26  27
ATOM     27  C   UNL     1      51.086  33.173  84.240  1.00  0.00    -0.000 C 
BRANCH  27  28
ATOM     28  C   UNL     1      50.737  34.582  83.716  1.00  0.00    -0.000 C 
BRANCH  28  29
ATOM     29  C   UNL     1      49.293  34.709  83.197  1.00  0.00    -0.003 C 
ATOM     30  C   UNL     1      49.160  34.390  81.709  1.00  0.00     0.004 C 
ENDBRANCH  28  29
ENDBRANCH  27  28
ENDBRANCH  26  27
ENDBRANCH  25  26
ENDBRANCH  24  25
ENDBRANCH  23  24
ENDBRANCH  22  23
ENDBRANCH  21  22
ENDBRANCH  20  21
ENDBRANCH  19  20
ENDBRANCH  18  19
ENDBRANCH  17  18
ENDBRANCH   1  17
TORSDOF 26
ENDMDL
MODEL 2
REMARK VINA RESULT:    -3.405      3.178      5.947
REMARK INTER + INTRA:         -13.437
REMARK INTER:                  -8.030
REMARK INTRA:                  -5.406
REMARK UNBOUND:                -4.856
REMARK SMILES CCCCCCCCCCCCCCCCCCCCCCCCCCCC(=O)[O-]
REMARK SMILES IDX 15 1 16 2 17 3 18 4 19 5 20 6 21 7 22 8 23 9 24 10 25 11
REMARK SMILES IDX 26 12 27 13 28 14 29 15 30 16 14 17 13 18 12 19 11 20 10 21
REMARK SMILES IDX 9 22 8 23 7 24 6 25 5 26 4 27 3 28 2 29 1 30
REMARK H PARENT
REMARK Flexibility Score: inf
ROOT
ATOM      1  C   UNL     1      47.085  31.780  88.383  1.00  0.00     0.000 C 
ENDROOT
BRANCH   1   2
ATOM      2  C   UNL     1      46.697  30.480  89.113  1.00  0.00     0.000 C 
BRANCH   2   3
ATOM      3  C   UNL     1      47.266  30.395  90.541  1.00  0.00     0.000 C 
BRANCH   3   4
ATOM      4  C   UNL     1      48.751  29.976  90.566  1.00  0.00     0.000 C 
BRANCH   4   5
ATOM      5  C   UNL     1      49.719  31.132  90.892  1.00  0.00     0.000 C 
BRANCH   5   6
ATOM      6  C   UNL     1      50.485  31.701  89.685  1.00  0.00     0.000 C 
BRANCH   6   7
ATOM      7  C   UNL     1      50.777  30.684  88.564  1.00  0.00     0.000 C 
BRANCH   7   8
ATOM      8  C   UNL     1      51.481  31.301  87.336  1.00  0.00     0.000 C 
BRANCH   8   9
ATOM      9  C   UNL     1      51.266  30.519  86.025  1.00  0.00     0.000 C 
BRANCH   9  10
ATOM     10  C   UNL     1      51.228  31.381  84.746  1.00  0.00     0.000 C 
BRANCH  10  11
ATOM     11  C   UNL     1      51.661  32.849  84.926  1.00  0.00     0.000 C 
BRANCH  11  12
ATOM     12  C   UNL     1      51.519  33.678  83.642  1.00  0.00     0.006 C 
BRANCH  12  13
ATOM     13  C   UNL     1      50.260  34.551  83.686  1.00  0.00     0.053 C 
BRANCH  13  14
ATOM     14  C   UNL     1      49.334  34.218  82.557  1.00  0.00     0.041 C 
ATOM     15  O   UNL     1      49.381  34.874  81.482  1.00  0.00    -0.550 OA
ATOM     16  O   UNL     1      48.423  33.175  82.688  1.00  0.00    -0.550 OA
ENDBRANCH  13  14
ENDBRANCH  12  13
ENDBRANCH  11  12
ENDBRANCH  10  11
ENDBRANCH   9  10
ENDBRANCH   8   9
ENDBRANCH   7   8
ENDBRANCH   6   7
ENDBRANCH   5   6
ENDBRANCH   4   5
ENDBRANCH   3   4
ENDBRANCH   2   3
ENDBRANCH   1   2
BRANCH   1  17
ATOM     17  C   UNL     1      47.610  31.591  86.947  1.00  0.00     0.000 C 
BRANCH  17  18
ATOM     18  C   UNL     1      48.241  32.862  86.362  1.00  0.00     0.000 C 
BRANCH  18  19
ATOM     19  C   UNL     1      48.478  33.909  87.461  1.00  0.00     0.000 C 
BRANCH  19  20
ATOM     20  C   UNL     1      48.745  35.316  86.897  1.00  0.00     0.000 C 
BRANCH  20  21
ATOM     21  C   UNL     1      50.027  35.996  87.419  1.00  0.00     0.000 C 
BRANCH  21  22
ATOM     22  C   UNL     1      51.186  35.040  87.762  1.00  0.00    -0.000 C 
BRANCH  22  23
ATOM     23  C   UNL     1      52.530  35.492  87.165  1.00  0.00    -0.000 C 
BRANCH  23  24
ATOM     24  C   UNL     1      53.744  34.946  87.938  1.00  0.00    -0.000 C 
BRANCH  24  25
ATOM     25  C   UNL     1      54.214  33.541  87.512  1.00  0.00    -0.000 C 
BRANCH  25  26
ATOM     26  C   UNL     1      55.031  32.826  88.600  1.00  0.00    -0.000 C 
BRANCH  26  27
ATOM     27  C   UNL     1      54.640  33.324  90.001  1.00  0.00    -0.000 C 
BRANCH  27  28
ATOM     28  C   UNL     1      53.590  32.416  90.675  1.00  0.00    -0.000 C 
BRANCH  28  29
ATOM     29  C   UNL     1      53.999  30.932  90.729  1.00  0.00    -0.003 C 
ATOM     30  C   UNL     1      53.883  30.328  92.127  1.00  0.00     0.004 C 
ENDBRANCH  28  29
ENDBRANCH  27  28
ENDBRANCH  26  27
ENDBRANCH  25  26
ENDBRANCH  24  25
ENDBRANCH  23  24
ENDBRANCH  22  23
ENDBRANCH  21  22
ENDBRANCH  20  21
ENDBRANCH  19  20
ENDBRANCH  18  19
ENDBRANCH  17  18
ENDBRANCH   1  17
TORSDOF 26
ENDMDL
MODEL 3
REMARK VINA RESULT:    -3.404      2.581      5.480
REMARK INTER + INTRA:         -13.434
REMARK INTER:                  -7.722
REMARK INTRA:                  -5.712
REMARK UNBOUND:                -4.856
REMARK SMILES CCCCCCCCCCCCCCCCCCCCCCCCCCCC(=O)[O-]
REMARK SMILES IDX 15 1 16 2 17 3 18 4 19 5 20 6 21 7 22 8 23 9 24 10 25 11
REMARK SMILES IDX 26 12 27 13 28 14 29 15 30 16 14 17 13 18 12 19 11 20 10 21
REMARK SMILES IDX 9 22 8 23 7 24 6 25 5 26 4 27 3 28 2 29 1 30
REMARK H PARENT
REMARK Flexibility Score: inf
ROOT
ATOM      1  C   UNL     1      50.776  35.052  87.365  1.00  0.00     0.000 C 
ENDROOT
BRANCH   1   2
ATOM      2  C   UNL     1      51.936  35.931  87.870  1.00  0.00     0.000 C 
BRANCH   2   3
ATOM      3  C   UNL     1      53.312  35.471  87.355  1.00  0.00     0.000 C 
BRANCH   3   4
ATOM      4  C   UNL     1      53.206  34.402  86.248  1.00  0.00     0.000 C 
BRANCH   4   5
ATOM      5  C   UNL     1      53.871  33.059  86.613  1.00  0.00     0.000 C 
BRANCH   5   6
ATOM      6  C   UNL     1      54.501  33.004  88.016  1.00  0.00     0.000 C 
BRANCH   6   7
ATOM      7  C   UNL     1      54.166  31.737  88.828  1.00  0.00     0.000 C 
BRANCH   7   8
ATOM      8  C   UNL     1      52.668  31.359  88.795  1.00  0.00     0.000 C 
BRANCH   8   9
ATOM      9  C   UNL     1      51.756  32.321  89.582  1.00  0.00     0.000 C 
BRANCH   9  10
ATOM     10  C   UNL     1      50.518  31.667  90.229  1.00  0.00     0.000 C 
BRANCH  10  11
ATOM     11  C   UNL     1      49.910  30.485  89.449  1.00  0.00     0.000 C 
BRANCH  11  12
ATOM     12  C   UNL     1      48.518  30.083  89.955  1.00  0.00     0.006 C 
BRANCH  12  13
ATOM     13  C   UNL     1      47.831  31.255  90.666  1.00  0.00     0.053 C 
BRANCH  13  14
ATOM     14  C   UNL     1      46.350  31.227  90.440  1.00  0.00     0.041 C 
ATOM     15  O   UNL     1      45.814  32.039  89.638  1.00  0.00    -0.550 OA
ATOM     16  O   UNL     1      45.561  30.298  91.110  1.00  0.00    -0.550 OA
ENDBRANCH  13  14
ENDBRANCH  12  13
ENDBRANCH  11  12
ENDBRANCH  10  11
ENDBRANCH   9  10
ENDBRANCH   8   9
ENDBRANCH   7   8
ENDBRANCH   6   7
ENDBRANCH   5   6
ENDBRANCH   4   5
ENDBRANCH   3   4
ENDBRANCH   2   3
ENDBRANCH   1   2
BRANCH   1  17
ATOM     17  C   UNL     1      49.396  35.735  87.352  1.00  0.00     0.000 C 
BRANCH  17  18
ATOM     18  C   UNL     1      48.246  34.772  87.028  1.00  0.00     0.000 C 
BRANCH  18  19
ATOM     19  C   UNL     1      48.499  33.392  87.654  1.00  0.00     0.000 C 
BRANCH  19  20
ATOM     20  C   UNL     1      47.879  32.244  86.838  1.00  0.00     0.000 C 
BRANCH  20  21
ATOM     21  C   UNL     1      48.796  31.649  85.749  1.00  0.00     0.000 C 
BRANCH  21  22
ATOM     22  C   UNL     1      50.306  31.870  85.967  1.00  0.00    -0.000 C 
BRANCH  22  23
ATOM     23  C   UNL     1      51.167  30.747  85.366  1.00  0.00    -0.000 C 
BRANCH  23  24
ATOM     24  C   UNL     1      50.791  30.414  83.911  1.00  0.00    -0.000 C 
BRANCH  24  25
ATOM     25  C   UNL     1      51.330  31.399  82.855  1.00  0.00    -0.000 C 
BRANCH  25  26
ATOM     26  C   UNL     1      52.494  32.258  83.374  1.00  0.00    -0.000 C 
BRANCH  26  27
ATOM     27  C   UNL     1      52.626  33.558  82.564  1.00  0.00    -0.000 C 
BRANCH  27  28
ATOM     28  C   UNL     1      51.266  34.257  82.352  1.00  0.00    -0.000 C 
BRANCH  28  29
ATOM     29  C   UNL     1      50.548  34.623  83.664  1.00  0.00    -0.003 C 
ATOM     30  C   UNL     1      49.026  34.649  83.528  1.00  0.00     0.004 C 
ENDBRANCH  28  29
ENDBRANCH  27  28
ENDBRANCH  26  27
ENDBRANCH  25  26
ENDBRANCH  24  25
ENDBRANCH  23  24
ENDBRANCH  22  23
ENDBRANCH  21  22
ENDBRANCH  20  21
ENDBRANCH  19  20
ENDBRANCH  18  19
ENDBRANCH  17  18
ENDBRANCH   1  17
TORSDOF 26
ENDMDL
MODEL 4
REMARK VINA RESULT:    -3.389     15.399     17.757
REMARK INTER + INTRA:         -13.396
REMARK INTER:                  -8.693
REMARK INTRA:                  -4.703
REMARK UNBOUND:                -4.856
REMARK SMILES CCCCCCCCCCCCCCCCCCCCCCCCCCCC(=O)[O-]
REMARK SMILES IDX 15 1 16 2 17 3 18 4 19 5 20 6 21 7 22 8 23 9 24 10 25 11
REMARK SMILES IDX 26 12 27 13 28 14 29 15 30 16 14 17 13 18 12 19 11 20 10 21
REMARK SMILES IDX 9 22 8 23 7 24 6 25 5 26 4 27 3 28 2 29 1 30
REMARK H PARENT
REMARK Flexibility Score: inf
ROOT
ATOM      1  C   UNL     1      43.858  22.819  76.014  1.00  0.00     0.000 C 
ENDROOT
BRANCH   1   2
ATOM      2  C   UNL     1      43.151  21.594  75.403  1.00  0.00     0.000 C 
BRANCH   2   3
ATOM      3  C   UNL     1      41.735  21.907  74.888  1.00  0.00     0.000 C 
BRANCH   3   4
ATOM      4  C   UNL     1      40.632  21.468  75.874  1.00  0.00     0.000 C 
BRANCH   4   5
ATOM      5  C   UNL     1      40.283  22.533  76.933  1.00  0.00     0.000 C 
BRANCH   5   6
ATOM      6  C   UNL     1      40.319  22.041  78.390  1.00  0.00     0.000 C 
BRANCH   6   7
ATOM      7  C   UNL     1      41.155  20.766  78.623  1.00  0.00     0.000 C 
BRANCH   7   8
ATOM      8  C   UNL     1      40.602  19.859  79.745  1.00  0.00     0.000 C 
BRANCH   8   9
ATOM      9  C   UNL     1      39.219  19.251  79.441  1.00  0.00     0.000 C 
BRANCH   9  10
ATOM     10  C   UNL     1      38.225  19.261  80.621  1.00  0.00     0.000 C 
BRANCH  10  11
ATOM     11  C   UNL     1      37.779  20.657  81.097  1.00  0.00     0.000 C 
BRANCH  11  12
ATOM     12  C   UNL     1      36.653  21.252  80.240  1.00  0.00     0.006 C 
BRANCH  12  13
ATOM     13  C   UNL     1      37.041  22.634  79.703  1.00  0.00     0.053 C 
BRANCH  13  14
ATOM     14  C   UNL     1      37.315  23.589  80.823  1.00  0.00     0.041 C 
ATOM     15  O   UNL     1      36.399  23.902  81.631  1.00  0.00    -0.550 OA
ATOM     16  O   UNL     1      38.587  24.130  80.982  1.00  0.00    -0.550 OA
ENDBRANCH  13  14
ENDBRANCH  12  13
ENDBRANCH  11  12
ENDBRANCH  10  11
ENDBRANCH   9  10
ENDBRANCH   8   9
ENDBRANCH   7   8
ENDBRANCH   6   7
ENDBRANCH   5   6
ENDBRANCH   4   5
ENDBRANCH   3   4
ENDBRANCH   2   3
ENDBRANCH   1   2
BRANCH   1  17
ATOM     17  C   UNL     1      45.033  22.493  76.954  1.00  0.00     0.000 C 
BRANCH  17  18
ATOM     18  C   UNL     1      44.585  22.082  78.364  1.00  0.00     0.000 C 
BRANCH  18  19
ATOM     19  C   UNL     1      45.210  20.738  78.765  1.00  0.00     0.000 C 
BRANCH  19  20
ATOM     20  C   UNL     1      44.506  19.535  78.115  1.00  0.00     0.000 C 
BRANCH  20  21
ATOM     21  C   UNL     1      45.448  18.497  77.472  1.00  0.00     0.000 C 
BRANCH  21  22
ATOM     22  C   UNL     1      45.656  18.647  75.953  1.00  0.00    -0.000 C 
BRANCH  22  23
ATOM     23  C   UNL     1      46.751  19.668  75.598  1.00  0.00    -0.000 C 
BRANCH  23  24
ATOM     24  C   UNL     1      46.498  20.377  74.255  1.00  0.00    -0.000 C 
BRANCH  24  25
ATOM     25  C   UNL     1      47.351  21.637  74.010  1.00  0.00    -0.000 C 
BRANCH  25  26
ATOM     26  C   UNL     1      48.638  21.664  74.850  1.00  0.00    -0.000 C 
BRANCH  26  27
ATOM     27  C   UNL     1      48.631  22.847  75.833  1.00  0.00    -0.000 C 
BRANCH  27  28
ATOM     28  C   UNL     1      48.654  22.385  77.305  1.00  0.00    -0.000 C 
BRANCH  28  29
ATOM     29  C   UNL     1      49.469  21.100  77.538  1.00  0.00    -0.003 C 
ATOM     30  C   UNL     1      48.899  20.221  78.650  1.00  0.00     0.004 C 
ENDBRANCH  28  29
ENDBRANCH  27  28
ENDBRANCH  26  27
ENDBRANCH  25  26
ENDBRANCH  24  25
ENDBRANCH  23  24
ENDBRANCH  22  23
ENDBRANCH  21  22
ENDBRANCH  20  21
ENDBRANCH  19  20
ENDBRANCH  18  19
ENDBRANCH  17  18
ENDBRANCH   1  17
TORSDOF 26
ENDMDL
MODEL 5
REMARK VINA RESULT:    -3.369      2.952      5.737
REMARK INTER + INTRA:         -13.346
REMARK INTER:                  -8.394
REMARK INTRA:                  -4.953
REMARK UNBOUND:                -4.856
REMARK SMILES CCCCCCCCCCCCCCCCCCCCCCCCCCCC(=O)[O-]
REMARK SMILES IDX 15 1 16 2 17 3 18 4 19 5 20 6 21 7 22 8 23 9 24 10 25 11
REMARK SMILES IDX 26 12 27 13 28 14 29 15 30 16 14 17 13 18 12 19 11 20 10 21
REMARK SMILES IDX 9 22 8 23 7 24 6 25 5 26 4 27 3 28 2 29 1 30
REMARK H PARENT
REMARK Flexibility Score: inf
ROOT
ATOM      1  C   UNL     1      53.873  33.376  86.670  1.00  0.00     0.000 C 
ENDROOT
BRANCH   1   2
ATOM      2  C   UNL     1      53.578  31.868  86.560  1.00  0.00     0.000 C 
BRANCH   2   3
ATOM      3  C   UNL     1      52.078  31.553  86.422  1.00  0.00     0.000 C 
BRANCH   3   4
ATOM      4  C   UNL     1      51.492  30.883  87.682  1.00  0.00     0.000 C 
BRANCH   4   5
ATOM      5  C   UNL     1      52.560  30.360  88.663  1.00  0.00     0.000 C 
BRANCH   5   6
ATOM      6  C   UNL     1      52.350  30.764  90.133  1.00  0.00     0.000 C 
BRANCH   6   7
ATOM      7  C   UNL     1      51.387  31.949  90.348  1.00  0.00     0.000 C 
BRANCH   7   8
ATOM      8  C   UNL     1      50.165  31.602  91.227  1.00  0.00     0.000 C 
BRANCH   8   9
ATOM      9  C   UNL     1      49.263  30.495  90.646  1.00  0.00     0.000 C 
BRANCH   9  10
ATOM     10  C   UNL     1      47.969  30.993  89.970  1.00  0.00     0.000 C 
BRANCH  10  11
ATOM     11  C   UNL     1      46.895  29.916  89.725  1.00  0.00     0.000 C 
BRANCH  11  12
ATOM     12  C   UNL     1      45.706  30.024  90.689  1.00  0.00     0.006 C 
BRANCH  12  13
ATOM     13  C   UNL     1      45.466  31.479  91.108  1.00  0.00     0.053 C 
BRANCH  13  14
ATOM     14  C   UNL     1      44.274  31.590  92.008  1.00  0.00     0.041 C 
ATOM     15  O   UNL     1      44.132  32.598  92.753  1.00  0.00    -0.550 OA
ATOM     16  O   UNL     1      43.312  30.585  92.019  1.00  0.00    -0.550 OA
ENDBRANCH  13  14
ENDBRANCH  12  13
ENDBRANCH  11  12
ENDBRANCH  10  11
ENDBRANCH   9  10
ENDBRANCH   8   9
ENDBRANCH   7   8
ENDBRANCH   6   7
ENDBRANCH   5   6
ENDBRANCH   4   5
ENDBRANCH   3   4
ENDBRANCH   2   3
ENDBRANCH   1   2
BRANCH   1  17
ATOM     17  C   UNL     1      54.028  33.908  88.107  1.00  0.00     0.000 C 
BRANCH  17  18
ATOM     18  C   UNL     1      52.795  34.674  88.604  1.00  0.00     0.000 C 
BRANCH  18  19
ATOM     19  C   UNL     1      52.261  35.616  87.514  1.00  0.00     0.000 C 
BRANCH  19  20
ATOM     20  C   UNL     1      50.724  35.627  87.436  1.00  0.00     0.000 C 
BRANCH  20  21
ATOM     21  C   UNL     1      50.044  34.284  87.771  1.00  0.00     0.000 C 
BRANCH  21  22
ATOM     22  C   UNL     1      48.668  34.061  87.115  1.00  0.00    -0.000 C 
BRANCH  22  23
ATOM     23  C   UNL     1      48.630  32.815  86.213  1.00  0.00    -0.000 C 
BRANCH  23  24
ATOM     24  C   UNL     1      48.426  33.157  84.726  1.00  0.00    -0.000 C 
BRANCH  24  25
ATOM     25  C   UNL     1      48.902  34.561  84.305  1.00  0.00    -0.000 C 
BRANCH  25  26
ATOM     26  C   UNL     1      50.112  34.526  83.357  1.00  0.00    -0.000 C 
BRANCH  26  27
ATOM     27  C   UNL     1      51.424  34.365  84.141  1.00  0.00    -0.000 C 
BRANCH  27  28
ATOM     28  C   UNL     1      52.645  34.195  83.213  1.00  0.00    -0.000 C 
BRANCH  28  29
ATOM     29  C   UNL     1      52.708  32.823  82.518  1.00  0.00    -0.003 C 
ATOM     30  C   UNL     1      53.990  32.051  82.827  1.00  0.00     0.004 C 
ENDBRANCH  28  29
ENDBRANCH  27  28
ENDBRANCH  26  27
ENDBRANCH  25  26
ENDBRANCH  24  25
ENDBRANCH  23  24
ENDBRANCH  22  23
ENDBRANCH  21  22
ENDBRANCH  20  21
ENDBRANCH  19  20
ENDBRANCH  18  19
ENDBRANCH  17  18
ENDBRANCH   1  17
TORSDOF 26
ENDMDL
MODEL 6
REMARK VINA RESULT:    -3.364      2.685      5.291
REMARK INTER + INTRA:         -13.333
REMARK INTER:                  -8.273
REMARK INTRA:                  -5.059
REMARK UNBOUND:                -4.856
REMARK SMILES CCCCCCCCCCCCCCCCCCCCCCCCCCCC(=O)[O-]
REMARK SMILES IDX 15 1 16 2 17 3 18 4 19 5 20 6 21 7 22 8 23 9 24 10 25 11
REMARK SMILES IDX 26 12 27 13 28 14 29 15 30 16 14 17 13 18 12 19 11 20 10 21
REMARK SMILES IDX 9 22 8 23 7 24 6 25 5 26 4 27 3 28 2 29 1 30
REMARK H PARENT
REMARK Flexibility Score: inf
ROOT
ATOM      1  C   UNL     1      52.714  30.633  88.567  1.00  0.00     0.000 C 
ENDROOT
BRANCH   1   2
ATOM      2  C   UNL     1      51.554  31.470  87.993  1.00  0.00     0.000 C 
BRANCH   2   3
ATOM      3  C   UNL     1      50.838  32.320  89.058  1.00  0.00     0.000 C 
BRANCH   3   4
ATOM      4  C   UNL     1      51.422  32.120  90.472  1.00  0.00     0.000 C 
BRANCH   4   5
ATOM      5  C   UNL     1      50.441  31.460  91.463  1.00  0.00     0.000 C 
BRANCH   5   6
ATOM      6  C   UNL     1      50.345  29.928  91.362  1.00  0.00     0.000 C 
BRANCH   6   7
ATOM      7  C   UNL     1      48.972  29.393  90.906  1.00  0.00     0.000 C 
BRANCH   7   8
ATOM      8  C   UNL     1      48.813  29.323  89.371  1.00  0.00     0.000 C 
BRANCH   8   9
ATOM      9  C   UNL     1      47.625  30.136  88.821  1.00  0.00     0.000 C 
BRANCH   9  10
ATOM     10  C   UNL     1      47.268  31.401  89.628  1.00  0.00     0.000 C 
BRANCH  10  11
ATOM     11  C   UNL     1      45.762  31.652  89.832  1.00  0.00     0.000 C 
BRANCH  11  12
ATOM     12  C   UNL     1      45.351  31.669  91.311  1.00  0.00     0.006 C 
BRANCH  12  13
ATOM     13  C   UNL     1      44.258  30.631  91.591  1.00  0.00     0.053 C 
BRANCH  13  14
ATOM     14  C   UNL     1      44.788  29.238  91.443  1.00  0.00     0.041 C 
ATOM     15  O   UNL     1      45.754  28.846  92.152  1.00  0.00    -0.550 OA
ATOM     16  O   UNL     1      44.209  28.366  90.527  1.00  0.00    -0.550 OA
ENDBRANCH  13  14
ENDBRANCH  12  13
ENDBRANCH  11  12
ENDBRANCH  10  11
ENDBRANCH   9  10
ENDBRANCH   8   9
ENDBRANCH   7   8
ENDBRANCH   6   7
ENDBRANCH   5   6
ENDBRANCH   4   5
ENDBRANCH   3   4
ENDBRANCH   2   3
ENDBRANCH   1   2
BRANCH   1  17
ATOM     17  C   UNL     1      54.113  31.015  88.048  1.00  0.00     0.000 C 
BRANCH  17  18
ATOM     18  C   UNL     1      54.126  32.326  87.252  1.00  0.00     0.000 C 
BRANCH  18  19
ATOM     19  C   UNL     1      54.532  33.505  88.149  1.00  0.00     0.000 C 
BRANCH  19  20
ATOM     20  C   UNL     1      53.550  34.687  88.063  1.00  0.00     0.000 C 
BRANCH  20  21
ATOM     21  C   UNL     1      53.036  35.005  86.644  1.00  0.00     0.000 C 
BRANCH  21  22
ATOM     22  C   UNL     1      51.507  34.932  86.466  1.00  0.00    -0.000 C 
BRANCH  22  23
ATOM     23  C   UNL     1      50.745  35.792  87.490  1.00  0.00    -0.000 C 
BRANCH  23  24
ATOM     24  C   UNL     1      49.231  35.511  87.501  1.00  0.00    -0.000 C 
BRANCH  24  25
ATOM     25  C   UNL     1      48.716  34.651  86.330  1.00  0.00    -0.000 C 
BRANCH  25  26
ATOM     26  C   UNL     1      48.234  33.261  86.774  1.00  0.00    -0.000 C 
BRANCH  26  27
ATOM     27  C   UNL     1      48.238  32.273  85.596  1.00  0.00    -0.000 C 
BRANCH  27  28
ATOM     28  C   UNL     1      49.454  32.472  84.667  1.00  0.00    -0.000 C 
BRANCH  28  29
ATOM     29  C   UNL     1      49.074  32.863  83.228  1.00  0.00    -0.003 C 
ATOM     30  C   UNL     1      49.818  34.100  82.726  1.00  0.00     0.004 C 
ENDBRANCH  28  29
ENDBRANCH  27  28
ENDBRANCH  26  27
ENDBRANCH  25  26
ENDBRANCH  24  25
ENDBRANCH  23  24
ENDBRANCH  22  23
ENDBRANCH  21  22
ENDBRANCH  20  21
ENDBRANCH  19  20
ENDBRANCH  18  19
ENDBRANCH  17  18
ENDBRANCH   1  17
TORSDOF 26
ENDMDL
MODEL 7
REMARK VINA RESULT:    -3.334      2.633      5.166
REMARK INTER + INTRA:         -13.256
REMARK INTER:                  -7.617
REMARK INTRA:                  -5.639
REMARK UNBOUND:                -4.856
REMARK SMILES CCCCCCCCCCCCCCCCCCCCCCCCCCCC(=O)[O-]
REMARK SMILES IDX 15 1 16 2 17 3 18 4 19 5 20 6 21 7 22 8 23 9 24 10 25 11
REMARK SMILES IDX 26 12 27 13 28 14 29 15 30 16 14 17 13 18 12 19 11 20 10 21
REMARK SMILES IDX 9 22 8 23 7 24 6 25 5 26 4 27 3 28 2 29 1 30
REMARK H PARENT
REMARK Flexibility Score: inf
ROOT
ATOM      1  C   UNL     1      50.776  29.869  87.397  1.00  0.00     0.000 C 
ENDROOT
BRANCH   1   2
ATOM      2  C   UNL     1      52.269  29.712  87.744  1.00  0.00     0.000 C 
BRANCH   2   3
ATOM      3  C   UNL     1      53.119  30.925  87.322  1.00  0.00     0.000 C 
BRANCH   3   4
ATOM      4  C   UNL     1      54.451  31.016  88.094  1.00  0.00     0.000 C 
BRANCH   4   5
ATOM      5  C   UNL     1      54.600  32.303  88.931  1.00  0.00     0.000 C 
BRANCH   5   6
ATOM      6  C   UNL     1      54.594  32.093  90.455  1.00  0.00     0.000 C 
BRANCH   6   7
ATOM      7  C   UNL     1      53.348  31.372  91.006  1.00  0.00     0.000 C 
BRANCH   7   8
ATOM      8  C   UNL     1      52.156  32.316  91.281  1.00  0.00     0.000 C 
BRANCH   8   9
ATOM      9  C   UNL     1      50.824  31.850  90.662  1.00  0.00     0.000 C 
BRANCH   9  10
ATOM     10  C   UNL     1      50.402  30.411  91.025  1.00  0.00     0.000 C 
BRANCH  10  11
ATOM     11  C   UNL     1      48.939  30.050  90.706  1.00  0.00     0.000 C 
BRANCH  11  12
ATOM     12  C   UNL     1      48.157  31.212  90.077  1.00  0.00     0.006 C 
BRANCH  12  13
ATOM     13  C   UNL     1      46.671  31.139  90.443  1.00  0.00     0.053 C 
BRANCH  13  14
ATOM     14  C   UNL     1      45.929  30.239  89.504  1.00  0.00     0.041 C 
ATOM     15  O   UNL     1      45.372  29.192  89.934  1.00  0.00    -0.550 OA
ATOM     16  O   UNL     1      45.842  30.560  88.154  1.00  0.00    -0.550 OA
ENDBRANCH  13  14
ENDBRANCH  12  13
ENDBRANCH  11  12
ENDBRANCH  10  11
ENDBRANCH   9  10
ENDBRANCH   8   9
ENDBRANCH   7   8
ENDBRANCH   6   7
ENDBRANCH   5   6
ENDBRANCH   4   5
ENDBRANCH   3   4
ENDBRANCH   2   3
ENDBRANCH   1   2
BRANCH   1  17
ATOM     17  C   UNL     1      50.335  31.301  87.042  1.00  0.00     0.000 C 
BRANCH  17  18
ATOM     18  C   UNL     1      49.181  31.346  86.031  1.00  0.00     0.000 C 
BRANCH  18  19
ATOM     19  C   UNL     1      48.251  32.534  86.316  1.00  0.00     0.000 C 
BRANCH  19  20
ATOM     20  C   UNL     1      48.831  33.509  87.356  1.00  0.00     0.000 C 
BRANCH  20  21
ATOM     21  C   UNL     1      48.938  34.975  86.886  1.00  0.00     0.000 C 
BRANCH  21  22
ATOM     22  C   UNL     1      50.201  35.725  87.352  1.00  0.00    -0.000 C 
BRANCH  22  23
ATOM     23  C   UNL     1      51.337  34.778  87.775  1.00  0.00    -0.000 C 
BRANCH  23  24
ATOM     24  C   UNL     1      52.700  35.171  87.178  1.00  0.00    -0.000 C 
BRANCH  24  25
ATOM     25  C   UNL     1      53.237  34.219  86.091  1.00  0.00    -0.000 C 
BRANCH  25  26
ATOM     26  C   UNL     1      52.715  34.559  84.685  1.00  0.00    -0.000 C 
BRANCH  26  27
ATOM     27  C   UNL     1      51.472  33.723  84.341  1.00  0.00    -0.000 C 
BRANCH  27  28
ATOM     28  C   UNL     1      50.471  34.497  83.457  1.00  0.00    -0.000 C 
BRANCH  28  29
ATOM     29  C   UNL     1      49.411  33.601  82.792  1.00  0.00    -0.003 C 
ATOM     30  C   UNL     1      47.983  34.098  83.007  1.00  0.00     0.004 C 
ENDBRANCH  28  29
ENDBRANCH  27  28
ENDBRANCH  26  27
ENDBRANCH  25  26
ENDBRANCH  24  25
ENDBRANCH  23  24
ENDBRANCH  22  23
ENDBRANCH  21  22
ENDBRANCH  20  21
ENDBRANCH  19  20
ENDBRANCH  18  19
ENDBRANCH  17  18
ENDBRANCH   1  17
TORSDOF 26
ENDMDL
MODEL 8
REMARK VINA RESULT:    -3.283      2.547      5.751
REMARK INTER + INTRA:         -13.129
REMARK INTER:                  -7.844
REMARK INTRA:                  -5.286
REMARK UNBOUND:                -4.856
REMARK SMILES CCCCCCCCCCCCCCCCCCCCCCCCCCCC(=O)[O-]
REMARK SMILES IDX 15 1 16 2 17 3 18 4 19 5 20 6 21 7 22 8 23 9 24 10 25 11
REMARK SMILES IDX 26 12 27 13 28 14 29 15 30 16 14 17 13 18 12 19 11 20 10 21
REMARK SMILES IDX 9 22 8 23 7 24 6 25 5 26 4 27 3 28 2 29 1 30
REMARK H PARENT
REMARK Flexibility Score: inf
ROOT
ATOM      1  C   UNL     1      49.143  35.012  86.502  1.00  0.00     0.000 C 
ENDROOT
BRANCH   1   2
ATOM      2  C   UNL     1      49.979  35.872  87.469  1.00  0.00     0.000 C 
BRANCH   2   3
ATOM      3  C   UNL     1      51.489  35.583  87.384  1.00  0.00     0.000 C 
BRANCH   3   4
ATOM      4  C   UNL     1      51.895  34.929  86.046  1.00  0.00     0.000 C 
BRANCH   4   5
ATOM      5  C   UNL     1      53.227  34.153  86.112  1.00  0.00     0.000 C 
BRANCH   5   6
ATOM      6  C   UNL     1      53.654  33.710  87.521  1.00  0.00     0.000 C 
BRANCH   6   7
ATOM      7  C   UNL     1      54.110  32.241  87.628  1.00  0.00     0.000 C 
BRANCH   7   8
ATOM      8  C   UNL     1      52.991  31.277  88.082  1.00  0.00     0.000 C 
BRANCH   8   9
ATOM      9  C   UNL     1      51.584  31.906  88.103  1.00  0.00     0.000 C 
BRANCH   9  10
ATOM     10  C   UNL     1      51.037  32.240  89.506  1.00  0.00     0.000 C 
BRANCH  10  11
ATOM     11  C   UNL     1      50.752  31.027  90.411  1.00  0.00     0.000 C 
BRANCH  11  12
ATOM     12  C   UNL     1      49.296  30.967  90.893  1.00  0.00     0.006 C 
BRANCH  12  13
ATOM     13  C   UNL     1      48.323  31.248  89.744  1.00  0.00     0.053 C 
BRANCH  13  14
ATOM     14  C   UNL     1      46.902  31.085  90.189  1.00  0.00     0.041 C 
ATOM     15  O   UNL     1      46.582  30.140  90.960  1.00  0.00    -0.550 OA
ATOM     16  O   UNL     1      45.930  31.983  89.761  1.00  0.00    -0.550 OA
ENDBRANCH  13  14
ENDBRANCH  12  13
ENDBRANCH  11  12
ENDBRANCH  10  11
ENDBRANCH   9  10
ENDBRANCH   8   9
ENDBRANCH   7   8
ENDBRANCH   6   7
ENDBRANCH   5   6
ENDBRANCH   4   5
ENDBRANCH   3   4
ENDBRANCH   2   3
ENDBRANCH   1   2
BRANCH   1  17
ATOM     17  C   UNL     1      48.289  33.919  87.173  1.00  0.00     0.000 C 
BRANCH  17  18
ATOM     18  C   UNL     1      48.336  32.576  86.431  1.00  0.00     0.000 C 
BRANCH  18  19
ATOM     19  C   UNL     1      49.066  32.719  85.088  1.00  0.00     0.000 C 
BRANCH  19  20
ATOM     20  C   UNL     1      48.181  32.347  83.885  1.00  0.00     0.000 C 
BRANCH  20  21
ATOM     21  C   UNL     1      47.964  33.479  82.860  1.00  0.00     0.000 C 
BRANCH  21  22
ATOM     22  C   UNL     1      49.004  34.616  82.905  1.00  0.00    -0.000 C 
BRANCH  22  23
ATOM     23  C   UNL     1      49.546  34.985  81.513  1.00  0.00    -0.000 C 
BRANCH  23  24
ATOM     24  C   UNL     1      50.939  34.393  81.235  1.00  0.00    -0.000 C 
BRANCH  24  25
ATOM     25  C   UNL     1      51.854  34.264  82.468  1.00  0.00    -0.000 C 
BRANCH  25  26
ATOM     26  C   UNL     1      52.588  32.915  82.533  1.00  0.00    -0.000 C 
BRANCH  26  27
ATOM     27  C   UNL     1      51.677  31.767  82.070  1.00  0.00    -0.000 C 
BRANCH  27  28
ATOM     28  C   UNL     1      51.473  30.701  83.167  1.00  0.00    -0.000 C 
BRANCH  28  29
ATOM     29  C   UNL     1      52.327  30.938  84.425  1.00  0.00    -0.003 C 
ATOM     30  C   UNL     1      53.348  29.828  84.675  1.00  0.00     0.004 C 
ENDBRANCH  28  29
ENDBRANCH  27  28
ENDBRANCH  26  27
ENDBRANCH  25  26
ENDBRANCH  24  25
ENDBRANCH  23  24
ENDBRANCH  22  23
ENDBRANCH  21  22
ENDBRANCH  20  21
ENDBRANCH  19  20
ENDBRANCH  18  19
ENDBRANCH  17  18
ENDBRANCH   1  17
TORSDOF 26
ENDMDL
MODEL 9
REMARK VINA RESULT:    -3.263      2.377      6.500
REMARK INTER + INTRA:         -13.079
REMARK INTER:                  -7.184
REMARK INTRA:                  -5.896
REMARK UNBOUND:                -4.856
REMARK SMILES CCCCCCCCCCCCCCCCCCCCCCCCCCCC(=O)[O-]
REMARK SMILES IDX 15 1 16 2 17 3 18 4 19 5 20 6 21 7 22 8 23 9 24 10 25 11
REMARK SMILES IDX 26 12 27 13 28 14 29 15 30 16 14 17 13 18 12 19 11 20 10 21
REMARK SMILES IDX 9 22 8 23 7 24 6 25 5 26 4 27 3 28 2 29 1 30
REMARK H PARENT
REMARK Flexibility Score: inf
ROOT
ATOM      1  C   UNL     1      48.621  35.117  86.310  1.00  0.00     0.000 C 
ENDROOT
BRANCH   1   2
ATOM      2  C   UNL     1      49.357  34.529  85.091  1.00  0.00     0.000 C 
BRANCH   2   3
ATOM      3  C   UNL     1      48.707  34.913  83.749  1.00  0.00     0.000 C 
BRANCH   3   4
ATOM      4  C   UNL     1      49.602  34.579  82.537  1.00  0.00     0.000 C 
BRANCH   4   5
ATOM      5  C   UNL     1      51.073  34.304  82.907  1.00  0.00     0.000 C 
BRANCH   5   6
ATOM      6  C   UNL     1      51.657  33.002  82.330  1.00  0.00     0.000 C 
BRANCH   6   7
ATOM      7  C   UNL     1      50.663  31.827  82.247  1.00  0.00     0.000 C 
BRANCH   7   8
ATOM      8  C   UNL     1      50.634  30.948  83.517  1.00  0.00     0.000 C 
BRANCH   8   9
ATOM      9  C   UNL     1      49.525  31.323  84.520  1.00  0.00     0.000 C 
BRANCH   9  10
ATOM     10  C   UNL     1      49.594  30.591  85.876  1.00  0.00     0.000 C 
BRANCH  10  11
ATOM     11  C   UNL     1      49.228  31.442  87.106  1.00  0.00     0.000 C 
BRANCH  11  12
ATOM     12  C   UNL     1      47.714  31.630  87.279  1.00  0.00     0.006 C 
BRANCH  12  13
ATOM     13  C   UNL     1      47.402  32.482  88.514  1.00  0.00     0.053 C 
BRANCH  13  14
ATOM     14  C   UNL     1      46.874  31.636  89.632  1.00  0.00     0.041 C 
ATOM     15  O   UNL     1      47.646  30.865  90.265  1.00  0.00    -0.550 OA
ATOM     16  O   UNL     1      45.530  31.704  89.983  1.00  0.00    -0.550 OA
ENDBRANCH  13  14
ENDBRANCH  12  13
ENDBRANCH  11  12
ENDBRANCH  10  11
ENDBRANCH   9  10
ENDBRANCH   8   9
ENDBRANCH   7   8
ENDBRANCH   6   7
ENDBRANCH   5   6
ENDBRANCH   4   5
ENDBRANCH   3   4
ENDBRANCH   2   3
ENDBRANCH   1   2
BRANCH   1  17
ATOM     17  C   UNL     1      49.533  35.579  87.462  1.00  0.00     0.000 C 
BRANCH  17  18
ATOM     18  C   UNL     1      50.782  34.703  87.633  1.00  0.00     0.000 C 
BRANCH  18  19
ATOM     19  C   UNL     1      52.044  35.463  87.197  1.00  0.00     0.000 C 
BRANCH  19  20
ATOM     20  C   UNL     1      53.021  34.585  86.396  1.00  0.00     0.000 C 
BRANCH  20  21
ATOM     21  C   UNL     1      52.566  33.126  86.187  1.00  0.00     0.000 C 
BRANCH  21  22
ATOM     22  C   UNL     1      53.534  32.244  85.375  1.00  0.00    -0.000 C 
BRANCH  22  23
ATOM     23  C   UNL     1      53.532  30.775  85.834  1.00  0.00    -0.000 C 
BRANCH  23  24
ATOM     24  C   UNL     1      53.701  30.622  87.356  1.00  0.00    -0.000 C 
BRANCH  24  25
ATOM     25  C   UNL     1      52.517  29.951  88.081  1.00  0.00    -0.000 C 
BRANCH  25  26
ATOM     26  C   UNL     1      52.572  30.126  89.608  1.00  0.00    -0.000 C 
BRANCH  26  27
ATOM     27  C   UNL     1      51.355  30.914  90.117  1.00  0.00    -0.000 C 
BRANCH  27  28
ATOM     28  C   UNL     1      51.669  32.411  90.324  1.00  0.00    -0.000 C 
BRANCH  28  29
ATOM     29  C   UNL     1      53.113  32.681  90.785  1.00  0.00    -0.003 C 
ATOM     30  C   UNL     1      53.853  33.674  89.890  1.00  0.00     0.004 C 
ENDBRANCH  28  29
ENDBRANCH  27  28
ENDBRANCH  26  27
ENDBRANCH  25  26
ENDBRANCH  24  25
ENDBRANCH  23  24
ENDBRANCH  22  23
ENDBRANCH  21  22
ENDBRANCH  20  21
ENDBRANCH  19  20
ENDBRANCH  18  19
ENDBRANCH  17  18
ENDBRANCH   1  17
TORSDOF 26
ENDMDL
