MODEL 1
REMARK VINA RESULT:    12.215      0.000      0.000
REMARK INTER + INTRA:          26.650
REMARK INTER:                  27.924
REMARK INTRA:                  -1.274
REMARK UNBOUND:                -1.274
REMARK SMILES CCCCCCCCCCCCCCCCCCCCCCCC(=O)[O-]
REMARK SMILES IDX 13 1 14 2 15 3 16 4 17 5 18 6 19 7 20 8 21 9 22 10 23 11
REMARK SMILES IDX 24 12 25 13 26 14 12 15 11 16 10 17 9 18 8 19 7 20 6 21 5 22
REMARK SMILES IDX 4 23 3 24 2 25 1 26
REMARK H PARENT
REMARK Flexibility Score: inf
ROOT
ATOM      1  C   UNL     1     -33.422  11.328  19.814  1.00  0.00     0.000 C 
ENDROOT
BRANCH   1   2
ATOM      2  C   UNL     1     -34.000  11.283  21.241  1.00  0.00     0.000 C 
BRANCH   2   3
ATOM      3  C   UNL     1     -34.263  12.661  21.885  1.00  0.00     0.000 C 
BRANCH   3   4
ATOM      4  C   UNL     1     -34.525  12.635  23.401  1.00  0.00     0.000 C 
BRANCH   4   5
ATOM      5  C   UNL     1     -33.684  11.581  24.135  1.00  0.00     0.000 C 
BRANCH   5   6
ATOM      6  C   UNL     1     -34.179  11.384  25.572  1.00  0.00     0.000 C 
BRANCH   6   7
ATOM      7  C   UNL     1     -33.077  10.787  26.455  1.00  0.00     0.000 C 
BRANCH   7   8
ATOM      8  C   UNL     1     -33.419   9.349  26.872  1.00  0.00     0.000 C 
BRANCH   8   9
ATOM      9  C   UNL     1     -34.508   8.728  25.971  1.00  0.00     0.000 C 
BRANCH   9  10
ATOM     10  C   UNL     1     -34.011   7.534  25.138  1.00  0.00     0.006 C 
BRANCH  10  11
ATOM     11  C   UNL     1     -35.062   7.019  24.147  1.00  0.00     0.053 C 
BRANCH  11  12
ATOM     12  C   UNL     1     -34.535   7.079  22.747  1.00  0.00     0.041 C 
ATOM     13  O   UNL     1     -34.863   6.199  21.909  1.00  0.00    -0.550 OA
ATOM     14  O   UNL     1     -33.719   8.132  22.357  1.00  0.00    -0.550 OA
ENDBRANCH  11  12
ENDBRANCH  10  11
ENDBRANCH   9  10
ENDBRANCH   8   9
ENDBRANCH   7   8
ENDBRANCH   6   7
ENDBRANCH   5   6
ENDBRANCH   4   5
ENDBRANCH   3   4
ENDBRANCH   2   3
ENDBRANCH   1   2
BRANCH   1  15
ATOM     15  C   UNL     1     -32.839  12.691  19.393  1.00  0.00     0.000 C 
BRANCH  15  16
ATOM     16  C   UNL     1     -32.412  12.754  17.910  1.00  0.00     0.000 C 
BRANCH  16  17
ATOM     17  C   UNL     1     -33.615  12.710  16.952  1.00  0.00     0.000 C 
BRANCH  17  18
ATOM     18  C   UNL     1     -33.891  14.067  16.284  1.00  0.00    -0.000 C 
BRANCH  18  19
ATOM     19  C   UNL     1     -34.420  15.116  17.279  1.00  0.00    -0.000 C 
BRANCH  19  20
ATOM     20  C   UNL     1     -34.940  16.384  16.583  1.00  0.00    -0.000 C 
BRANCH  20  21
ATOM     21  C   UNL     1     -35.199  17.538  17.569  1.00  0.00    -0.000 C 
BRANCH  21  22
ATOM     22  C   UNL     1     -36.695  17.755  17.852  1.00  0.00    -0.000 C 
BRANCH  22  23
ATOM     23  C   UNL     1     -37.614  16.587  17.444  1.00  0.00    -0.000 C 
BRANCH  23  24
ATOM     24  C   UNL     1     -38.604  16.158  18.546  1.00  0.00    -0.000 C 
BRANCH  24  25
ATOM     25  C   UNL     1     -40.067  16.396  18.140  1.00  0.00    -0.003 C 
ATOM     26  C   UNL     1     -40.161  17.374  16.972  1.00  0.00     0.004 C 
ENDBRANCH  24  25
ENDBRANCH  23  24
ENDBRANCH  22  23
ENDBRANCH  21  22
ENDBRANCH  20  21
ENDBRANCH  19  20
ENDBRANCH  18  19
ENDBRANCH  17  18
ENDBRANCH  16  17
ENDBRANCH  15  16
ENDBRANCH   1  15
TORSDOF 22
ENDMDL
MODEL 2
REMARK VINA RESULT:    12.628      3.004     10.114
REMARK INTER + INTRA:          27.596
REMARK INTER:                  28.802
REMARK INTRA:                  -1.206
REMARK UNBOUND:                -1.274
REMARK SMILES CCCCCCCCCCCCCCCCCCCCCCCC(=O)[O-]
REMARK SMILES IDX 13 1 14 2 15 3 16 4 17 5 18 6 19 7 20 8 21 9 22 10 23 11
REMARK SMILES IDX 24 12 25 13 26 14 12 15 11 16 10 17 9 18 8 19 7 20 6 21 5 22
REMARK SMILES IDX 4 23 3 24 2 25 1 26
REMARK H PARENT
REMARK Flexibility Score: inf
ROOT
ATOM      1  C   UNL     1     -33.999  11.366  21.082  1.00  0.00     0.000 C 
ENDROOT
BRANCH   1   2
ATOM      2  C   UNL     1     -33.608  11.530  19.602  1.00  0.00     0.000 C 
BRANCH   2   3
ATOM      3  C   UNL     1     -32.602  12.664  19.312  1.00  0.00     0.000 C 
BRANCH   3   4
ATOM      4  C   UNL     1     -32.340  12.940  17.821  1.00  0.00     0.000 C 
BRANCH   4   5
ATOM      5  C   UNL     1     -33.601  12.796  16.956  1.00  0.00     0.000 C 
BRANCH   5   6
ATOM      6  C   UNL     1     -33.967  14.127  16.289  1.00  0.00     0.000 C 
BRANCH   6   7
ATOM      7  C   UNL     1     -34.355  15.177  17.337  1.00  0.00     0.000 C 
BRANCH   7   8
ATOM      8  C   UNL     1     -34.780  16.494  16.671  1.00  0.00     0.000 C 
BRANCH   8   9
ATOM      9  C   UNL     1     -35.238  17.545  17.705  1.00  0.00     0.000 C 
BRANCH   9  10
ATOM     10  C   UNL     1     -36.767  17.682  17.807  1.00  0.00     0.006 C 
BRANCH  10  11
ATOM     11  C   UNL     1     -37.510  16.400  17.413  1.00  0.00     0.053 C 
BRANCH  11  12
ATOM     12  C   UNL     1     -38.817  16.309  18.136  1.00  0.00     0.041 C 
ATOM     13  O   UNL     1     -39.824  16.931  17.706  1.00  0.00    -0.550 OA
ATOM     14  O   UNL     1     -38.935  15.501  19.259  1.00  0.00    -0.550 OA
ENDBRANCH  11  12
ENDBRANCH  10  11
ENDBRANCH   9  10
ENDBRANCH   8   9
ENDBRANCH   7   8
ENDBRANCH   6   7
ENDBRANCH   5   6
ENDBRANCH   4   5
ENDBRANCH   3   4
ENDBRANCH   2   3
ENDBRANCH   1   2
BRANCH   1  15
ATOM     15  C   UNL     1     -34.050  12.678  21.889  1.00  0.00     0.000 C 
BRANCH  15  16
ATOM     16  C   UNL     1     -34.529  12.495  23.346  1.00  0.00     0.000 C 
BRANCH  16  17
ATOM     17  C   UNL     1     -33.578  11.609  24.169  1.00  0.00     0.000 C 
BRANCH  17  18
ATOM     18  C   UNL     1     -34.245  11.033  25.429  1.00  0.00    -0.000 C 
BRANCH  18  19
ATOM     19  C   UNL     1     -33.220  10.512  26.453  1.00  0.00    -0.000 C 
BRANCH  19  20
ATOM     20  C   UNL     1     -33.660   9.197  27.115  1.00  0.00    -0.000 C 
BRANCH  20  21
ATOM     21  C   UNL     1     -32.789   8.000  26.692  1.00  0.00    -0.000 C 
BRANCH  21  22
ATOM     22  C   UNL     1     -33.448   7.140  25.599  1.00  0.00    -0.000 C 
BRANCH  22  23
ATOM     23  C   UNL     1     -34.669   7.782  24.910  1.00  0.00    -0.000 C 
BRANCH  23  24
ATOM     24  C   UNL     1     -35.277   6.917  23.786  1.00  0.00    -0.000 C 
BRANCH  24  25
ATOM     25  C   UNL     1     -34.423   6.938  22.509  1.00  0.00    -0.003 C 
ATOM     26  C   UNL     1     -33.845   8.328  22.256  1.00  0.00     0.004 C 
ENDBRANCH  24  25
ENDBRANCH  23  24
ENDBRANCH  22  23
ENDBRANCH  21  22
ENDBRANCH  20  21
ENDBRANCH  19  20
ENDBRANCH  18  19
ENDBRANCH  17  18
ENDBRANCH  16  17
ENDBRANCH  15  16
ENDBRANCH   1  15
TORSDOF 22
ENDMDL
MODEL 3
REMARK VINA RESULT:    12.669      2.966      9.903
REMARK INTER + INTRA:          27.688
REMARK INTER:                  29.103
REMARK INTRA:                  -1.415
REMARK UNBOUND:                -1.274
REMARK SMILES CCCCCCCCCCCCCCCCCCCCCCCC(=O)[O-]
REMARK SMILES IDX 13 1 14 2 15 3 16 4 17 5 18 6 19 7 20 8 21 9 22 10 23 11
REMARK SMILES IDX 24 12 25 13 26 14 12 15 11 16 10 17 9 18 8 19 7 20 6 21 5 22
REMARK SMILES IDX 4 23 3 24 2 25 1 26
REMARK H PARENT
REMARK Flexibility Score: inf
ROOT
ATOM      1  C   UNL     1     -33.057  11.279  19.632  1.00  0.00     0.000 C 
ENDROOT
BRANCH   1   2
ATOM      2  C   UNL     1     -32.596  12.679  19.184  1.00  0.00     0.000 C 
BRANCH   2   3
ATOM      3  C   UNL     1     -32.522  12.886  17.656  1.00  0.00     0.000 C 
BRANCH   3   4
ATOM      4  C   UNL     1     -33.849  13.278  16.984  1.00  0.00     0.000 C 
BRANCH   4   5
ATOM      5  C   UNL     1     -34.186  14.767  17.149  1.00  0.00     0.000 C 
BRANCH   5   6
ATOM      6  C   UNL     1     -34.621  15.385  15.816  1.00  0.00     0.000 C 
BRANCH   6   7
ATOM      7  C   UNL     1     -35.011  16.857  15.994  1.00  0.00     0.000 C 
BRANCH   7   8
ATOM      8  C   UNL     1     -34.562  17.387  17.364  1.00  0.00     0.000 C 
BRANCH   8   9
ATOM      9  C   UNL     1     -35.714  18.080  18.123  1.00  0.00     0.000 C 
BRANCH   9  10
ATOM     10  C   UNL     1     -37.111  17.609  17.685  1.00  0.00     0.006 C 
BRANCH  10  11
ATOM     11  C   UNL     1     -37.391  16.147  18.051  1.00  0.00     0.053 C 
BRANCH  11  12
ATOM     12  C   UNL     1     -38.837  15.958  18.385  1.00  0.00     0.041 C 
ATOM     13  O   UNL     1     -39.194  15.025  19.151  1.00  0.00    -0.550 OA
ATOM     14  O   UNL     1     -39.786  16.840  17.886  1.00  0.00    -0.550 OA
ENDBRANCH  11  12
ENDBRANCH  10  11
ENDBRANCH   9  10
ENDBRANCH   8   9
ENDBRANCH   7   8
ENDBRANCH   6   7
ENDBRANCH   5   6
ENDBRANCH   4   5
ENDBRANCH   3   4
ENDBRANCH   2   3
ENDBRANCH   1   2
BRANCH   1  15
ATOM     15  C   UNL     1     -34.007  11.267  20.846  1.00  0.00     0.000 C 
BRANCH  15  16
ATOM     16  C   UNL     1     -33.986  12.576  21.665  1.00  0.00     0.000 C 
BRANCH  16  17
ATOM     17  C   UNL     1     -34.562  12.393  23.080  1.00  0.00     0.000 C 
BRANCH  17  18
ATOM     18  C   UNL     1     -33.574  11.708  24.039  1.00  0.00    -0.000 C 
BRANCH  18  19
ATOM     19  C   UNL     1     -34.177  11.466  25.433  1.00  0.00    -0.000 C 
BRANCH  19  20
ATOM     20  C   UNL     1     -33.169  10.853  26.418  1.00  0.00    -0.000 C 
BRANCH  20  21
ATOM     21  C   UNL     1     -33.401   9.348  26.644  1.00  0.00    -0.000 C 
BRANCH  21  22
ATOM     22  C   UNL     1     -34.533   8.781  25.771  1.00  0.00    -0.000 C 
BRANCH  22  23
ATOM     23  C   UNL     1     -34.211   7.448  25.067  1.00  0.00    -0.000 C 
BRANCH  23  24
ATOM     24  C   UNL     1     -35.245   7.042  23.997  1.00  0.00    -0.000 C 
BRANCH  24  25
ATOM     25  C   UNL     1     -34.629   6.962  22.592  1.00  0.00    -0.003 C 
ATOM     26  C   UNL     1     -33.816   8.215  22.276  1.00  0.00     0.004 C 
ENDBRANCH  24  25
ENDBRANCH  23  24
ENDBRANCH  22  23
ENDBRANCH  21  22
ENDBRANCH  20  21
ENDBRANCH  19  20
ENDBRANCH  18  19
ENDBRANCH  17  18
ENDBRANCH  16  17
ENDBRANCH  15  16
ENDBRANCH   1  15
TORSDOF 22
ENDMDL
MODEL 4
REMARK VINA RESULT:    12.747      1.816      3.070
REMARK INTER + INTRA:          27.868
REMARK INTER:                  28.419
REMARK INTRA:                  -0.551
REMARK UNBOUND:                -1.274
REMARK SMILES CCCCCCCCCCCCCCCCCCCCCCCC(=O)[O-]
REMARK SMILES IDX 13 1 14 2 15 3 16 4 17 5 18 6 19 7 20 8 21 9 22 10 23 11
REMARK SMILES IDX 24 12 25 13 26 14 12 15 11 16 10 17 9 18 8 19 7 20 6 21 5 22
REMARK SMILES IDX 4 23 3 24 2 25 1 26
REMARK H PARENT
REMARK Flexibility Score: inf
ROOT
ATOM      1  C   UNL     1     -32.483  12.070  19.177  1.00  0.00     0.000 C 
ENDROOT
BRANCH   1   2
ATOM      2  C   UNL     1     -33.604  12.578  20.102  1.00  0.00     0.000 C 
BRANCH   2   3
ATOM      3  C   UNL     1     -33.997  11.617  21.244  1.00  0.00     0.000 C 
BRANCH   3   4
ATOM      4  C   UNL     1     -33.579  10.151  21.038  1.00  0.00     0.000 C 
BRANCH   4   5
ATOM      5  C   UNL     1     -34.135   9.212  22.119  1.00  0.00     0.000 C 
BRANCH   5   6
ATOM      6  C   UNL     1     -33.644   7.776  21.907  1.00  0.00     0.000 C 
BRANCH   6   7
ATOM      7  C   UNL     1     -34.564   6.772  22.613  1.00  0.00     0.000 C 
BRANCH   7   8
ATOM      8  C   UNL     1     -35.028   7.309  23.975  1.00  0.00     0.000 C 
BRANCH   8   9
ATOM      9  C   UNL     1     -34.120   6.827  25.127  1.00  0.00     0.000 C 
BRANCH   9  10
ATOM     10  C   UNL     1     -33.480   7.974  25.928  1.00  0.00     0.006 C 
BRANCH  10  11
ATOM     11  C   UNL     1     -34.385   9.208  26.031  1.00  0.00     0.053 C 
BRANCH  11  12
ATOM     12  C   UNL     1     -33.565  10.441  26.248  1.00  0.00     0.041 C 
ATOM     13  O   UNL     1     -32.655  10.452  27.118  1.00  0.00    -0.550 OA
ATOM     14  O   UNL     1     -33.777  11.564  25.459  1.00  0.00    -0.550 OA
ENDBRANCH  11  12
ENDBRANCH  10  11
ENDBRANCH   9  10
ENDBRANCH   8   9
ENDBRANCH   7   8
ENDBRANCH   6   7
ENDBRANCH   5   6
ENDBRANCH   4   5
ENDBRANCH   3   4
ENDBRANCH   2   3
ENDBRANCH   1   2
BRANCH   1  15
ATOM     15  C   UNL     1     -32.344  12.836  17.846  1.00  0.00     0.000 C 
BRANCH  15  16
ATOM     16  C   UNL     1     -33.668  12.968  17.063  1.00  0.00     0.000 C 
BRANCH  16  17
ATOM     17  C   UNL     1     -33.829  14.352  16.412  1.00  0.00     0.000 C 
BRANCH  17  18
ATOM     18  C   UNL     1     -34.800  15.261  17.183  1.00  0.00    -0.000 C 
BRANCH  18  19
ATOM     19  C   UNL     1     -34.782  16.712  16.669  1.00  0.00    -0.000 C 
BRANCH  19  20
ATOM     20  C   UNL     1     -35.343  17.711  17.695  1.00  0.00    -0.000 C 
BRANCH  20  21
ATOM     21  C   UNL     1     -36.879  17.678  17.777  1.00  0.00    -0.000 C 
BRANCH  21  22
ATOM     22  C   UNL     1     -37.465  16.298  17.434  1.00  0.00    -0.000 C 
BRANCH  22  23
ATOM     23  C   UNL     1     -38.544  15.785  18.409  1.00  0.00    -0.000 C 
BRANCH  23  24
ATOM     24  C   UNL     1     -39.770  16.714  18.527  1.00  0.00    -0.000 C 
BRANCH  24  25
ATOM     25  C   UNL     1     -39.990  17.551  17.257  1.00  0.00    -0.003 C 
ATOM     26  C   UNL     1     -40.934  16.845  16.289  1.00  0.00     0.004 C 
ENDBRANCH  24  25
ENDBRANCH  23  24
ENDBRANCH  22  23
ENDBRANCH  21  22
ENDBRANCH  20  21
ENDBRANCH  19  20
ENDBRANCH  18  19
ENDBRANCH  17  18
ENDBRANCH  16  17
ENDBRANCH  15  16
ENDBRANCH   1  15
TORSDOF 22
ENDMDL
MODEL 5
REMARK VINA RESULT:    13.181      3.066     10.050
REMARK INTER + INTRA:          28.860
REMARK INTER:                  30.314
REMARK INTRA:                  -1.454
REMARK UNBOUND:                -1.274
REMARK SMILES CCCCCCCCCCCCCCCCCCCCCCCC(=O)[O-]
REMARK SMILES IDX 13 1 14 2 15 3 16 4 17 5 18 6 19 7 20 8 21 9 22 10 23 11
REMARK SMILES IDX 24 12 25 13 26 14 12 15 11 16 10 17 9 18 8 19 7 20 6 21 5 22
REMARK SMILES IDX 4 23 3 24 2 25 1 26
REMARK H PARENT
REMARK Flexibility Score: inf
ROOT
ATOM      1  C   UNL     1     -33.617  11.925  21.010  1.00  0.00     0.000 C 
ENDROOT
BRANCH   1   2
ATOM      2  C   UNL     1     -33.348  12.842  19.803  1.00  0.00     0.000 C 
BRANCH   2   3
ATOM      3  C   UNL     1     -32.763  12.136  18.560  1.00  0.00     0.000 C 
BRANCH   3   4
ATOM      4  C   UNL     1     -32.850  12.939  17.251  1.00  0.00     0.000 C 
BRANCH   4   5
ATOM      5  C   UNL     1     -33.887  14.069  17.310  1.00  0.00     0.000 C 
BRANCH   5   6
ATOM      6  C   UNL     1     -34.097  14.698  15.928  1.00  0.00     0.000 C 
BRANCH   6   7
ATOM      7  C   UNL     1     -34.736  16.087  16.048  1.00  0.00     0.000 C 
BRANCH   7   8
ATOM      8  C   UNL     1     -34.708  16.586  17.500  1.00  0.00     0.000 C 
BRANCH   8   9
ATOM      9  C   UNL     1     -35.376  17.970  17.650  1.00  0.00     0.000 C 
BRANCH   9  10
ATOM     10  C   UNL     1     -36.912  17.910  17.700  1.00  0.00     0.006 C 
BRANCH  10  11
ATOM     11  C   UNL     1     -37.464  16.502  17.450  1.00  0.00     0.053 C 
BRANCH  11  12
ATOM     12  C   UNL     1     -38.758  16.309  18.176  1.00  0.00     0.041 C 
ATOM     13  O   UNL     1     -39.817  16.823  17.729  1.00  0.00    -0.550 OA
ATOM     14  O   UNL     1     -38.802  15.525  19.321  1.00  0.00    -0.550 OA
ENDBRANCH  11  12
ENDBRANCH  10  11
ENDBRANCH   9  10
ENDBRANCH   8   9
ENDBRANCH   7   8
ENDBRANCH   6   7
ENDBRANCH   5   6
ENDBRANCH   4   5
ENDBRANCH   3   4
ENDBRANCH   2   3
ENDBRANCH   1   2
BRANCH   1  15
ATOM     15  C   UNL     1     -34.049  10.490  20.651  1.00  0.00     0.000 C 
BRANCH  15  16
ATOM     16  C   UNL     1     -33.197   9.395  21.329  1.00  0.00     0.000 C 
BRANCH  16  17
ATOM     17  C   UNL     1     -33.884   8.801  22.570  1.00  0.00     0.000 C 
BRANCH  17  18
ATOM     18  C   UNL     1     -34.143   7.291  22.441  1.00  0.00    -0.000 C 
BRANCH  18  19
ATOM     19  C   UNL     1     -35.218   6.791  23.422  1.00  0.00    -0.000 C 
BRANCH  19  20
ATOM     20  C   UNL     1     -34.977   7.270  24.862  1.00  0.00    -0.000 C 
BRANCH  20  21
ATOM     21  C   UNL     1     -33.613   6.819  25.417  1.00  0.00    -0.000 C 
BRANCH  21  22
ATOM     22  C   UNL     1     -32.918   7.911  26.248  1.00  0.00    -0.000 C 
BRANCH  22  23
ATOM     23  C   UNL     1     -33.828   9.073  26.694  1.00  0.00    -0.000 C 
BRANCH  23  24
ATOM     24  C   UNL     1     -33.346  10.459  26.218  1.00  0.00    -0.000 C 
BRANCH  24  25
ATOM     25  C   UNL     1     -34.479  11.282  25.586  1.00  0.00    -0.003 C 
ATOM     26  C   UNL     1     -33.998  12.008  24.332  1.00  0.00     0.004 C 
ENDBRANCH  24  25
ENDBRANCH  23  24
ENDBRANCH  22  23
ENDBRANCH  21  22
ENDBRANCH  20  21
ENDBRANCH  19  20
ENDBRANCH  18  19
ENDBRANCH  17  18
ENDBRANCH  16  17
ENDBRANCH  15  16
ENDBRANCH   1  15
TORSDOF 22
ENDMDL
MODEL 6
REMARK VINA RESULT:    13.277      1.848      3.096
REMARK INTER + INTRA:          29.079
REMARK INTER:                  30.462
REMARK INTRA:                  -1.383
REMARK UNBOUND:                -1.274
REMARK SMILES CCCCCCCCCCCCCCCCCCCCCCCC(=O)[O-]
REMARK SMILES IDX 13 1 14 2 15 3 16 4 17 5 18 6 19 7 20 8 21 9 22 10 23 11
REMARK SMILES IDX 24 12 25 13 26 14 12 15 11 16 10 17 9 18 8 19 7 20 6 21 5 22
REMARK SMILES IDX 4 23 3 24 2 25 1 26
REMARK H PARENT
REMARK Flexibility Score: inf
ROOT
ATOM      1  C   UNL     1     -32.388  12.248  19.290  1.00  0.00     0.000 C 
ENDROOT
BRANCH   1   2
ATOM      2  C   UNL     1     -33.604  12.715  20.111  1.00  0.00     0.000 C 
BRANCH   2   3
ATOM      3  C   UNL     1     -34.039  11.757  21.241  1.00  0.00     0.000 C 
BRANCH   3   4
ATOM      4  C   UNL     1     -33.851  10.261  20.938  1.00  0.00     0.000 C 
BRANCH   4   5
ATOM      5  C   UNL     1     -33.929   9.381  22.195  1.00  0.00     0.000 C 
BRANCH   5   6
ATOM      6  C   UNL     1     -33.509   7.940  21.885  1.00  0.00     0.000 C 
BRANCH   6   7
ATOM      7  C   UNL     1     -34.482   6.938  22.520  1.00  0.00     0.000 C 
BRANCH   7   8
ATOM      8  C   UNL     1     -34.955   7.421  23.899  1.00  0.00     0.000 C 
BRANCH   8   9
ATOM      9  C   UNL     1     -34.082   6.857  25.041  1.00  0.00     0.000 C 
BRANCH   9  10
ATOM     10  C   UNL     1     -33.455   7.944  25.931  1.00  0.00     0.006 C 
BRANCH  10  11
ATOM     11  C   UNL     1     -34.386   9.140  26.158  1.00  0.00     0.053 C 
BRANCH  11  12
ATOM     12  C   UNL     1     -33.594  10.404  26.283  1.00  0.00     0.041 C 
ATOM     13  O   UNL     1     -32.655  10.483  27.118  1.00  0.00    -0.550 OA
ATOM     14  O   UNL     1     -33.863  11.478  25.445  1.00  0.00    -0.550 OA
ENDBRANCH  11  12
ENDBRANCH  10  11
ENDBRANCH   9  10
ENDBRANCH   8   9
ENDBRANCH   7   8
ENDBRANCH   6   7
ENDBRANCH   5   6
ENDBRANCH   4   5
ENDBRANCH   3   4
ENDBRANCH   2   3
ENDBRANCH   1   2
BRANCH   1  15
ATOM     15  C   UNL     1     -32.280  12.867  17.882  1.00  0.00     0.000 C 
BRANCH  15  16
ATOM     16  C   UNL     1     -33.605  12.841  17.089  1.00  0.00     0.000 C 
BRANCH  16  17
ATOM     17  C   UNL     1     -33.853  14.150  16.320  1.00  0.00     0.000 C 
BRANCH  17  18
ATOM     18  C   UNL     1     -34.542  15.222  17.180  1.00  0.00    -0.000 C 
BRANCH  18  19
ATOM     19  C   UNL     1     -34.980  16.447  16.357  1.00  0.00    -0.000 C 
BRANCH  19  20
ATOM     20  C   UNL     1     -34.757  17.773  17.102  1.00  0.00    -0.000 C 
BRANCH  20  21
ATOM     21  C   UNL     1     -36.029  18.280  17.805  1.00  0.00    -0.000 C 
BRANCH  21  22
ATOM     22  C   UNL     1     -36.975  17.140  18.221  1.00  0.00    -0.000 C 
BRANCH  22  23
ATOM     23  C   UNL     1     -38.281  17.046  17.408  1.00  0.00    -0.000 C 
BRANCH  23  24
ATOM     24  C   UNL     1     -39.403  16.262  18.120  1.00  0.00    -0.000 C 
BRANCH  24  25
ATOM     25  C   UNL     1     -38.870  15.023  18.856  1.00  0.00    -0.003 C 
ATOM     26  C   UNL     1     -39.974  13.991  19.068  1.00  0.00     0.004 C 
ENDBRANCH  24  25
ENDBRANCH  23  24
ENDBRANCH  22  23
ENDBRANCH  21  22
ENDBRANCH  20  21
ENDBRANCH  19  20
ENDBRANCH  18  19
ENDBRANCH  17  18
ENDBRANCH  16  17
ENDBRANCH  15  16
ENDBRANCH   1  15
TORSDOF 22
ENDMDL
MODEL 7
REMARK VINA RESULT:    13.295      1.663      2.798
REMARK INTER + INTRA:          29.120
REMARK INTER:                  29.587
REMARK INTRA:                  -0.467
REMARK UNBOUND:                -1.274
REMARK SMILES CCCCCCCCCCCCCCCCCCCCCCCC(=O)[O-]
REMARK SMILES IDX 13 1 14 2 15 3 16 4 17 5 18 6 19 7 20 8 21 9 22 10 23 11
REMARK SMILES IDX 24 12 25 13 26 14 12 15 11 16 10 17 9 18 8 19 7 20 6 21 5 22
REMARK SMILES IDX 4 23 3 24 2 25 1 26
REMARK H PARENT
REMARK Flexibility Score: inf
ROOT
ATOM      1  C   UNL     1     -33.188  11.686  19.348  1.00  0.00     0.000 C 
ENDROOT
BRANCH   1   2
ATOM      2  C   UNL     1     -33.841  12.114  20.675  1.00  0.00     0.000 C 
BRANCH   2   3
ATOM      3  C   UNL     1     -33.965  10.998  21.735  1.00  0.00     0.000 C 
BRANCH   3   4
ATOM      4  C   UNL     1     -33.833   9.564  21.193  1.00  0.00     0.000 C 
BRANCH   4   5
ATOM      5  C   UNL     1     -33.440   8.549  22.276  1.00  0.00     0.000 C 
BRANCH   5   6
ATOM      6  C   UNL     1     -34.347   7.315  22.229  1.00  0.00     0.000 C 
BRANCH   6   7
ATOM      7  C   UNL     1     -35.066   7.112  23.569  1.00  0.00     0.000 C 
BRANCH   7   8
ATOM      8  C   UNL     1     -34.078   7.176  24.743  1.00  0.00     0.000 C 
BRANCH   8   9
ATOM      9  C   UNL     1     -34.437   8.298  25.741  1.00  0.00     0.000 C 
BRANCH   9  10
ATOM     10  C   UNL     1     -33.224   8.853  26.506  1.00  0.00     0.006 C 
BRANCH  10  11
ATOM     11  C   UNL     1     -33.269  10.377  26.674  1.00  0.00     0.053 C 
BRANCH  11  12
ATOM     12  C   UNL     1     -34.295  10.973  25.762  1.00  0.00     0.041 C 
ATOM     13  O   UNL     1     -35.520  10.872  26.034  1.00  0.00    -0.550 OA
ATOM     14  O   UNL     1     -33.896  11.679  24.635  1.00  0.00    -0.550 OA
ENDBRANCH  11  12
ENDBRANCH  10  11
ENDBRANCH   9  10
ENDBRANCH   8   9
ENDBRANCH   7   8
ENDBRANCH   6   7
ENDBRANCH   5   6
ENDBRANCH   4   5
ENDBRANCH   3   4
ENDBRANCH   2   3
ENDBRANCH   1   2
BRANCH   1  15
ATOM     15  C   UNL     1     -32.130  12.664  18.801  1.00  0.00     0.000 C 
BRANCH  15  16
ATOM     16  C   UNL     1     -32.200  12.864  17.271  1.00  0.00     0.000 C 
BRANCH  16  17
ATOM     17  C   UNL     1     -33.645  12.865  16.744  1.00  0.00     0.000 C 
BRANCH  17  18
ATOM     18  C   UNL     1     -34.071  14.232  16.183  1.00  0.00    -0.000 C 
BRANCH  18  19
ATOM     19  C   UNL     1     -34.448  15.232  17.290  1.00  0.00    -0.000 C 
BRANCH  19  20
ATOM     20  C   UNL     1     -34.781  16.628  16.740  1.00  0.00    -0.000 C 
BRANCH  20  21
ATOM     21  C   UNL     1     -35.310  17.583  17.825  1.00  0.00    -0.000 C 
BRANCH  21  22
ATOM     22  C   UNL     1     -36.841  17.732  17.794  1.00  0.00    -0.000 C 
BRANCH  22  23
ATOM     23  C   UNL     1     -37.619  16.430  17.513  1.00  0.00    -0.000 C 
BRANCH  23  24
ATOM     24  C   UNL     1     -38.596  16.032  18.638  1.00  0.00    -0.000 C 
BRANCH  24  25
ATOM     25  C   UNL     1     -40.041  16.453  18.329  1.00  0.00    -0.003 C 
ATOM     26  C   UNL     1     -40.108  17.309  17.067  1.00  0.00     0.004 C 
ENDBRANCH  24  25
ENDBRANCH  23  24
ENDBRANCH  22  23
ENDBRANCH  21  22
ENDBRANCH  20  21
ENDBRANCH  19  20
ENDBRANCH  18  19
ENDBRANCH  17  18
ENDBRANCH  16  17
ENDBRANCH  15  16
ENDBRANCH   1  15
TORSDOF 22
ENDMDL
MODEL 8
REMARK VINA RESULT:    13.428      3.032      9.935
REMARK INTER + INTRA:          29.424
REMARK INTER:                  30.320
REMARK INTRA:                  -0.896
REMARK UNBOUND:                -1.274
REMARK SMILES CCCCCCCCCCCCCCCCCCCCCCCC(=O)[O-]
REMARK SMILES IDX 13 1 14 2 15 3 16 4 17 5 18 6 19 7 20 8 21 9 22 10 23 11
REMARK SMILES IDX 24 12 25 13 26 14 12 15 11 16 10 17 9 18 8 19 7 20 6 21 5 22
REMARK SMILES IDX 4 23 3 24 2 25 1 26
REMARK H PARENT
REMARK Flexibility Score: inf
ROOT
ATOM      1  C   UNL     1     -33.346  13.025  19.803  1.00  0.00     0.000 C 
ENDROOT
BRANCH   1   2
ATOM      2  C   UNL     1     -32.132  12.475  19.031  1.00  0.00     0.000 C 
BRANCH   2   3
ATOM      3  C   UNL     1     -32.121  12.786  17.519  1.00  0.00     0.000 C 
BRANCH   3   4
ATOM      4  C   UNL     1     -33.508  12.866  16.858  1.00  0.00     0.000 C 
BRANCH   4   5
ATOM      5  C   UNL     1     -33.743  14.192  16.120  1.00  0.00     0.000 C 
BRANCH   5   6
ATOM      6  C   UNL     1     -34.886  14.985  16.763  1.00  0.00     0.000 C 
BRANCH   6   7
ATOM      7  C   UNL     1     -34.758  16.482  16.452  1.00  0.00     0.000 C 
BRANCH   7   8
ATOM      8  C   UNL     1     -34.741  17.316  17.741  1.00  0.00     0.000 C 
BRANCH   8   9
ATOM      9  C   UNL     1     -35.809  18.431  17.723  1.00  0.00     0.000 C 
BRANCH   9  10
ATOM     10  C   UNL     1     -37.252  17.900  17.661  1.00  0.00     0.006 C 
BRANCH  10  11
ATOM     11  C   UNL     1     -37.380  16.459  18.168  1.00  0.00     0.053 C 
BRANCH  11  12
ATOM     12  C   UNL     1     -38.819  16.105  18.380  1.00  0.00     0.041 C 
ATOM     13  O   UNL     1     -39.129  15.123  19.105  1.00  0.00    -0.550 OA
ATOM     14  O   UNL     1     -39.817  16.886  17.814  1.00  0.00    -0.550 OA
ENDBRANCH  11  12
ENDBRANCH  10  11
ENDBRANCH   9  10
ENDBRANCH   8   9
ENDBRANCH   7   8
ENDBRANCH   6   7
ENDBRANCH   5   6
ENDBRANCH   4   5
ENDBRANCH   3   4
ENDBRANCH   2   3
ENDBRANCH   1   2
BRANCH   1  15
ATOM     15  C   UNL     1     -33.869  12.110  20.927  1.00  0.00     0.000 C 
BRANCH  15  16
ATOM     16  C   UNL     1     -34.249  10.692  20.448  1.00  0.00     0.000 C 
BRANCH  16  17
ATOM     17  C   UNL     1     -33.343   9.606  21.054  1.00  0.00     0.000 C 
BRANCH  17  18
ATOM     18  C   UNL     1     -33.885   9.055  22.384  1.00  0.00    -0.000 C 
BRANCH  18  19
ATOM     19  C   UNL     1     -33.702   7.532  22.509  1.00  0.00    -0.000 C 
BRANCH  19  20
ATOM     20  C   UNL     1     -35.013   6.802  22.840  1.00  0.00    -0.000 C 
BRANCH  20  21
ATOM     21  C   UNL     1     -35.418   6.948  24.318  1.00  0.00    -0.000 C 
BRANCH  21  22
ATOM     22  C   UNL     1     -34.285   7.512  25.193  1.00  0.00    -0.000 C 
BRANCH  22  23
ATOM     23  C   UNL     1     -34.630   8.806  25.956  1.00  0.00    -0.000 C 
BRANCH  23  24
ATOM     24  C   UNL     1     -33.439   9.413  26.726  1.00  0.00    -0.000 C 
BRANCH  24  25
ATOM     25  C   UNL     1     -33.155  10.864  26.308  1.00  0.00    -0.003 C 
ATOM     26  C   UNL     1     -34.206  11.369  25.324  1.00  0.00     0.004 C 
ENDBRANCH  24  25
ENDBRANCH  23  24
ENDBRANCH  22  23
ENDBRANCH  21  22
ENDBRANCH  20  21
ENDBRANCH  19  20
ENDBRANCH  18  19
ENDBRANCH  17  18
ENDBRANCH  16  17
ENDBRANCH  15  16
ENDBRANCH   1  15
TORSDOF 22
ENDMDL
