MODEL 1
REMARK VINA RESULT:    -3.099      0.000      0.000
REMARK INTER + INTRA:          -7.855
REMARK INTER:                  -5.636
REMARK INTRA:                  -2.219
REMARK UNBOUND:                -2.219
REMARK SMILES CCCCCCCCCCCCCCCC(=O)[O-]
REMARK SMILES IDX 9 1 10 2 11 3 12 4 13 5 14 6 15 7 16 8 17 9 18 10 8 11 7 12
REMARK SMILES IDX 6 13 5 14 4 15 3 16 2 17 1 18
REMARK H PARENT
REMARK Flexibility Score: inf
ROOT
ATOM      1  C   UNL     1      10.468  42.307 154.619  1.00  0.00     0.000 C 
ENDROOT
BRANCH   1   2
ATOM      2  C   UNL     1      10.097  42.483 156.101  1.00  0.00     0.000 C 
BRANCH   2   3
ATOM      3  C   UNL     1       8.870  43.391 156.297  1.00  0.00     0.000 C 
BRANCH   3   4
ATOM      4  C   UNL     1       8.225  43.807 154.966  1.00  0.00     0.000 C 
BRANCH   4   5
ATOM      5  C   UNL     1       8.098  45.334 154.820  1.00  0.00     0.000 C 
BRANCH   5   6
ATOM      6  C   UNL     1       9.350  46.079 155.307  1.00  0.00     0.006 C 
BRANCH   6   7
ATOM      7  C   UNL     1       9.944  46.999 154.233  1.00  0.00     0.053 C 
BRANCH   7   8
ATOM      8  C   UNL     1       9.600  48.426 154.520  1.00  0.00     0.041 C 
ATOM      9  O   UNL     1       8.406  48.757 154.751  1.00  0.00    -0.550 OA
ATOM     10  O   UNL     1      10.590  49.401 154.486  1.00  0.00    -0.550 OA
ENDBRANCH   7   8
ENDBRANCH   6   7
ENDBRANCH   5   6
ENDBRANCH   4   5
ENDBRANCH   3   4
ENDBRANCH   2   3
ENDBRANCH   1   2
BRANCH   1  11
ATOM     11  C   UNL     1      11.845  42.906 154.278  1.00  0.00     0.000 C 
BRANCH  11  12
ATOM     12  C   UNL     1      11.786  43.875 153.086  1.00  0.00    -0.000 C 
BRANCH  12  13
ATOM     13  C   UNL     1      10.567  43.628 152.187  1.00  0.00    -0.000 C 
BRANCH  13  14
ATOM     14  C   UNL     1      10.996  43.367 150.737  1.00  0.00    -0.000 C 
BRANCH  14  15
ATOM     15  C   UNL     1      12.279  42.523 150.689  1.00  0.00    -0.000 C 
BRANCH  15  16
ATOM     16  C   UNL     1      12.018  41.075 150.246  1.00  0.00    -0.000 C 
BRANCH  16  17
ATOM     17  C   UNL     1      11.986  40.092 151.425  1.00  0.00    -0.003 C 
ATOM     18  C   UNL     1      10.559  39.860 151.910  1.00  0.00     0.004 C 
ENDBRANCH  16  17
ENDBRANCH  15  16
ENDBRANCH  14  15
ENDBRANCH  13  14
ENDBRANCH  12  13
ENDBRANCH  11  12
ENDBRANCH   1  11
TORSDOF 14
ENDMDL
MODEL 2
REMARK VINA RESULT:    -3.069      2.620      4.017
REMARK INTER + INTRA:          -7.800
REMARK INTER:                  -5.403
REMARK INTRA:                  -2.397
REMARK UNBOUND:                -2.219
REMARK SMILES CCCCCCCCCCCCCCCC(=O)[O-]
REMARK SMILES IDX 9 1 10 2 11 3 12 4 13 5 14 6 15 7 16 8 17 9 18 10 8 11 7 12
REMARK SMILES IDX 6 13 5 14 4 15 3 16 2 17 1 18
REMARK H PARENT
REMARK Flexibility Score: inf
ROOT
ATOM      1  C   UNL     1      11.262  44.056 152.410  1.00  0.00     0.000 C 
ENDROOT
BRANCH   1   2
ATOM      2  C   UNL     1      12.481  43.764 153.301  1.00  0.00     0.000 C 
BRANCH   2   3
ATOM      3  C   UNL     1      12.159  42.773 154.434  1.00  0.00     0.000 C 
BRANCH   3   4
ATOM      4  C   UNL     1      10.660  42.449 154.527  1.00  0.00     0.000 C 
BRANCH   4   5
ATOM      5  C   UNL     1      10.138  42.469 155.974  1.00  0.00     0.000 C 
BRANCH   5   6
ATOM      6  C   UNL     1       8.867  43.319 156.132  1.00  0.00     0.006 C 
BRANCH   6   7
ATOM      7  C   UNL     1       8.312  43.805 154.787  1.00  0.00     0.053 C 
BRANCH   7   8
ATOM      8  C   UNL     1       6.846  43.523 154.696  1.00  0.00     0.041 C 
ATOM      9  O   UNL     1       6.139  44.108 153.833  1.00  0.00    -0.550 OA
ATOM     10  O   UNL     1       6.249  42.647 155.595  1.00  0.00    -0.550 OA
ENDBRANCH   7   8
ENDBRANCH   6   7
ENDBRANCH   5   6
ENDBRANCH   4   5
ENDBRANCH   3   4
ENDBRANCH   2   3
ENDBRANCH   1   2
BRANCH   1  11
ATOM     11  C   UNL     1      11.555  43.834 150.915  1.00  0.00     0.000 C 
BRANCH  11  12
ATOM     12  C   UNL     1      12.584  42.717 150.676  1.00  0.00    -0.000 C 
BRANCH  12  13
ATOM     13  C   UNL     1      11.924  41.365 150.367  1.00  0.00    -0.000 C 
BRANCH  13  14
ATOM     14  C   UNL     1      11.953  40.445 151.593  1.00  0.00    -0.000 C 
BRANCH  14  15
ATOM     15  C   UNL     1      10.538  39.962 151.950  1.00  0.00    -0.000 C 
BRANCH  15  16
ATOM     16  C   UNL     1       9.440  40.792 151.268  1.00  0.00    -0.000 C 
BRANCH  16  17
ATOM     17  C   UNL     1       8.037  40.468 151.800  1.00  0.00    -0.003 C 
ATOM     18  C   UNL     1       8.062  40.226 153.306  1.00  0.00     0.004 C 
ENDBRANCH  16  17
ENDBRANCH  15  16
ENDBRANCH  14  15
ENDBRANCH  13  14
ENDBRANCH  12  13
ENDBRANCH  11  12
ENDBRANCH   1  11
TORSDOF 14
ENDMDL
MODEL 3
REMARK VINA RESULT:    -2.991      5.065      7.245
REMARK INTER + INTRA:          -7.658
REMARK INTER:                  -4.935
REMARK INTRA:                  -2.723
REMARK UNBOUND:                -2.219
REMARK SMILES CCCCCCCCCCCCCCCC(=O)[O-]
REMARK SMILES IDX 9 1 10 2 11 3 12 4 13 5 14 6 15 7 16 8 17 9 18 10 8 11 7 12
REMARK SMILES IDX 6 13 5 14 4 15 3 16 2 17 1 18
REMARK H PARENT
REMARK Flexibility Score: inf
ROOT
ATOM      1  C   UNL     1       8.512  43.862 151.642  1.00  0.00     0.000 C 
ENDROOT
BRANCH   1   2
ATOM      2  C   UNL     1       8.728  43.417 150.186  1.00  0.00     0.000 C 
BRANCH   2   3
ATOM      3  C   UNL     1       8.407  41.927 149.972  1.00  0.00     0.000 C 
BRANCH   3   4
ATOM      4  C   UNL     1       7.957  41.228 151.264  1.00  0.00     0.000 C 
BRANCH   4   5
ATOM      5  C   UNL     1       8.591  39.836 151.437  1.00  0.00     0.000 C 
BRANCH   5   6
ATOM      6  C   UNL     1       8.521  38.993 150.155  1.00  0.00     0.006 C 
BRANCH   6   7
ATOM      7  C   UNL     1       9.779  38.142 149.938  1.00  0.00     0.053 C 
BRANCH   7   8
ATOM      8  C   UNL     1       9.415  36.698 149.798  1.00  0.00     0.041 C 
ATOM      9  O   UNL     1      10.253  35.802 150.082  1.00  0.00    -0.550 OA
ATOM     10  O   UNL     1       8.165  36.341 149.307  1.00  0.00    -0.550 OA
ENDBRANCH   7   8
ENDBRANCH   6   7
ENDBRANCH   5   6
ENDBRANCH   4   5
ENDBRANCH   3   4
ENDBRANCH   2   3
ENDBRANCH   1   2
BRANCH   1  11
ATOM     11  C   UNL     1       9.597  44.840 152.129  1.00  0.00     0.000 C 
BRANCH  11  12
ATOM     12  C   UNL     1      10.484  44.236 153.230  1.00  0.00    -0.000 C 
BRANCH  12  13
ATOM     13  C   UNL     1       9.807  43.061 153.952  1.00  0.00    -0.000 C 
BRANCH  13  14
ATOM     14  C   UNL     1      10.641  41.781 153.822  1.00  0.00    -0.000 C 
BRANCH  14  15
ATOM     15  C   UNL     1      11.814  41.987 152.851  1.00  0.00    -0.000 C 
BRANCH  15  16
ATOM     16  C   UNL     1      11.933  40.856 151.817  1.00  0.00    -0.000 C 
BRANCH  16  17
ATOM     17  C   UNL     1      11.995  41.376 150.374  1.00  0.00    -0.003 C 
ATOM     18  C   UNL     1      12.455  42.830 150.334  1.00  0.00     0.004 C 
ENDBRANCH  16  17
ENDBRANCH  15  16
ENDBRANCH  14  15
ENDBRANCH  13  14
ENDBRANCH  12  13
ENDBRANCH  11  12
ENDBRANCH   1  11
TORSDOF 14
ENDMDL
MODEL 4
REMARK VINA RESULT:    -2.985     14.911     16.222
REMARK INTER + INTRA:          -7.646
REMARK INTER:                  -5.365
REMARK INTRA:                  -2.281
REMARK UNBOUND:                -2.219
REMARK SMILES CCCCCCCCCCCCCCCC(=O)[O-]
REMARK SMILES IDX 9 1 10 2 11 3 12 4 13 5 14 6 15 7 16 8 17 9 18 10 8 11 7 12
REMARK SMILES IDX 6 13 5 14 4 15 3 16 2 17 1 18
REMARK H PARENT
REMARK Flexibility Score: inf
ROOT
ATOM      1  C   UNL     1       7.949  37.214 140.684  1.00  0.00     0.000 C 
ENDROOT
BRANCH   1   2
ATOM      2  C   UNL     1       7.191  36.313 139.695  1.00  0.00     0.000 C 
BRANCH   2   3
ATOM      3  C   UNL     1       7.287  36.818 138.244  1.00  0.00     0.000 C 
BRANCH   3   4
ATOM      4  C   UNL     1       7.261  38.352 138.151  1.00  0.00     0.000 C 
BRANCH   4   5
ATOM      5  C   UNL     1       5.972  38.885 137.500  1.00  0.00     0.000 C 
BRANCH   5   6
ATOM      6  C   UNL     1       5.275  39.951 138.359  1.00  0.00     0.006 C 
BRANCH   6   7
ATOM      7  C   UNL     1       5.372  39.655 139.861  1.00  0.00     0.053 C 
BRANCH   7   8
ATOM      8  C   UNL     1       4.181  38.874 140.317  1.00  0.00     0.041 C 
ATOM      9  O   UNL     1       4.296  38.018 141.234  1.00  0.00    -0.550 OA
ATOM     10  O   UNL     1       2.951  39.058 139.698  1.00  0.00    -0.550 OA
ENDBRANCH   7   8
ENDBRANCH   6   7
ENDBRANCH   5   6
ENDBRANCH   4   5
ENDBRANCH   3   4
ENDBRANCH   2   3
ENDBRANCH   1   2
BRANCH   1  11
ATOM     11  C   UNL     1       9.227  36.552 141.229  1.00  0.00     0.000 C 
BRANCH  11  12
ATOM     12  C   UNL     1       9.439  35.135 140.673  1.00  0.00    -0.000 C 
BRANCH  12  13
ATOM     13  C   UNL     1      10.833  34.945 140.059  1.00  0.00    -0.000 C 
BRANCH  13  14
ATOM     14  C   UNL     1      10.958  35.702 138.731  1.00  0.00    -0.000 C 
BRANCH  14  15
ATOM     15  C   UNL     1      12.264  36.510 138.681  1.00  0.00    -0.000 C 
BRANCH  15  16
ATOM     16  C   UNL     1      12.079  37.964 139.143  1.00  0.00    -0.000 C 
BRANCH  16  17
ATOM     17  C   UNL     1      10.794  38.600 138.595  1.00  0.00    -0.003 C 
ATOM     18  C   UNL     1      10.474  39.904 139.319  1.00  0.00     0.004 C 
ENDBRANCH  16  17
ENDBRANCH  15  16
ENDBRANCH  14  15
ENDBRANCH  13  14
ENDBRANCH  12  13
ENDBRANCH  11  12
ENDBRANCH   1  11
TORSDOF 14
ENDMDL
MODEL 5
REMARK VINA RESULT:    -2.971     15.141     16.543
REMARK INTER + INTRA:          -7.622
REMARK INTER:                  -5.900
REMARK INTRA:                  -1.723
REMARK UNBOUND:                -2.219
REMARK SMILES CCCCCCCCCCCCCCCC(=O)[O-]
REMARK SMILES IDX 9 1 10 2 11 3 12 4 13 5 14 6 15 7 16 8 17 9 18 10 8 11 7 12
REMARK SMILES IDX 6 13 5 14 4 15 3 16 2 17 1 18
REMARK H PARENT
REMARK Flexibility Score: inf
ROOT
ATOM      1  C   UNL     1      11.228  35.329 140.183  1.00  0.00     0.000 C 
ENDROOT
BRANCH   1   2
ATOM      2  C   UNL     1       9.722  35.173 140.447  1.00  0.00     0.000 C 
BRANCH   2   3
ATOM      3  C   UNL     1       9.073  36.477 140.944  1.00  0.00     0.000 C 
BRANCH   3   4
ATOM      4  C   UNL     1       7.693  36.727 140.315  1.00  0.00     0.000 C 
BRANCH   4   5
ATOM      5  C   UNL     1       7.572  36.139 138.898  1.00  0.00     0.000 C 
BRANCH   5   6
ATOM      6  C   UNL     1       7.095  37.176 137.868  1.00  0.00     0.006 C 
BRANCH   6   7
ATOM      7  C   UNL     1       7.028  38.595 138.447  1.00  0.00     0.053 C 
BRANCH   7   8
ATOM      8  C   UNL     1       5.726  39.242 138.094  1.00  0.00     0.041 C 
ATOM      9  O   UNL     1       5.170  40.031 138.903  1.00  0.00    -0.550 OA
ATOM     10  O   UNL     1       5.102  38.936 136.891  1.00  0.00    -0.550 OA
ENDBRANCH   7   8
ENDBRANCH   6   7
ENDBRANCH   5   6
ENDBRANCH   4   5
ENDBRANCH   3   4
ENDBRANCH   2   3
ENDBRANCH   1   2
BRANCH   1  11
ATOM     11  C   UNL     1      11.535  35.751 138.734  1.00  0.00     0.000 C 
BRANCH  11  12
ATOM     12  C   UNL     1      12.640  36.817 138.653  1.00  0.00    -0.000 C 
BRANCH  12  13
ATOM     13  C   UNL     1      12.186  38.179 139.199  1.00  0.00    -0.000 C 
BRANCH  13  14
ATOM     14  C   UNL     1      10.840  38.593 138.592  1.00  0.00    -0.000 C 
BRANCH  14  15
ATOM     15  C   UNL     1      10.398  39.965 139.124  1.00  0.00    -0.000 C 
BRANCH  15  16
ATOM     16  C   UNL     1      10.417  41.054 138.040  1.00  0.00    -0.000 C 
BRANCH  16  17
ATOM     17  C   UNL     1      10.503  42.471 138.626  1.00  0.00    -0.003 C 
ATOM     18  C   UNL     1      10.807  43.498 137.540  1.00  0.00     0.004 C 
ENDBRANCH  16  17
ENDBRANCH  15  16
ENDBRANCH  14  15
ENDBRANCH  13  14
ENDBRANCH  12  13
ENDBRANCH  11  12
ENDBRANCH   1  11
TORSDOF 14
ENDMDL
MODEL 6
REMARK VINA RESULT:    -2.942      2.857      5.187
REMARK INTER + INTRA:          -7.569
REMARK INTER:                  -5.192
REMARK INTRA:                  -2.377
REMARK UNBOUND:                -2.219
REMARK SMILES CCCCCCCCCCCCCCCC(=O)[O-]
REMARK SMILES IDX 9 1 10 2 11 3 12 4 13 5 14 6 15 7 16 8 17 9 18 10 8 11 7 12
REMARK SMILES IDX 6 13 5 14 4 15 3 16 2 17 1 18
REMARK H PARENT
REMARK Flexibility Score: inf
ROOT
ATOM      1  C   UNL     1      11.625  41.270 149.200  1.00  0.00     0.000 C 
ENDROOT
BRANCH   1   2
ATOM      2  C   UNL     1      12.016  42.585 149.894  1.00  0.00     0.000 C 
BRANCH   2   3
ATOM      3  C   UNL     1      12.311  42.395 151.392  1.00  0.00     0.000 C 
BRANCH   3   4
ATOM      4  C   UNL     1      11.980  43.646 152.222  1.00  0.00     0.000 C 
BRANCH   4   5
ATOM      5  C   UNL     1      12.476  43.541 153.675  1.00  0.00     0.000 C 
BRANCH   5   6
ATOM      6  C   UNL     1      11.483  42.802 154.585  1.00  0.00     0.006 C 
BRANCH   6   7
ATOM      7  C   UNL     1      10.146  43.542 154.724  1.00  0.00     0.053 C 
BRANCH   7   8
ATOM      8  C   UNL     1       9.384  43.025 155.903  1.00  0.00     0.041 C 
ATOM      9  O   UNL     1       9.986  42.433 156.838  1.00  0.00    -0.550 OA
ATOM     10  O   UNL     1       8.001  43.155 155.948  1.00  0.00    -0.550 OA
ENDBRANCH   7   8
ENDBRANCH   6   7
ENDBRANCH   5   6
ENDBRANCH   4   5
ENDBRANCH   3   4
ENDBRANCH   2   3
ENDBRANCH   1   2
BRANCH   1  11
ATOM     11  C   UNL     1      12.004  40.028 150.028  1.00  0.00     0.000 C 
BRANCH  11  12
ATOM     12  C   UNL     1      10.910  38.948 150.003  1.00  0.00    -0.000 C 
BRANCH  12  13
ATOM     13  C   UNL     1       9.702  39.313 150.877  1.00  0.00    -0.000 C 
BRANCH  13  14
ATOM     14  C   UNL     1      10.151  39.860 152.238  1.00  0.00    -0.000 C 
BRANCH  14  15
ATOM     15  C   UNL     1       8.969  40.482 152.997  1.00  0.00    -0.000 C 
BRANCH  15  16
ATOM     16  C   UNL     1       7.961  41.167 152.061  1.00  0.00    -0.000 C 
BRANCH  16  17
ATOM     17  C   UNL     1       8.323  42.631 151.771  1.00  0.00    -0.003 C 
ATOM     18  C   UNL     1       8.379  42.896 150.270  1.00  0.00     0.004 C 
ENDBRANCH  16  17
ENDBRANCH  15  16
ENDBRANCH  14  15
ENDBRANCH  13  14
ENDBRANCH  12  13
ENDBRANCH  11  12
ENDBRANCH   1  11
TORSDOF 14
ENDMDL
MODEL 7
REMARK VINA RESULT:    -2.911      2.234      4.288
REMARK INTER + INTRA:          -7.513
REMARK INTER:                  -5.112
REMARK INTRA:                  -2.401
REMARK UNBOUND:                -2.219
REMARK SMILES CCCCCCCCCCCCCCCC(=O)[O-]
REMARK SMILES IDX 9 1 10 2 11 3 12 4 13 5 14 6 15 7 16 8 17 9 18 10 8 11 7 12
REMARK SMILES IDX 6 13 5 14 4 15 3 16 2 17 1 18
REMARK H PARENT
REMARK Flexibility Score: inf
ROOT
ATOM      1  C   UNL     1      12.067  42.298 151.118  1.00  0.00     0.000 C 
ENDROOT
BRANCH   1   2
ATOM      2  C   UNL     1      12.147  42.062 152.635  1.00  0.00     0.000 C 
BRANCH   2   3
ATOM      3  C   UNL     1      12.329  43.370 153.425  1.00  0.00     0.000 C 
BRANCH   3   4
ATOM      4  C   UNL     1      11.110  43.708 154.298  1.00  0.00     0.000 C 
BRANCH   4   5
ATOM      5  C   UNL     1      10.470  42.460 154.932  1.00  0.00     0.000 C 
BRANCH   5   6
ATOM      6  C   UNL     1       9.638  42.793 156.180  1.00  0.00     0.006 C 
BRANCH   6   7
ATOM      7  C   UNL     1       8.203  43.214 155.837  1.00  0.00     0.053 C 
BRANCH   7   8
ATOM      8  C   UNL     1       7.887  44.539 156.456  1.00  0.00     0.041 C 
ATOM      9  O   UNL     1       6.783  44.722 157.035  1.00  0.00    -0.550 OA
ATOM     10  O   UNL     1       8.791  45.589 156.351  1.00  0.00    -0.550 OA
ENDBRANCH   7   8
ENDBRANCH   6   7
ENDBRANCH   5   6
ENDBRANCH   4   5
ENDBRANCH   3   4
ENDBRANCH   2   3
ENDBRANCH   1   2
BRANCH   1  11
ATOM     11  C   UNL     1      11.994  40.984 150.318  1.00  0.00     0.000 C 
BRANCH  11  12
ATOM     12  C   UNL     1      11.574  39.788 151.188  1.00  0.00    -0.000 C 
BRANCH  12  13
ATOM     13  C   UNL     1      10.470  38.944 150.535  1.00  0.00    -0.000 C 
BRANCH  13  14
ATOM     14  C   UNL     1       9.079  39.479 150.900  1.00  0.00    -0.000 C 
BRANCH  14  15
ATOM     15  C   UNL     1       9.084  40.106 152.302  1.00  0.00    -0.000 C 
BRANCH  15  16
ATOM     16  C   UNL     1       8.181  41.345 152.399  1.00  0.00    -0.000 C 
BRANCH  16  17
ATOM     17  C   UNL     1       8.343  42.291 151.201  1.00  0.00    -0.003 C 
ATOM     18  C   UNL     1       8.641  43.715 151.661  1.00  0.00     0.004 C 
ENDBRANCH  16  17
ENDBRANCH  15  16
ENDBRANCH  14  15
ENDBRANCH  13  14
ENDBRANCH  12  13
ENDBRANCH  11  12
ENDBRANCH   1  11
TORSDOF 14
ENDMDL
MODEL 8
REMARK VINA RESULT:    -2.911      3.801      6.974
REMARK INTER + INTRA:          -7.512
REMARK INTER:                  -5.449
REMARK INTRA:                  -2.063
REMARK UNBOUND:                -2.219
REMARK SMILES CCCCCCCCCCCCCCCC(=O)[O-]
REMARK SMILES IDX 9 1 10 2 11 3 12 4 13 5 14 6 15 7 16 8 17 9 18 10 8 11 7 12
REMARK SMILES IDX 6 13 5 14 4 15 3 16 2 17 1 18
REMARK H PARENT
REMARK Flexibility Score: inf
ROOT
ATOM      1  C   UNL     1      11.383  42.372 154.265  1.00  0.00     0.000 C 
ENDROOT
BRANCH   1   2
ATOM      2  C   UNL     1      12.296  43.501 153.758  1.00  0.00     0.000 C 
BRANCH   2   3
ATOM      3  C   UNL     1      12.372  43.551 152.222  1.00  0.00     0.000 C 
BRANCH   3   4
ATOM      4  C   UNL     1      11.400  42.569 151.549  1.00  0.00     0.000 C 
BRANCH   4   5
ATOM      5  C   UNL     1      12.121  41.511 150.695  1.00  0.00     0.000 C 
BRANCH   5   6
ATOM      6  C   UNL     1      12.008  40.098 151.287  1.00  0.00     0.006 C 
BRANCH   6   7
ATOM      7  C   UNL     1      10.589  39.773 151.771  1.00  0.00     0.053 C 
BRANCH   7   8
ATOM      8  C   UNL     1       9.792  39.148 150.671  1.00  0.00     0.041 C 
ATOM      9  O   UNL     1       8.766  39.726 150.223  1.00  0.00    -0.550 OA
ATOM     10  O   UNL     1      10.154  37.903 150.170  1.00  0.00    -0.550 OA
ENDBRANCH   7   8
ENDBRANCH   6   7
ENDBRANCH   5   6
ENDBRANCH   4   5
ENDBRANCH   3   4
ENDBRANCH   2   3
ENDBRANCH   1   2
BRANCH   1  11
ATOM     11  C   UNL     1      10.312  42.875 155.251  1.00  0.00     0.000 C 
BRANCH  11  12
ATOM     12  C   UNL     1       8.882  42.625 154.745  1.00  0.00    -0.000 C 
BRANCH  12  13
ATOM     13  C   UNL     1       7.822  43.334 155.600  1.00  0.00    -0.000 C 
BRANCH  13  14
ATOM     14  C   UNL     1       8.430  44.523 156.355  1.00  0.00    -0.000 C 
BRANCH  14  15
ATOM     15  C   UNL     1       8.117  45.846 155.639  1.00  0.00    -0.000 C 
BRANCH  15  16
ATOM     16  C   UNL     1       9.320  46.802 155.611  1.00  0.00    -0.000 C 
BRANCH  16  17
ATOM     17  C   UNL     1      10.282  46.508 154.451  1.00  0.00    -0.003 C 
ATOM     18  C   UNL     1       9.520  46.095 153.196  1.00  0.00     0.004 C 
ENDBRANCH  16  17
ENDBRANCH  15  16
ENDBRANCH  14  15
ENDBRANCH  13  14
ENDBRANCH  12  13
ENDBRANCH  11  12
ENDBRANCH   1  11
TORSDOF 14
ENDMDL
MODEL 9
REMARK VINA RESULT:    -2.875      3.056      5.188
REMARK INTER + INTRA:          -7.447
REMARK INTER:                  -5.022
REMARK INTRA:                  -2.425
REMARK UNBOUND:                -2.219
REMARK SMILES CCCCCCCCCCCCCCCC(=O)[O-]
REMARK SMILES IDX 9 1 10 2 11 3 12 4 13 5 14 6 15 7 16 8 17 9 18 10 8 11 7 12
REMARK SMILES IDX 6 13 5 14 4 15 3 16 2 17 1 18
REMARK H PARENT
REMARK Flexibility Score: inf
ROOT
ATOM      1  C   UNL     1      12.020  40.302 151.068  1.00  0.00     0.000 C 
ENDROOT
BRANCH   1   2
ATOM      2  C   UNL     1      10.822  39.776 151.876  1.00  0.00     0.000 C 
BRANCH   2   3
ATOM      3  C   UNL     1       9.498  39.872 151.098  1.00  0.00     0.000 C 
BRANCH   3   4
ATOM      4  C   UNL     1       8.351  40.436 151.951  1.00  0.00     0.000 C 
BRANCH   4   5
ATOM      5  C   UNL     1       8.094  41.930 151.688  1.00  0.00     0.000 C 
BRANCH   5   6
ATOM      6  C   UNL     1       7.233  42.582 152.781  1.00  0.00     0.006 C 
BRANCH   6   7
ATOM      7  C   UNL     1       6.763  41.577 153.840  1.00  0.00     0.053 C 
BRANCH   7   8
ATOM      8  C   UNL     1       5.887  42.252 154.847  1.00  0.00     0.041 C 
ATOM      9  O   UNL     1       6.177  43.402 155.271  1.00  0.00    -0.550 OA
ATOM     10  O   UNL     1       4.775  41.592 155.355  1.00  0.00    -0.550 OA
ENDBRANCH   7   8
ENDBRANCH   6   7
ENDBRANCH   5   6
ENDBRANCH   4   5
ENDBRANCH   3   4
ENDBRANCH   2   3
ENDBRANCH   1   2
BRANCH   1  11
ATOM     11  C   UNL     1      11.592  41.187 149.883  1.00  0.00     0.000 C 
BRANCH  11  12
ATOM     12  C   UNL     1      12.100  42.632 150.013  1.00  0.00    -0.000 C 
BRANCH  12  13
ATOM     13  C   UNL     1      11.587  43.324 151.284  1.00  0.00    -0.000 C 
BRANCH  13  14
ATOM     14  C   UNL     1      12.742  43.634 152.245  1.00  0.00    -0.000 C 
BRANCH  14  15
ATOM     15  C   UNL     1      12.338  43.344 153.699  1.00  0.00    -0.000 C 
BRANCH  15  16
ATOM     16  C   UNL     1      10.814  43.269 153.886  1.00  0.00    -0.000 C 
BRANCH  16  17
ATOM     17  C   UNL     1      10.387  42.118 154.808  1.00  0.00    -0.003 C 
ATOM     18  C   UNL     1       9.672  42.644 156.048  1.00  0.00     0.004 C 
ENDBRANCH  16  17
ENDBRANCH  15  16
ENDBRANCH  14  15
ENDBRANCH  13  14
ENDBRANCH  12  13
ENDBRANCH  11  12
ENDBRANCH   1  11
TORSDOF 14
ENDMDL
