MODEL 1
REMARK VINA RESULT:    -6.930      0.000      0.000
REMARK INTER + INTRA:          -8.635
REMARK INTER:                  -8.349
REMARK INTRA:                  -0.287
REMARK UNBOUND:                -0.287
REMARK SMILES O=c1c(O)c(-c2ccc(O)c(O)c2)oc2cc(O)cc(O)c12
REMARK SMILES IDX 5 1 3 2 2 3 1 4 22 5 20 6 19 7 17 8 16 9 15 10 14 11 6 12
REMARK SMILES IDX 7 13 8 14 9 15 13 16 11 17 10 18 12 20 4 22 21 24 18 26
REMARK H PARENT 10 19 12 21 4 23 21 25 18 27
REMARK Flexibility Score: inf
ROOT
ATOM      1  C   UNL     1     -11.025 -41.605 -18.638  1.00  0.00     0.180 A 
ATOM      2  C   UNL     1     -10.376 -40.364 -18.762  1.00  0.00     0.208 A 
ATOM      3  C   UNL     1      -9.461 -40.175 -19.810  1.00  0.00     0.238 A 
ATOM      4  O   UNL     1      -8.843 -39.081 -19.884  1.00  0.00    -0.285 OA
ATOM      5  C   UNL     1      -9.218 -41.224 -20.730  1.00  0.00     0.111 A 
ATOM      6  C   UNL     1      -8.342 -41.129 -21.853  1.00  0.00     0.134 A 
ATOM      7  C   UNL     1      -8.078 -42.270 -22.621  1.00  0.00     0.093 A 
ATOM      8  C   UNL     1      -8.709 -43.486 -22.345  1.00  0.00     0.123 A 
ATOM      9  C   UNL     1      -9.611 -43.572 -21.287  1.00  0.00     0.094 A 
ATOM     10  C   UNL     1      -9.867 -42.460 -20.481  1.00  0.00     0.146 A 
ATOM     11  O   UNL     1     -10.726 -42.589 -19.477  1.00  0.00    -0.452 OA
ENDROOT
BRANCH   1  12
ATOM     12  C   UNL     1     -12.020 -41.871 -17.574  1.00  0.00     0.025 A 
ATOM     13  C   UNL     1     -13.389 -41.778 -17.870  1.00  0.00     0.016 A 
ATOM     14  C   UNL     1     -14.344 -42.005 -16.876  1.00  0.00     0.051 A 
ATOM     15  C   UNL     1     -13.948 -42.313 -15.571  1.00  0.00     0.157 A 
ATOM     16  C   UNL     1     -11.623 -42.161 -16.256  1.00  0.00     0.062 A 
ATOM     17  C   UNL     1     -12.581 -42.387 -15.257  1.00  0.00     0.158 A 
BRANCH  15  18
ATOM     18  O   UNL     1     -14.925 -42.537 -14.602  1.00  0.00    -0.504 OA
ATOM     19  H   UNL     1     -14.695 -42.883 -13.677  1.00  0.00     0.293 HD
ENDBRANCH  15  18
BRANCH  17  20
ATOM     20  O   UNL     1     -12.179 -42.679 -13.955  1.00  0.00    -0.504 OA
ATOM     21  H   UNL     1     -11.941 -41.947 -13.295  1.00  0.00     0.293 HD
ENDBRANCH  17  20
ENDBRANCH   1  12
BRANCH   2  22
ATOM     22  O   UNL     1     -10.614 -39.350 -17.829  1.00  0.00    -0.502 OA
ATOM     23  H   UNL     1     -11.479 -38.823 -17.807  1.00  0.00     0.293 HD
ENDBRANCH   2  22
BRANCH   6  24
ATOM     24  O   UNL     1      -7.733 -39.942 -22.270  1.00  0.00    -0.507 OA
ATOM     25  H   UNL     1      -7.877 -39.040 -21.841  1.00  0.00     0.293 HD
ENDBRANCH   6  24
BRANCH   8  26
ATOM     26  O   UNL     1      -8.453 -44.612 -23.124  1.00  0.00    -0.508 OA
ATOM     27  H   UNL     1      -9.183 -45.276 -23.352  1.00  0.00     0.293 HD
ENDBRANCH   8  26
TORSDOF 6
ENDMDL
MODEL 2
REMARK VINA RESULT:    -6.822      2.083      3.587
REMARK INTER + INTRA:          -8.505
REMARK INTER:                  -8.195
REMARK INTRA:                  -0.311
REMARK UNBOUND:                -0.287
REMARK SMILES O=c1c(O)c(-c2ccc(O)c(O)c2)oc2cc(O)cc(O)c12
REMARK SMILES IDX 5 1 3 2 2 3 1 4 22 5 20 6 19 7 17 8 16 9 15 10 14 11 6 12
REMARK SMILES IDX 7 13 8 14 9 15 13 16 11 17 10 18 12 20 4 22 21 24 18 26
REMARK H PARENT 10 19 12 21 4 23 21 25 18 27
REMARK Flexibility Score: inf
ROOT
ATOM      1  C   UNL     1     -11.091 -40.346 -18.364  1.00  0.00     0.180 A 
ATOM      2  C   UNL     1     -10.978 -41.604 -18.980  1.00  0.00     0.208 A 
ATOM      3  C   UNL     1     -10.038 -41.777 -20.010  1.00  0.00     0.238 A 
ATOM      4  O   UNL     1      -9.979 -42.890 -20.595  1.00  0.00    -0.285 OA
ATOM      5  C   UNL     1      -9.213 -40.694 -20.399  1.00  0.00     0.111 A 
ATOM      6  C   UNL     1      -8.200 -40.768 -21.402  1.00  0.00     0.134 A 
ATOM      7  C   UNL     1      -7.534 -39.601 -21.796  1.00  0.00     0.093 A 
ATOM      8  C   UNL     1      -7.798 -38.376 -21.179  1.00  0.00     0.123 A 
ATOM      9  C   UNL     1      -8.742 -38.306 -20.157  1.00  0.00     0.094 A 
ATOM     10  C   UNL     1      -9.449 -39.447 -19.767  1.00  0.00     0.146 A 
ATOM     11  O   UNL     1     -10.348 -39.333 -18.797  1.00  0.00    -0.452 OA
ENDROOT
BRANCH   1  12
ATOM     12  C   UNL     1     -12.040 -40.094 -17.256  1.00  0.00     0.025 A 
ATOM     13  C   UNL     1     -11.684 -40.453 -15.947  1.00  0.00     0.016 A 
ATOM     14  C   UNL     1     -12.573 -40.242 -14.890  1.00  0.00     0.051 A 
ATOM     15  C   UNL     1     -13.833 -39.685 -15.126  1.00  0.00     0.157 A 
ATOM     16  C   UNL     1     -13.316 -39.552 -17.495  1.00  0.00     0.062 A 
ATOM     17  C   UNL     1     -14.210 -39.342 -16.434  1.00  0.00     0.158 A 
BRANCH  15  18
ATOM     18  O   UNL     1     -14.698 -39.484 -14.050  1.00  0.00    -0.504 OA
ATOM     19  H   UNL     1     -14.781 -38.586 -13.587  1.00  0.00     0.293 HD
ENDBRANCH  15  18
BRANCH  17  20
ATOM     20  O   UNL     1     -15.470 -38.799 -16.679  1.00  0.00    -0.504 OA
ATOM     21  H   UNL     1     -15.683 -37.832 -16.462  1.00  0.00     0.293 HD
ENDBRANCH  17  20
ENDBRANCH   1  12
BRANCH   2  22
ATOM     22  O   UNL     1     -11.818 -42.654 -18.596  1.00  0.00    -0.502 OA
ATOM     23  H   UNL     1     -12.408 -43.147 -19.255  1.00  0.00     0.293 HD
ENDBRANCH   2  22
BRANCH   6  24
ATOM     24  O   UNL     1      -7.795 -41.956 -22.018  1.00  0.00    -0.507 OA
ATOM     25  H   UNL     1      -8.401 -42.740 -22.208  1.00  0.00     0.293 HD
ENDBRANCH   6  24
BRANCH   8  26
ATOM     26  O   UNL     1      -7.118 -37.223 -21.566  1.00  0.00    -0.508 OA
ATOM     27  H   UNL     1      -6.109 -37.207 -21.652  1.00  0.00     0.293 HD
ENDBRANCH   8  26
TORSDOF 6
ENDMDL
MODEL 3
REMARK VINA RESULT:    -6.777      2.627      4.219
REMARK INTER + INTRA:          -8.450
REMARK INTER:                  -8.178
REMARK INTRA:                  -0.272
REMARK UNBOUND:                -0.287
REMARK SMILES O=c1c(O)c(-c2ccc(O)c(O)c2)oc2cc(O)cc(O)c12
REMARK SMILES IDX 5 1 3 2 2 3 1 4 22 5 20 6 19 7 17 8 16 9 15 10 14 11 6 12
REMARK SMILES IDX 7 13 8 14 9 15 13 16 11 17 10 18 12 20 4 22 21 24 18 26
REMARK H PARENT 10 19 12 21 4 23 21 25 18 27
REMARK Flexibility Score: inf
ROOT
ATOM      1  C   UNL     1     -12.537 -40.006 -17.636  1.00  0.00     0.180 A 
ATOM      2  C   UNL     1     -11.743 -41.131 -17.917  1.00  0.00     0.208 A 
ATOM      3  C   UNL     1     -10.622 -40.983 -18.750  1.00  0.00     0.238 A 
ATOM      4  O   UNL     1      -9.946 -42.004 -19.043  1.00  0.00    -0.285 OA
ATOM      5  C   UNL     1     -10.301 -39.709 -19.278  1.00  0.00     0.111 A 
ATOM      6  C   UNL     1      -9.166 -39.436 -20.100  1.00  0.00     0.134 A 
ATOM      7  C   UNL     1      -9.019 -38.166 -20.673  1.00  0.00     0.093 A 
ATOM      8  C   UNL     1      -9.929 -37.143 -20.401  1.00  0.00     0.123 A 
ATOM      9  C   UNL     1     -11.007 -37.383 -19.551  1.00  0.00     0.094 A 
ATOM     10  C   UNL     1     -11.200 -38.650 -18.994  1.00  0.00     0.146 A 
ATOM     11  O   UNL     1     -12.246 -38.839 -18.199  1.00  0.00    -0.452 OA
ENDROOT
BRANCH   1  12
ATOM     12  C   UNL     1     -13.719 -40.078 -16.746  1.00  0.00     0.025 A 
ATOM     13  C   UNL     1     -13.613 -39.633 -15.419  1.00  0.00     0.016 A 
ATOM     14  C   UNL     1     -14.710 -39.712 -14.558  1.00  0.00     0.051 A 
ATOM     15  C   UNL     1     -15.922 -40.248 -15.003  1.00  0.00     0.157 A 
ATOM     16  C   UNL     1     -14.933 -40.636 -17.187  1.00  0.00     0.062 A 
ATOM     17  C   UNL     1     -16.034 -40.717 -16.322  1.00  0.00     0.158 A 
BRANCH  15  18
ATOM     18  O   UNL     1     -17.000 -40.310 -14.121  1.00  0.00    -0.504 OA
ATOM     19  H   UNL     1     -17.842 -39.763 -14.262  1.00  0.00     0.293 HD
ENDBRANCH  15  18
BRANCH  17  20
ATOM     20  O   UNL     1     -17.236 -41.266 -16.768  1.00  0.00    -0.504 OA
ATOM     21  H   UNL     1     -17.942 -40.699 -17.223  1.00  0.00     0.293 HD
ENDBRANCH  17  20
ENDBRANCH   1  12
BRANCH   2  22
ATOM     22  O   UNL     1     -12.091 -42.384 -17.404  1.00  0.00    -0.502 OA
ATOM     23  H   UNL     1     -12.751 -42.496 -16.644  1.00  0.00     0.293 HD
ENDBRANCH   2  22
BRANCH   6  24
ATOM     24  O   UNL     1      -8.150 -40.360 -20.361  1.00  0.00    -0.507 OA
ATOM     25  H   UNL     1      -8.021 -40.838 -21.240  1.00  0.00     0.293 HD
ENDBRANCH   6  24
BRANCH   8  26
ATOM     26  O   UNL     1      -9.765 -35.878 -20.961  1.00  0.00    -0.508 OA
ATOM     27  H   UNL     1      -9.009 -35.677 -21.604  1.00  0.00     0.293 HD
ENDBRANCH   8  26
TORSDOF 6
ENDMDL
MODEL 4
REMARK VINA RESULT:    -6.725      3.054      7.056
REMARK INTER + INTRA:          -8.388
REMARK INTER:                  -8.081
REMARK INTRA:                  -0.307
REMARK UNBOUND:                -0.287
REMARK SMILES O=c1c(O)c(-c2ccc(O)c(O)c2)oc2cc(O)cc(O)c12
REMARK SMILES IDX 5 1 3 2 2 3 1 4 22 5 20 6 19 7 17 8 16 9 15 10 14 11 6 12
REMARK SMILES IDX 7 13 8 14 9 15 13 16 11 17 10 18 12 20 4 22 21 24 18 26
REMARK H PARENT 10 19 12 21 4 23 21 25 18 27
REMARK Flexibility Score: inf
ROOT
ATOM      1  C   UNL     1     -12.110 -39.509 -18.630  1.00  0.00     0.180 A 
ATOM      2  C   UNL     1     -13.421 -39.993 -18.487  1.00  0.00     0.208 A 
ATOM      3  C   UNL     1     -13.718 -40.851 -17.416  1.00  0.00     0.238 A 
ATOM      4  O   UNL     1     -14.881 -41.325 -17.325  1.00  0.00    -0.285 OA
ATOM      5  C   UNL     1     -12.704 -41.200 -16.492  1.00  0.00     0.111 A 
ATOM      6  C   UNL     1     -12.903 -42.029 -15.346  1.00  0.00     0.134 A 
ATOM      7  C   UNL     1     -11.800 -42.415 -14.574  1.00  0.00     0.093 A 
ATOM      8  C   UNL     1     -10.516 -41.949 -14.867  1.00  0.00     0.123 A 
ATOM      9  C   UNL     1     -10.322 -41.091 -15.948  1.00  0.00     0.094 A 
ATOM     10  C   UNL     1     -11.397 -40.718 -16.758  1.00  0.00     0.146 A 
ATOM     11  O   UNL     1     -11.166 -39.907 -17.784  1.00  0.00    -0.452 OA
ENDROOT
BRANCH   1  12
ATOM     12  C   UNL     1     -11.725 -38.582 -19.719  1.00  0.00     0.025 A 
ATOM     13  C   UNL     1     -11.991 -37.210 -19.584  1.00  0.00     0.016 A 
ATOM     14  C   UNL     1     -11.656 -36.321 -20.608  1.00  0.00     0.051 A 
ATOM     15  C   UNL     1     -11.065 -36.789 -21.786  1.00  0.00     0.157 A 
ATOM     16  C   UNL     1     -11.149 -39.054 -20.912  1.00  0.00     0.062 A 
ATOM     17  C   UNL     1     -10.814 -38.162 -21.942  1.00  0.00     0.158 A 
BRANCH  15  18
ATOM     18  O   UNL     1     -10.739 -35.877 -22.789  1.00  0.00    -0.504 OA
ATOM     19  H   UNL     1     -10.669 -36.150 -23.762  1.00  0.00     0.293 HD
ENDBRANCH  15  18
BRANCH  17  20
ATOM     20  O   UNL     1     -10.238 -38.637 -23.119  1.00  0.00    -0.504 OA
ATOM     21  H   UNL     1     -10.638 -38.430 -24.028  1.00  0.00     0.293 HD
ENDBRANCH  17  20
ENDBRANCH   1  12
BRANCH   2  22
ATOM     22  O   UNL     1     -14.402 -39.654 -19.424  1.00  0.00    -0.502 OA
ATOM     23  H   UNL     1     -14.797 -38.724 -19.485  1.00  0.00     0.293 HD
ENDBRANCH   2  22
BRANCH   6  24
ATOM     24  O   UNL     1     -14.155 -42.475 -14.912  1.00  0.00    -0.507 OA
ATOM     25  H   UNL     1     -14.800 -43.011 -15.474  1.00  0.00     0.293 HD
ENDBRANCH   6  24
BRANCH   8  26
ATOM     26  O   UNL     1      -9.427 -42.324 -14.083  1.00  0.00    -0.508 OA
ATOM     27  H   UNL     1      -8.586 -42.710 -14.494  1.00  0.00     0.293 HD
ENDBRANCH   8  26
TORSDOF 6
ENDMDL
MODEL 5
REMARK VINA RESULT:    -6.719      2.749      4.406
REMARK INTER + INTRA:          -8.381
REMARK INTER:                  -8.071
REMARK INTRA:                  -0.310
REMARK UNBOUND:                -0.287
REMARK SMILES O=c1c(O)c(-c2ccc(O)c(O)c2)oc2cc(O)cc(O)c12
REMARK SMILES IDX 5 1 3 2 2 3 1 4 22 5 20 6 19 7 17 8 16 9 15 10 14 11 6 12
REMARK SMILES IDX 7 13 8 14 9 15 13 16 11 17 10 18 12 20 4 22 21 24 18 26
REMARK H PARENT 10 19 12 21 4 23 21 25 18 27
REMARK Flexibility Score: inf
ROOT
ATOM      1  C   UNL     1     -13.484 -41.200 -17.863  1.00  0.00     0.180 A 
ATOM      2  C   UNL     1     -12.290 -41.896 -18.119  1.00  0.00     0.208 A 
ATOM      3  C   UNL     1     -11.225 -41.218 -18.736  1.00  0.00     0.238 A 
ATOM      4  O   UNL     1     -10.178 -41.861 -19.012  1.00  0.00    -0.285 OA
ATOM      5  C   UNL     1     -11.363 -39.851 -19.075  1.00  0.00     0.111 A 
ATOM      6  C   UNL     1     -10.336 -39.056 -19.666  1.00  0.00     0.134 A 
ATOM      7  C   UNL     1     -10.625 -37.749 -20.078  1.00  0.00     0.093 A 
ATOM      8  C   UNL     1     -11.886 -37.188 -19.862  1.00  0.00     0.123 A 
ATOM      9  C   UNL     1     -12.877 -37.936 -19.231  1.00  0.00     0.094 A 
ATOM     10  C   UNL     1     -12.629 -39.255 -18.841  1.00  0.00     0.146 A 
ATOM     11  O   UNL     1     -13.605 -39.936 -18.253  1.00  0.00    -0.452 OA
ENDROOT
BRANCH   1  12
ATOM     12  C   UNL     1     -14.641 -41.838 -17.194  1.00  0.00     0.025 A 
ATOM     13  C   UNL     1     -15.559 -42.576 -17.957  1.00  0.00     0.016 A 
ATOM     14  C   UNL     1     -16.668 -43.169 -17.349  1.00  0.00     0.051 A 
ATOM     15  C   UNL     1     -16.885 -43.022 -15.975  1.00  0.00     0.157 A 
ATOM     16  C   UNL     1     -14.870 -41.674 -15.816  1.00  0.00     0.062 A 
ATOM     17  C   UNL     1     -15.986 -42.267 -15.205  1.00  0.00     0.158 A 
BRANCH  15  18
ATOM     18  O   UNL     1     -17.999 -43.628 -15.396  1.00  0.00    -0.504 OA
ATOM     19  H   UNL     1     -18.907 -43.628 -15.848  1.00  0.00     0.293 HD
ENDBRANCH  15  18
BRANCH  17  20
ATOM     20  O   UNL     1     -16.203 -42.105 -13.837  1.00  0.00    -0.504 OA
ATOM     21  H   UNL     1     -17.078 -41.742 -13.478  1.00  0.00     0.293 HD
ENDBRANCH  17  20
ENDBRANCH   1  12
BRANCH   2  22
ATOM     22  O   UNL     1     -12.183 -43.252 -17.796  1.00  0.00    -0.502 OA
ATOM     23  H   UNL     1     -11.413 -43.622 -17.252  1.00  0.00     0.293 HD
ENDBRANCH   2  22
BRANCH   6  24
ATOM     24  O   UNL     1      -9.018 -39.488 -19.845  1.00  0.00    -0.507 OA
ATOM     25  H   UNL     1      -8.752 -40.339 -20.318  1.00  0.00     0.293 HD
ENDBRANCH   6  24
BRANCH   8  26
ATOM     26  O   UNL     1     -12.160 -35.881 -20.260  1.00  0.00    -0.508 OA
ATOM     27  H   UNL     1     -13.078 -35.471 -20.138  1.00  0.00     0.293 HD
ENDBRANCH   8  26
TORSDOF 6
ENDMDL
MODEL 6
REMARK VINA RESULT:    -6.539      2.130      7.141
REMARK INTER + INTRA:          -8.164
REMARK INTER:                  -7.973
REMARK INTRA:                  -0.191
REMARK UNBOUND:                -0.287
REMARK SMILES O=c1c(O)c(-c2ccc(O)c(O)c2)oc2cc(O)cc(O)c12
REMARK SMILES IDX 5 1 3 2 2 3 1 4 22 5 20 6 19 7 17 8 16 9 15 10 14 11 6 12
REMARK SMILES IDX 7 13 8 14 9 15 13 16 11 17 10 18 12 20 4 22 21 24 18 26
REMARK H PARENT 10 19 12 21 4 23 21 25 18 27
REMARK Flexibility Score: inf
ROOT
ATOM      1  C   UNL     1     -12.087 -40.682 -17.886  1.00  0.00     0.180 A 
ATOM      2  C   UNL     1     -11.877 -40.324 -16.544  1.00  0.00     0.208 A 
ATOM      3  C   UNL     1     -12.981 -40.239 -15.680  1.00  0.00     0.238 A 
ATOM      4  O   UNL     1     -12.794 -39.865 -14.493  1.00  0.00    -0.285 OA
ATOM      5  C   UNL     1     -14.279 -40.529 -16.167  1.00  0.00     0.111 A 
ATOM      6  C   UNL     1     -15.464 -40.514 -15.371  1.00  0.00     0.134 A 
ATOM      7  C   UNL     1     -16.710 -40.689 -15.985  1.00  0.00     0.093 A 
ATOM      8  C   UNL     1     -16.809 -40.944 -17.355  1.00  0.00     0.123 A 
ATOM      9  C   UNL     1     -15.653 -41.020 -18.130  1.00  0.00     0.094 A 
ATOM     10  C   UNL     1     -14.398 -40.813 -17.551  1.00  0.00     0.146 A 
ATOM     11  O   UNL     1     -13.323 -40.884 -18.327  1.00  0.00    -0.452 OA
ENDROOT
BRANCH   1  12
ATOM     12  C   UNL     1     -10.971 -40.817 -18.850  1.00  0.00     0.025 A 
ATOM     13  C   UNL     1     -10.281 -39.670 -19.273  1.00  0.00     0.016 A 
ATOM     14  C   UNL     1      -9.239 -39.772 -20.197  1.00  0.00     0.051 A 
ATOM     15  C   UNL     1      -8.880 -41.017 -20.724  1.00  0.00     0.157 A 
ATOM     16  C   UNL     1     -10.622 -42.065 -19.396  1.00  0.00     0.062 A 
ATOM     17  C   UNL     1      -9.577 -42.169 -20.327  1.00  0.00     0.158 A 
BRANCH  15  18
ATOM     18  O   UNL     1      -7.833 -41.087 -21.643  1.00  0.00    -0.504 OA
ATOM     19  H   UNL     1      -7.982 -41.362 -22.607  1.00  0.00     0.293 HD
ENDBRANCH  15  18
BRANCH  17  20
ATOM     20  O   UNL     1      -9.234 -43.411 -20.859  1.00  0.00    -0.504 OA
ATOM     21  H   UNL     1      -8.267 -43.693 -20.969  1.00  0.00     0.293 HD
ENDBRANCH  17  20
ENDBRANCH   1  12
BRANCH   2  22
ATOM     22  O   UNL     1     -10.590 -40.020 -16.090  1.00  0.00    -0.502 OA
ATOM     23  H   UNL     1      -9.806 -39.899 -16.719  1.00  0.00     0.293 HD
ENDBRANCH   2  22
BRANCH   6  24
ATOM     24  O   UNL     1     -15.470 -40.359 -13.982  1.00  0.00    -0.507 OA
ATOM     25  H   UNL     1     -16.299 -40.225 -13.422  1.00  0.00     0.293 HD
ENDBRANCH   6  24
BRANCH   8  26
ATOM     26  O   UNL     1     -18.052 -41.134 -17.955  1.00  0.00    -0.508 OA
ATOM     27  H   UNL     1     -18.696 -41.842 -17.626  1.00  0.00     0.293 HD
ENDBRANCH   8  26
TORSDOF 6
ENDMDL
MODEL 7
REMARK VINA RESULT:    -6.536      2.840      7.247
REMARK INTER + INTRA:          -8.160
REMARK INTER:                  -8.028
REMARK INTRA:                  -0.132
REMARK UNBOUND:                -0.287
REMARK SMILES O=c1c(O)c(-c2ccc(O)c(O)c2)oc2cc(O)cc(O)c12
REMARK SMILES IDX 5 1 3 2 2 3 1 4 22 5 20 6 19 7 17 8 16 9 15 10 14 11 6 12
REMARK SMILES IDX 7 13 8 14 9 15 13 16 11 17 10 18 12 20 4 22 21 24 18 26
REMARK H PARENT 10 19 12 21 4 23 21 25 18 27
REMARK Flexibility Score: inf
ROOT
ATOM      1  C   UNL     1     -12.058 -39.583 -18.007  1.00  0.00     0.180 A 
ATOM      2  C   UNL     1     -11.618 -40.074 -16.765  1.00  0.00     0.208 A 
ATOM      3  C   UNL     1     -12.508 -40.811 -15.969  1.00  0.00     0.238 A 
ATOM      4  O   UNL     1     -12.125 -41.201 -14.835  1.00  0.00    -0.285 OA
ATOM      5  C   UNL     1     -13.823 -41.063 -16.431  1.00  0.00     0.111 A 
ATOM      6  C   UNL     1     -14.796 -41.832 -15.724  1.00  0.00     0.134 A 
ATOM      7  C   UNL     1     -16.106 -41.906 -16.215  1.00  0.00     0.093 A 
ATOM      8  C   UNL     1     -16.460 -41.293 -17.419  1.00  0.00     0.123 A 
ATOM      9  C   UNL     1     -15.502 -40.590 -18.145  1.00  0.00     0.094 A 
ATOM     10  C   UNL     1     -14.196 -40.468 -17.663  1.00  0.00     0.146 A 
ATOM     11  O   UNL     1     -13.317 -39.780 -18.382  1.00  0.00    -0.452 OA
ENDROOT
BRANCH   1  12
ATOM     12  C   UNL     1     -11.171 -38.819 -18.913  1.00  0.00     0.025 A 
ATOM     13  C   UNL     1     -11.552 -37.536 -19.333  1.00  0.00     0.016 A 
ATOM     14  C   UNL     1     -10.740 -36.807 -20.204  1.00  0.00     0.051 A 
ATOM     15  C   UNL     1      -9.543 -37.352 -20.680  1.00  0.00     0.157 A 
ATOM     16  C   UNL     1      -9.977 -39.375 -19.407  1.00  0.00     0.062 A 
ATOM     17  C   UNL     1      -9.161 -38.644 -20.284  1.00  0.00     0.158 A 
BRANCH  15  18
ATOM     18  O   UNL     1      -8.752 -36.599 -21.546  1.00  0.00    -0.504 OA
ATOM     19  H   UNL     1      -7.826 -36.900 -21.828  1.00  0.00     0.293 HD
ENDBRANCH  15  18
BRANCH  17  20
ATOM     20  O   UNL     1      -7.976 -39.200 -20.765  1.00  0.00    -0.504 OA
ATOM     21  H   UNL     1      -7.311 -38.652 -21.298  1.00  0.00     0.293 HD
ENDBRANCH  17  20
ENDBRANCH   1  12
BRANCH   2  22
ATOM     22  O   UNL     1     -10.323 -39.795 -16.319  1.00  0.00    -0.502 OA
ATOM     23  H   UNL     1      -9.566 -40.464 -16.392  1.00  0.00     0.293 HD
ENDBRANCH   2  22
BRANCH   6  24
ATOM     24  O   UNL     1     -14.523 -42.559 -14.562  1.00  0.00    -0.507 OA
ATOM     25  H   UNL     1     -14.008 -42.204 -13.770  1.00  0.00     0.293 HD
ENDBRANCH   6  24
BRANCH   8  26
ATOM     26  O   UNL     1     -17.762 -41.386 -17.908  1.00  0.00    -0.508 OA
ATOM     27  H   UNL     1     -18.450 -41.989 -17.473  1.00  0.00     0.293 HD
ENDBRANCH   8  26
TORSDOF 6
ENDMDL
MODEL 8
REMARK VINA RESULT:    -6.516      1.841      2.283
REMARK INTER + INTRA:          -8.137
REMARK INTER:                  -7.889
REMARK INTRA:                  -0.248
REMARK UNBOUND:                -0.287
REMARK SMILES O=c1c(O)c(-c2ccc(O)c(O)c2)oc2cc(O)cc(O)c12
REMARK SMILES IDX 5 1 3 2 2 3 1 4 22 5 20 6 19 7 17 8 16 9 15 10 14 11 6 12
REMARK SMILES IDX 7 13 8 14 9 15 13 16 11 17 10 18 12 20 4 22 21 24 18 26
REMARK H PARENT 10 19 12 21 4 23 21 25 18 27
REMARK Flexibility Score: inf
ROOT
ATOM      1  C   UNL     1     -11.202 -40.207 -18.670  1.00  0.00     0.180 A 
ATOM      2  C   UNL     1     -10.634 -39.123 -19.362  1.00  0.00     0.208 A 
ATOM      3  C   UNL     1      -9.833 -39.378 -20.487  1.00  0.00     0.238 A 
ATOM      4  O   UNL     1      -9.282 -38.408 -21.070  1.00  0.00    -0.285 OA
ATOM      5  C   UNL     1      -9.623 -40.712 -20.914  1.00  0.00     0.111 A 
ATOM      6  C   UNL     1      -8.863 -41.083 -22.064  1.00  0.00     0.134 A 
ATOM      7  C   UNL     1      -8.614 -42.437 -22.318  1.00  0.00     0.093 A 
ATOM      8  C   UNL     1      -9.151 -43.435 -21.501  1.00  0.00     0.123 A 
ATOM      9  C   UNL     1      -9.944 -43.083 -20.411  1.00  0.00     0.094 A 
ATOM     10  C   UNL     1     -10.181 -41.739 -20.111  1.00  0.00     0.146 A 
ATOM     11  O   UNL     1     -10.933 -41.448 -19.057  1.00  0.00    -0.452 OA
ENDROOT
BRANCH   1  12
ATOM     12  C   UNL     1     -12.078 -40.017 -17.491  1.00  0.00     0.025 A 
ATOM     13  C   UNL     1     -11.630 -40.427 -16.225  1.00  0.00     0.016 A 
ATOM     14  C   UNL     1     -12.449 -40.276 -15.103  1.00  0.00     0.051 A 
ATOM     15  C   UNL     1     -13.729 -39.729 -15.230  1.00  0.00     0.157 A 
ATOM     16  C   UNL     1     -13.374 -39.485 -17.620  1.00  0.00     0.062 A 
ATOM     17  C   UNL     1     -14.197 -39.336 -16.494  1.00  0.00     0.158 A 
BRANCH  15  18
ATOM     18  O   UNL     1     -14.521 -39.588 -14.091  1.00  0.00    -0.504 OA
ATOM     19  H   UNL     1     -14.962 -40.383 -13.641  1.00  0.00     0.293 HD
ENDBRANCH  15  18
BRANCH  17  20
ATOM     20  O   UNL     1     -15.478 -38.803 -16.629  1.00  0.00    -0.504 OA
ATOM     21  H   UNL     1     -16.208 -39.295 -17.131  1.00  0.00     0.293 HD
ENDBRANCH  17  20
ENDBRANCH   1  12
BRANCH   2  22
ATOM     22  O   UNL     1     -10.835 -37.816 -18.909  1.00  0.00    -0.502 OA
ATOM     23  H   UNL     1     -10.251 -37.390 -18.201  1.00  0.00     0.293 HD
ENDBRANCH   2  22
BRANCH   6  24
ATOM     24  O   UNL     1      -8.358 -40.171 -22.995  1.00  0.00    -0.507 OA
ATOM     25  H   UNL     1      -8.106 -39.216 -22.785  1.00  0.00     0.293 HD
ENDBRANCH   6  24
BRANCH   8  26
ATOM     26  O   UNL     1      -8.911 -44.781 -21.771  1.00  0.00    -0.508 OA
ATOM     27  H   UNL     1      -9.645 -45.393 -22.107  1.00  0.00     0.293 HD
ENDBRANCH   8  26
TORSDOF 6
ENDMDL
MODEL 9
REMARK VINA RESULT:    -6.464      2.693      6.976
REMARK INTER + INTRA:          -8.074
REMARK INTER:                  -7.750
REMARK INTRA:                  -0.324
REMARK UNBOUND:                -0.287
REMARK SMILES O=c1c(O)c(-c2ccc(O)c(O)c2)oc2cc(O)cc(O)c12
REMARK SMILES IDX 5 1 3 2 2 3 1 4 22 5 20 6 19 7 17 8 16 9 15 10 14 11 6 12
REMARK SMILES IDX 7 13 8 14 9 15 13 16 11 17 10 18 12 20 4 22 21 24 18 26
REMARK H PARENT 10 19 12 21 4 23 21 25 18 27
REMARK Flexibility Score: inf
ROOT
ATOM      1  C   UNL     1     -11.535 -40.687 -18.571  1.00  0.00     0.180 A 
ATOM      2  C   UNL     1     -11.402 -40.821 -17.179  1.00  0.00     0.208 A 
ATOM      3  C   UNL     1     -12.369 -40.240 -16.343  1.00  0.00     0.238 A 
ATOM      4  O   UNL     1     -12.216 -40.317 -15.096  1.00  0.00    -0.285 OA
ATOM      5  C   UNL     1     -13.466 -39.547 -16.911  1.00  0.00     0.111 A 
ATOM      6  C   UNL     1     -14.526 -38.955 -16.160  1.00  0.00     0.134 A 
ATOM      7  C   UNL     1     -15.490 -38.182 -16.819  1.00  0.00     0.093 A 
ATOM      8  C   UNL     1     -15.469 -38.034 -18.208  1.00  0.00     0.123 A 
ATOM      9  C   UNL     1     -14.472 -38.658 -18.955  1.00  0.00     0.094 A 
ATOM     10  C   UNL     1     -13.476 -39.406 -18.322  1.00  0.00     0.146 A 
ATOM     11  O   UNL     1     -12.539 -39.975 -19.071  1.00  0.00    -0.452 OA
ENDROOT
BRANCH   1  12
ATOM     12  C   UNL     1     -10.569 -41.292 -19.518  1.00  0.00     0.025 A 
ATOM     13  C   UNL     1      -9.558 -40.494 -20.077  1.00  0.00     0.016 A 
ATOM     14  C   UNL     1      -8.650 -41.040 -20.987  1.00  0.00     0.051 A 
ATOM     15  C   UNL     1      -8.746 -42.383 -21.364  1.00  0.00     0.157 A 
ATOM     16  C   UNL     1     -10.677 -42.637 -19.912  1.00  0.00     0.062 A 
ATOM     17  C   UNL     1      -9.766 -43.186 -20.829  1.00  0.00     0.158 A 
BRANCH  15  18
ATOM     18  O   UNL     1      -7.823 -42.900 -22.272  1.00  0.00    -0.504 OA
ATOM     19  H   UNL     1      -7.494 -43.857 -22.219  1.00  0.00     0.293 HD
ENDBRANCH  15  18
BRANCH  17  20
ATOM     20  O   UNL     1      -9.877 -44.522 -21.210  1.00  0.00    -0.504 OA
ATOM     21  H   UNL     1      -9.189 -45.212 -20.931  1.00  0.00     0.293 HD
ENDBRANCH  17  20
ENDBRANCH   1  12
BRANCH   2  22
ATOM     22  O   UNL     1     -10.299 -41.490 -16.639  1.00  0.00    -0.502 OA
ATOM     23  H   UNL     1     -10.340 -41.977 -15.752  1.00  0.00     0.293 HD
ENDBRANCH   2  22
BRANCH   6  24
ATOM     24  O   UNL     1     -14.691 -39.116 -14.781  1.00  0.00    -0.507 OA
ATOM     25  H   UNL     1     -14.058 -39.625 -14.182  1.00  0.00     0.293 HD
ENDBRANCH   6  24
BRANCH   8  26
ATOM     26  O   UNL     1     -16.442 -37.277 -18.857  1.00  0.00    -0.508 OA
ATOM     27  H   UNL     1     -16.529 -36.280 -18.702  1.00  0.00     0.293 HD
ENDBRANCH   8  26
TORSDOF 6
ENDMDL
