MODEL 1
REMARK VINA RESULT:    -3.665      0.000      0.000
REMARK INTER + INTRA:          -2.014
REMARK INTER:                  -5.379
REMARK INTRA:                   3.366
REMARK UNBOUND:                 3.366
REMARK SMILES O=c1c(O[C@H]2O[C@@H](CO)[C@H](O)[C@@H](O)[C@@H]2O)c(-c2ccc(O)c(O)c2)oc2cc(O)cc(O)c12
REMARK SMILES IDX 4 1 3 2 16 3 25 4 2 5 26 6 1 7 33 8 27 9 31 10 28 11 30 12
REMARK SMILES IDX 17 13 18 14 19 15 20 16 24 17 22 18 21 19 23 21 32 23 29 25
REMARK SMILES IDX 5 27 14 28 6 29 12 30 7 31 10 32 15 33 13 35 8 37 9 38 11 40
REMARK H PARENT 21 20 23 22 32 24 29 26 15 34 13 36 9 39 11 41
REMARK Flexibility Score: inf
ROOT
ATOM      1  O   UNL     1      98.170 102.625  99.028  1.00  0.00    -0.454 OA
ENDROOT
BRANCH   1   2
ATOM      2  C   UNL     1      97.468 101.451  98.689  1.00  0.00     0.214 A 
ATOM      3  C   UNL     1      96.418 101.033  99.529  1.00  0.00     0.180 A 
ATOM      4  O   UNL     1      95.785  99.894  99.289  1.00  0.00    -0.452 OA
ATOM      5  C   UNL     1      97.779 100.657  97.563  1.00  0.00     0.239 A 
ATOM      6  C   UNL     1      96.045  99.117  98.247  1.00  0.00     0.146 A 
ATOM      7  O   UNL     1      98.737 100.986  96.817  1.00  0.00    -0.285 OA
ATOM      8  C   UNL     1      97.031  99.483  97.297  1.00  0.00     0.111 A 
ATOM      9  C   UNL     1      95.332  97.924  98.109  1.00  0.00     0.094 A 
ATOM     10  C   UNL     1      97.233  98.634  96.166  1.00  0.00     0.134 A 
ATOM     11  C   UNL     1      95.582  97.071  97.037  1.00  0.00     0.123 A 
ATOM     12  C   UNL     1      96.530  97.426  96.076  1.00  0.00     0.093 A 
BRANCH   3  13
ATOM     13  C   UNL     1      96.025 101.803 100.727  1.00  0.00     0.025 A 
ATOM     14  C   UNL     1      96.001 101.170 101.980  1.00  0.00     0.016 A 
ATOM     15  C   UNL     1      95.622 101.881 103.123  1.00  0.00     0.051 A 
ATOM     16  C   UNL     1      95.251 103.228 103.026  1.00  0.00     0.157 A 
ATOM     17  C   UNL     1      95.629 103.147 100.631  1.00  0.00     0.062 A 
ATOM     18  C   UNL     1      95.251 103.862 101.773  1.00  0.00     0.158 A 
BRANCH  16  19
ATOM     19  O   UNL     1      94.877 103.936 104.168  1.00  0.00    -0.504 OA
ATOM     20  H   UNL     1      95.562 104.410 104.746  1.00  0.00     0.293 HD
ENDBRANCH  16  19
BRANCH  18  21
ATOM     21  O   UNL     1      94.875 105.199 101.640  1.00  0.00    -0.504 OA
ATOM     22  H   UNL     1      95.525 105.959 101.803  1.00  0.00     0.293 HD
ENDBRANCH  18  21
ENDBRANCH   3  13
BRANCH  10  23
ATOM     23  O   UNL     1      98.082  98.943  95.100  1.00  0.00    -0.507 OA
ATOM     24  H   UNL     1      97.851  98.813  94.126  1.00  0.00     0.293 HD
ENDBRANCH  10  23
BRANCH  11  25
ATOM     25  O   UNL     1      94.875  95.875  96.932  1.00  0.00    -0.508 OA
ATOM     26  H   UNL     1      95.350  94.980  96.896  1.00  0.00     0.293 HD
ENDBRANCH  11  25
ENDBRANCH   1   2
BRANCH   1  27
ATOM     27  C   UNL     1      97.677 103.711  99.820  1.00  0.00     0.339 C 
ATOM     28  C   UNL     1      97.967 105.053  99.131  1.00  0.00     0.214 C 
ATOM     29  O   UNL     1      98.167 103.669 101.154  1.00  0.00    -0.332 OA
ATOM     30  C   UNL     1      99.469 105.381  99.171  1.00  0.00     0.180 C 
ATOM     31  C   UNL     1      99.561 103.920 101.280  1.00  0.00     0.179 C 
ATOM     32  C   UNL     1     100.018 105.239 100.603  1.00  0.00     0.177 C 
BRANCH  28  33
ATOM     33  O   UNL     1      97.233 106.065  99.773  1.00  0.00    -0.384 OA
ATOM     34  H   UNL     1      97.324 106.883  99.217  1.00  0.00     0.211 HD
ENDBRANCH  28  33
BRANCH  30  35
ATOM     35  O   UNL     1     100.181 104.542  98.300  1.00  0.00    -0.387 OA
ATOM     36  H   UNL     1     100.968 105.056  97.981  1.00  0.00     0.211 HD
ENDBRANCH  30  35
BRANCH  31  37
ATOM     37  C   UNL     1     100.416 102.691 100.908  1.00  0.00     0.191 C 
BRANCH  37  38
ATOM     38  O   UNL     1      99.892 101.528 101.491  1.00  0.00    -0.394 OA
ATOM     39  H   UNL     1      99.742 100.880 100.753  1.00  0.00     0.210 HD
ENDBRANCH  37  38
ENDBRANCH  31  37
BRANCH  32  40
ATOM     40  O   UNL     1      99.579 106.321 101.387  1.00  0.00    -0.387 OA
ATOM     41  H   UNL     1      98.930 105.959 102.045  1.00  0.00     0.211 HD
ENDBRANCH  32  40
ENDBRANCH   1  27
TORSDOF 12
ENDMDL
MODEL 2
REMARK VINA RESULT:    -3.055      1.616      4.111
REMARK INTER + INTRA:          -1.118
REMARK INTER:                  -3.994
REMARK INTRA:                   2.876
REMARK UNBOUND:                 3.366
REMARK SMILES O=c1c(O[C@H]2O[C@@H](CO)[C@H](O)[C@@H](O)[C@@H]2O)c(-c2ccc(O)c(O)c2)oc2cc(O)cc(O)c12
REMARK SMILES IDX 4 1 3 2 16 3 25 4 2 5 26 6 1 7 33 8 27 9 31 10 28 11 30 12
REMARK SMILES IDX 17 13 18 14 19 15 20 16 24 17 22 18 21 19 23 21 32 23 29 25
REMARK SMILES IDX 5 27 14 28 6 29 12 30 7 31 10 32 15 33 13 35 8 37 9 38 11 40
REMARK H PARENT 21 20 23 22 32 24 29 26 15 34 13 36 9 39 11 41
REMARK Flexibility Score: inf
ROOT
ATOM      1  O   UNL     1      96.057 101.703 100.370  1.00  0.00    -0.454 OA
ENDROOT
BRANCH   1   2
ATOM      2  C   UNL     1      96.211 100.745  99.347  1.00  0.00     0.214 A 
ATOM      3  C   UNL     1      96.892 101.122  98.175  1.00  0.00     0.180 A 
ATOM      4  O   UNL     1      96.991 100.276  97.159  1.00  0.00    -0.452 OA
ATOM      5  C   UNL     1      95.694  99.433  99.428  1.00  0.00     0.239 A 
ATOM      6  C   UNL     1      96.519  99.038  97.190  1.00  0.00     0.146 A 
ATOM      7  O   UNL     1      95.048  99.082 100.448  1.00  0.00    -0.285 OA
ATOM      8  C   UNL     1      95.883  98.532  98.351  1.00  0.00     0.111 A 
ATOM      9  C   UNL     1      96.656  98.243  96.049  1.00  0.00     0.094 A 
ATOM     10  C   UNL     1      95.441  97.173  98.346  1.00  0.00     0.134 A 
ATOM     11  C   UNL     1      96.163  96.940  96.032  1.00  0.00     0.123 A 
ATOM     12  C   UNL     1      95.557  96.414  97.174  1.00  0.00     0.093 A 
BRANCH   3  13
ATOM     13  C   UNL     1      97.465 102.474  98.006  1.00  0.00     0.025 A 
ATOM     14  C   UNL     1      98.244 102.760  96.874  1.00  0.00     0.016 A 
ATOM     15  C   UNL     1      98.802 104.030  96.703  1.00  0.00     0.051 A 
ATOM     16  C   UNL     1      98.599 105.026  97.668  1.00  0.00     0.157 A 
ATOM     17  C   UNL     1      97.285 103.467  98.982  1.00  0.00     0.062 A 
ATOM     18  C   UNL     1      97.840 104.740  98.814  1.00  0.00     0.158 A 
BRANCH  16  19
ATOM     19  O   UNL     1      99.153 106.294  97.493  1.00  0.00    -0.504 OA
ATOM     20  H   UNL     1      99.314 106.680  96.569  1.00  0.00     0.293 HD
ENDBRANCH  16  19
BRANCH  18  21
ATOM     21  O   UNL     1      97.630 105.706  99.799  1.00  0.00    -0.504 OA
ATOM     22  H   UNL     1      96.712 106.090  99.990  1.00  0.00     0.293 HD
ENDBRANCH  18  21
ENDBRANCH   3  13
BRANCH  10  23
ATOM     23  O   UNL     1      94.914  96.520  99.462  1.00  0.00    -0.507 OA
ATOM     24  H   UNL     1      94.041  96.760  99.909  1.00  0.00     0.293 HD
ENDBRANCH  10  23
BRANCH  11  25
ATOM     25  O   UNL     1      96.290  96.173  94.876  1.00  0.00    -0.508 OA
ATOM     26  H   UNL     1      96.041  95.191  94.862  1.00  0.00     0.293 HD
ENDBRANCH  11  25
ENDBRANCH   1   2
BRANCH   1  27
ATOM     27  C   UNL     1      96.030 101.446 101.778  1.00  0.00     0.339 C 
ATOM     28  C   UNL     1      95.112 102.452 102.489  1.00  0.00     0.214 C 
ATOM     29  O   UNL     1      97.333 101.408 102.343  1.00  0.00    -0.332 OA
ATOM     30  C   UNL     1      95.740 103.856 102.507  1.00  0.00     0.180 C 
ATOM     31  C   UNL     1      98.007 102.661 102.361  1.00  0.00     0.179 C 
ATOM     32  C   UNL     1      97.187 103.796 103.028  1.00  0.00     0.177 C 
BRANCH  28  33
ATOM     33  O   UNL     1      94.878 102.009 103.802  1.00  0.00    -0.384 OA
ATOM     34  H   UNL     1      95.066 101.034 103.815  1.00  0.00     0.211 HD
ENDBRANCH  28  33
BRANCH  30  35
ATOM     35  O   UNL     1      95.716 104.424 101.224  1.00  0.00    -0.387 OA
ATOM     36  H   UNL     1      95.822 105.404 101.339  1.00  0.00     0.211 HD
ENDBRANCH  30  35
BRANCH  31  37
ATOM     37  C   UNL     1      98.595 103.032 100.984  1.00  0.00     0.191 C 
BRANCH  37  38
ATOM     38  O   UNL     1      99.979 103.237 101.076  1.00  0.00    -0.394 OA
ATOM     39  H   UNL     1     100.386 102.804 100.279  1.00  0.00     0.210 HD
ENDBRANCH  37  38
ENDBRANCH  31  37
BRANCH  32  40
ATOM     40  O   UNL     1      97.180 103.587 104.419  1.00  0.00    -0.387 OA
ATOM     41  H   UNL     1      98.103 103.758 104.743  1.00  0.00     0.211 HD
ENDBRANCH  32  40
ENDBRANCH   1  27
TORSDOF 12
ENDMDL
MODEL 3
REMARK VINA RESULT:    -2.327      1.179      2.199
REMARK INTER + INTRA:          -0.050
REMARK INTER:                  -1.265
REMARK INTRA:                   1.215
REMARK UNBOUND:                 3.366
REMARK SMILES O=c1c(O[C@H]2O[C@@H](CO)[C@H](O)[C@@H](O)[C@@H]2O)c(-c2ccc(O)c(O)c2)oc2cc(O)cc(O)c12
REMARK SMILES IDX 4 1 3 2 16 3 25 4 2 5 26 6 1 7 33 8 27 9 31 10 28 11 30 12
REMARK SMILES IDX 17 13 18 14 19 15 20 16 24 17 22 18 21 19 23 21 32 23 29 25
REMARK SMILES IDX 5 27 14 28 6 29 12 30 7 31 10 32 15 33 13 35 8 37 9 38 11 40
REMARK H PARENT 21 20 23 22 32 24 29 26 15 34 13 36 9 39 11 41
REMARK Flexibility Score: inf
ROOT
ATOM      1  O   UNL     1      98.269 102.609  99.455  1.00  0.00    -0.454 OA
ENDROOT
BRANCH   1   2
ATOM      2  C   UNL     1      97.555 101.432  99.150  1.00  0.00     0.214 A 
ATOM      3  C   UNL     1      96.646 100.935 100.102  1.00  0.00     0.180 A 
ATOM      4  O   UNL     1      96.013  99.791  99.888  1.00  0.00    -0.452 OA
ATOM      5  C   UNL     1      97.725 100.710  97.947  1.00  0.00     0.239 A 
ATOM      6  C   UNL     1      96.144  99.079  98.777  1.00  0.00     0.146 A 
ATOM      7  O   UNL     1      98.559 101.109  97.096  1.00  0.00    -0.285 OA
ATOM      8  C   UNL     1      96.976  99.528  97.721  1.00  0.00     0.111 A 
ATOM      9  C   UNL     1      95.448  97.872  98.672  1.00  0.00     0.094 A 
ATOM     10  C   UNL     1      97.038  98.748  96.527  1.00  0.00     0.134 A 
ATOM     11  C   UNL     1      95.566  97.086  97.528  1.00  0.00     0.123 A 
ATOM     12  C   UNL     1      96.360  97.523  96.466  1.00  0.00     0.093 A 
BRANCH   3  13
ATOM     13  C   UNL     1      96.406 101.627 101.386  1.00  0.00     0.025 A 
ATOM     14  C   UNL     1      95.123 101.610 101.953  1.00  0.00     0.016 A 
ATOM     15  C   UNL     1      94.876 102.267 103.162  1.00  0.00     0.051 A 
ATOM     16  C   UNL     1      95.905 102.961 103.812  1.00  0.00     0.157 A 
ATOM     17  C   UNL     1      97.429 102.344 102.028  1.00  0.00     0.062 A 
ATOM     18  C   UNL     1      97.187 103.002 103.239  1.00  0.00     0.158 A 
BRANCH  16  19
ATOM     19  O   UNL     1      95.657 103.612 105.020  1.00  0.00    -0.504 OA
ATOM     20  H   UNL     1      95.376 104.586 105.050  1.00  0.00     0.293 HD
ENDBRANCH  16  19
BRANCH  18  21
ATOM     21  O   UNL     1      98.230 103.694 103.854  1.00  0.00    -0.504 OA
ATOM     22  H   UNL     1      98.852 104.303 103.335  1.00  0.00     0.293 HD
ENDBRANCH  18  21
ENDBRANCH   3  13
BRANCH  10  23
ATOM     23  O   UNL     1      97.720  99.140  95.372  1.00  0.00    -0.507 OA
ATOM     24  H   UNL     1      97.453  98.885  94.433  1.00  0.00     0.293 HD
ENDBRANCH  10  23
BRANCH  11  25
ATOM     25  O   UNL     1      94.882  95.875  97.454  1.00  0.00    -0.508 OA
ATOM     26  H   UNL     1      95.264  95.080  96.955  1.00  0.00     0.293 HD
ENDBRANCH  11  25
ENDBRANCH   1   2
BRANCH   1  27
ATOM     27  C   UNL     1      98.606 103.658  98.542  1.00  0.00     0.339 C 
ATOM     28  C   UNL     1      99.765 104.501  99.096  1.00  0.00     0.214 C 
ATOM     29  O   UNL     1      97.478 104.451  98.193  1.00  0.00    -0.332 OA
ATOM     30  C   UNL     1      99.306 105.352 100.292  1.00  0.00     0.180 C 
ATOM     31  C   UNL     1      96.960 105.241  99.256  1.00  0.00     0.179 C 
ATOM     32  C   UNL     1      98.026 106.134  99.942  1.00  0.00     0.177 C 
BRANCH  28  33
ATOM     33  O   UNL     1     100.259 105.329  98.074  1.00  0.00    -0.384 OA
ATOM     34  H   UNL     1     100.557 106.172  98.505  1.00  0.00     0.211 HD
ENDBRANCH  28  33
BRANCH  30  35
ATOM     35  O   UNL     1      99.080 104.543 101.416  1.00  0.00    -0.387 OA
ATOM     36  H   UNL     1      98.188 104.789 101.776  1.00  0.00     0.211 HD
ENDBRANCH  30  35
BRANCH  31  37
ATOM     37  C   UNL     1      96.101 104.417 100.237  1.00  0.00     0.191 C 
BRANCH  37  38
ATOM     38  O   UNL     1      95.602 105.232 101.264  1.00  0.00    -0.394 OA
ATOM     39  H   UNL     1      94.669 105.464 101.017  1.00  0.00     0.210 HD
ENDBRANCH  37  38
ENDBRANCH  31  37
BRANCH  32  40
ATOM     40  O   UNL     1      98.344 107.198  99.079  1.00  0.00    -0.387 OA
ATOM     41  H   UNL     1      98.903 107.834  99.596  1.00  0.00     0.211 HD
ENDBRANCH  32  40
ENDBRANCH   1  27
TORSDOF 12
ENDMDL
MODEL 4
REMARK VINA RESULT:    -1.611      1.510      4.206
REMARK INTER + INTRA:           1.001
REMARK INTER:                  -1.284
REMARK INTRA:                   2.285
REMARK UNBOUND:                 3.366
REMARK SMILES O=c1c(O[C@H]2O[C@@H](CO)[C@H](O)[C@@H](O)[C@@H]2O)c(-c2ccc(O)c(O)c2)oc2cc(O)cc(O)c12
REMARK SMILES IDX 4 1 3 2 16 3 25 4 2 5 26 6 1 7 33 8 27 9 31 10 28 11 30 12
REMARK SMILES IDX 17 13 18 14 19 15 20 16 24 17 22 18 21 19 23 21 32 23 29 25
REMARK SMILES IDX 5 27 14 28 6 29 12 30 7 31 10 32 15 33 13 35 8 37 9 38 11 40
REMARK H PARENT 21 20 23 22 32 24 29 26 15 34 13 36 9 39 11 41
REMARK Flexibility Score: inf
ROOT
ATOM      1  O   UNL     1      96.415 101.758 100.442  1.00  0.00    -0.454 OA
ENDROOT
BRANCH   1   2
ATOM      2  C   UNL     1      96.585 100.777  99.444  1.00  0.00     0.214 A 
ATOM      3  C   UNL     1      97.424 101.071  98.353  1.00  0.00     0.180 A 
ATOM      4  O   UNL     1      97.550 100.207  97.356  1.00  0.00    -0.452 OA
ATOM      5  C   UNL     1      95.936  99.522  99.469  1.00  0.00     0.239 A 
ATOM      6  C   UNL     1      96.958  99.021  97.336  1.00  0.00     0.146 A 
ATOM      7  O   UNL     1      95.151  99.248 100.412  1.00  0.00    -0.285 OA
ATOM      8  C   UNL     1      96.152  98.594  98.421  1.00  0.00     0.111 A 
ATOM      9  C   UNL     1      97.141  98.203  96.219  1.00  0.00     0.094 A 
ATOM     10  C   UNL     1      95.583  97.285  98.370  1.00  0.00     0.134 A 
ATOM     11  C   UNL     1      96.528  96.954  96.150  1.00  0.00     0.123 A 
ATOM     12  C   UNL     1      95.752  96.503  97.219  1.00  0.00     0.093 A 
BRANCH   3  13
ATOM     13  C   UNL     1      98.142 102.359  98.246  1.00  0.00     0.025 A 
ATOM     14  C   UNL     1      97.925 103.182  97.130  1.00  0.00     0.016 A 
ATOM     15  C   UNL     1      98.602 104.398  97.008  1.00  0.00     0.051 A 
ATOM     16  C   UNL     1      99.514 104.802  97.993  1.00  0.00     0.157 A 
ATOM     17  C   UNL     1      99.074 102.755  99.218  1.00  0.00     0.062 A 
ATOM     18  C   UNL     1      99.753 103.973  99.101  1.00  0.00     0.158 A 
BRANCH  16  19
ATOM     19  O   UNL     1     100.185 106.018  97.870  1.00  0.00    -0.504 OA
ATOM     20  H   UNL     1     100.544 106.510  98.681  1.00  0.00     0.293 HD
ENDBRANCH  16  19
BRANCH  18  21
ATOM     21  O   UNL     1     100.663 104.339 100.093  1.00  0.00    -0.504 OA
ATOM     22  H   UNL     1     100.465 104.214 101.078  1.00  0.00     0.293 HD
ENDBRANCH  18  21
ENDBRANCH   3  13
BRANCH  10  23
ATOM     23  O   UNL     1      94.875  96.699  99.423  1.00  0.00    -0.507 OA
ATOM     24  H   UNL     1      93.869  96.680  99.496  1.00  0.00     0.293 HD
ENDBRANCH  10  23
BRANCH  11  25
ATOM     25  O   UNL     1      96.705  96.164  95.016  1.00  0.00    -0.508 OA
ATOM     26  H   UNL     1      95.967  96.046  94.332  1.00  0.00     0.293 HD
ENDBRANCH  11  25
ENDBRANCH   1   2
BRANCH   1  27
ATOM     27  C   UNL     1      95.995 103.112 100.239  1.00  0.00     0.339 C 
ATOM     28  C   UNL     1      97.176 104.075 100.437  1.00  0.00     0.214 C 
ATOM     29  O   UNL     1      94.875 103.454 101.043  1.00  0.00    -0.332 OA
ATOM     30  C   UNL     1      97.575 104.161 101.920  1.00  0.00     0.180 C 
ATOM     31  C   UNL     1      95.146 103.514 102.439  1.00  0.00     0.179 C 
ATOM     32  C   UNL     1      96.341 104.434 102.799  1.00  0.00     0.177 C 
BRANCH  28  33
ATOM     33  O   UNL     1      96.815 105.346  99.959  1.00  0.00    -0.384 OA
ATOM     34  H   UNL     1      95.838 105.444 100.109  1.00  0.00     0.211 HD
ENDBRANCH  28  33
BRANCH  30  35
ATOM     35  O   UNL     1      98.203 102.974 102.331  1.00  0.00    -0.387 OA
ATOM     36  H   UNL     1      98.829 102.711 101.606  1.00  0.00     0.211 HD
ENDBRANCH  30  35
BRANCH  31  37
ATOM     37  C   UNL     1      95.207 102.116 103.087  1.00  0.00     0.191 C 
BRANCH  37  38
ATOM     38  O   UNL     1      95.201 102.218 104.486  1.00  0.00    -0.394 OA
ATOM     39  H   UNL     1      95.493 101.336 104.838  1.00  0.00     0.210 HD
ENDBRANCH  37  38
ENDBRANCH  31  37
BRANCH  32  40
ATOM     40  O   UNL     1      95.940 105.773 102.646  1.00  0.00    -0.387 OA
ATOM     41  H   UNL     1      95.464 106.031 103.478  1.00  0.00     0.211 HD
ENDBRANCH  32  40
ENDBRANCH   1  27
TORSDOF 12
ENDMDL
MODEL 5
REMARK VINA RESULT:    -1.271      0.611      1.206
REMARK INTER + INTRA:           1.500
REMARK INTER:                  -3.270
REMARK INTRA:                   4.770
REMARK UNBOUND:                 3.366
REMARK SMILES O=c1c(O[C@H]2O[C@@H](CO)[C@H](O)[C@@H](O)[C@@H]2O)c(-c2ccc(O)c(O)c2)oc2cc(O)cc(O)c12
REMARK SMILES IDX 4 1 3 2 16 3 25 4 2 5 26 6 1 7 33 8 27 9 31 10 28 11 30 12
REMARK SMILES IDX 17 13 18 14 19 15 20 16 24 17 22 18 21 19 23 21 32 23 29 25
REMARK SMILES IDX 5 27 14 28 6 29 12 30 7 31 10 32 15 33 13 35 8 37 9 38 11 40
REMARK H PARENT 21 20 23 22 32 24 29 26 15 34 13 36 9 39 11 41
REMARK Flexibility Score: inf
ROOT
ATOM      1  O   UNL     1      97.848 102.988  98.804  1.00  0.00    -0.454 OA
ENDROOT
BRANCH   1   2
ATOM      2  C   UNL     1      97.205 101.746  98.630  1.00  0.00     0.214 A 
ATOM      3  C   UNL     1      96.247 101.349  99.582  1.00  0.00     0.180 A 
ATOM      4  O   UNL     1      95.677 100.156  99.498  1.00  0.00    -0.452 OA
ATOM      5  C   UNL     1      97.492 100.865  97.563  1.00  0.00     0.239 A 
ATOM      6  C   UNL     1      95.918  99.297  98.517  1.00  0.00     0.146 A 
ATOM      7  O   UNL     1      98.371 101.177  96.721  1.00  0.00    -0.285 OA
ATOM      8  C   UNL     1      96.809  99.627  97.465  1.00  0.00     0.111 A 
ATOM      9  C   UNL     1      95.279  98.055  98.546  1.00  0.00     0.094 A 
ATOM     10  C   UNL     1      96.989  98.685  96.407  1.00  0.00     0.134 A 
ATOM     11  C   UNL     1      95.512  97.117  97.543  1.00  0.00     0.123 A 
ATOM     12  C   UNL     1      96.366  97.433  96.483  1.00  0.00     0.093 A 
BRANCH   3  13
ATOM     13  C   UNL     1      95.885 102.209 100.729  1.00  0.00     0.025 A 
ATOM     14  C   UNL     1      95.367 103.492 100.496  1.00  0.00     0.016 A 
ATOM     15  C   UNL     1      95.029 104.322 101.569  1.00  0.00     0.051 A 
ATOM     16  C   UNL     1      95.218 103.885 102.887  1.00  0.00     0.157 A 
ATOM     17  C   UNL     1      96.095 101.784 102.050  1.00  0.00     0.062 A 
ATOM     18  C   UNL     1      95.757 102.610 103.127  1.00  0.00     0.158 A 
BRANCH  16  19
ATOM     19  O   UNL     1      94.876 104.713 103.955  1.00  0.00    -0.504 OA
ATOM     20  H   UNL     1      94.541 105.659 103.808  1.00  0.00     0.293 HD
ENDBRANCH  16  19
BRANCH  18  21
ATOM     21  O   UNL     1      95.968 102.150 104.427  1.00  0.00    -0.504 OA
ATOM     22  H   UNL     1      95.849 101.176 104.679  1.00  0.00     0.293 HD
ENDBRANCH  18  21
ENDBRANCH   3  13
BRANCH  10  23
ATOM     23  O   UNL     1      97.740  98.939  95.256  1.00  0.00    -0.507 OA
ATOM     24  H   UNL     1      97.611  99.735  94.651  1.00  0.00     0.293 HD
ENDBRANCH  10  23
BRANCH  11  25
ATOM     25  O   UNL     1      94.883  95.876  97.603  1.00  0.00    -0.508 OA
ATOM     26  H   UNL     1      94.473  95.531  98.463  1.00  0.00     0.293 HD
ENDBRANCH  11  25
ENDBRANCH   1   2
BRANCH   1  27
ATOM     27  C   UNL     1      97.528 103.979  99.786  1.00  0.00     0.339 C 
ATOM     28  C   UNL     1      98.003 105.366  99.325  1.00  0.00     0.214 C 
ATOM     29  O   UNL     1      98.022 103.639 101.075  1.00  0.00    -0.332 OA
ATOM     30  C   UNL     1      99.537 105.465  99.364  1.00  0.00     0.180 C 
ATOM     31  C   UNL     1      99.440 103.663 101.190  1.00  0.00     0.179 C 
ATOM     32  C   UNL     1     100.076 105.001 100.730  1.00  0.00     0.177 C 
BRANCH  28  33
ATOM     33  O   UNL     1      97.433 106.345 100.155  1.00  0.00    -0.384 OA
ATOM     34  H   UNL     1      97.742 107.226  99.815  1.00  0.00     0.211 HD
ENDBRANCH  28  33
BRANCH  30  35
ATOM     35  O   UNL     1     100.108 104.697  98.337  1.00  0.00    -0.387 OA
ATOM     36  H   UNL     1     101.005 104.411  98.654  1.00  0.00     0.211 HD
ENDBRANCH  30  35
BRANCH  31  37
ATOM     37  C   UNL     1     100.101 102.408 100.584  1.00  0.00     0.191 C 
BRANCH  37  38
ATOM     38  O   UNL     1      99.951 101.307 101.439  1.00  0.00    -0.394 OA
ATOM     39  H   UNL     1     100.769 100.752 101.337  1.00  0.00     0.210 HD
ENDBRANCH  37  38
ENDBRANCH  31  37
BRANCH  32  40
ATOM     40  O   UNL     1      99.810 105.982 101.701  1.00  0.00    -0.387 OA
ATOM     41  H   UNL     1     100.421 105.810 102.464  1.00  0.00     0.211 HD
ENDBRANCH  32  40
ENDBRANCH   1  27
TORSDOF 12
ENDMDL
