MODEL 1
REMARK VINA RESULT:    -5.074      0.000      0.000
REMARK INTER + INTRA:          -6.428
REMARK INTER:                  -6.112
REMARK INTRA:                  -0.316
REMARK UNBOUND:                -0.316
REMARK SMILES O=c1c(O)c(-c2ccc(O)c(O)c2)oc2cc(O)cc(O)c12
REMARK SMILES IDX 5 1 3 2 2 3 1 4 22 5 20 6 19 7 17 8 16 9 15 10 14 11 6 12
REMARK SMILES IDX 7 13 8 14 9 15 13 16 11 17 10 18 12 20 4 22 21 24 18 26
REMARK H PARENT 10 19 12 21 4 23 21 25 18 27
REMARK Flexibility Score: inf
ROOT
ATOM      1  C   UNL     1       1.568 -26.005   3.998  1.00  0.00     0.180 A 
ATOM      2  C   UNL     1       0.977 -24.902   4.636  1.00  0.00     0.208 A 
ATOM      3  C   UNL     1       1.252 -24.672   5.994  1.00  0.00     0.238 A 
ATOM      4  O   UNL     1       0.763 -23.651   6.545  1.00  0.00    -0.285 OA
ATOM      5  C   UNL     1       2.101 -25.557   6.700  1.00  0.00     0.111 A 
ATOM      6  C   UNL     1       2.417 -25.442   8.087  1.00  0.00     0.134 A 
ATOM      7  C   UNL     1       3.372 -26.299   8.651  1.00  0.00     0.093 A 
ATOM      8  C   UNL     1       3.972 -27.304   7.895  1.00  0.00     0.123 A 
ATOM      9  C   UNL     1       3.627 -27.464   6.553  1.00  0.00     0.094 A 
ATOM     10  C   UNL     1       2.705 -26.602   5.953  1.00  0.00     0.146 A 
ATOM     11  O   UNL     1       2.411 -26.780   4.670  1.00  0.00    -0.452 OA
ENDROOT
BRANCH   1  12
ATOM     12  C   UNL     1       1.305 -26.328   2.577  1.00  0.00     0.025 A 
ATOM     13  C   UNL     1       0.161 -27.066   2.236  1.00  0.00     0.016 A 
ATOM     14  C   UNL     1      -0.117 -27.365   0.899  1.00  0.00     0.051 A 
ATOM     15  C   UNL     1       0.735 -26.915  -0.117  1.00  0.00     0.157 A 
ATOM     16  C   UNL     1       2.148 -25.860   1.551  1.00  0.00     0.062 A 
ATOM     17  C   UNL     1       1.870 -26.156   0.212  1.00  0.00     0.158 A 
BRANCH  15  18
ATOM     18  O   UNL     1       0.456 -27.216  -1.450  1.00  0.00    -0.504 OA
ATOM     19  H   UNL     1      -0.144 -26.625  -2.012  1.00  0.00     0.293 HD
ENDBRANCH  15  18
BRANCH  17  20
ATOM     20  O   UNL     1       2.731 -25.681  -0.778  1.00  0.00    -0.504 OA
ATOM     21  H   UNL     1       3.111 -26.285  -1.496  1.00  0.00     0.293 HD
ENDBRANCH  17  20
ENDBRANCH   1  12
BRANCH   2  22
ATOM     22  O   UNL     1       0.159 -24.028   3.914  1.00  0.00    -0.502 OA
ATOM     23  H   UNL     1      -0.061 -23.094   4.240  1.00  0.00     0.293 HD
ENDBRANCH   2  22
BRANCH   6  24
ATOM     24  O   UNL     1       1.807 -24.531   8.955  1.00  0.00    -0.507 OA
ATOM     25  H   UNL     1       1.942 -23.532   8.925  1.00  0.00     0.293 HD
ENDBRANCH   6  24
BRANCH   8  26
ATOM     26  O   UNL     1       4.905 -28.148   8.493  1.00  0.00    -0.508 OA
ATOM     27  H   UNL     1       4.668 -29.097   8.760  1.00  0.00     0.293 HD
ENDBRANCH   8  26
TORSDOF 6
ENDMDL
MODEL 2
REMARK VINA RESULT:    -5.069      3.632      4.555
REMARK INTER + INTRA:          -6.422
REMARK INTER:                  -6.345
REMARK INTRA:                  -0.077
REMARK UNBOUND:                -0.316
REMARK SMILES O=c1c(O)c(-c2ccc(O)c(O)c2)oc2cc(O)cc(O)c12
REMARK SMILES IDX 5 1 3 2 2 3 1 4 22 5 20 6 19 7 17 8 16 9 15 10 14 11 6 12
REMARK SMILES IDX 7 13 8 14 9 15 13 16 11 17 10 18 12 20 4 22 21 24 18 26
REMARK H PARENT 10 19 12 21 4 23 21 25 18 27
REMARK Flexibility Score: inf
ROOT
ATOM      1  C   UNL     1      -1.364 -27.059   5.235  1.00  0.00     0.180 A 
ATOM      2  C   UNL     1      -0.269 -26.209   5.007  1.00  0.00     0.208 A 
ATOM      3  C   UNL     1       0.417 -25.672   6.108  1.00  0.00     0.238 A 
ATOM      4  O   UNL     1       1.431 -24.956   5.898  1.00  0.00    -0.285 OA
ATOM      5  C   UNL     1      -0.011 -25.979   7.422  1.00  0.00     0.111 A 
ATOM      6  C   UNL     1       0.586 -25.459   8.611  1.00  0.00     0.134 A 
ATOM      7  C   UNL     1       0.163 -25.933   9.860  1.00  0.00     0.093 A 
ATOM      8  C   UNL     1      -0.876 -26.856   9.965  1.00  0.00     0.123 A 
ATOM      9  C   UNL     1      -1.506 -27.327   8.813  1.00  0.00     0.094 A 
ATOM     10  C   UNL     1      -1.083 -26.900   7.551  1.00  0.00     0.146 A 
ATOM     11  O   UNL     1      -1.701 -27.379   6.478  1.00  0.00    -0.452 OA
ENDROOT
BRANCH   1  12
ATOM     12  C   UNL     1      -2.153 -27.642   4.125  1.00  0.00     0.025 A 
ATOM     13  C   UNL     1      -1.517 -28.470   3.187  1.00  0.00     0.016 A 
ATOM     14  C   UNL     1      -2.246 -29.048   2.143  1.00  0.00     0.051 A 
ATOM     15  C   UNL     1      -3.623 -28.819   2.033  1.00  0.00     0.157 A 
ATOM     16  C   UNL     1      -3.540 -27.432   4.022  1.00  0.00     0.062 A 
ATOM     17  C   UNL     1      -4.273 -28.011   2.980  1.00  0.00     0.158 A 
BRANCH  15  18
ATOM     18  O   UNL     1      -4.347 -29.395   0.990  1.00  0.00    -0.504 OA
ATOM     19  H   UNL     1      -5.291 -29.098   0.770  1.00  0.00     0.293 HD
ENDBRANCH  15  18
BRANCH  17  20
ATOM     20  O   UNL     1      -5.645 -27.775   2.905  1.00  0.00    -0.504 OA
ATOM     21  H   UNL     1      -6.321 -28.529   2.893  1.00  0.00     0.293 HD
ENDBRANCH  17  20
ENDBRANCH   1  12
BRANCH   2  22
ATOM     22  O   UNL     1       0.151 -25.938   3.702  1.00  0.00    -0.502 OA
ATOM     23  H   UNL     1       1.129 -25.918   3.438  1.00  0.00     0.293 HD
ENDBRANCH   2  22
BRANCH   6  24
ATOM     24  O   UNL     1       1.568 -24.465   8.621  1.00  0.00    -0.507 OA
ATOM     25  H   UNL     1       1.550 -23.645   9.209  1.00  0.00     0.293 HD
ENDBRANCH   6  24
BRANCH   8  26
ATOM     26  O   UNL     1      -1.281 -27.293  11.224  1.00  0.00    -0.508 OA
ATOM     27  H   UNL     1      -1.614 -28.238  11.376  1.00  0.00     0.293 HD
ENDBRANCH   8  26
TORSDOF 6
ENDMDL
MODEL 3
REMARK VINA RESULT:    -5.039      2.628      7.184
REMARK INTER + INTRA:          -6.387
REMARK INTER:                  -6.065
REMARK INTRA:                  -0.322
REMARK UNBOUND:                -0.316
REMARK SMILES O=c1c(O)c(-c2ccc(O)c(O)c2)oc2cc(O)cc(O)c12
REMARK SMILES IDX 5 1 3 2 2 3 1 4 22 5 20 6 19 7 17 8 16 9 15 10 14 11 6 12
REMARK SMILES IDX 7 13 8 14 9 15 13 16 11 17 10 18 12 20 4 22 21 24 18 26
REMARK H PARENT 10 19 12 21 4 23 21 25 18 27
REMARK Flexibility Score: inf
ROOT
ATOM      1  C   UNL     1       0.226 -26.050   6.613  1.00  0.00     0.180 A 
ATOM      2  C   UNL     1       0.359 -24.765   6.062  1.00  0.00     0.208 A 
ATOM      3  C   UNL     1       0.510 -24.632   4.672  1.00  0.00     0.238 A 
ATOM      4  O   UNL     1       0.573 -23.476   4.179  1.00  0.00    -0.285 OA
ATOM      5  C   UNL     1       0.544 -25.787   3.854  1.00  0.00     0.111 A 
ATOM      6  C   UNL     1       0.731 -25.772   2.439  1.00  0.00     0.134 A 
ATOM      7  C   UNL     1       0.616 -26.966   1.714  1.00  0.00     0.093 A 
ATOM      8  C   UNL     1       0.385 -28.179   2.359  1.00  0.00     0.123 A 
ATOM      9  C   UNL     1       0.259 -28.214   3.748  1.00  0.00     0.094 A 
ATOM     10  C   UNL     1       0.332 -27.035   4.495  1.00  0.00     0.146 A 
ATOM     11  O   UNL     1       0.196 -27.110   5.813  1.00  0.00    -0.452 OA
ENDROOT
BRANCH   1  12
ATOM     12  C   UNL     1       0.089 -26.272   8.071  1.00  0.00     0.025 A 
ATOM     13  C   UNL     1       1.241 -26.445   8.854  1.00  0.00     0.016 A 
ATOM     14  C   UNL     1       1.136 -26.636  10.235  1.00  0.00     0.051 A 
ATOM     15  C   UNL     1      -0.120 -26.639  10.855  1.00  0.00     0.157 A 
ATOM     16  C   UNL     1      -1.169 -26.255   8.700  1.00  0.00     0.062 A 
ATOM     17  C   UNL     1      -1.277 -26.444  10.083  1.00  0.00     0.158 A 
BRANCH  15  18
ATOM     18  O   UNL     1      -0.222 -26.831  12.232  1.00  0.00    -0.504 OA
ATOM     19  H   UNL     1      -0.146 -27.752  12.646  1.00  0.00     0.293 HD
ENDBRANCH  15  18
BRANCH  17  20
ATOM     20  O   UNL     1      -2.541 -26.427  10.671  1.00  0.00    -0.504 OA
ATOM     21  H   UNL     1      -2.741 -25.887  11.504  1.00  0.00     0.293 HD
ENDBRANCH  17  20
ENDBRANCH   1  12
BRANCH   2  22
ATOM     22  O   UNL     1       0.301 -23.637   6.886  1.00  0.00    -0.502 OA
ATOM     23  H   UNL     1       0.916 -22.842   6.763  1.00  0.00     0.293 HD
ENDBRANCH   2  22
BRANCH   6  24
ATOM     24  O   UNL     1       1.058 -24.626   1.706  1.00  0.00    -0.507 OA
ATOM     25  H   UNL     1       0.406 -23.899   1.458  1.00  0.00     0.293 HD
ENDBRANCH   6  24
BRANCH   8  26
ATOM     26  O   UNL     1       0.293 -29.349   1.608  1.00  0.00    -0.508 OA
ATOM     27  H   UNL     1      -0.586 -29.840   1.497  1.00  0.00     0.293 HD
ENDBRANCH   8  26
TORSDOF 6
ENDMDL
MODEL 4
REMARK VINA RESULT:    -5.026      2.227      3.436
REMARK INTER + INTRA:          -6.371
REMARK INTER:                  -6.106
REMARK INTRA:                  -0.266
REMARK UNBOUND:                -0.316
REMARK SMILES O=c1c(O)c(-c2ccc(O)c(O)c2)oc2cc(O)cc(O)c12
REMARK SMILES IDX 5 1 3 2 2 3 1 4 22 5 20 6 19 7 17 8 16 9 15 10 14 11 6 12
REMARK SMILES IDX 7 13 8 14 9 15 13 16 11 17 10 18 12 20 4 22 21 24 18 26
REMARK H PARENT 10 19 12 21 4 23 21 25 18 27
REMARK Flexibility Score: inf
ROOT
ATOM      1  C   UNL     1       0.943 -26.359   5.231  1.00  0.00     0.180 A 
ATOM      2  C   UNL     1       2.246 -26.471   5.744  1.00  0.00     0.208 A 
ATOM      3  C   UNL     1       2.435 -26.445   7.135  1.00  0.00     0.238 A 
ATOM      4  O   UNL     1       3.599 -26.601   7.590  1.00  0.00    -0.285 OA
ATOM      5  C   UNL     1       1.321 -26.289   7.994  1.00  0.00     0.111 A 
ATOM      6  C   UNL     1       1.400 -26.210   9.417  1.00  0.00     0.134 A 
ATOM      7  C   UNL     1       0.222 -26.188  10.175  1.00  0.00     0.093 A 
ATOM      8  C   UNL     1      -1.029 -26.177   9.559  1.00  0.00     0.123 A 
ATOM      9  C   UNL     1      -1.118 -26.195   8.167  1.00  0.00     0.094 A 
ATOM     10  C   UNL     1       0.039 -26.254   7.385  1.00  0.00     0.146 A 
ATOM     11  O   UNL     1      -0.088 -26.280   6.064  1.00  0.00    -0.452 OA
ENDROOT
BRANCH   1  12
ATOM     12  C   UNL     1       0.667 -26.352   3.776  1.00  0.00     0.025 A 
ATOM     13  C   UNL     1       0.963 -25.206   3.022  1.00  0.00     0.016 A 
ATOM     14  C   UNL     1       0.730 -25.185   1.644  1.00  0.00     0.051 A 
ATOM     15  C   UNL     1       0.212 -26.315   0.998  1.00  0.00     0.157 A 
ATOM     16  C   UNL     1       0.166 -27.492   3.120  1.00  0.00     0.062 A 
ATOM     17  C   UNL     1      -0.067 -27.475   1.740  1.00  0.00     0.158 A 
BRANCH  15  18
ATOM     18  O   UNL     1      -0.022 -26.291  -0.377  1.00  0.00    -0.504 OA
ATOM     19  H   UNL     1       0.571 -25.764  -1.006  1.00  0.00     0.293 HD
ENDBRANCH  15  18
BRANCH  17  20
ATOM     20  O   UNL     1      -0.570 -28.620   1.125  1.00  0.00    -0.504 OA
ATOM     21  H   UNL     1      -0.370 -29.550   1.472  1.00  0.00     0.293 HD
ENDBRANCH  17  20
ENDBRANCH   1  12
BRANCH   2  22
ATOM     22  O   UNL     1       3.329 -26.646   4.878  1.00  0.00    -0.502 OA
ATOM     23  H   UNL     1       3.840 -25.866   4.482  1.00  0.00     0.293 HD
ENDBRANCH   2  22
BRANCH   6  24
ATOM     24  O   UNL     1       2.601 -26.122  10.129  1.00  0.00    -0.507 OA
ATOM     25  H   UNL     1       2.813 -25.410  10.811  1.00  0.00     0.293 HD
ENDBRANCH   6  24
BRANCH   8  26
ATOM     26  O   UNL     1      -2.179 -26.138  10.343  1.00  0.00    -0.508 OA
ATOM     27  H   UNL     1      -2.593 -25.260  10.635  1.00  0.00     0.293 HD
ENDBRANCH   8  26
TORSDOF 6
ENDMDL
MODEL 5
REMARK VINA RESULT:    -4.900      2.419      3.075
REMARK INTER + INTRA:          -6.219
REMARK INTER:                  -5.907
REMARK INTRA:                  -0.313
REMARK UNBOUND:                -0.316
REMARK SMILES O=c1c(O)c(-c2ccc(O)c(O)c2)oc2cc(O)cc(O)c12
REMARK SMILES IDX 5 1 3 2 2 3 1 4 22 5 20 6 19 7 17 8 16 9 15 10 14 11 6 12
REMARK SMILES IDX 7 13 8 14 9 15 13 16 11 17 10 18 12 20 4 22 21 24 18 26
REMARK H PARENT 10 19 12 21 4 23 21 25 18 27
REMARK Flexibility Score: inf
ROOT
ATOM      1  C   UNL     1       0.109 -26.740   3.614  1.00  0.00     0.180 A 
ATOM      2  C   UNL     1      -1.084 -27.300   4.101  1.00  0.00     0.208 A 
ATOM      3  C   UNL     1      -1.392 -27.167   5.464  1.00  0.00     0.238 A 
ATOM      4  O   UNL     1      -2.488 -27.623   5.884  1.00  0.00    -0.285 OA
ATOM      5  C   UNL     1      -0.495 -26.492   6.326  1.00  0.00     0.111 A 
ATOM      6  C   UNL     1      -0.687 -26.333   7.732  1.00  0.00     0.134 A 
ATOM      7  C   UNL     1       0.201 -25.533   8.464  1.00  0.00     0.093 A 
ATOM      8  C   UNL     1       1.306 -24.942   7.855  1.00  0.00     0.123 A 
ATOM      9  C   UNL     1       1.537 -25.139   6.493  1.00  0.00     0.094 A 
ATOM     10  C   UNL     1       0.649 -25.901   5.729  1.00  0.00     0.146 A 
ATOM     11  O   UNL     1       0.898 -26.056   4.434  1.00  0.00    -0.452 OA
ENDROOT
BRANCH   1  12
ATOM     12  C   UNL     1       0.514 -26.861   2.195  1.00  0.00     0.025 A 
ATOM     13  C   UNL     1       0.347 -25.765   1.333  1.00  0.00     0.016 A 
ATOM     14  C   UNL     1       0.741 -25.849  -0.005  1.00  0.00     0.051 A 
ATOM     15  C   UNL     1       1.323 -27.025  -0.497  1.00  0.00     0.157 A 
ATOM     16  C   UNL     1       1.118 -28.032   1.701  1.00  0.00     0.062 A 
ATOM     17  C   UNL     1       1.516 -28.119   0.362  1.00  0.00     0.158 A 
BRANCH  15  18
ATOM     18  O   UNL     1       1.714 -27.107  -1.833  1.00  0.00    -0.504 OA
ATOM     19  H   UNL     1       1.043 -27.024  -2.588  1.00  0.00     0.293 HD
ENDBRANCH  15  18
BRANCH  17  20
ATOM     20  O   UNL     1       2.104 -29.298  -0.093  1.00  0.00    -0.504 OA
ATOM     21  H   UNL     1       2.958 -29.298  -0.639  1.00  0.00     0.293 HD
ENDBRANCH  17  20
ENDBRANCH   1  12
BRANCH   2  22
ATOM     22  O   UNL     1      -1.966 -27.943   3.227  1.00  0.00    -0.502 OA
ATOM     23  H   UNL     1      -2.363 -27.482   2.417  1.00  0.00     0.293 HD
ENDBRANCH   2  22
BRANCH   6  24
ATOM     24  O   UNL     1      -1.707 -26.956   8.456  1.00  0.00    -0.507 OA
ATOM     25  H   UNL     1      -1.837 -26.874   9.453  1.00  0.00     0.293 HD
ENDBRANCH   6  24
BRANCH   8  26
ATOM     26  O   UNL     1       2.177 -24.167   8.617  1.00  0.00    -0.508 OA
ATOM     27  H   UNL     1       2.507 -24.476   9.524  1.00  0.00     0.293 HD
ENDBRANCH   8  26
TORSDOF 6
ENDMDL
MODEL 6
REMARK VINA RESULT:    -4.866      1.870      2.172
REMARK INTER + INTRA:          -6.178
REMARK INTER:                  -6.093
REMARK INTRA:                  -0.086
REMARK UNBOUND:                -0.316
REMARK SMILES O=c1c(O)c(-c2ccc(O)c(O)c2)oc2cc(O)cc(O)c12
REMARK SMILES IDX 5 1 3 2 2 3 1 4 22 5 20 6 19 7 17 8 16 9 15 10 14 11 6 12
REMARK SMILES IDX 7 13 8 14 9 15 13 16 11 17 10 18 12 20 4 22 21 24 18 26
REMARK H PARENT 10 19 12 21 4 23 21 25 18 27
REMARK Flexibility Score: inf
ROOT
ATOM      1  C   UNL     1       1.492 -26.055   4.834  1.00  0.00     0.180 A 
ATOM      2  C   UNL     1       1.209 -24.874   5.540  1.00  0.00     0.208 A 
ATOM      3  C   UNL     1       0.974 -24.946   6.922  1.00  0.00     0.238 A 
ATOM      4  O   UNL     1       0.775 -23.878   7.558  1.00  0.00    -0.285 OA
ATOM      5  C   UNL     1       1.007 -26.201   7.577  1.00  0.00     0.111 A 
ATOM      6  C   UNL     1       0.745 -26.396   8.967  1.00  0.00     0.134 A 
ATOM      7  C   UNL     1       0.935 -27.663   9.534  1.00  0.00     0.093 A 
ATOM      8  C   UNL     1       1.314 -28.752   8.752  1.00  0.00     0.123 A 
ATOM      9  C   UNL     1       1.516 -28.586   7.381  1.00  0.00     0.094 A 
ATOM     10  C   UNL     1       1.370 -27.326   6.793  1.00  0.00     0.146 A 
ATOM     11  O   UNL     1       1.581 -27.207   5.487  1.00  0.00    -0.452 OA
ENDROOT
BRANCH   1  12
ATOM     12  C   UNL     1       1.725 -26.063   3.371  1.00  0.00     0.025 A 
ATOM     13  C   UNL     1       2.885 -26.666   2.860  1.00  0.00     0.016 A 
ATOM     14  C   UNL     1       3.116 -26.703   1.482  1.00  0.00     0.051 A 
ATOM     15  C   UNL     1       2.183 -26.151   0.594  1.00  0.00     0.157 A 
ATOM     16  C   UNL     1       0.781 -25.528   2.475  1.00  0.00     0.062 A 
ATOM     17  C   UNL     1       1.008 -25.566   1.095  1.00  0.00     0.158 A 
BRANCH  15  18
ATOM     18  O   UNL     1       2.417 -26.188  -0.780  1.00  0.00    -0.504 OA
ATOM     19  H   UNL     1       1.988 -25.519  -1.409  1.00  0.00     0.293 HD
ENDBRANCH  15  18
BRANCH  17  20
ATOM     20  O   UNL     1       0.053 -25.020   0.237  1.00  0.00    -0.504 OA
ATOM     21  H   UNL     1      -0.804 -24.605   0.580  1.00  0.00     0.293 HD
ENDBRANCH  17  20
ENDBRANCH   1  12
BRANCH   2  22
ATOM     22  O   UNL     1       1.203 -23.643   4.876  1.00  0.00    -0.502 OA
ATOM     23  H   UNL     1       1.345 -22.764   5.360  1.00  0.00     0.293 HD
ENDBRANCH   2  22
BRANCH   6  24
ATOM     24  O   UNL     1       0.273 -25.394   9.821  1.00  0.00    -0.507 OA
ATOM     25  H   UNL     1      -0.074 -24.497   9.517  1.00  0.00     0.293 HD
ENDBRANCH   6  24
BRANCH   8  26
ATOM     26  O   UNL     1       1.477 -30.001   9.347  1.00  0.00    -0.508 OA
ATOM     27  H   UNL     1       0.683 -30.584   9.581  1.00  0.00     0.293 HD
ENDBRANCH   8  26
TORSDOF 6
ENDMDL
MODEL 7
REMARK VINA RESULT:    -4.864      1.644      7.101
REMARK INTER + INTRA:          -6.176
REMARK INTER:                  -5.848
REMARK INTRA:                  -0.328
REMARK UNBOUND:                -0.316
REMARK SMILES O=c1c(O)c(-c2ccc(O)c(O)c2)oc2cc(O)cc(O)c12
REMARK SMILES IDX 5 1 3 2 2 3 1 4 22 5 20 6 19 7 17 8 16 9 15 10 14 11 6 12
REMARK SMILES IDX 7 13 8 14 9 15 13 16 11 17 10 18 12 20 4 22 21 24 18 26
REMARK H PARENT 10 19 12 21 4 23 21 25 18 27
REMARK Flexibility Score: inf
ROOT
ATOM      1  C   UNL     1       1.487 -26.304   2.984  1.00  0.00     0.180 A 
ATOM      2  C   UNL     1       0.411 -27.075   2.513  1.00  0.00     0.208 A 
ATOM      3  C   UNL     1       0.354 -27.405   1.149  1.00  0.00     0.238 A 
ATOM      4  O   UNL     1      -0.583 -28.141   0.744  1.00  0.00    -0.285 OA
ATOM      5  C   UNL     1       1.366 -26.947   0.272  1.00  0.00     0.111 A 
ATOM      6  C   UNL     1       1.389 -27.190  -1.135  1.00  0.00     0.134 A 
ATOM      7  C   UNL     1       2.507 -26.801  -1.884  1.00  0.00     0.093 A 
ATOM      8  C   UNL     1       3.571 -26.123  -1.292  1.00  0.00     0.123 A 
ATOM      9  C   UNL     1       3.533 -25.829   0.072  1.00  0.00     0.094 A 
ATOM     10  C   UNL     1       2.448 -26.236   0.853  1.00  0.00     0.146 A 
ATOM     11  O   UNL     1       2.454 -25.945   2.149  1.00  0.00    -0.452 OA
ENDROOT
BRANCH   1  12
ATOM     12  C   UNL     1       1.601 -25.894   4.402  1.00  0.00     0.025 A 
ATOM     13  C   UNL     1       2.421 -26.633   5.271  1.00  0.00     0.016 A 
ATOM     14  C   UNL     1       2.559 -26.252   6.608  1.00  0.00     0.051 A 
ATOM     15  C   UNL     1       1.894 -25.118   7.093  1.00  0.00     0.157 A 
ATOM     16  C   UNL     1       0.951 -24.745   4.888  1.00  0.00     0.062 A 
ATOM     17  C   UNL     1       1.090 -24.360   6.226  1.00  0.00     0.158 A 
BRANCH  15  18
ATOM     18  O   UNL     1       2.033 -24.742   8.428  1.00  0.00    -0.504 OA
ATOM     19  H   UNL     1       2.530 -23.900   8.693  1.00  0.00     0.293 HD
ENDBRANCH  15  18
BRANCH  17  20
ATOM     20  O   UNL     1       0.426 -23.218   6.674  1.00  0.00    -0.504 OA
ATOM     21  H   UNL     1      -0.103 -23.207   7.538  1.00  0.00     0.293 HD
ENDBRANCH  17  20
ENDBRANCH   1  12
BRANCH   2  22
ATOM     22  O   UNL     1      -0.566 -27.535   3.401  1.00  0.00    -0.502 OA
ATOM     23  H   UNL     1      -1.353 -26.964   3.687  1.00  0.00     0.293 HD
ENDBRANCH   2  22
BRANCH   6  24
ATOM     24  O   UNL     1       0.337 -27.778  -1.843  1.00  0.00    -0.507 OA
ATOM     25  H   UNL     1       0.141 -27.616  -2.819  1.00  0.00     0.293 HD
ENDBRANCH   6  24
BRANCH   8  26
ATOM     26  O   UNL     1       4.659 -25.737  -2.071  1.00  0.00    -0.508 OA
ATOM     27  H   UNL     1       5.596 -25.693  -1.688  1.00  0.00     0.293 HD
ENDBRANCH   8  26
TORSDOF 6
ENDMDL
MODEL 8
REMARK VINA RESULT:    -4.832      2.124      6.840
REMARK INTER + INTRA:          -6.137
REMARK INTER:                  -6.042
REMARK INTRA:                  -0.095
REMARK UNBOUND:                -0.316
REMARK SMILES O=c1c(O)c(-c2ccc(O)c(O)c2)oc2cc(O)cc(O)c12
REMARK SMILES IDX 5 1 3 2 2 3 1 4 22 5 20 6 19 7 17 8 16 9 15 10 14 11 6 12
REMARK SMILES IDX 7 13 8 14 9 15 13 16 11 17 10 18 12 20 4 22 21 24 18 26
REMARK H PARENT 10 19 12 21 4 23 21 25 18 27
REMARK Flexibility Score: inf
ROOT
ATOM      1  C   UNL     1       0.272 -26.383   4.751  1.00  0.00     0.180 A 
ATOM      2  C   UNL     1       0.532 -25.357   3.827  1.00  0.00     0.208 A 
ATOM      3  C   UNL     1       0.654 -25.680   2.466  1.00  0.00     0.238 A 
ATOM      4  O   UNL     1       0.832 -24.749   1.638  1.00  0.00    -0.285 OA
ATOM      5  C   UNL     1       0.532 -27.027   2.049  1.00  0.00     0.111 A 
ATOM      6  C   UNL     1       0.677 -27.473   0.700  1.00  0.00     0.134 A 
ATOM      7  C   UNL     1       0.406 -28.810   0.383  1.00  0.00     0.093 A 
ATOM      8  C   UNL     1       0.059 -29.729   1.372  1.00  0.00     0.123 A 
ATOM      9  C   UNL     1      -0.028 -29.317   2.702  1.00  0.00     0.094 A 
ATOM     10  C   UNL     1       0.201 -27.981   3.045  1.00  0.00     0.146 A 
ATOM     11  O   UNL     1       0.098 -27.627   4.321  1.00  0.00    -0.452 OA
ENDROOT
BRANCH   1  12
ATOM     12  C   UNL     1       0.156 -26.125   6.204  1.00  0.00     0.025 A 
ATOM     13  C   UNL     1      -0.982 -26.569   6.896  1.00  0.00     0.016 A 
ATOM     14  C   UNL     1      -1.104 -26.354   8.272  1.00  0.00     0.051 A 
ATOM     15  C   UNL     1      -0.083 -25.706   8.979  1.00  0.00     0.157 A 
ATOM     16  C   UNL     1       1.188 -25.493   6.922  1.00  0.00     0.062 A 
ATOM     17  C   UNL     1       1.070 -25.278   8.300  1.00  0.00     0.158 A 
BRANCH  15  18
ATOM     18  O   UNL     1      -0.208 -25.491  10.350  1.00  0.00    -0.504 OA
ATOM     19  H   UNL     1       0.272 -26.075  11.025  1.00  0.00     0.293 HD
ENDBRANCH  15  18
BRANCH  17  20
ATOM     20  O   UNL     1       2.110 -24.643   8.977  1.00  0.00    -0.504 OA
ATOM     21  H   UNL     1       2.103 -24.520   9.982  1.00  0.00     0.293 HD
ENDBRANCH  17  20
ENDBRANCH   1  12
BRANCH   2  22
ATOM     22  O   UNL     1       0.626 -24.031   4.259  1.00  0.00    -0.502 OA
ATOM     23  H   UNL     1       0.815 -23.785   5.224  1.00  0.00     0.293 HD
ENDBRANCH   2  22
BRANCH   6  24
ATOM     24  O   UNL     1       1.108 -26.657  -0.350  1.00  0.00    -0.507 OA
ATOM     25  H   UNL     1       1.883 -26.014  -0.296  1.00  0.00     0.293 HD
ENDBRANCH   6  24
BRANCH   8  26
ATOM     26  O   UNL     1      -0.187 -31.055   1.022  1.00  0.00    -0.508 OA
ATOM     27  H   UNL     1      -1.084 -31.347   0.653  1.00  0.00     0.293 HD
ENDBRANCH   8  26
TORSDOF 6
ENDMDL
MODEL 9
REMARK VINA RESULT:    -4.756      1.846      2.304
REMARK INTER + INTRA:          -6.046
REMARK INTER:                  -5.722
REMARK INTRA:                  -0.323
REMARK UNBOUND:                -0.316
REMARK SMILES O=c1c(O)c(-c2ccc(O)c(O)c2)oc2cc(O)cc(O)c12
REMARK SMILES IDX 5 1 3 2 2 3 1 4 22 5 20 6 19 7 17 8 16 9 15 10 14 11 6 12
REMARK SMILES IDX 7 13 8 14 9 15 13 16 11 17 10 18 12 20 4 22 21 24 18 26
REMARK H PARENT 10 19 12 21 4 23 21 25 18 27
REMARK Flexibility Score: inf
ROOT
ATOM      1  C   UNL     1       0.718 -26.309   5.284  1.00  0.00     0.180 A 
ATOM      2  C   UNL     1      -0.364 -26.132   6.164  1.00  0.00     0.208 A 
ATOM      3  C   UNL     1      -0.127 -26.154   7.548  1.00  0.00     0.238 A 
ATOM      4  O   UNL     1      -1.090 -25.941   8.329  1.00  0.00    -0.285 OA
ATOM      5  C   UNL     1       1.185 -26.370   8.034  1.00  0.00     0.111 A 
ATOM      6  C   UNL     1       1.534 -26.450   9.416  1.00  0.00     0.134 A 
ATOM      7  C   UNL     1       2.883 -26.535   9.784  1.00  0.00     0.093 A 
ATOM      8  C   UNL     1       3.888 -26.607   8.822  1.00  0.00     0.123 A 
ATOM      9  C   UNL     1       3.555 -26.589   7.467  1.00  0.00     0.094 A 
ATOM     10  C   UNL     1       2.221 -26.468   7.069  1.00  0.00     0.146 A 
ATOM     11  O   UNL     1       1.946 -26.443   5.770  1.00  0.00    -0.452 OA
ENDROOT
BRANCH   1  12
ATOM     12  C   UNL     1       0.543 -26.324   3.814  1.00  0.00     0.025 A 
ATOM     13  C   UNL     1       0.834 -25.168   3.072  1.00  0.00     0.016 A 
ATOM     14  C   UNL     1       0.696 -25.165   1.681  1.00  0.00     0.051 A 
ATOM     15  C   UNL     1       0.280 -26.323   1.010  1.00  0.00     0.157 A 
ATOM     16  C   UNL     1       0.146 -27.490   3.134  1.00  0.00     0.062 A 
ATOM     17  C   UNL     1       0.008 -27.491   1.741  1.00  0.00     0.158 A 
BRANCH  15  18
ATOM     18  O   UNL     1       0.141 -26.317  -0.377  1.00  0.00    -0.504 OA
ATOM     19  H   UNL     1       0.766 -26.844  -0.975  1.00  0.00     0.293 HD
ENDBRANCH  15  18
BRANCH  17  20
ATOM     20  O   UNL     1      -0.394 -28.663   1.102  1.00  0.00    -0.504 OA
ATOM     21  H   UNL     1      -0.258 -29.577   1.518  1.00  0.00     0.293 HD
ENDBRANCH  17  20
ENDBRANCH   1  12
BRANCH   2  22
ATOM     22  O   UNL     1      -1.647 -25.899   5.661  1.00  0.00    -0.502 OA
ATOM     23  H   UNL     1      -1.943 -24.990   5.325  1.00  0.00     0.293 HD
ENDBRANCH   2  22
BRANCH   6  24
ATOM     24  O   UNL     1       0.600 -26.479  10.456  1.00  0.00    -0.507 OA
ATOM     25  H   UNL     1      -0.025 -25.722  10.688  1.00  0.00     0.293 HD
ENDBRANCH   6  24
BRANCH   8  26
ATOM     26  O   UNL     1       5.218 -26.708   9.224  1.00  0.00    -0.508 OA
ATOM     27  H   UNL     1       5.625 -27.596   9.493  1.00  0.00     0.293 HD
ENDBRANCH   8  26
TORSDOF 6
ENDMDL
