MODEL 1
REMARK VINA RESULT:    -1.751      0.000      0.000
REMARK INTER + INTRA:          -1.785
REMARK INTER:                  -2.160
REMARK INTRA:                   0.375
REMARK UNBOUND:                 0.375
REMARK SMILES Oc1cc(O)c2cc(O)c(-c3cc(O)c(O)c(O)c3)[o+]c2c1.[Cl-]
REMARK SMILES IDX 10 1 20 2 21 3 22 4 2 5 3 6 4 7 6 8 7 9 8 10 11 11 12 12
REMARK SMILES IDX 13 13 19 14 15 15 17 16 14 17 16 19 18 21 9 23 1 25 5 27
REMARK H PARENT 14 18 16 20 18 22 9 24 1 26 5 28
REMARK Flexibility Score: inf
ROOT
ATOM      1  C   UNL     1     -36.772  -9.707   3.254  1.00  0.00     0.402 A 
ATOM      2  O   UNL     1     -35.896  -9.894   2.268  1.00  0.00    -0.202 OA
ATOM      3  C   UNL     1     -36.218  -9.804   0.981  1.00  0.00     0.368 A 
ATOM      4  C   UNL     1     -35.239 -10.011   0.005  1.00  0.00     0.162 A 
ATOM      5  C   UNL     1     -35.563  -9.916  -1.351  1.00  0.00     0.128 A 
ATOM      6  C   UNL     1     -36.876  -9.611  -1.736  1.00  0.00     0.093 A 
ATOM      7  C   UNL     1     -37.870  -9.402  -0.769  1.00  0.00     0.136 A 
ATOM      8  C   UNL     1     -37.543  -9.498   0.597  1.00  0.00     0.125 A 
ATOM      9  C   UNL     1     -38.494  -9.308   1.605  1.00  0.00     0.078 A 
ATOM     10  C   UNL     1     -38.118  -9.421   2.948  1.00  0.00     0.223 A 
ENDROOT
BRANCH   1  11
ATOM     11  C   UNL     1     -36.291  -9.825   4.649  1.00  0.00     0.091 A 
ATOM     12  C   UNL     1     -37.180  -9.788   5.735  1.00  0.00     0.068 A 
ATOM     13  C   UNL     1     -36.712  -9.877   7.052  1.00  0.00     0.162 A 
ATOM     14  C   UNL     1     -34.915  -9.921   4.898  1.00  0.00     0.068 A 
ATOM     15  C   UNL     1     -35.323 -10.000   7.293  1.00  0.00     0.200 A 
ATOM     16  C   UNL     1     -34.433 -10.015   6.210  1.00  0.00     0.162 A 
BRANCH  13  17
ATOM     17  O   UNL     1     -37.655  -9.834   8.081  1.00  0.00    -0.504 OA
ATOM     18  H   UNL     1     -37.462  -9.488   9.010  1.00  0.00     0.293 HD
ENDBRANCH  13  17
BRANCH  15  19
ATOM     19  O   UNL     1     -34.790 -10.105   8.580  1.00  0.00    -0.502 OA
ATOM     20  H   UNL     1     -34.248  -9.380   9.029  1.00  0.00     0.293 HD
ENDBRANCH  15  19
BRANCH  16  21
ATOM     21  O   UNL     1     -33.064 -10.125   6.446  1.00  0.00    -0.504 OA
ATOM     22  H   UNL     1     -32.582 -11.015   6.379  1.00  0.00     0.293 HD
ENDBRANCH  16  21
ENDBRANCH   1  11
BRANCH  10  23
ATOM     23  O   UNL     1     -39.072  -9.282   3.955  1.00  0.00    -0.500 OA
ATOM     24  H   UNL     1     -40.005  -8.939   3.760  1.00  0.00     0.294 HD
ENDBRANCH  10  23
BRANCH   5  25
ATOM     25  O   UNL     1     -34.574 -10.125  -2.309  1.00  0.00    -0.507 OA
ATOM     26  H   UNL     1     -33.591 -10.011  -2.088  1.00  0.00     0.293 HD
ENDBRANCH   5  25
BRANCH   7  27
ATOM     27  O   UNL     1     -39.174  -9.101  -1.163  1.00  0.00    -0.507 OA
ATOM     28  H   UNL     1     -39.372  -8.671  -2.059  1.00  0.00     0.293 HD
ENDBRANCH   7  27
TORSDOF 7
ENDMDL
MODEL 2
REMARK VINA RESULT:    -0.679     18.495     19.733
REMARK INTER + INTRA:          -0.463
REMARK INTER:                  -0.521
REMARK INTRA:                   0.059
REMARK UNBOUND:                 0.375
REMARK SMILES Oc1cc(O)c2cc(O)c(-c3cc(O)c(O)c(O)c3)[o+]c2c1.[Cl-]
REMARK SMILES IDX 10 1 20 2 21 3 22 4 2 5 3 6 4 7 6 8 7 9 8 10 11 11 12 12
REMARK SMILES IDX 13 13 19 14 15 15 17 16 14 17 16 19 18 21 9 23 1 25 5 27
REMARK H PARENT 14 18 16 20 18 22 9 24 1 26 5 28
REMARK Flexibility Score: inf
ROOT
ATOM      1  C   UNL     1     -44.226   7.266   7.290  1.00  0.00     0.402 A 
ATOM      2  O   UNL     1     -44.425   7.694   6.045  1.00  0.00    -0.202 OA
ATOM      3  C   UNL     1     -43.562   8.471   5.395  1.00  0.00     0.368 A 
ATOM      4  C   UNL     1     -43.844   8.875   4.087  1.00  0.00     0.162 A 
ATOM      5  C   UNL     1     -42.945   9.689   3.392  1.00  0.00     0.128 A 
ATOM      6  C   UNL     1     -41.756  10.102   4.008  1.00  0.00     0.093 A 
ATOM      7  C   UNL     1     -41.461   9.706   5.321  1.00  0.00     0.136 A 
ATOM      8  C   UNL     1     -42.367   8.886   6.021  1.00  0.00     0.125 A 
ATOM      9  C   UNL     1     -42.129   8.467   7.334  1.00  0.00     0.078 A 
ATOM     10  C   UNL     1     -43.065   7.659   7.987  1.00  0.00     0.223 A 
ENDROOT
BRANCH   1  11
ATOM     11  C   UNL     1     -45.255   6.397   7.904  1.00  0.00     0.091 A 
ATOM     12  C   UNL     1     -45.860   5.356   7.181  1.00  0.00     0.068 A 
ATOM     13  C   UNL     1     -46.850   4.555   7.764  1.00  0.00     0.162 A 
ATOM     14  C   UNL     1     -45.677   6.649   9.217  1.00  0.00     0.068 A 
ATOM     15  C   UNL     1     -47.250   4.800   9.098  1.00  0.00     0.200 A 
ATOM     16  C   UNL     1     -46.663   5.853   9.814  1.00  0.00     0.162 A 
BRANCH  13  17
ATOM     17  O   UNL     1     -47.406   3.539   6.984  1.00  0.00    -0.504 OA
ATOM     18  H   UNL     1     -47.213   3.412   6.001  1.00  0.00     0.293 HD
ENDBRANCH  13  17
BRANCH  15  19
ATOM     19  O   UNL     1     -48.223   4.032   9.744  1.00  0.00    -0.502 OA
ATOM     20  H   UNL     1     -49.206   4.056   9.515  1.00  0.00     0.293 HD
ENDBRANCH  15  19
BRANCH  16  21
ATOM     21  O   UNL     1     -47.064   6.103  11.125  1.00  0.00    -0.504 OA
ATOM     22  H   UNL     1     -46.844   6.975  11.591  1.00  0.00     0.293 HD
ENDBRANCH  16  21
ENDBRANCH   1  11
BRANCH  10  23
ATOM     23  O   UNL     1     -42.858   7.279   9.312  1.00  0.00    -0.500 OA
ATOM     24  H   UNL     1     -42.138   6.613   9.567  1.00  0.00     0.294 HD
ENDBRANCH  10  23
BRANCH   5  25
ATOM     25  O   UNL     1     -43.242  10.081   2.089  1.00  0.00    -0.507 OA
ATOM     26  H   UNL     1     -43.518  11.032   1.872  1.00  0.00     0.293 HD
ENDBRANCH   5  25
BRANCH   7  27
ATOM     27  O   UNL     1     -40.275  10.125   5.925  1.00  0.00    -0.507 OA
ATOM     28  H   UNL     1     -39.371   9.939   5.507  1.00  0.00     0.293 HD
ENDBRANCH   7  27
TORSDOF 7
ENDMDL
MODEL 3
REMARK VINA RESULT:    -0.444     18.524     19.752
REMARK INTER + INTRA:          -0.173
REMARK INTER:                  -0.192
REMARK INTRA:                   0.020
REMARK UNBOUND:                 0.375
REMARK SMILES Oc1cc(O)c2cc(O)c(-c3cc(O)c(O)c(O)c3)[o+]c2c1.[Cl-]
REMARK SMILES IDX 10 1 20 2 21 3 22 4 2 5 3 6 4 7 6 8 7 9 8 10 11 11 12 12
REMARK SMILES IDX 13 13 19 14 15 15 17 16 14 17 16 19 18 21 9 23 1 25 5 27
REMARK H PARENT 14 18 16 20 18 22 9 24 1 26 5 28
REMARK Flexibility Score: inf
ROOT
ATOM      1  C   UNL     1     -44.270   7.299   7.433  1.00  0.00     0.402 A 
ATOM      2  O   UNL     1     -44.411   7.733   6.181  1.00  0.00    -0.202 OA
ATOM      3  C   UNL     1     -43.514   8.503   5.572  1.00  0.00     0.368 A 
ATOM      4  C   UNL     1     -43.735   8.913   4.254  1.00  0.00     0.162 A 
ATOM      5  C   UNL     1     -42.800   9.720   3.601  1.00  0.00     0.128 A 
ATOM      6  C   UNL     1     -41.635  10.121   4.268  1.00  0.00     0.093 A 
ATOM      7  C   UNL     1     -41.400   9.719   5.592  1.00  0.00     0.136 A 
ATOM      8  C   UNL     1     -42.342   8.905   6.249  1.00  0.00     0.125 A 
ATOM      9  C   UNL     1     -42.165   8.481   7.570  1.00  0.00     0.078 A 
ATOM     10  C   UNL     1     -43.136   7.680   8.180  1.00  0.00     0.223 A 
ENDROOT
BRANCH   1  11
ATOM     11  C   UNL     1     -45.333   6.438   7.999  1.00  0.00     0.091 A 
ATOM     12  C   UNL     1     -45.832   6.649   9.295  1.00  0.00     0.068 A 
ATOM     13  C   UNL     1     -46.821   5.814   9.830  1.00  0.00     0.162 A 
ATOM     14  C   UNL     1     -45.815   5.356   7.251  1.00  0.00     0.068 A 
ATOM     15  C   UNL     1     -47.320   4.740   9.057  1.00  0.00     0.200 A 
ATOM     16  C   UNL     1     -46.806   4.515   7.772  1.00  0.00     0.162 A 
BRANCH  13  17
ATOM     17  O   UNL     1     -47.269   6.085  11.125  1.00  0.00    -0.504 OA
ATOM     18  H   UNL     1     -47.635   6.978  11.421  1.00  0.00     0.293 HD
ENDBRANCH  13  17
BRANCH  15  19
ATOM     19  O   UNL     1     -48.314   3.876   9.525  1.00  0.00    -0.502 OA
ATOM     20  H   UNL     1     -48.373   2.898   9.283  1.00  0.00     0.293 HD
ENDBRANCH  15  19
BRANCH  16  21
ATOM     21  O   UNL     1     -47.290   3.450   7.014  1.00  0.00    -0.504 OA
ATOM     22  H   UNL     1     -48.099   2.914   7.306  1.00  0.00     0.293 HD
ENDBRANCH  16  21
ENDBRANCH   1  11
BRANCH  10  23
ATOM     23  O   UNL     1     -42.989   7.294   9.512  1.00  0.00    -0.500 OA
ATOM     24  H   UNL     1     -43.268   7.901  10.274  1.00  0.00     0.294 HD
ENDBRANCH  10  23
BRANCH   5  25
ATOM     25  O   UNL     1     -43.037  10.119   2.287  1.00  0.00    -0.507 OA
ATOM     26  H   UNL     1     -42.278  10.383   1.669  1.00  0.00     0.293 HD
ENDBRANCH   5  25
BRANCH   7  27
ATOM     27  O   UNL     1     -40.237  10.124   6.248  1.00  0.00    -0.507 OA
ATOM     28  H   UNL     1     -39.318   9.916   5.877  1.00  0.00     0.293 HD
ENDBRANCH   7  27
TORSDOF 7
ENDMDL
MODEL 4
REMARK VINA RESULT:    -0.217      1.620      3.851
REMARK INTER + INTRA:           0.107
REMARK INTER:                  -0.277
REMARK INTRA:                   0.383
REMARK UNBOUND:                 0.375
REMARK SMILES Oc1cc(O)c2cc(O)c(-c3cc(O)c(O)c(O)c3)[o+]c2c1.[Cl-]
REMARK SMILES IDX 10 1 20 2 21 3 22 4 2 5 3 6 4 7 6 8 7 9 8 10 11 11 12 12
REMARK SMILES IDX 13 13 19 14 15 15 17 16 14 17 16 19 18 21 9 23 1 25 5 27
REMARK H PARENT 14 18 16 20 18 22 9 24 1 26 5 28
REMARK Flexibility Score: inf
ROOT
ATOM      1  C   UNL     1     -36.041 -10.052   5.429  1.00  0.00     0.402 A 
ATOM      2  O   UNL     1     -37.223 -10.021   4.815  1.00  0.00    -0.202 OA
ATOM      3  C   UNL     1     -37.358 -10.029   3.492  1.00  0.00     0.368 A 
ATOM      4  C   UNL     1     -38.635  -9.998   2.926  1.00  0.00     0.162 A 
ATOM      5  C   UNL     1     -38.791 -10.009   1.537  1.00  0.00     0.128 A 
ATOM      6  C   UNL     1     -37.662 -10.053   0.707  1.00  0.00     0.093 A 
ATOM      7  C   UNL     1     -36.374 -10.083   1.261  1.00  0.00     0.136 A 
ATOM      8  C   UNL     1     -36.217 -10.072   2.660  1.00  0.00     0.125 A 
ATOM      9  C   UNL     1     -34.958 -10.092   3.268  1.00  0.00     0.078 A 
ATOM     10  C   UNL     1     -34.858 -10.072   4.663  1.00  0.00     0.223 A 
ENDROOT
BRANCH   1  11
ATOM     11  C   UNL     1     -36.020 -10.049   6.909  1.00  0.00     0.091 A 
ATOM     12  C   UNL     1     -34.811 -10.065   7.623  1.00  0.00     0.068 A 
ATOM     13  C   UNL     1     -34.804 -10.084   9.024  1.00  0.00     0.162 A 
ATOM     14  C   UNL     1     -37.230 -10.086   7.615  1.00  0.00     0.068 A 
ATOM     15  C   UNL     1     -36.030 -10.095   9.729  1.00  0.00     0.200 A 
ATOM     16  C   UNL     1     -37.237 -10.102   9.016  1.00  0.00     0.162 A 
BRANCH  13  17
ATOM     17  O   UNL     1     -33.563 -10.099   9.666  1.00  0.00    -0.504 OA
ATOM     18  H   UNL     1     -33.438 -10.296  10.648  1.00  0.00     0.293 HD
ENDBRANCH  13  17
BRANCH  15  19
ATOM     19  O   UNL     1     -36.093 -10.103  11.125  1.00  0.00    -0.502 OA
ATOM     20  H   UNL     1     -35.342  -9.798  11.727  1.00  0.00     0.293 HD
ENDBRANCH  15  19
BRANCH  16  21
ATOM     21  O   UNL     1     -38.446 -10.123   9.709  1.00  0.00    -0.504 OA
ATOM     22  H   UNL     1     -38.496 -10.408  10.681  1.00  0.00     0.293 HD
ENDBRANCH  16  21
ENDBRANCH   1  11
BRANCH  10  23
ATOM     23  O   UNL     1     -33.604 -10.043   5.274  1.00  0.00    -0.500 OA
ATOM     24  H   UNL     1     -32.815  -9.574   4.845  1.00  0.00     0.294 HD
ENDBRANCH  10  23
BRANCH   5  25
ATOM     25  O   UNL     1     -40.072  -9.978   0.990  1.00  0.00    -0.507 OA
ATOM     26  H   UNL     1     -40.869 -10.360   1.486  1.00  0.00     0.293 HD
ENDBRANCH   5  25
BRANCH   7  27
ATOM     27  O   UNL     1     -35.257 -10.125   0.426  1.00  0.00    -0.507 OA
ATOM     28  H   UNL     1     -34.324  -9.944   0.777  1.00  0.00     0.293 HD
ENDBRANCH   7  27
TORSDOF 7
ENDMDL
MODEL 5
REMARK VINA RESULT:     1.010     18.412     19.963
REMARK INTER + INTRA:           1.621
REMARK INTER:                   1.459
REMARK INTRA:                   0.162
REMARK UNBOUND:                 0.375
REMARK SMILES Oc1cc(O)c2cc(O)c(-c3cc(O)c(O)c(O)c3)[o+]c2c1.[Cl-]
REMARK SMILES IDX 10 1 20 2 21 3 22 4 2 5 3 6 4 7 6 8 7 9 8 10 11 11 12 12
REMARK SMILES IDX 13 13 19 14 15 15 17 16 14 17 16 19 18 21 9 23 1 25 5 27
REMARK H PARENT 14 18 16 20 18 22 9 24 1 26 5 28
REMARK Flexibility Score: inf
ROOT
ATOM      1  C   UNL     1     -44.561   7.137   8.054  1.00  0.00     0.402 A 
ATOM      2  O   UNL     1     -45.112   6.146   7.354  1.00  0.00    -0.202 OA
ATOM      3  C   UNL     1     -46.114   5.400   7.811  1.00  0.00     0.368 A 
ATOM      4  C   UNL     1     -46.639   4.380   7.012  1.00  0.00     0.162 A 
ATOM      5  C   UNL     1     -47.693   3.591   7.480  1.00  0.00     0.128 A 
ATOM      6  C   UNL     1     -48.228   3.823   8.754  1.00  0.00     0.093 A 
ATOM      7  C   UNL     1     -47.710   4.841   9.568  1.00  0.00     0.136 A 
ATOM      8  C   UNL     1     -46.648   5.636   9.097  1.00  0.00     0.125 A 
ATOM      9  C   UNL     1     -46.087   6.660   9.867  1.00  0.00     0.078 A 
ATOM     10  C   UNL     1     -45.027   7.415   9.355  1.00  0.00     0.223 A 
ENDROOT
BRANCH   1  11
ATOM     11  C   UNL     1     -43.457   7.902   7.433  1.00  0.00     0.091 A 
ATOM     12  C   UNL     1     -42.401   8.418   8.202  1.00  0.00     0.068 A 
ATOM     13  C   UNL     1     -41.373   9.160   7.608  1.00  0.00     0.162 A 
ATOM     14  C   UNL     1     -43.491   8.168   6.057  1.00  0.00     0.068 A 
ATOM     15  C   UNL     1     -41.402   9.402   6.214  1.00  0.00     0.200 A 
ATOM     16  C   UNL     1     -42.467   8.907   5.449  1.00  0.00     0.162 A 
BRANCH  13  17
ATOM     17  O   UNL     1     -40.356   9.640   8.436  1.00  0.00    -0.504 OA
ATOM     18  H   UNL     1     -40.284   9.432   9.422  1.00  0.00     0.293 HD
ENDBRANCH  13  17
BRANCH  15  19
ATOM     19  O   UNL     1     -40.403  10.125   5.556  1.00  0.00    -0.502 OA
ATOM     20  H   UNL     1     -39.831  10.829   5.999  1.00  0.00     0.293 HD
ENDBRANCH  15  19
BRANCH  16  21
ATOM     21  O   UNL     1     -42.502   9.153   4.078  1.00  0.00    -0.504 OA
ATOM     22  H   UNL     1     -43.023   8.557   3.444  1.00  0.00     0.293 HD
ENDBRANCH  16  21
ENDBRANCH   1  11
BRANCH  10  23
ATOM     23  O   UNL     1     -44.431   8.404  10.136  1.00  0.00    -0.500 OA
ATOM     24  H   UNL     1     -43.824   8.173  10.914  1.00  0.00     0.294 HD
ENDBRANCH  10  23
BRANCH   5  25
ATOM     25  O   UNL     1     -48.204   2.580   6.669  1.00  0.00    -0.507 OA
ATOM     26  H   UNL     1     -48.169   1.607   6.952  1.00  0.00     0.293 HD
ENDBRANCH   5  25
BRANCH   7  27
ATOM     27  O   UNL     1     -48.249   5.062  10.836  1.00  0.00    -0.507 OA
ATOM     28  H   UNL     1     -48.441   5.997  11.176  1.00  0.00     0.293 HD
ENDBRANCH   7  27
TORSDOF 7
ENDMDL
MODEL 6
REMARK VINA RESULT:     1.081     18.414     19.971
REMARK INTER + INTRA:           1.709
REMARK INTER:                   1.544
REMARK INTRA:                   0.164
REMARK UNBOUND:                 0.375
REMARK SMILES Oc1cc(O)c2cc(O)c(-c3cc(O)c(O)c(O)c3)[o+]c2c1.[Cl-]
REMARK SMILES IDX 10 1 20 2 21 3 22 4 2 5 3 6 4 7 6 8 7 9 8 10 11 11 12 12
REMARK SMILES IDX 13 13 19 14 15 15 17 16 14 17 16 19 18 21 9 23 1 25 5 27
REMARK H PARENT 14 18 16 20 18 22 9 24 1 26 5 28
REMARK Flexibility Score: inf
ROOT
ATOM      1  C   UNL     1     -44.588   7.191   7.965  1.00  0.00     0.402 A 
ATOM      2  O   UNL     1     -45.142   6.177   7.301  1.00  0.00    -0.202 OA
ATOM      3  C   UNL     1     -46.115   5.422   7.804  1.00  0.00     0.368 A 
ATOM      4  C   UNL     1     -46.646   4.378   7.041  1.00  0.00     0.162 A 
ATOM      5  C   UNL     1     -47.671   3.580   7.556  1.00  0.00     0.128 A 
ATOM      6  C   UNL     1     -48.169   3.826   8.843  1.00  0.00     0.093 A 
ATOM      7  C   UNL     1     -47.646   4.869   9.621  1.00  0.00     0.136 A 
ATOM      8  C   UNL     1     -46.613   5.673   9.101  1.00  0.00     0.125 A 
ATOM      9  C   UNL     1     -46.047   6.722   9.834  1.00  0.00     0.078 A 
ATOM     10  C   UNL     1     -45.019   7.486   9.274  1.00  0.00     0.223 A 
ENDROOT
BRANCH   1  11
ATOM     11  C   UNL     1     -43.518   7.964   7.295  1.00  0.00     0.091 A 
ATOM     12  C   UNL     1     -43.547   8.206   5.912  1.00  0.00     0.068 A 
ATOM     13  C   UNL     1     -42.517   8.919   5.285  1.00  0.00     0.162 A 
ATOM     14  C   UNL     1     -42.425   8.419   8.044  1.00  0.00     0.068 A 
ATOM     15  C   UNL     1     -41.430   9.397   6.054  1.00  0.00     0.200 A 
ATOM     16  C   UNL     1     -41.390   9.137   7.430  1.00  0.00     0.162 A 
BRANCH  13  17
ATOM     17  O   UNL     1     -42.613   9.121   3.906  1.00  0.00    -0.504 OA
ATOM     18  H   UNL     1     -42.464  10.011   3.453  1.00  0.00     0.293 HD
ENDBRANCH  13  17
BRANCH  15  19
ATOM     19  O   UNL     1     -40.376  10.125   5.493  1.00  0.00    -0.502 OA
ATOM     20  H   UNL     1     -40.177  10.159   4.504  1.00  0.00     0.293 HD
ENDBRANCH  15  19
BRANCH  16  21
ATOM     21  O   UNL     1     -40.314   9.598   8.187  1.00  0.00    -0.504 OA
ATOM     22  H   UNL     1     -40.028   9.135   9.042  1.00  0.00     0.293 HD
ENDBRANCH  16  21
ENDBRANCH   1  11
BRANCH  10  23
ATOM     23  O   UNL     1     -44.417   8.501  10.018  1.00  0.00    -0.500 OA
ATOM     24  H   UNL     1     -44.629   9.478   9.852  1.00  0.00     0.294 HD
ENDBRANCH  10  23
BRANCH   5  25
ATOM     25  O   UNL     1     -48.188   2.544   6.782  1.00  0.00    -0.507 OA
ATOM     26  H   UNL     1     -47.823   1.600   6.848  1.00  0.00     0.293 HD
ENDBRANCH   5  25
BRANCH   7  27
ATOM     27  O   UNL     1     -48.148   5.104  10.900  1.00  0.00    -0.507 OA
ATOM     28  H   UNL     1     -49.145   5.161  11.078  1.00  0.00     0.293 HD
ENDBRANCH   7  27
TORSDOF 7
ENDMDL
