MODEL 1
REMARK VINA RESULT:     6.173      0.000      0.000
REMARK INTER + INTRA:          15.774
REMARK INTER:                  15.555
REMARK INTRA:                   0.220
REMARK UNBOUND:                 0.220
REMARK SMILES CCCCCCCCCCCCCCCCCCCCCCCCCCCC(=O)[O-]
REMARK SMILES IDX 15 1 16 2 17 3 18 4 19 5 20 6 21 7 22 8 23 9 24 10 25 11
REMARK SMILES IDX 26 12 27 13 28 14 29 15 30 16 14 17 13 18 12 19 11 20 10 21
REMARK SMILES IDX 9 22 8 23 7 24 6 25 5 26 4 27 3 28 2 29 1 30
REMARK H PARENT
REMARK Flexibility Score: inf
ROOT
ATOM      1  C   UNL     1     -29.480 -20.602 -19.700  1.00  0.00     0.000 C 
ENDROOT
BRANCH   1   2
ATOM      2  C   UNL     1     -28.057 -20.452 -19.134  1.00  0.00     0.000 C 
BRANCH   2   3
ATOM      3  C   UNL     1     -27.306 -21.793 -19.065  1.00  0.00     0.000 C 
BRANCH   3   4
ATOM      4  C   UNL     1     -26.449 -21.917 -17.792  1.00  0.00     0.000 C 
BRANCH   4   5
ATOM      5  C   UNL     1     -27.041 -22.897 -16.767  1.00  0.00     0.000 C 
BRANCH   5   6
ATOM      6  C   UNL     1     -28.552 -23.119 -16.962  1.00  0.00     0.000 C 
BRANCH   6   7
ATOM      7  C   UNL     1     -29.330 -23.068 -15.637  1.00  0.00     0.000 C 
BRANCH   7   8
ATOM      8  C   UNL     1     -30.812 -22.700 -15.840  1.00  0.00     0.000 C 
BRANCH   8   9
ATOM      9  C   UNL     1     -31.615 -22.747 -14.531  1.00  0.00     0.000 C 
BRANCH   9  10
ATOM     10  C   UNL     1     -32.606 -21.578 -14.402  1.00  0.00     0.000 C 
BRANCH  10  11
ATOM     11  C   UNL     1     -31.888 -20.218 -14.267  1.00  0.00     0.000 C 
BRANCH  11  12
ATOM     12  C   UNL     1     -30.952 -20.132 -13.046  1.00  0.00     0.006 C 
BRANCH  12  13
ATOM     13  C   UNL     1     -29.822 -19.099 -13.188  1.00  0.00     0.053 C 
BRANCH  13  14
ATOM     14  C   UNL     1     -29.531 -18.388 -11.899  1.00  0.00     0.041 C 
ATOM     15  O   UNL     1     -29.885 -17.190 -11.739  1.00  0.00    -0.550 OA
ATOM     16  O   UNL     1     -28.846 -19.043 -10.884  1.00  0.00    -0.550 OA
ENDBRANCH  13  14
ENDBRANCH  12  13
ENDBRANCH  11  12
ENDBRANCH  10  11
ENDBRANCH   9  10
ENDBRANCH   8   9
ENDBRANCH   7   8
ENDBRANCH   6   7
ENDBRANCH   5   6
ENDBRANCH   4   5
ENDBRANCH   3   4
ENDBRANCH   2   3
ENDBRANCH   1   2
BRANCH   1  17
ATOM     17  C   UNL     1     -29.800 -22.051 -20.124  1.00  0.00     0.000 C 
BRANCH  17  18
ATOM     18  C   UNL     1     -29.434 -22.373 -21.585  1.00  0.00     0.000 C 
BRANCH  18  19
ATOM     19  C   UNL     1     -28.099 -23.115 -21.780  1.00  0.00     0.000 C 
BRANCH  19  20
ATOM     20  C   UNL     1     -27.154 -22.500 -22.830  1.00  0.00     0.000 C 
BRANCH  20  21
ATOM     21  C   UNL     1     -27.706 -21.207 -23.450  1.00  0.00     0.000 C 
BRANCH  21  22
ATOM     22  C   UNL     1     -29.059 -21.459 -24.136  1.00  0.00    -0.000 C 
BRANCH  22  23
ATOM     23  C   UNL     1     -29.454 -20.335 -25.106  1.00  0.00    -0.000 C 
BRANCH  23  24
ATOM     24  C   UNL     1     -30.978 -20.185 -25.253  1.00  0.00    -0.000 C 
BRANCH  24  25
ATOM     25  C   UNL     1     -31.754 -21.316 -24.559  1.00  0.00    -0.000 C 
BRANCH  25  26
ATOM     26  C   UNL     1     -31.505 -21.365 -23.043  1.00  0.00    -0.000 C 
BRANCH  26  27
ATOM     27  C   UNL     1     -32.828 -21.281 -22.267  1.00  0.00    -0.000 C 
BRANCH  27  28
ATOM     28  C   UNL     1     -33.751 -20.168 -22.807  1.00  0.00    -0.000 C 
BRANCH  28  29
ATOM     29  C   UNL     1     -33.348 -18.758 -22.347  1.00  0.00    -0.003 C 
ATOM     30  C   UNL     1     -32.401 -18.768 -21.149  1.00  0.00     0.004 C 
ENDBRANCH  28  29
ENDBRANCH  27  28
ENDBRANCH  26  27
ENDBRANCH  25  26
ENDBRANCH  24  25
ENDBRANCH  23  24
ENDBRANCH  22  23
ENDBRANCH  21  22
ENDBRANCH  20  21
ENDBRANCH  19  20
ENDBRANCH  18  19
ENDBRANCH  17  18
ENDBRANCH   1  17
TORSDOF 26
ENDMDL
MODEL 2
REMARK VINA RESULT:     6.931      1.075      3.233
REMARK INTER + INTRA:          17.687
REMARK INTER:                  18.306
REMARK INTRA:                  -0.619
REMARK UNBOUND:                 0.220
REMARK SMILES CCCCCCCCCCCCCCCCCCCCCCCCCCCC(=O)[O-]
REMARK SMILES IDX 15 1 16 2 17 3 18 4 19 5 20 6 21 7 22 8 23 9 24 10 25 11
REMARK SMILES IDX 26 12 27 13 28 14 29 15 30 16 14 17 13 18 12 19 11 20 10 21
REMARK SMILES IDX 9 22 8 23 7 24 6 25 5 26 4 27 3 28 2 29 1 30
REMARK H PARENT
REMARK Flexibility Score: inf
ROOT
ATOM      1  C   UNL     1     -30.303 -20.260 -20.502  1.00  0.00     0.000 C 
ENDROOT
BRANCH   1   2
ATOM      2  C   UNL     1     -29.129 -20.891 -19.732  1.00  0.00     0.000 C 
BRANCH   2   3
ATOM      3  C   UNL     1     -29.360 -22.380 -19.422  1.00  0.00     0.000 C 
BRANCH   3   4
ATOM      4  C   UNL     1     -28.089 -23.070 -18.895  1.00  0.00     0.000 C 
BRANCH   4   5
ATOM      5  C   UNL     1     -27.341 -22.226 -17.852  1.00  0.00     0.000 C 
BRANCH   5   6
ATOM      6  C   UNL     1     -26.992 -23.024 -16.582  1.00  0.00     0.000 C 
BRANCH   6   7
ATOM      7  C   UNL     1     -27.976 -22.758 -15.431  1.00  0.00     0.000 C 
BRANCH   7   8
ATOM      8  C   UNL     1     -29.425 -23.125 -15.800  1.00  0.00     0.000 C 
BRANCH   8   9
ATOM      9  C   UNL     1     -30.334 -21.891 -15.917  1.00  0.00     0.000 C 
BRANCH   9  10
ATOM     10  C   UNL     1     -31.461 -21.884 -14.870  1.00  0.00     0.000 C 
BRANCH  10  11
ATOM     11  C   UNL     1     -31.549 -20.537 -14.120  1.00  0.00     0.000 C 
BRANCH  11  12
ATOM     12  C   UNL     1     -30.579 -20.430 -12.927  1.00  0.00     0.006 C 
BRANCH  12  13
ATOM     13  C   UNL     1     -29.539 -19.305 -13.058  1.00  0.00     0.053 C 
BRANCH  13  14
ATOM     14  C   UNL     1     -29.635 -18.305 -11.944  1.00  0.00     0.041 C 
ATOM     15  O   UNL     1     -29.369 -18.642 -10.760  1.00  0.00    -0.550 OA
ATOM     16  O   UNL     1     -30.043 -17.004 -12.211  1.00  0.00    -0.550 OA
ENDBRANCH  13  14
ENDBRANCH  12  13
ENDBRANCH  11  12
ENDBRANCH  10  11
ENDBRANCH   9  10
ENDBRANCH   8   9
ENDBRANCH   7   8
ENDBRANCH   6   7
ENDBRANCH   5   6
ENDBRANCH   4   5
ENDBRANCH   3   4
ENDBRANCH   2   3
ENDBRANCH   1   2
BRANCH   1  17
ATOM     17  C   UNL     1     -31.390 -21.290 -20.874  1.00  0.00     0.000 C 
BRANCH  17  18
ATOM     18  C   UNL     1     -32.279 -20.864 -22.058  1.00  0.00     0.000 C 
BRANCH  18  19
ATOM     19  C   UNL     1     -32.816 -19.423 -21.991  1.00  0.00     0.000 C 
BRANCH  19  20
ATOM     20  C   UNL     1     -33.106 -18.767 -23.355  1.00  0.00     0.000 C 
BRANCH  20  21
ATOM     21  C   UNL     1     -32.453 -19.512 -24.529  1.00  0.00     0.000 C 
BRANCH  21  22
ATOM     22  C   UNL     1     -31.080 -18.909 -24.868  1.00  0.00    -0.000 C 
BRANCH  22  23
ATOM     23  C   UNL     1     -30.405 -19.597 -26.065  1.00  0.00    -0.000 C 
BRANCH  23  24
ATOM     24  C   UNL     1     -31.363 -20.521 -26.837  1.00  0.00    -0.000 C 
BRANCH  24  25
ATOM     25  C   UNL     1     -31.385 -21.952 -26.277  1.00  0.00    -0.000 C 
BRANCH  25  26
ATOM     26  C   UNL     1     -31.341 -21.991 -24.741  1.00  0.00    -0.000 C 
BRANCH  26  27
ATOM     27  C   UNL     1     -30.035 -22.630 -24.245  1.00  0.00    -0.000 C 
BRANCH  27  28
ATOM     28  C   UNL     1     -29.242 -21.689 -23.315  1.00  0.00    -0.000 C 
BRANCH  28  29
ATOM     29  C   UNL     1     -28.066 -22.377 -22.602  1.00  0.00    -0.003 C 
ATOM     30  C   UNL     1     -26.719 -22.099 -23.267  1.00  0.00     0.004 C 
ENDBRANCH  28  29
ENDBRANCH  27  28
ENDBRANCH  26  27
ENDBRANCH  25  26
ENDBRANCH  24  25
ENDBRANCH  23  24
ENDBRANCH  22  23
ENDBRANCH  21  22
ENDBRANCH  20  21
ENDBRANCH  19  20
ENDBRANCH  18  19
ENDBRANCH  17  18
ENDBRANCH   1  17
TORSDOF 26
ENDMDL
MODEL 3
REMARK VINA RESULT:     6.948      3.444      4.540
REMARK INTER + INTRA:          17.729
REMARK INTER:                  16.004
REMARK INTRA:                   1.724
REMARK UNBOUND:                 0.220
REMARK SMILES CCCCCCCCCCCCCCCCCCCCCCCCCCCC(=O)[O-]
REMARK SMILES IDX 15 1 16 2 17 3 18 4 19 5 20 6 21 7 22 8 23 9 24 10 25 11
REMARK SMILES IDX 26 12 27 13 28 14 29 15 30 16 14 17 13 18 12 19 11 20 10 21
REMARK SMILES IDX 9 22 8 23 7 24 6 25 5 26 4 27 3 28 2 29 1 30
REMARK H PARENT
REMARK Flexibility Score: inf
ROOT
ATOM      1  C   UNL     1     -29.560 -20.772 -19.247  1.00  0.00     0.000 C 
ENDROOT
BRANCH   1   2
ATOM      2  C   UNL     1     -28.092 -21.019 -18.859  1.00  0.00     0.000 C 
BRANCH   2   3
ATOM      3  C   UNL     1     -27.871 -22.411 -18.243  1.00  0.00     0.000 C 
BRANCH   3   4
ATOM      4  C   UNL     1     -29.148 -22.968 -17.589  1.00  0.00     0.000 C 
BRANCH   4   5
ATOM      5  C   UNL     1     -29.058 -23.027 -16.057  1.00  0.00     0.000 C 
BRANCH   5   6
ATOM      6  C   UNL     1     -27.607 -23.125 -15.551  1.00  0.00     0.000 C 
BRANCH   6   7
ATOM      7  C   UNL     1     -26.577 -22.866 -16.663  1.00  0.00     0.000 C 
BRANCH   7   8
ATOM      8  C   UNL     1     -25.256 -22.293 -16.118  1.00  0.00     0.000 C 
BRANCH   8   9
ATOM      9  C   UNL     1     -24.918 -22.823 -14.716  1.00  0.00     0.000 C 
BRANCH   9  10
ATOM     10  C   UNL     1     -24.406 -21.720 -13.773  1.00  0.00     0.000 C 
BRANCH  10  11
ATOM     11  C   UNL     1     -22.876 -21.782 -13.581  1.00  0.00     0.000 C 
BRANCH  11  12
ATOM     12  C   UNL     1     -22.387 -21.097 -12.290  1.00  0.00     0.006 C 
BRANCH  12  13
ATOM     13  C   UNL     1     -21.204 -20.137 -12.492  1.00  0.00     0.053 C 
BRANCH  13  14
ATOM     14  C   UNL     1     -21.458 -18.783 -11.899  1.00  0.00     0.041 C 
ATOM     15  O   UNL     1     -21.693 -18.660 -10.668  1.00  0.00    -0.550 OA
ATOM     16  O   UNL     1     -21.459 -17.657 -12.713  1.00  0.00    -0.550 OA
ENDBRANCH  13  14
ENDBRANCH  12  13
ENDBRANCH  11  12
ENDBRANCH  10  11
ENDBRANCH   9  10
ENDBRANCH   8   9
ENDBRANCH   7   8
ENDBRANCH   6   7
ENDBRANCH   5   6
ENDBRANCH   4   5
ENDBRANCH   3   4
ENDBRANCH   2   3
ENDBRANCH   1   2
BRANCH   1  17
ATOM     17  C   UNL     1     -29.936 -21.428 -20.593  1.00  0.00     0.000 C 
BRANCH  17  18
ATOM     18  C   UNL     1     -29.075 -22.653 -20.955  1.00  0.00     0.000 C 
BRANCH  18  19
ATOM     19  C   UNL     1     -28.730 -22.795 -22.449  1.00  0.00     0.000 C 
BRANCH  19  20
ATOM     20  C   UNL     1     -27.575 -21.903 -22.943  1.00  0.00     0.000 C 
BRANCH  20  21
ATOM     21  C   UNL     1     -28.013 -20.893 -24.015  1.00  0.00     0.000 C 
BRANCH  21  22
ATOM     22  C   UNL     1     -29.054 -21.512 -24.961  1.00  0.00    -0.000 C 
BRANCH  22  23
ATOM     23  C   UNL     1     -29.674 -20.483 -25.920  1.00  0.00    -0.000 C 
BRANCH  23  24
ATOM     24  C   UNL     1     -30.869 -21.048 -26.707  1.00  0.00    -0.000 C 
BRANCH  24  25
ATOM     25  C   UNL     1     -32.074 -21.366 -25.806  1.00  0.00    -0.000 C 
BRANCH  25  26
ATOM     26  C   UNL     1     -32.001 -20.658 -24.443  1.00  0.00    -0.000 C 
BRANCH  26  27
ATOM     27  C   UNL     1     -32.146 -21.665 -23.293  1.00  0.00    -0.000 C 
BRANCH  27  28
ATOM     28  C   UNL     1     -32.485 -20.978 -21.954  1.00  0.00    -0.000 C 
BRANCH  28  29
ATOM     29  C   UNL     1     -32.766 -19.472 -22.090  1.00  0.00    -0.003 C 
ATOM     30  C   UNL     1     -32.708 -18.731 -20.756  1.00  0.00     0.004 C 
ENDBRANCH  28  29
ENDBRANCH  27  28
ENDBRANCH  26  27
ENDBRANCH  25  26
ENDBRANCH  24  25
ENDBRANCH  23  24
ENDBRANCH  22  23
ENDBRANCH  21  22
ENDBRANCH  20  21
ENDBRANCH  19  20
ENDBRANCH  18  19
ENDBRANCH  17  18
ENDBRANCH   1  17
TORSDOF 26
ENDMDL
MODEL 4
REMARK VINA RESULT:     6.971      2.895      9.214
REMARK INTER + INTRA:          17.787
REMARK INTER:                  18.561
REMARK INTRA:                  -0.775
REMARK UNBOUND:                 0.220
REMARK SMILES CCCCCCCCCCCCCCCCCCCCCCCCCCCC(=O)[O-]
REMARK SMILES IDX 15 1 16 2 17 3 18 4 19 5 20 6 21 7 22 8 23 9 24 10 25 11
REMARK SMILES IDX 26 12 27 13 28 14 29 15 30 16 14 17 13 18 12 19 11 20 10 21
REMARK SMILES IDX 9 22 8 23 7 24 6 25 5 26 4 27 3 28 2 29 1 30
REMARK H PARENT
REMARK Flexibility Score: inf
ROOT
ATOM      1  C   UNL     1     -28.052 -20.713 -18.433  1.00  0.00     0.000 C 
ENDROOT
BRANCH   1   2
ATOM      2  C   UNL     1     -28.587 -20.953 -19.856  1.00  0.00     0.000 C 
BRANCH   2   3
ATOM      3  C   UNL     1     -29.409 -22.248 -19.966  1.00  0.00     0.000 C 
BRANCH   3   4
ATOM      4  C   UNL     1     -29.535 -22.737 -21.420  1.00  0.00     0.000 C 
BRANCH   4   5
ATOM      5  C   UNL     1     -28.174 -22.918 -22.109  1.00  0.00     0.000 C 
BRANCH   5   6
ATOM      6  C   UNL     1     -27.924 -21.876 -23.214  1.00  0.00     0.000 C 
BRANCH   6   7
ATOM      7  C   UNL     1     -29.230 -21.297 -23.783  1.00  0.00     0.000 C 
BRANCH   7   8
ATOM      8  C   UNL     1     -29.328 -21.459 -25.311  1.00  0.00     0.000 C 
BRANCH   8   9
ATOM      9  C   UNL     1     -30.747 -21.201 -25.842  1.00  0.00     0.000 C 
BRANCH   9  10
ATOM     10  C   UNL     1     -31.218 -19.758 -25.597  1.00  0.00     0.000 C 
BRANCH  10  11
ATOM     11  C   UNL     1     -32.188 -19.657 -24.401  1.00  0.00     0.000 C 
BRANCH  11  12
ATOM     12  C   UNL     1     -32.194 -20.909 -23.502  1.00  0.00     0.006 C 
BRANCH  12  13
ATOM     13  C   UNL     1     -32.949 -20.731 -22.175  1.00  0.00     0.053 C 
BRANCH  13  14
ATOM     14  C   UNL     1     -32.391 -19.613 -21.344  1.00  0.00     0.041 C 
ATOM     15  O   UNL     1     -33.041 -18.546 -21.192  1.00  0.00    -0.550 OA
ATOM     16  O   UNL     1     -31.138 -19.743 -20.757  1.00  0.00    -0.550 OA
ENDBRANCH  13  14
ENDBRANCH  12  13
ENDBRANCH  11  12
ENDBRANCH  10  11
ENDBRANCH   9  10
ENDBRANCH   8   9
ENDBRANCH   7   8
ENDBRANCH   6   7
ENDBRANCH   5   6
ENDBRANCH   4   5
ENDBRANCH   3   4
ENDBRANCH   2   3
ENDBRANCH   1   2
BRANCH   1  17
ATOM     17  C   UNL     1     -27.144 -21.859 -17.939  1.00  0.00     0.000 C 
BRANCH  17  18
ATOM     18  C   UNL     1     -27.909 -23.125 -17.510  1.00  0.00     0.000 C 
BRANCH  18  19
ATOM     19  C   UNL     1     -28.623 -23.032 -16.149  1.00  0.00     0.000 C 
BRANCH  19  20
ATOM     20  C   UNL     1     -30.162 -23.088 -16.211  1.00  0.00     0.000 C 
BRANCH  20  21
ATOM     21  C   UNL     1     -30.828 -22.781 -14.861  1.00  0.00     0.000 C 
BRANCH  21  22
ATOM     22  C   UNL     1     -31.884 -21.674 -15.007  1.00  0.00    -0.000 C 
BRANCH  22  23
ATOM     23  C   UNL     1     -31.911 -20.713 -13.808  1.00  0.00    -0.000 C 
BRANCH  23  24
ATOM     24  C   UNL     1     -30.767 -19.685 -13.844  1.00  0.00    -0.000 C 
BRANCH  24  25
ATOM     25  C   UNL     1     -29.976 -19.632 -12.527  1.00  0.00    -0.000 C 
BRANCH  25  26
ATOM     26  C   UNL     1     -29.251 -18.292 -12.322  1.00  0.00    -0.000 C 
BRANCH  26  27
ATOM     27  C   UNL     1     -30.161 -17.279 -11.612  1.00  0.00    -0.000 C 
BRANCH  27  28
ATOM     28  C   UNL     1     -29.984 -15.849 -12.164  1.00  0.00    -0.000 C 
BRANCH  28  29
ATOM     29  C   UNL     1     -28.874 -15.051 -11.462  1.00  0.00    -0.003 C 
ATOM     30  C   UNL     1     -29.199 -13.565 -11.329  1.00  0.00     0.004 C 
ENDBRANCH  28  29
ENDBRANCH  27  28
ENDBRANCH  26  27
ENDBRANCH  25  26
ENDBRANCH  24  25
ENDBRANCH  23  24
ENDBRANCH  22  23
ENDBRANCH  21  22
ENDBRANCH  20  21
ENDBRANCH  19  20
ENDBRANCH  18  19
ENDBRANCH  17  18
ENDBRANCH   1  17
TORSDOF 26
ENDMDL
MODEL 5
REMARK VINA RESULT:     7.147      3.127      9.135
REMARK INTER + INTRA:          18.229
REMARK INTER:                  18.884
REMARK INTRA:                  -0.655
REMARK UNBOUND:                 0.220
REMARK SMILES CCCCCCCCCCCCCCCCCCCCCCCCCCCC(=O)[O-]
REMARK SMILES IDX 15 1 16 2 17 3 18 4 19 5 20 6 21 7 22 8 23 9 24 10 25 11
REMARK SMILES IDX 26 12 27 13 28 14 29 15 30 16 14 17 13 18 12 19 11 20 10 21
REMARK SMILES IDX 9 22 8 23 7 24 6 25 5 26 4 27 3 28 2 29 1 30
REMARK H PARENT
REMARK Flexibility Score: inf
ROOT
ATOM      1  C   UNL     1     -30.050 -20.293 -19.477  1.00  0.00     0.000 C 
ENDROOT
BRANCH   1   2
ATOM      2  C   UNL     1     -30.746 -20.992 -20.659  1.00  0.00     0.000 C 
BRANCH   2   3
ATOM      3  C   UNL     1     -30.645 -22.525 -20.579  1.00  0.00     0.000 C 
BRANCH   3   4
ATOM      4  C   UNL     1     -29.900 -23.124 -21.786  1.00  0.00     0.000 C 
BRANCH   4   5
ATOM      5  C   UNL     1     -28.399 -22.794 -21.784  1.00  0.00     0.000 C 
BRANCH   5   6
ATOM      6  C   UNL     1     -27.994 -21.863 -22.941  1.00  0.00     0.000 C 
BRANCH   6   7
ATOM      7  C   UNL     1     -28.908 -22.016 -24.167  1.00  0.00     0.000 C 
BRANCH   7   8
ATOM      8  C   UNL     1     -29.174 -20.674 -24.873  1.00  0.00     0.000 C 
BRANCH   8   9
ATOM      9  C   UNL     1     -29.509 -20.848 -26.363  1.00  0.00     0.000 C 
BRANCH   9  10
ATOM     10  C   UNL     1     -31.001 -21.128 -26.606  1.00  0.00     0.000 C 
BRANCH  10  11
ATOM     11  C   UNL     1     -31.908 -20.070 -25.943  1.00  0.00     0.000 C 
BRANCH  11  12
ATOM     12  C   UNL     1     -31.554 -19.788 -24.469  1.00  0.00     0.006 C 
BRANCH  12  13
ATOM     13  C   UNL     1     -32.316 -20.661 -23.459  1.00  0.00     0.053 C 
BRANCH  13  14
ATOM     14  C   UNL     1     -33.265 -19.863 -22.614  1.00  0.00     0.041 C 
ATOM     15  O   UNL     1     -34.501 -20.097 -22.650  1.00  0.00    -0.550 OA
ATOM     16  O   UNL     1     -32.783 -18.842 -21.804  1.00  0.00    -0.550 OA
ENDBRANCH  13  14
ENDBRANCH  12  13
ENDBRANCH  11  12
ENDBRANCH  10  11
ENDBRANCH   9  10
ENDBRANCH   8   9
ENDBRANCH   7   8
ENDBRANCH   6   7
ENDBRANCH   5   6
ENDBRANCH   4   5
ENDBRANCH   3   4
ENDBRANCH   2   3
ENDBRANCH   1   2
BRANCH   1  17
ATOM     17  C   UNL     1     -28.565 -19.984 -19.762  1.00  0.00     0.000 C 
BRANCH  17  18
ATOM     18  C   UNL     1     -27.580 -20.943 -19.067  1.00  0.00     0.000 C 
BRANCH  18  19
ATOM     19  C   UNL     1     -28.210 -22.219 -18.479  1.00  0.00     0.000 C 
BRANCH  19  20
ATOM     20  C   UNL     1     -27.507 -22.781 -17.228  1.00  0.00     0.000 C 
BRANCH  20  21
ATOM     21  C   UNL     1     -28.395 -22.744 -15.974  1.00  0.00     0.000 C 
BRANCH  21  22
ATOM     22  C   UNL     1     -29.845 -23.124 -16.315  1.00  0.00    -0.000 C 
BRANCH  22  23
ATOM     23  C   UNL     1     -30.793 -22.996 -15.112  1.00  0.00    -0.000 C 
BRANCH  23  24
ATOM     24  C   UNL     1     -31.769 -21.815 -15.247  1.00  0.00    -0.000 C 
BRANCH  24  25
ATOM     25  C   UNL     1     -31.696 -20.846 -14.056  1.00  0.00    -0.000 C 
BRANCH  25  26
ATOM     26  C   UNL     1     -30.274 -20.315 -13.808  1.00  0.00    -0.000 C 
BRANCH  26  27
ATOM     27  C   UNL     1     -30.313 -18.971 -13.064  1.00  0.00    -0.000 C 
BRANCH  27  28
ATOM     28  C   UNL     1     -29.089 -18.778 -12.145  1.00  0.00    -0.000 C 
BRANCH  28  29
ATOM     29  C   UNL     1     -29.460 -18.463 -10.686  1.00  0.00    -0.003 C 
ATOM     30  C   UNL     1     -28.477 -19.056  -9.679  1.00  0.00     0.004 C 
ENDBRANCH  28  29
ENDBRANCH  27  28
ENDBRANCH  26  27
ENDBRANCH  25  26
ENDBRANCH  24  25
ENDBRANCH  23  24
ENDBRANCH  22  23
ENDBRANCH  21  22
ENDBRANCH  20  21
ENDBRANCH  19  20
ENDBRANCH  18  19
ENDBRANCH  17  18
ENDBRANCH   1  17
TORSDOF 26
ENDMDL
MODEL 6
REMARK VINA RESULT:     7.388      3.476      9.070
REMARK INTER + INTRA:          18.837
REMARK INTER:                  17.240
REMARK INTRA:                   1.597
REMARK UNBOUND:                 0.220
REMARK SMILES CCCCCCCCCCCCCCCCCCCCCCCCCCCC(=O)[O-]
REMARK SMILES IDX 15 1 16 2 17 3 18 4 19 5 20 6 21 7 22 8 23 9 24 10 25 11
REMARK SMILES IDX 26 12 27 13 28 14 29 15 30 16 14 17 13 18 12 19 11 20 10 21
REMARK SMILES IDX 9 22 8 23 7 24 6 25 5 26 4 27 3 28 2 29 1 30
REMARK H PARENT
REMARK Flexibility Score: inf
ROOT
ATOM      1  C   UNL     1     -31.988 -19.636 -20.609  1.00  0.00     0.000 C 
ENDROOT
BRANCH   1   2
ATOM      2  C   UNL     1     -32.742 -20.239 -21.808  1.00  0.00     0.000 C 
BRANCH   2   3
ATOM      3  C   UNL     1     -33.477 -19.173 -22.638  1.00  0.00     0.000 C 
BRANCH   3   4
ATOM      4  C   UNL     1     -32.719 -18.814 -23.929  1.00  0.00     0.000 C 
BRANCH   4   5
ATOM      5  C   UNL     1     -31.425 -19.624 -24.106  1.00  0.00     0.000 C 
BRANCH   5   6
ATOM      6  C   UNL     1     -30.694 -19.295 -25.420  1.00  0.00     0.000 C 
BRANCH   6   7
ATOM      7  C   UNL     1     -31.242 -20.094 -26.614  1.00  0.00     0.000 C 
BRANCH   7   8
ATOM      8  C   UNL     1     -30.506 -21.432 -26.813  1.00  0.00     0.000 C 
BRANCH   8   9
ATOM      9  C   UNL     1     -30.964 -22.509 -25.817  1.00  0.00     0.000 C 
BRANCH   9  10
ATOM     10  C   UNL     1     -31.426 -21.918 -24.475  1.00  0.00     0.000 C 
BRANCH  10  11
ATOM     11  C   UNL     1     -31.308 -22.934 -23.319  1.00  0.00     0.000 C 
BRANCH  11  12
ATOM     12  C   UNL     1     -30.353 -22.486 -22.196  1.00  0.00     0.006 C 
BRANCH  12  13
ATOM     13  C   UNL     1     -28.877 -22.836 -22.445  1.00  0.00     0.053 C 
BRANCH  13  14
ATOM     14  C   UNL     1     -28.162 -21.780 -23.234  1.00  0.00     0.041 C 
ATOM     15  O   UNL     1     -28.748 -20.709 -23.542  1.00  0.00    -0.550 OA
ATOM     16  O   UNL     1     -26.854 -21.991 -23.651  1.00  0.00    -0.550 OA
ENDBRANCH  13  14
ENDBRANCH  12  13
ENDBRANCH  11  12
ENDBRANCH  10  11
ENDBRANCH   9  10
ENDBRANCH   8   9
ENDBRANCH   7   8
ENDBRANCH   6   7
ENDBRANCH   5   6
ENDBRANCH   4   5
ENDBRANCH   3   4
ENDBRANCH   2   3
ENDBRANCH   1   2
BRANCH   1  17
ATOM     17  C   UNL     1     -30.663 -20.371 -20.312  1.00  0.00     0.000 C 
BRANCH  17  18
ATOM     18  C   UNL     1     -29.573 -19.474 -19.696  1.00  0.00     0.000 C 
BRANCH  18  19
ATOM     19  C   UNL     1     -28.236 -20.177 -19.396  1.00  0.00     0.000 C 
BRANCH  19  20
ATOM     20  C   UNL     1     -28.357 -21.612 -18.848  1.00  0.00     0.000 C 
BRANCH  20  21
ATOM     21  C   UNL     1     -27.222 -21.982 -17.881  1.00  0.00     0.000 C 
BRANCH  21  22
ATOM     22  C   UNL     1     -27.672 -23.075 -16.898  1.00  0.00    -0.000 C 
BRANCH  22  23
ATOM     23  C   UNL     1     -29.197 -23.118 -16.712  1.00  0.00    -0.000 C 
BRANCH  23  24
ATOM     24  C   UNL     1     -29.626 -22.864 -15.257  1.00  0.00    -0.000 C 
BRANCH  24  25
ATOM     25  C   UNL     1     -31.151 -22.739 -15.102  1.00  0.00    -0.000 C 
BRANCH  25  26
ATOM     26  C   UNL     1     -31.591 -21.333 -14.662  1.00  0.00    -0.000 C 
BRANCH  26  27
ATOM     27  C   UNL     1     -30.395 -20.520 -14.145  1.00  0.00    -0.000 C 
BRANCH  27  28
ATOM     28  C   UNL     1     -30.711 -19.795 -12.821  1.00  0.00    -0.000 C 
BRANCH  28  29
ATOM     29  C   UNL     1     -29.516 -19.018 -12.245  1.00  0.00    -0.003 C 
ATOM     30  C   UNL     1     -29.808 -17.532 -12.050  1.00  0.00     0.004 C 
ENDBRANCH  28  29
ENDBRANCH  27  28
ENDBRANCH  26  27
ENDBRANCH  25  26
ENDBRANCH  24  25
ENDBRANCH  23  24
ENDBRANCH  22  23
ENDBRANCH  21  22
ENDBRANCH  20  21
ENDBRANCH  19  20
ENDBRANCH  18  19
ENDBRANCH  17  18
ENDBRANCH   1  17
TORSDOF 26
ENDMDL
MODEL 7
REMARK VINA RESULT:     7.622      3.440      8.494
REMARK INTER + INTRA:          19.427
REMARK INTER:                  19.219
REMARK INTRA:                   0.208
REMARK UNBOUND:                 0.220
REMARK SMILES CCCCCCCCCCCCCCCCCCCCCCCCCCCC(=O)[O-]
REMARK SMILES IDX 15 1 16 2 17 3 18 4 19 5 20 6 21 7 22 8 23 9 24 10 25 11
REMARK SMILES IDX 26 12 27 13 28 14 29 15 30 16 14 17 13 18 12 19 11 20 10 21
REMARK SMILES IDX 9 22 8 23 7 24 6 25 5 26 4 27 3 28 2 29 1 30
REMARK H PARENT
REMARK Flexibility Score: inf
ROOT
ATOM      1  C   UNL     1     -28.142 -20.492 -23.299  1.00  0.00     0.000 C 
ENDROOT
BRANCH   1   2
ATOM      2  C   UNL     1     -29.050 -20.745 -24.515  1.00  0.00     0.000 C 
BRANCH   2   3
ATOM      3  C   UNL     1     -29.857 -19.499 -24.917  1.00  0.00     0.000 C 
BRANCH   3   4
ATOM      4  C   UNL     1     -31.129 -19.858 -25.707  1.00  0.00     0.000 C 
BRANCH   4   5
ATOM      5  C   UNL     1     -30.885 -20.939 -26.771  1.00  0.00     0.000 C 
BRANCH   5   6
ATOM      6  C   UNL     1     -31.379 -22.329 -26.331  1.00  0.00     0.000 C 
BRANCH   6   7
ATOM      7  C   UNL     1     -32.197 -22.277 -25.030  1.00  0.00     0.000 C 
BRANCH   7   8
ATOM      8  C   UNL     1     -31.325 -21.974 -23.798  1.00  0.00     0.000 C 
BRANCH   8   9
ATOM      9  C   UNL     1     -31.543 -22.981 -22.658  1.00  0.00     0.000 C 
BRANCH   9  10
ATOM     10  C   UNL     1     -31.384 -22.345 -21.267  1.00  0.00     0.000 C 
BRANCH  10  11
ATOM     11  C   UNL     1     -30.914 -20.876 -21.349  1.00  0.00     0.000 C 
BRANCH  11  12
ATOM     12  C   UNL     1     -32.027 -19.854 -21.045  1.00  0.00     0.006 C 
BRANCH  12  13
ATOM     13  C   UNL     1     -32.392 -18.947 -22.231  1.00  0.00     0.053 C 
BRANCH  13  14
ATOM     14  C   UNL     1     -33.647 -19.388 -22.924  1.00  0.00     0.041 C 
ATOM     15  O   UNL     1     -34.148 -18.687 -23.843  1.00  0.00    -0.550 OA
ATOM     16  O   UNL     1     -34.278 -20.564 -22.537  1.00  0.00    -0.550 OA
ENDBRANCH  13  14
ENDBRANCH  12  13
ENDBRANCH  11  12
ENDBRANCH  10  11
ENDBRANCH   9  10
ENDBRANCH   8   9
ENDBRANCH   7   8
ENDBRANCH   6   7
ENDBRANCH   5   6
ENDBRANCH   4   5
ENDBRANCH   3   4
ENDBRANCH   2   3
ENDBRANCH   1   2
BRANCH   1  17
ATOM     17  C   UNL     1     -27.146 -21.646 -23.052  1.00  0.00     0.000 C 
BRANCH  17  18
ATOM     18  C   UNL     1     -27.809 -22.962 -22.606  1.00  0.00     0.000 C 
BRANCH  18  19
ATOM     19  C   UNL     1     -28.605 -22.885 -21.290  1.00  0.00     0.000 C 
BRANCH  19  20
ATOM     20  C   UNL     1     -27.838 -22.287 -20.095  1.00  0.00     0.000 C 
BRANCH  20  21
ATOM     21  C   UNL     1     -28.155 -22.992 -18.766  1.00  0.00     0.000 C 
BRANCH  21  22
ATOM     22  C   UNL     1     -27.988 -22.029 -17.580  1.00  0.00    -0.000 C 
BRANCH  22  23
ATOM     23  C   UNL     1     -28.436 -22.645 -16.245  1.00  0.00    -0.000 C 
BRANCH  23  24
ATOM     24  C   UNL     1     -29.900 -23.120 -16.270  1.00  0.00    -0.000 C 
BRANCH  24  25
ATOM     25  C   UNL     1     -30.612 -22.913 -14.924  1.00  0.00    -0.000 C 
BRANCH  25  26
ATOM     26  C   UNL     1     -31.587 -21.724 -14.943  1.00  0.00    -0.000 C 
BRANCH  26  27
ATOM     27  C   UNL     1     -30.861 -20.414 -14.604  1.00  0.00    -0.000 C 
BRANCH  27  28
ATOM     28  C   UNL     1     -30.709 -20.208 -13.082  1.00  0.00    -0.000 C 
BRANCH  28  29
ATOM     29  C   UNL     1     -29.879 -18.969 -12.710  1.00  0.00    -0.003 C 
ATOM     30  C   UNL     1     -29.126 -19.128 -11.390  1.00  0.00     0.004 C 
ENDBRANCH  28  29
ENDBRANCH  27  28
ENDBRANCH  26  27
ENDBRANCH  25  26
ENDBRANCH  24  25
ENDBRANCH  23  24
ENDBRANCH  22  23
ENDBRANCH  21  22
ENDBRANCH  20  21
ENDBRANCH  19  20
ENDBRANCH  18  19
ENDBRANCH  17  18
ENDBRANCH   1  17
TORSDOF 26
ENDMDL
MODEL 8
REMARK VINA RESULT:     7.910      5.273      7.048
REMARK INTER + INTRA:          20.152
REMARK INTER:                  19.041
REMARK INTRA:                   1.112
REMARK UNBOUND:                 0.220
REMARK SMILES CCCCCCCCCCCCCCCCCCCCCCCCCCCC(=O)[O-]
REMARK SMILES IDX 15 1 16 2 17 3 18 4 19 5 20 6 21 7 22 8 23 9 24 10 25 11
REMARK SMILES IDX 26 12 27 13 28 14 29 15 30 16 14 17 13 18 12 19 11 20 10 21
REMARK SMILES IDX 9 22 8 23 7 24 6 25 5 26 4 27 3 28 2 29 1 30
REMARK H PARENT
REMARK Flexibility Score: inf
ROOT
ATOM      1  C   UNL     1     -26.459 -22.660 -16.183  1.00  0.00     0.000 C 
ENDROOT
BRANCH   1   2
ATOM      2  C   UNL     1     -25.687 -22.464 -14.866  1.00  0.00     0.000 C 
BRANCH   2   3
ATOM      3  C   UNL     1     -24.171 -22.331 -15.087  1.00  0.00     0.000 C 
BRANCH   3   4
ATOM      4  C   UNL     1     -23.392 -22.265 -13.761  1.00  0.00     0.000 C 
BRANCH   4   5
ATOM      5  C   UNL     1     -22.189 -21.312 -13.822  1.00  0.00     0.000 C 
BRANCH   5   6
ATOM      6  C   UNL     1     -21.957 -20.563 -12.497  1.00  0.00     0.000 C 
BRANCH   6   7
ATOM      7  C   UNL     1     -21.461 -19.123 -12.714  1.00  0.00     0.000 C 
BRANCH   7   8
ATOM      8  C   UNL     1     -20.893 -18.498 -11.427  1.00  0.00     0.000 C 
BRANCH   8   9
ATOM      9  C   UNL     1     -21.235 -19.317 -10.173  1.00  0.00     0.000 C 
BRANCH   9  10
ATOM     10  C   UNL     1     -22.338 -18.665  -9.321  1.00  0.00     0.000 C 
BRANCH  10  11
ATOM     11  C   UNL     1     -22.741 -19.544  -8.118  1.00  0.00     0.000 C 
BRANCH  11  12
ATOM     12  C   UNL     1     -21.540 -20.117  -7.341  1.00  0.00     0.006 C 
BRANCH  12  13
ATOM     13  C   UNL     1     -21.654 -21.616  -7.017  1.00  0.00     0.053 C 
BRANCH  13  14
ATOM     14  C   UNL     1     -22.888 -22.236  -7.601  1.00  0.00     0.041 C 
ATOM     15  O   UNL     1     -23.893 -22.460  -6.876  1.00  0.00    -0.550 OA
ATOM     16  O   UNL     1     -22.918 -22.590  -8.944  1.00  0.00    -0.550 OA
ENDBRANCH  13  14
ENDBRANCH  12  13
ENDBRANCH  11  12
ENDBRANCH  10  11
ENDBRANCH   9  10
ENDBRANCH   8   9
ENDBRANCH   7   8
ENDBRANCH   6   7
ENDBRANCH   5   6
ENDBRANCH   4   5
ENDBRANCH   3   4
ENDBRANCH   2   3
ENDBRANCH   1   2
BRANCH   1  17
ATOM     17  C   UNL     1     -27.931 -23.066 -15.952  1.00  0.00     0.000 C 
BRANCH  17  18
ATOM     18  C   UNL     1     -28.788 -23.071 -17.232  1.00  0.00     0.000 C 
BRANCH  18  19
ATOM     19  C   UNL     1     -28.112 -22.468 -18.477  1.00  0.00     0.000 C 
BRANCH  19  20
ATOM     20  C   UNL     1     -28.880 -22.663 -19.799  1.00  0.00     0.000 C 
BRANCH  20  21
ATOM     21  C   UNL     1     -29.211 -21.338 -20.502  1.00  0.00     0.000 C 
BRANCH  21  22
ATOM     22  C   UNL     1     -30.701 -21.270 -20.875  1.00  0.00    -0.000 C 
BRANCH  22  23
ATOM     23  C   UNL     1     -31.249 -19.834 -20.883  1.00  0.00    -0.000 C 
BRANCH  23  24
ATOM     24  C   UNL     1     -32.592 -19.715 -21.625  1.00  0.00    -0.000 C 
BRANCH  24  25
ATOM     25  C   UNL     1     -32.757 -20.776 -22.725  1.00  0.00    -0.000 C 
BRANCH  25  26
ATOM     26  C   UNL     1     -31.901 -20.485 -23.968  1.00  0.00    -0.000 C 
BRANCH  26  27
ATOM     27  C   UNL     1     -30.983 -21.673 -24.292  1.00  0.00    -0.000 C 
BRANCH  27  28
ATOM     28  C   UNL     1     -30.569 -21.700 -25.778  1.00  0.00    -0.000 C 
BRANCH  28  29
ATOM     29  C   UNL     1     -30.629 -20.324 -26.459  1.00  0.00    -0.003 C 
ATOM     30  C   UNL     1     -31.163 -19.226 -25.541  1.00  0.00     0.004 C 
ENDBRANCH  28  29
ENDBRANCH  27  28
ENDBRANCH  26  27
ENDBRANCH  25  26
ENDBRANCH  24  25
ENDBRANCH  23  24
ENDBRANCH  22  23
ENDBRANCH  21  22
ENDBRANCH  20  21
ENDBRANCH  19  20
ENDBRANCH  18  19
ENDBRANCH  17  18
ENDBRANCH   1  17
TORSDOF 26
ENDMDL
