MODEL 1
REMARK VINA RESULT:    -3.899      0.000      0.000
REMARK INTER + INTRA:          -7.277
REMARK INTER:                  -6.635
REMARK INTRA:                  -0.642
REMARK UNBOUND:                -0.642
REMARK SMILES CCCCCCCCCCCCCC(=O)[O-]
REMARK SMILES IDX 8 1 9 2 10 3 11 4 12 5 13 6 14 7 15 8 16 9 7 10 6 11 5 12
REMARK SMILES IDX 4 13 3 14 2 15 1 16
REMARK H PARENT
REMARK Flexibility Score: inf
ROOT
ATOM      1  C   UNL     1      -8.633  -8.348  -6.359  1.00  0.00     0.000 C 
ENDROOT
BRANCH   1   2
ATOM      2  C   UNL     1     -10.104  -8.087  -6.017  1.00  0.00     0.000 C 
BRANCH   2   3
ATOM      3  C   UNL     1     -11.021  -8.482  -7.181  1.00  0.00     0.000 C 
BRANCH   3   4
ATOM      4  C   UNL     1     -12.475  -8.635  -6.710  1.00  0.00     0.000 C 
BRANCH   4   5
ATOM      5  C   UNL     1     -13.307  -7.364  -6.937  1.00  0.00     0.006 C 
BRANCH   5   6
ATOM      6  C   UNL     1     -14.701  -7.448  -6.302  1.00  0.00     0.053 C 
BRANCH   6   7
ATOM      7  C   UNL     1     -15.738  -7.701  -7.351  1.00  0.00     0.041 C 
ATOM      8  O   UNL     1     -15.746  -7.021  -8.411  1.00  0.00    -0.550 OA
ATOM      9  O   UNL     1     -16.665  -8.722  -7.180  1.00  0.00    -0.550 OA
ENDBRANCH   6   7
ENDBRANCH   5   6
ENDBRANCH   4   5
ENDBRANCH   3   4
ENDBRANCH   2   3
ENDBRANCH   1   2
BRANCH   1  10
ATOM     10  C   UNL     1      -8.075  -9.515  -5.531  1.00  0.00     0.000 C 
BRANCH  10  11
ATOM     11  C   UNL     1      -8.105 -10.850  -6.292  1.00  0.00    -0.000 C 
BRANCH  11  12
ATOM     12  C   UNL     1      -7.389 -10.775  -7.652  1.00  0.00    -0.000 C 
BRANCH  12  13
ATOM     13  C   UNL     1      -5.857 -10.894  -7.509  1.00  0.00    -0.000 C 
BRANCH  13  14
ATOM     14  C   UNL     1      -5.083  -9.774  -8.225  1.00  0.00    -0.000 C 
BRANCH  14  15
ATOM     15  C   UNL     1      -4.218 -10.290  -9.382  1.00  0.00    -0.003 C 
ATOM     16  C   UNL     1      -3.021 -11.081  -8.864  1.00  0.00     0.004 C 
ENDBRANCH  14  15
ENDBRANCH  13  14
ENDBRANCH  12  13
ENDBRANCH  11  12
ENDBRANCH  10  11
ENDBRANCH   1  10
TORSDOF 12
ENDMDL
MODEL 2
REMARK VINA RESULT:    -3.843      0.975      1.450
REMARK INTER + INTRA:          -7.181
REMARK INTER:                  -6.349
REMARK INTRA:                  -0.831
REMARK UNBOUND:                -0.642
REMARK SMILES CCCCCCCCCCCCCC(=O)[O-]
REMARK SMILES IDX 8 1 9 2 10 3 11 4 12 5 13 6 14 7 15 8 16 9 7 10 6 11 5 12
REMARK SMILES IDX 4 13 3 14 2 15 1 16
REMARK H PARENT
REMARK Flexibility Score: inf
ROOT
ATOM      1  C   UNL     1      -9.857  -8.767  -7.103  1.00  0.00     0.000 C 
ENDROOT
BRANCH   1   2
ATOM      2  C   UNL     1     -10.030  -8.188  -5.694  1.00  0.00     0.000 C 
BRANCH   2   3
ATOM      3  C   UNL     1     -11.501  -7.857  -5.410  1.00  0.00     0.000 C 
BRANCH   3   4
ATOM      4  C   UNL     1     -12.401  -8.318  -6.567  1.00  0.00     0.000 C 
BRANCH   4   5
ATOM      5  C   UNL     1     -13.452  -7.266  -6.954  1.00  0.00     0.006 C 
BRANCH   5   6
ATOM      6  C   UNL     1     -14.808  -7.509  -6.278  1.00  0.00     0.053 C 
BRANCH   6   7
ATOM      7  C   UNL     1     -15.854  -7.816  -7.303  1.00  0.00     0.041 C 
ATOM      8  O   UNL     1     -16.575  -8.841  -7.185  1.00  0.00    -0.550 OA
ATOM      9  O   UNL     1     -16.068  -6.942  -8.362  1.00  0.00    -0.550 OA
ENDBRANCH   6   7
ENDBRANCH   5   6
ENDBRANCH   4   5
ENDBRANCH   3   4
ENDBRANCH   2   3
ENDBRANCH   1   2
BRANCH   1  10
ATOM     10  C   UNL     1      -8.769  -9.851  -7.121  1.00  0.00     0.000 C 
BRANCH  10  11
ATOM     11  C   UNL     1      -7.864  -9.805  -5.879  1.00  0.00    -0.000 C 
BRANCH  11  12
ATOM     12  C   UNL     1      -6.367  -9.827  -6.232  1.00  0.00    -0.000 C 
BRANCH  12  13
ATOM     13  C   UNL     1      -5.932  -8.559  -6.998  1.00  0.00    -0.000 C 
BRANCH  13  14
ATOM     14  C   UNL     1      -4.945  -8.840  -8.143  1.00  0.00    -0.000 C 
BRANCH  14  15
ATOM     15  C   UNL     1      -4.991 -10.294  -8.629  1.00  0.00    -0.003 C 
ATOM     16  C   UNL     1      -3.667 -10.705  -9.265  1.00  0.00     0.004 C 
ENDBRANCH  14  15
ENDBRANCH  13  14
ENDBRANCH  12  13
ENDBRANCH  11  12
ENDBRANCH  10  11
ENDBRANCH   1  10
TORSDOF 12
ENDMDL
MODEL 3
REMARK VINA RESULT:    -3.680      4.347      8.917
REMARK INTER + INTRA:          -6.903
REMARK INTER:                  -6.308
REMARK INTRA:                  -0.595
REMARK UNBOUND:                -0.642
REMARK SMILES CCCCCCCCCCCCCC(=O)[O-]
REMARK SMILES IDX 8 1 9 2 10 3 11 4 12 5 13 6 14 7 15 8 16 9 7 10 6 11 5 12
REMARK SMILES IDX 4 13 3 14 2 15 1 16
REMARK H PARENT
REMARK Flexibility Score: inf
ROOT
ATOM      1  C   UNL     1      -9.070  -8.905  -6.845  1.00  0.00     0.000 C 
ENDROOT
BRANCH   1   2
ATOM      2  C   UNL     1      -8.043  -9.949  -6.392  1.00  0.00     0.000 C 
BRANCH   2   3
ATOM      3  C   UNL     1      -7.458 -10.705  -7.591  1.00  0.00     0.000 C 
BRANCH   3   4
ATOM      4  C   UNL     1      -5.984 -11.063  -7.350  1.00  0.00     0.000 C 
BRANCH   4   5
ATOM      5  C   UNL     1      -5.034 -10.342  -8.319  1.00  0.00     0.006 C 
BRANCH   5   6
ATOM      6  C   UNL     1      -5.000  -8.824  -8.094  1.00  0.00     0.053 C 
BRANCH   6   7
ATOM      7  C   UNL     1      -4.357  -8.505  -6.781  1.00  0.00     0.041 C 
ATOM      8  O   UNL     1      -4.861  -7.634  -6.024  1.00  0.00    -0.550 OA
ATOM      9  O   UNL     1      -3.230  -9.206  -6.370  1.00  0.00    -0.550 OA
ENDBRANCH   6   7
ENDBRANCH   5   6
ENDBRANCH   4   5
ENDBRANCH   3   4
ENDBRANCH   2   3
ENDBRANCH   1   2
BRANCH   1  10
ATOM     10  C   UNL     1     -10.503  -9.418  -6.637  1.00  0.00     0.000 C 
BRANCH  10  11
ATOM     11  C   UNL     1     -11.559  -8.504  -7.280  1.00  0.00    -0.000 C 
BRANCH  11  12
ATOM     12  C   UNL     1     -12.392  -7.735  -6.240  1.00  0.00    -0.000 C 
BRANCH  12  13
ATOM     13  C   UNL     1     -13.731  -7.235  -6.823  1.00  0.00    -0.000 C 
BRANCH  13  14
ATOM     14  C   UNL     1     -14.964  -7.920  -6.208  1.00  0.00    -0.000 C 
BRANCH  14  15
ATOM     15  C   UNL     1     -16.245  -7.683  -7.019  1.00  0.00    -0.003 C 
ATOM     16  C   UNL     1     -15.928  -7.094  -8.390  1.00  0.00     0.004 C 
ENDBRANCH  14  15
ENDBRANCH  13  14
ENDBRANCH  12  13
ENDBRANCH  11  12
ENDBRANCH  10  11
ENDBRANCH   1  10
TORSDOF 12
ENDMDL
MODEL 4
REMARK VINA RESULT:    -3.663      4.268      8.874
REMARK INTER + INTRA:          -6.875
REMARK INTER:                  -6.303
REMARK INTRA:                  -0.572
REMARK UNBOUND:                -0.642
REMARK SMILES CCCCCCCCCCCCCC(=O)[O-]
REMARK SMILES IDX 8 1 9 2 10 3 11 4 12 5 13 6 14 7 15 8 16 9 7 10 6 11 5 12
REMARK SMILES IDX 4 13 3 14 2 15 1 16
REMARK H PARENT
REMARK Flexibility Score: inf
ROOT
ATOM      1  C   UNL     1     -11.110  -9.997  -6.370  1.00  0.00     0.000 C 
ENDROOT
BRANCH   1   2
ATOM      2  C   UNL     1      -9.650 -10.272  -5.991  1.00  0.00     0.000 C 
BRANCH   2   3
ATOM      3  C   UNL     1      -8.694  -9.774  -7.082  1.00  0.00     0.000 C 
BRANCH   3   4
ATOM      4  C   UNL     1      -7.535 -10.761  -7.290  1.00  0.00     0.000 C 
BRANCH   4   5
ATOM      5  C   UNL     1      -6.199 -10.228  -6.751  1.00  0.00     0.006 C 
BRANCH   5   6
ATOM      6  C   UNL     1      -4.987 -10.846  -7.460  1.00  0.00     0.053 C 
BRANCH   6   7
ATOM      7  C   UNL     1      -4.594 -10.016  -8.642  1.00  0.00     0.041 C 
ATOM      8  O   UNL     1      -4.144 -10.567  -9.681  1.00  0.00    -0.550 OA
ATOM      9  O   UNL     1      -4.773  -8.639  -8.615  1.00  0.00    -0.550 OA
ENDBRANCH   6   7
ENDBRANCH   5   6
ENDBRANCH   4   5
ENDBRANCH   3   4
ENDBRANCH   2   3
ENDBRANCH   1   2
BRANCH   1  10
ATOM     10  C   UNL     1     -11.341  -8.499  -6.617  1.00  0.00     0.000 C 
BRANCH  10  11
ATOM     11  C   UNL     1     -11.557  -7.710  -5.315  1.00  0.00    -0.000 C 
BRANCH  11  12
ATOM     12  C   UNL     1     -12.910  -6.980  -5.280  1.00  0.00    -0.000 C 
BRANCH  12  13
ATOM     13  C   UNL     1     -13.850  -7.444  -6.412  1.00  0.00    -0.000 C 
BRANCH  13  14
ATOM     14  C   UNL     1     -15.326  -7.537  -5.988  1.00  0.00    -0.000 C 
BRANCH  14  15
ATOM     15  C   UNL     1     -16.245  -8.008  -7.123  1.00  0.00    -0.003 C 
ATOM     16  C   UNL     1     -16.110  -7.111  -8.350  1.00  0.00     0.004 C 
ENDBRANCH  14  15
ENDBRANCH  13  14
ENDBRANCH  12  13
ENDBRANCH  11  12
ENDBRANCH  10  11
ENDBRANCH   1  10
TORSDOF 12
ENDMDL
MODEL 5
REMARK VINA RESULT:    -3.543      4.904      8.750
REMARK INTER + INTRA:          -6.670
REMARK INTER:                  -5.709
REMARK INTRA:                  -0.961
REMARK UNBOUND:                -0.642
REMARK SMILES CCCCCCCCCCCCCC(=O)[O-]
REMARK SMILES IDX 8 1 9 2 10 3 11 4 12 5 13 6 14 7 15 8 16 9 7 10 6 11 5 12
REMARK SMILES IDX 4 13 3 14 2 15 1 16
REMARK H PARENT
REMARK Flexibility Score: inf
ROOT
ATOM      1  C   UNL     1      -5.647 -10.047  -7.659  1.00  0.00     0.000 C 
ENDROOT
BRANCH   1   2
ATOM      2  C   UNL     1      -4.632 -10.297  -8.780  1.00  0.00     0.000 C 
BRANCH   2   3
ATOM      3  C   UNL     1      -3.310 -10.835  -8.217  1.00  0.00     0.000 C 
BRANCH   3   4
ATOM      4  C   UNL     1      -3.330 -10.845  -6.681  1.00  0.00     0.000 C 
BRANCH   4   5
ATOM      5  C   UNL     1      -2.362  -9.820  -6.070  1.00  0.00     0.006 C 
BRANCH   5   6
ATOM      6  C   UNL     1      -3.073  -8.794  -5.177  1.00  0.00     0.053 C 
BRANCH   6   7
ATOM      7  C   UNL     1      -3.057  -7.443  -5.820  1.00  0.00     0.041 C 
ATOM      8  O   UNL     1      -2.307  -6.537  -5.371  1.00  0.00    -0.550 OA
ATOM      9  O   UNL     1      -3.833  -7.200  -6.946  1.00  0.00    -0.550 OA
ENDBRANCH   6   7
ENDBRANCH   5   6
ENDBRANCH   4   5
ENDBRANCH   3   4
ENDBRANCH   2   3
ENDBRANCH   1   2
BRANCH   1  10
ATOM     10  C   UNL     1      -6.873 -10.959  -7.815  1.00  0.00     0.000 C 
BRANCH  10  11
ATOM     11  C   UNL     1      -8.114 -10.412  -7.092  1.00  0.00    -0.000 C 
BRANCH  11  12
ATOM     12  C   UNL     1      -7.795  -9.205  -6.193  1.00  0.00    -0.000 C 
BRANCH  12  13
ATOM     13  C   UNL     1      -8.777  -8.036  -6.418  1.00  0.00    -0.000 C 
BRANCH  13  14
ATOM     14  C   UNL     1     -10.097  -8.461  -7.084  1.00  0.00    -0.000 C 
BRANCH  14  15
ATOM     15  C   UNL     1     -11.284  -8.461  -6.112  1.00  0.00    -0.003 C 
ATOM     16  C   UNL     1     -12.558  -7.979  -6.798  1.00  0.00     0.004 C 
ENDBRANCH  14  15
ENDBRANCH  13  14
ENDBRANCH  12  13
ENDBRANCH  11  12
ENDBRANCH  10  11
ENDBRANCH   1  10
TORSDOF 12
ENDMDL
MODEL 6
REMARK VINA RESULT:    -3.488      4.349      8.938
REMARK INTER + INTRA:          -6.576
REMARK INTER:                  -5.950
REMARK INTRA:                  -0.627
REMARK UNBOUND:                -0.642
REMARK SMILES CCCCCCCCCCCCCC(=O)[O-]
REMARK SMILES IDX 8 1 9 2 10 3 11 4 12 5 13 6 14 7 15 8 16 9 7 10 6 11 5 12
REMARK SMILES IDX 4 13 3 14 2 15 1 16
REMARK H PARENT
REMARK Flexibility Score: inf
ROOT
ATOM      1  C   UNL     1     -11.036  -8.537  -7.099  1.00  0.00     0.000 C 
ENDROOT
BRANCH   1   2
ATOM      2  C   UNL     1     -10.383  -9.711  -6.361  1.00  0.00     0.000 C 
BRANCH   2   3
ATOM      3  C   UNL     1      -8.958  -9.959  -6.870  1.00  0.00     0.000 C 
BRANCH   3   4
ATOM      4  C   UNL     1      -8.031  -8.791  -6.499  1.00  0.00     0.000 C 
BRANCH   4   5
ATOM      5  C   UNL     1      -6.552  -9.204  -6.442  1.00  0.00     0.006 C 
BRANCH   5   6
ATOM      6  C   UNL     1      -6.138 -10.082  -7.630  1.00  0.00     0.053 C 
BRANCH   6   7
ATOM      7  C   UNL     1      -4.997  -9.456  -8.369  1.00  0.00     0.041 C 
ATOM      8  O   UNL     1      -4.631  -8.283  -8.093  1.00  0.00    -0.550 OA
ATOM      9  O   UNL     1      -4.306 -10.186  -9.329  1.00  0.00    -0.550 OA
ENDBRANCH   6   7
ENDBRANCH   5   6
ENDBRANCH   4   5
ENDBRANCH   3   4
ENDBRANCH   2   3
ENDBRANCH   1   2
BRANCH   1  10
ATOM     10  C   UNL     1     -12.072  -7.835  -6.208  1.00  0.00     0.000 C 
BRANCH  10  11
ATOM     11  C   UNL     1     -13.292  -7.335  -6.998  1.00  0.00    -0.000 C 
BRANCH  11  12
ATOM     12  C   UNL     1     -14.627  -7.749  -6.355  1.00  0.00    -0.000 C 
BRANCH  12  13
ATOM     13  C   UNL     1     -14.645  -9.242  -5.966  1.00  0.00    -0.000 C 
BRANCH  13  14
ATOM     14  C   UNL     1     -16.038  -9.757  -5.565  1.00  0.00    -0.000 C 
BRANCH  14  15
ATOM     15  C   UNL     1     -17.125  -9.391  -6.583  1.00  0.00    -0.003 C 
ATOM     16  C   UNL     1     -17.110 -10.345  -7.774  1.00  0.00     0.004 C 
ENDBRANCH  14  15
ENDBRANCH  13  14
ENDBRANCH  12  13
ENDBRANCH  11  12
ENDBRANCH  10  11
ENDBRANCH   1  10
TORSDOF 12
ENDMDL
MODEL 7
REMARK VINA RESULT:    -3.441      4.267      8.591
REMARK INTER + INTRA:          -6.497
REMARK INTER:                  -5.674
REMARK INTRA:                  -0.823
REMARK UNBOUND:                -0.642
REMARK SMILES CCCCCCCCCCCCCC(=O)[O-]
REMARK SMILES IDX 8 1 9 2 10 3 11 4 12 5 13 6 14 7 15 8 16 9 7 10 6 11 5 12
REMARK SMILES IDX 4 13 3 14 2 15 1 16
REMARK H PARENT
REMARK Flexibility Score: inf
ROOT
ATOM      1  C   UNL     1     -11.361  -7.920  -5.764  1.00  0.00     0.000 C 
ENDROOT
BRANCH   1   2
ATOM      2  C   UNL     1      -9.981  -8.461  -5.372  1.00  0.00     0.000 C 
BRANCH   2   3
ATOM      3  C   UNL     1      -9.016  -8.425  -6.564  1.00  0.00     0.000 C 
BRANCH   3   4
ATOM      4  C   UNL     1      -8.252  -9.751  -6.693  1.00  0.00     0.000 C 
BRANCH   4   5
ATOM      5  C   UNL     1      -6.731  -9.551  -6.784  1.00  0.00     0.006 C 
BRANCH   5   6
ATOM      6  C   UNL     1      -6.073 -10.478  -7.814  1.00  0.00     0.053 C 
BRANCH   6   7
ATOM      7  C   UNL     1      -4.990  -9.755  -8.551  1.00  0.00     0.041 C 
ATOM      8  O   UNL     1      -4.293 -10.361  -9.407  1.00  0.00    -0.550 OA
ATOM      9  O   UNL     1      -4.782  -8.400  -8.328  1.00  0.00    -0.550 OA
ENDBRANCH   6   7
ENDBRANCH   5   6
ENDBRANCH   4   5
ENDBRANCH   3   4
ENDBRANCH   2   3
ENDBRANCH   1   2
BRANCH   1  10
ATOM     10  C   UNL     1     -12.059  -8.863  -6.756  1.00  0.00     0.000 C 
BRANCH  10  11
ATOM     11  C   UNL     1     -12.265 -10.276  -6.186  1.00  0.00    -0.000 C 
BRANCH  11  12
ATOM     12  C   UNL     1     -13.748 -10.677  -6.112  1.00  0.00    -0.000 C 
BRANCH  12  13
ATOM     13  C   UNL     1     -14.611  -9.589  -5.439  1.00  0.00    -0.000 C 
BRANCH  13  14
ATOM     14  C   UNL     1     -15.750  -9.067  -6.332  1.00  0.00    -0.000 C 
BRANCH  14  15
ATOM     15  C   UNL     1     -15.570  -7.597  -6.731  1.00  0.00    -0.003 C 
ATOM     16  C   UNL     1     -16.108  -7.336  -8.134  1.00  0.00     0.004 C 
ENDBRANCH  14  15
ENDBRANCH  13  14
ENDBRANCH  12  13
ENDBRANCH  11  12
ENDBRANCH  10  11
ENDBRANCH   1  10
TORSDOF 12
ENDMDL
MODEL 8
REMARK VINA RESULT:    -3.343      4.254      8.386
REMARK INTER + INTRA:          -6.329
REMARK INTER:                  -5.533
REMARK INTRA:                  -0.796
REMARK UNBOUND:                -0.642
REMARK SMILES CCCCCCCCCCCCCC(=O)[O-]
REMARK SMILES IDX 8 1 9 2 10 3 11 4 12 5 13 6 14 7 15 8 16 9 7 10 6 11 5 12
REMARK SMILES IDX 4 13 3 14 2 15 1 16
REMARK H PARENT
REMARK Flexibility Score: inf
ROOT
ATOM      1  C   UNL     1      -8.540  -7.293  -6.044  1.00  0.00     0.000 C 
ENDROOT
BRANCH   1   2
ATOM      2  C   UNL     1      -7.511  -7.406  -4.913  1.00  0.00     0.000 C 
BRANCH   2   3
ATOM      3  C   UNL     1      -6.739  -8.729  -4.999  1.00  0.00     0.000 C 
BRANCH   3   4
ATOM      4  C   UNL     1      -5.278  -8.488  -5.408  1.00  0.00     0.000 C 
BRANCH   4   5
ATOM      5  C   UNL     1      -5.098  -8.388  -6.930  1.00  0.00     0.006 C 
BRANCH   5   6
ATOM      6  C   UNL     1      -4.098  -9.415  -7.477  1.00  0.00     0.053 C 
BRANCH   6   7
ATOM      7  C   UNL     1      -4.764 -10.317  -8.467  1.00  0.00     0.041 C 
ATOM      8  O   UNL     1      -5.944 -10.712  -8.271  1.00  0.00    -0.550 OA
ATOM      9  O   UNL     1      -4.101 -10.681  -9.632  1.00  0.00    -0.550 OA
ENDBRANCH   6   7
ENDBRANCH   5   6
ENDBRANCH   4   5
ENDBRANCH   3   4
ENDBRANCH   2   3
ENDBRANCH   1   2
BRANCH   1  10
ATOM     10  C   UNL     1      -9.189  -8.655  -6.333  1.00  0.00     0.000 C 
BRANCH  10  11
ATOM     11  C   UNL     1     -10.387  -8.549  -7.290  1.00  0.00    -0.000 C 
BRANCH  11  12
ATOM     12  C   UNL     1     -11.730  -8.840  -6.598  1.00  0.00    -0.000 C 
BRANCH  12  13
ATOM     13  C   UNL     1     -12.016  -7.851  -5.447  1.00  0.00    -0.000 C 
BRANCH  13  14
ATOM     14  C   UNL     1     -13.183  -6.892  -5.736  1.00  0.00    -0.000 C 
BRANCH  14  15
ATOM     15  C   UNL     1     -13.957  -7.259  -7.009  1.00  0.00    -0.003 C 
ATOM     16  C   UNL     1     -15.351  -7.783  -6.674  1.00  0.00     0.004 C 
ENDBRANCH  14  15
ENDBRANCH  13  14
ENDBRANCH  12  13
ENDBRANCH  11  12
ENDBRANCH  10  11
ENDBRANCH   1  10
TORSDOF 12
ENDMDL
MODEL 9
REMARK VINA RESULT:    -3.112      1.731      2.718
REMARK INTER + INTRA:          -5.938
REMARK INTER:                  -5.205
REMARK INTRA:                  -0.733
REMARK UNBOUND:                -0.642
REMARK SMILES CCCCCCCCCCCCCC(=O)[O-]
REMARK SMILES IDX 8 1 9 2 10 3 11 4 12 5 13 6 14 7 15 8 16 9 7 10 6 11 5 12
REMARK SMILES IDX 4 13 3 14 2 15 1 16
REMARK H PARENT
REMARK Flexibility Score: inf
ROOT
ATOM      1  C   UNL     1     -11.714  -8.482  -7.057  1.00  0.00     0.000 C 
ENDROOT
BRANCH   1   2
ATOM      2  C   UNL     1     -12.276  -9.233  -5.845  1.00  0.00     0.000 C 
BRANCH   2   3
ATOM      3  C   UNL     1     -12.906 -10.567  -6.266  1.00  0.00     0.000 C 
BRANCH   3   4
ATOM      4  C   UNL     1     -14.179 -10.853  -5.455  1.00  0.00     0.000 C 
BRANCH   4   5
ATOM      5  C   UNL     1     -15.434 -10.229  -6.085  1.00  0.00     0.006 C 
BRANCH   5   6
ATOM      6  C   UNL     1     -16.038  -9.116  -5.219  1.00  0.00     0.053 C 
BRANCH   6   7
ATOM      7  C   UNL     1     -16.064  -7.824  -5.974  1.00  0.00     0.041 C 
ATOM      8  O   UNL     1     -16.773  -6.866  -5.567  1.00  0.00    -0.550 OA
ATOM      9  O   UNL     1     -15.265  -7.659  -7.099  1.00  0.00    -0.550 OA
ENDBRANCH   6   7
ENDBRANCH   5   6
ENDBRANCH   4   5
ENDBRANCH   3   4
ENDBRANCH   2   3
ENDBRANCH   1   2
BRANCH   1  10
ATOM     10  C   UNL     1     -10.187  -8.633  -7.138  1.00  0.00     0.000 C 
BRANCH  10  11
ATOM     11  C   UNL     1      -9.454  -7.836  -6.047  1.00  0.00    -0.000 C 
BRANCH  11  12
ATOM     12  C   UNL     1      -7.924  -7.934  -6.166  1.00  0.00    -0.000 C 
BRANCH  12  13
ATOM     13  C   UNL     1      -7.473  -9.280  -6.771  1.00  0.00    -0.000 C 
BRANCH  13  14
ATOM     14  C   UNL     1      -5.982  -9.586  -6.549  1.00  0.00    -0.000 C 
BRANCH  14  15
ATOM     15  C   UNL     1      -5.062  -8.784  -7.479  1.00  0.00    -0.003 C 
ATOM     16  C   UNL     1      -4.724  -9.577  -8.738  1.00  0.00     0.004 C 
ENDBRANCH  14  15
ENDBRANCH  13  14
ENDBRANCH  12  13
ENDBRANCH  11  12
ENDBRANCH  10  11
ENDBRANCH   1  10
TORSDOF 12
ENDMDL
