MODEL 1
REMARK VINA RESULT:    -5.520      0.000      0.000
REMARK INTER + INTRA:         -11.628
REMARK INTER:                 -10.682
REMARK INTRA:                  -0.945
REMARK UNBOUND:                -0.945
REMARK SMILES CCCCCCCCCCCCCCCCCC(=O)[O-]
REMARK SMILES IDX 10 1 11 2 12 3 13 4 14 5 15 6 16 7 17 8 18 9 19 10 20 11
REMARK SMILES IDX 9 12 8 13 7 14 6 15 5 16 4 17 3 18 2 19 1 20
REMARK H PARENT
REMARK Flexibility Score: inf
ROOT
ATOM      1  C   UNL     1       5.306  42.511  45.971  1.00  0.00     0.000 C 
ENDROOT
BRANCH   1   2
ATOM      2  C   UNL     1       4.978  41.575  47.147  1.00  0.00     0.000 C 
BRANCH   2   3
ATOM      3  C   UNL     1       5.177  42.242  48.521  1.00  0.00     0.000 C 
BRANCH   3   4
ATOM      4  C   UNL     1       6.389  41.740  49.328  1.00  0.00     0.000 C 
BRANCH   4   5
ATOM      5  C   UNL     1       7.251  40.731  48.553  1.00  0.00     0.000 C 
BRANCH   5   6
ATOM      6  C   UNL     1       8.730  40.752  48.980  1.00  0.00     0.000 C 
BRANCH   6   7
ATOM      7  C   UNL     1       9.608  39.634  48.380  1.00  0.00     0.006 C 
BRANCH   7   8
ATOM      8  C   UNL     1      10.790  40.132  47.533  1.00  0.00     0.053 C 
BRANCH   8   9
ATOM      9  C   UNL     1      12.058  40.203  48.327  1.00  0.00     0.041 C 
ATOM     10  O   UNL     1      12.152  39.594  49.424  1.00  0.00    -0.550 OA
ATOM     11  O   UNL     1      13.124  40.966  47.869  1.00  0.00    -0.550 OA
ENDBRANCH   8   9
ENDBRANCH   7   8
ENDBRANCH   6   7
ENDBRANCH   5   6
ENDBRANCH   4   5
ENDBRANCH   3   4
ENDBRANCH   2   3
ENDBRANCH   1   2
BRANCH   1  12
ATOM     12  C   UNL     1       6.097  41.806  44.858  1.00  0.00     0.000 C 
BRANCH  12  13
ATOM     13  C   UNL     1       6.085  42.593  43.536  1.00  0.00    -0.000 C 
BRANCH  13  14
ATOM     14  C   UNL     1       6.470  44.070  43.726  1.00  0.00    -0.000 C 
BRANCH  14  15
ATOM     15  C   UNL     1       7.834  44.408  43.101  1.00  0.00    -0.000 C 
BRANCH  15  16
ATOM     16  C   UNL     1       7.860  44.211  41.573  1.00  0.00    -0.000 C 
BRANCH  16  17
ATOM     17  C   UNL     1       7.969  45.508  40.751  1.00  0.00    -0.000 C 
BRANCH  17  18
ATOM     18  C   UNL     1       7.232  46.692  41.401  1.00  0.00    -0.000 C 
BRANCH  18  19
ATOM     19  C   UNL     1       8.050  47.992  41.356  1.00  0.00    -0.003 C 
ATOM     20  C   UNL     1       9.350  47.844  40.566  1.00  0.00     0.004 C 
ENDBRANCH  18  19
ENDBRANCH  17  18
ENDBRANCH  16  17
ENDBRANCH  15  16
ENDBRANCH  14  15
ENDBRANCH  13  14
ENDBRANCH  12  13
ENDBRANCH   1  12
TORSDOF 16
ENDMDL
MODEL 2
REMARK VINA RESULT:    -5.504      1.829      3.439
REMARK INTER + INTRA:         -11.597
REMARK INTER:                  -9.913
REMARK INTRA:                  -1.684
REMARK UNBOUND:                -0.945
REMARK SMILES CCCCCCCCCCCCCCCCCC(=O)[O-]
REMARK SMILES IDX 10 1 11 2 12 3 13 4 14 5 15 6 16 7 17 8 18 9 19 10 20 11
REMARK SMILES IDX 9 12 8 13 7 14 6 15 5 16 4 17 3 18 2 19 1 20
REMARK H PARENT
REMARK Flexibility Score: inf
ROOT
ATOM      1  C   UNL     1       5.273  42.577  44.457  1.00  0.00     0.000 C 
ENDROOT
BRANCH   1   2
ATOM      2  C   UNL     1       5.835  42.507  45.887  1.00  0.00     0.000 C 
BRANCH   2   3
ATOM      3  C   UNL     1       4.851  41.875  46.889  1.00  0.00     0.000 C 
BRANCH   3   4
ATOM      4  C   UNL     1       5.191  42.095  48.375  1.00  0.00     0.000 C 
BRANCH   4   5
ATOM      5  C   UNL     1       6.483  41.383  48.807  1.00  0.00     0.000 C 
BRANCH   5   6
ATOM      6  C   UNL     1       6.592  39.949  48.256  1.00  0.00     0.000 C 
BRANCH   6   7
ATOM      7  C   UNL     1       7.834  39.668  47.386  1.00  0.00     0.006 C 
BRANCH   7   8
ATOM      8  C   UNL     1       8.989  38.973  48.124  1.00  0.00     0.053 C 
BRANCH   8   9
ATOM      9  C   UNL     1      10.094  39.928  48.459  1.00  0.00     0.041 C 
ATOM     10  O   UNL     1      10.076  40.559  49.548  1.00  0.00    -0.550 OA
ATOM     11  O   UNL     1      11.126  40.143  47.555  1.00  0.00    -0.550 OA
ENDBRANCH   8   9
ENDBRANCH   7   8
ENDBRANCH   6   7
ENDBRANCH   5   6
ENDBRANCH   4   5
ENDBRANCH   3   4
ENDBRANCH   2   3
ENDBRANCH   1   2
BRANCH   1  12
ATOM     12  C   UNL     1       6.343  42.952  43.419  1.00  0.00     0.000 C 
BRANCH  12  13
ATOM     13  C   UNL     1       7.008  44.307  43.717  1.00  0.00    -0.000 C 
BRANCH  13  14
ATOM     14  C   UNL     1       7.461  45.036  42.441  1.00  0.00    -0.000 C 
BRANCH  14  15
ATOM     15  C   UNL     1       7.782  44.065  41.291  1.00  0.00    -0.000 C 
BRANCH  15  16
ATOM     16  C   UNL     1       9.295  43.860  41.084  1.00  0.00    -0.000 C 
BRANCH  16  17
ATOM     17  C   UNL     1       9.768  42.396  41.145  1.00  0.00    -0.000 C 
BRANCH  17  18
ATOM     18  C   UNL     1       9.791  41.834  42.576  1.00  0.00    -0.000 C 
BRANCH  18  19
ATOM     19  C   UNL     1       8.928  40.572  42.728  1.00  0.00    -0.003 C 
ATOM     20  C   UNL     1       9.276  39.768  43.981  1.00  0.00     0.004 C 
ENDBRANCH  18  19
ENDBRANCH  17  18
ENDBRANCH  16  17
ENDBRANCH  15  16
ENDBRANCH  14  15
ENDBRANCH  13  14
ENDBRANCH  12  13
ENDBRANCH   1  12
TORSDOF 16
ENDMDL
MODEL 3
REMARK VINA RESULT:    -5.343      2.152      4.942
REMARK INTER + INTRA:         -11.286
REMARK INTER:                  -9.689
REMARK INTRA:                  -1.597
REMARK UNBOUND:                -0.945
REMARK SMILES CCCCCCCCCCCCCCCCCC(=O)[O-]
REMARK SMILES IDX 10 1 11 2 12 3 13 4 14 5 15 6 16 7 17 8 18 9 19 10 20 11
REMARK SMILES IDX 9 12 8 13 7 14 6 15 5 16 4 17 3 18 2 19 1 20
REMARK H PARENT
REMARK Flexibility Score: inf
ROOT
ATOM      1  C   UNL     1       9.732  40.927  42.820  1.00  0.00     0.000 C 
ENDROOT
BRANCH   1   2
ATOM      2  C   UNL     1       8.918  40.039  43.776  1.00  0.00     0.000 C 
BRANCH   2   3
ATOM      3  C   UNL     1       9.604  39.837  45.140  1.00  0.00     0.000 C 
BRANCH   3   4
ATOM      4  C   UNL     1       8.657  39.779  46.353  1.00  0.00     0.000 C 
BRANCH   4   5
ATOM      5  C   UNL     1       9.326  39.199  47.610  1.00  0.00     0.000 C 
BRANCH   5   6
ATOM      6  C   UNL     1       9.321  40.178  48.798  1.00  0.00     0.000 C 
BRANCH   6   7
ATOM      7  C   UNL     1      10.708  40.508  49.389  1.00  0.00     0.006 C 
BRANCH   7   8
ATOM      8  C   UNL     1      11.767  39.414  49.186  1.00  0.00     0.053 C 
BRANCH   8   9
ATOM      9  C   UNL     1      12.844  39.845  48.238  1.00  0.00     0.041 C 
ATOM     10  O   UNL     1      13.757  39.044  47.911  1.00  0.00    -0.550 OA
ATOM     11  O   UNL     1      12.856  41.142  47.742  1.00  0.00    -0.550 OA
ENDBRANCH   8   9
ENDBRANCH   7   8
ENDBRANCH   6   7
ENDBRANCH   5   6
ENDBRANCH   4   5
ENDBRANCH   3   4
ENDBRANCH   2   3
ENDBRANCH   1   2
BRANCH   1  12
ATOM     12  C   UNL     1       8.862  41.575  41.730  1.00  0.00     0.000 C 
BRANCH  12  13
ATOM     13  C   UNL     1       7.445  41.909  42.227  1.00  0.00    -0.000 C 
BRANCH  13  14
ATOM     14  C   UNL     1       7.269  43.403  42.549  1.00  0.00    -0.000 C 
BRANCH  14  15
ATOM     15  C   UNL     1       6.586  43.636  43.908  1.00  0.00    -0.000 C 
BRANCH  15  16
ATOM     16  C   UNL     1       5.522  42.570  44.235  1.00  0.00    -0.000 C 
BRANCH  16  17
ATOM     17  C   UNL     1       5.856  41.666  45.436  1.00  0.00    -0.000 C 
BRANCH  17  18
ATOM     18  C   UNL     1       5.266  42.186  46.759  1.00  0.00    -0.000 C 
BRANCH  18  19
ATOM     19  C   UNL     1       5.816  41.439  47.983  1.00  0.00    -0.003 C 
ATOM     20  C   UNL     1       5.520  42.164  49.297  1.00  0.00     0.004 C 
ENDBRANCH  18  19
ENDBRANCH  17  18
ENDBRANCH  16  17
ENDBRANCH  15  16
ENDBRANCH  14  15
ENDBRANCH  13  14
ENDBRANCH  12  13
ENDBRANCH   1  12
TORSDOF 16
ENDMDL
MODEL 4
REMARK VINA RESULT:    -5.321      5.921      8.960
REMARK INTER + INTRA:         -11.243
REMARK INTER:                 -10.097
REMARK INTRA:                  -1.146
REMARK UNBOUND:                -0.945
REMARK SMILES CCCCCCCCCCCCCCCCCC(=O)[O-]
REMARK SMILES IDX 10 1 11 2 12 3 13 4 14 5 15 6 16 7 17 8 18 9 19 10 20 11
REMARK SMILES IDX 9 12 8 13 7 14 6 15 5 16 4 17 3 18 2 19 1 20
REMARK H PARENT
REMARK Flexibility Score: inf
ROOT
ATOM      1  C   UNL     1      10.657  39.856  44.909  1.00  0.00     0.000 C 
ENDROOT
BRANCH   1   2
ATOM      2  C   UNL     1      11.139  38.939  43.772  1.00  0.00     0.000 C 
BRANCH   2   3
ATOM      3  C   UNL     1      11.558  37.541  44.263  1.00  0.00     0.000 C 
BRANCH   3   4
ATOM      4  C   UNL     1      10.401  36.604  44.653  1.00  0.00     0.000 C 
BRANCH   4   5
ATOM      5  C   UNL     1      10.722  35.120  44.410  1.00  0.00     0.000 C 
BRANCH   5   6
ATOM      6  C   UNL     1       9.895  34.506  43.265  1.00  0.00     0.000 C 
BRANCH   6   7
ATOM      7  C   UNL     1      10.664  33.545  42.336  1.00  0.00     0.006 C 
BRANCH   7   8
ATOM      8  C   UNL     1      10.037  33.360  40.945  1.00  0.00     0.053 C 
BRANCH   8   9
ATOM      9  C   UNL     1       8.665  32.762  41.024  1.00  0.00     0.041 C 
ATOM     10  O   UNL     1       7.650  33.505  41.013  1.00  0.00    -0.550 OA
ATOM     11  O   UNL     1       8.512  31.387  41.143  1.00  0.00    -0.550 OA
ENDBRANCH   8   9
ENDBRANCH   7   8
ENDBRANCH   6   7
ENDBRANCH   5   6
ENDBRANCH   4   5
ENDBRANCH   3   4
ENDBRANCH   2   3
ENDBRANCH   1   2
BRANCH   1  12
ATOM     12  C   UNL     1      11.803  40.658  45.548  1.00  0.00     0.000 C 
BRANCH  12  13
ATOM     13  C   UNL     1      12.108  40.208  46.988  1.00  0.00    -0.000 C 
BRANCH  13  14
ATOM     14  C   UNL     1      11.018  39.287  47.561  1.00  0.00    -0.000 C 
BRANCH  14  15
ATOM     15  C   UNL     1      10.565  39.715  48.968  1.00  0.00    -0.000 C 
BRANCH  15  16
ATOM     16  C   UNL     1       9.182  40.394  48.972  1.00  0.00    -0.000 C 
BRANCH  16  17
ATOM     17  C   UNL     1       8.141  39.755  48.034  1.00  0.00    -0.000 C 
BRANCH  17  18
ATOM     18  C   UNL     1       6.958  40.689  47.728  1.00  0.00    -0.000 C 
BRANCH  18  19
ATOM     19  C   UNL     1       6.398  41.363  48.990  1.00  0.00    -0.003 C 
ATOM     20  C   UNL     1       5.235  42.308  48.687  1.00  0.00     0.004 C 
ENDBRANCH  18  19
ENDBRANCH  17  18
ENDBRANCH  16  17
ENDBRANCH  15  16
ENDBRANCH  14  15
ENDBRANCH  13  14
ENDBRANCH  12  13
ENDBRANCH   1  12
TORSDOF 16
ENDMDL
MODEL 5
REMARK VINA RESULT:    -5.304      2.487      5.589
REMARK INTER + INTRA:         -11.209
REMARK INTER:                  -9.656
REMARK INTRA:                  -1.553
REMARK UNBOUND:                -0.945
REMARK SMILES CCCCCCCCCCCCCCCCCC(=O)[O-]
REMARK SMILES IDX 10 1 11 2 12 3 13 4 14 5 15 6 16 7 17 8 18 9 19 10 20 11
REMARK SMILES IDX 9 12 8 13 7 14 6 15 5 16 4 17 3 18 2 19 1 20
REMARK H PARENT
REMARK Flexibility Score: inf
ROOT
ATOM      1  C   UNL     1       7.360  45.103  42.279  1.00  0.00     0.000 C 
ENDROOT
BRANCH   1   2
ATOM      2  C   UNL     1       7.123  44.465  43.658  1.00  0.00     0.000 C 
BRANCH   2   3
ATOM      3  C   UNL     1       6.403  43.106  43.576  1.00  0.00     0.000 C 
BRANCH   3   4
ATOM      4  C   UNL     1       5.423  42.807  44.726  1.00  0.00     0.000 C 
BRANCH   4   5
ATOM      5  C   UNL     1       5.956  41.753  45.710  1.00  0.00     0.000 C 
BRANCH   5   6
ATOM      6  C   UNL     1       5.335  41.875  47.114  1.00  0.00     0.000 C 
BRANCH   6   7
ATOM      7  C   UNL     1       5.806  40.822  48.139  1.00  0.00     0.006 C 
BRANCH   7   8
ATOM      8  C   UNL     1       7.067  41.214  48.925  1.00  0.00     0.053 C 
BRANCH   8   9
ATOM      9  C   UNL     1       8.254  40.391  48.527  1.00  0.00     0.041 C 
ATOM     10  O   UNL     1       9.275  40.358  49.262  1.00  0.00    -0.550 OA
ATOM     11  O   UNL     1       8.244  39.689  47.329  1.00  0.00    -0.550 OA
ENDBRANCH   8   9
ENDBRANCH   7   8
ENDBRANCH   6   7
ENDBRANCH   5   6
ENDBRANCH   4   5
ENDBRANCH   3   4
ENDBRANCH   2   3
ENDBRANCH   1   2
BRANCH   1  12
ATOM     12  C   UNL     1       7.818  44.081  41.225  1.00  0.00     0.000 C 
BRANCH  12  13
ATOM     13  C   UNL     1       9.350  43.992  41.115  1.00  0.00    -0.000 C 
BRANCH  13  14
ATOM     14  C   UNL     1       9.840  42.554  40.873  1.00  0.00    -0.000 C 
BRANCH  14  15
ATOM     15  C   UNL     1      10.002  41.759  42.180  1.00  0.00    -0.000 C 
BRANCH  15  16
ATOM     16  C   UNL     1       8.832  40.792  42.442  1.00  0.00    -0.000 C 
BRANCH  16  17
ATOM     17  C   UNL     1       9.010  39.873  43.665  1.00  0.00    -0.000 C 
BRANCH  17  18
ATOM     18  C   UNL     1      10.377  40.044  44.348  1.00  0.00    -0.000 C 
BRANCH  18  19
ATOM     19  C   UNL     1      11.346  38.897  44.023  1.00  0.00    -0.003 C 
ATOM     20  C   UNL     1      10.805  37.531  44.444  1.00  0.00     0.004 C 
ENDBRANCH  18  19
ENDBRANCH  17  18
ENDBRANCH  16  17
ENDBRANCH  15  16
ENDBRANCH  14  15
ENDBRANCH  13  14
ENDBRANCH  12  13
ENDBRANCH   1  12
TORSDOF 16
ENDMDL
MODEL 6
REMARK VINA RESULT:    -5.286      3.782      6.280
REMARK INTER + INTRA:         -11.176
REMARK INTER:                  -9.118
REMARK INTRA:                  -2.058
REMARK UNBOUND:                -0.945
REMARK SMILES CCCCCCCCCCCCCCCCCC(=O)[O-]
REMARK SMILES IDX 10 1 11 2 12 3 13 4 14 5 15 6 16 7 17 8 18 9 19 10 20 11
REMARK SMILES IDX 9 12 8 13 7 14 6 15 5 16 4 17 3 18 2 19 1 20
REMARK H PARENT
REMARK Flexibility Score: inf
ROOT
ATOM      1  C   UNL     1       9.494  40.350  49.097  1.00  0.00     0.000 C 
ENDROOT
BRANCH   1   2
ATOM      2  C   UNL     1       8.363  39.485  48.513  1.00  0.00     0.000 C 
BRANCH   2   3
ATOM      3  C   UNL     1       7.193  40.320  47.960  1.00  0.00     0.000 C 
BRANCH   3   4
ATOM      4  C   UNL     1       6.605  41.359  48.933  1.00  0.00     0.000 C 
BRANCH   4   5
ATOM      5  C   UNL     1       5.414  42.129  48.341  1.00  0.00     0.000 C 
BRANCH   5   6
ATOM      6  C   UNL     1       4.950  41.568  46.984  1.00  0.00     0.000 C 
BRANCH   6   7
ATOM      7  C   UNL     1       5.266  42.452  45.760  1.00  0.00     0.006 C 
BRANCH   7   8
ATOM      8  C   UNL     1       6.094  41.760  44.666  1.00  0.00     0.053 C 
BRANCH   8   9
ATOM      9  C   UNL     1       6.564  42.727  43.622  1.00  0.00     0.041 C 
ATOM     10  O   UNL     1       6.943  42.308  42.498  1.00  0.00    -0.550 OA
ATOM     11  O   UNL     1       6.614  44.086  43.905  1.00  0.00    -0.550 OA
ENDBRANCH   8   9
ENDBRANCH   7   8
ENDBRANCH   6   7
ENDBRANCH   5   6
ENDBRANCH   4   5
ENDBRANCH   3   4
ENDBRANCH   2   3
ENDBRANCH   1   2
BRANCH   1  12
ATOM     12  C   UNL     1      10.885  39.912  48.610  1.00  0.00     0.000 C 
BRANCH  12  13
ATOM     13  C   UNL     1      11.122  40.243  47.126  1.00  0.00    -0.000 C 
BRANCH  13  14
ATOM     14  C   UNL     1      11.321  38.984  46.266  1.00  0.00    -0.000 C 
BRANCH  14  15
ATOM     15  C   UNL     1      10.069  38.627  45.445  1.00  0.00    -0.000 C 
BRANCH  15  16
ATOM     16  C   UNL     1       9.363  39.864  44.859  1.00  0.00    -0.000 C 
BRANCH  16  17
ATOM     17  C   UNL     1       9.388  39.961  43.323  1.00  0.00    -0.000 C 
BRANCH  17  18
ATOM     18  C   UNL     1      10.239  41.136  42.811  1.00  0.00    -0.000 C 
BRANCH  18  19
ATOM     19  C   UNL     1      11.706  41.038  43.254  1.00  0.00    -0.003 C 
ATOM     20  C   UNL     1      12.610  40.445  42.173  1.00  0.00     0.004 C 
ENDBRANCH  18  19
ENDBRANCH  17  18
ENDBRANCH  16  17
ENDBRANCH  15  16
ENDBRANCH  14  15
ENDBRANCH  13  14
ENDBRANCH  12  13
ENDBRANCH   1  12
TORSDOF 16
ENDMDL
MODEL 7
REMARK VINA RESULT:    -5.283      1.847      3.163
REMARK INTER + INTRA:         -11.170
REMARK INTER:                  -9.810
REMARK INTRA:                  -1.360
REMARK UNBOUND:                -0.945
REMARK SMILES CCCCCCCCCCCCCCCCCC(=O)[O-]
REMARK SMILES IDX 10 1 11 2 12 3 13 4 14 5 15 6 16 7 17 8 18 9 19 10 20 11
REMARK SMILES IDX 9 12 8 13 7 14 6 15 5 16 4 17 3 18 2 19 1 20
REMARK H PARENT
REMARK Flexibility Score: inf
ROOT
ATOM      1  C   UNL     1       5.493  41.755  47.282  1.00  0.00     0.000 C 
ENDROOT
BRANCH   1   2
ATOM      2  C   UNL     1       6.418  41.034  48.277  1.00  0.00     0.000 C 
BRANCH   2   3
ATOM      3  C   UNL     1       6.558  39.528  47.986  1.00  0.00     0.000 C 
BRANCH   3   4
ATOM      4  C   UNL     1       7.928  38.915  48.329  1.00  0.00     0.000 C 
BRANCH   4   5
ATOM      5  C   UNL     1       9.102  39.861  48.031  1.00  0.00     0.000 C 
BRANCH   5   6
ATOM      6  C   UNL     1       9.741  40.445  49.304  1.00  0.00     0.000 C 
BRANCH   6   7
ATOM      7  C   UNL     1      11.222  40.076  49.530  1.00  0.00     0.006 C 
BRANCH   7   8
ATOM      8  C   UNL     1      11.668  38.772  48.850  1.00  0.00     0.053 C 
BRANCH   8   9
ATOM      9  C   UNL     1      12.653  39.022  47.749  1.00  0.00     0.041 C 
ATOM     10  O   UNL     1      13.843  39.325  48.023  1.00  0.00    -0.550 OA
ATOM     11  O   UNL     1      12.247  38.951  46.423  1.00  0.00    -0.550 OA
ENDBRANCH   8   9
ENDBRANCH   7   8
ENDBRANCH   6   7
ENDBRANCH   5   6
ENDBRANCH   4   5
ENDBRANCH   3   4
ENDBRANCH   2   3
ENDBRANCH   1   2
BRANCH   1  12
ATOM     12  C   UNL     1       6.002  41.670  45.834  1.00  0.00     0.000 C 
BRANCH  12  13
ATOM     13  C   UNL     1       5.268  42.640  44.892  1.00  0.00    -0.000 C 
BRANCH  13  14
ATOM     14  C   UNL     1       6.076  42.953  43.621  1.00  0.00    -0.000 C 
BRANCH  14  15
ATOM     15  C   UNL     1       6.922  44.231  43.762  1.00  0.00    -0.000 C 
BRANCH  15  16
ATOM     16  C   UNL     1       7.967  44.385  42.640  1.00  0.00    -0.000 C 
BRANCH  16  17
ATOM     17  C   UNL     1       7.840  43.370  41.489  1.00  0.00    -0.000 C 
BRANCH  17  18
ATOM     18  C   UNL     1       9.002  42.363  41.447  1.00  0.00    -0.000 C 
BRANCH  18  19
ATOM     19  C   UNL     1       8.559  40.937  41.809  1.00  0.00    -0.003 C 
ATOM     20  C   UNL     1       8.913  40.557  43.246  1.00  0.00     0.004 C 
ENDBRANCH  18  19
ENDBRANCH  17  18
ENDBRANCH  16  17
ENDBRANCH  15  16
ENDBRANCH  14  15
ENDBRANCH  13  14
ENDBRANCH  12  13
ENDBRANCH   1  12
TORSDOF 16
ENDMDL
MODEL 8
REMARK VINA RESULT:    -5.249      2.404      6.768
REMARK INTER + INTRA:         -11.104
REMARK INTER:                  -9.278
REMARK INTRA:                  -1.826
REMARK UNBOUND:                -0.945
REMARK SMILES CCCCCCCCCCCCCCCCCC(=O)[O-]
REMARK SMILES IDX 10 1 11 2 12 3 13 4 14 5 15 6 16 7 17 8 18 9 19 10 20 11
REMARK SMILES IDX 9 12 8 13 7 14 6 15 5 16 4 17 3 18 2 19 1 20
REMARK H PARENT
REMARK Flexibility Score: inf
ROOT
ATOM      1  C   UNL     1       6.128  42.682  43.388  1.00  0.00     0.000 C 
ENDROOT
BRANCH   1   2
ATOM      2  C   UNL     1       7.066  43.901  43.346  1.00  0.00     0.000 C 
BRANCH   2   3
ATOM      3  C   UNL     1       7.458  44.309  41.914  1.00  0.00     0.000 C 
BRANCH   3   4
ATOM      4  C   UNL     1       8.829  43.796  41.434  1.00  0.00     0.000 C 
BRANCH   4   5
ATOM      5  C   UNL     1       9.699  43.249  42.577  1.00  0.00     0.000 C 
BRANCH   5   6
ATOM      6  C   UNL     1      10.202  41.817  42.317  1.00  0.00     0.000 C 
BRANCH   6   7
ATOM      7  C   UNL     1       9.141  40.706  42.465  1.00  0.00     0.006 C 
BRANCH   7   8
ATOM      8  C   UNL     1       8.984  40.157  43.891  1.00  0.00     0.053 C 
BRANCH   8   9
ATOM      9  C   UNL     1      10.024  39.128  44.214  1.00  0.00     0.041 C 
ATOM     10  O   UNL     1       9.722  37.906  44.226  1.00  0.00    -0.550 OA
ATOM     11  O   UNL     1      11.317  39.521  44.532  1.00  0.00    -0.550 OA
ENDBRANCH   8   9
ENDBRANCH   7   8
ENDBRANCH   6   7
ENDBRANCH   5   6
ENDBRANCH   4   5
ENDBRANCH   3   4
ENDBRANCH   2   3
ENDBRANCH   1   2
BRANCH   1  12
ATOM     12  C   UNL     1       6.026  42.062  44.791  1.00  0.00     0.000 C 
BRANCH  12  13
ATOM     13  C   UNL     1       4.980  42.764  45.674  1.00  0.00    -0.000 C 
BRANCH  13  14
ATOM     14  C   UNL     1       4.553  41.907  46.877  1.00  0.00    -0.000 C 
BRANCH  14  15
ATOM     15  C   UNL     1       5.394  42.196  48.133  1.00  0.00    -0.000 C 
BRANCH  15  16
ATOM     16  C   UNL     1       6.067  40.935  48.707  1.00  0.00    -0.000 C 
BRANCH  16  17
ATOM     17  C   UNL     1       6.684  39.991  47.658  1.00  0.00    -0.000 C 
BRANCH  17  18
ATOM     18  C   UNL     1       8.222  40.016  47.660  1.00  0.00    -0.000 C 
BRANCH  18  19
ATOM     19  C   UNL     1       8.801  40.545  48.982  1.00  0.00    -0.003 C 
ATOM     20  C   UNL     1      10.293  40.248  49.132  1.00  0.00     0.004 C 
ENDBRANCH  18  19
ENDBRANCH  17  18
ENDBRANCH  16  17
ENDBRANCH  15  16
ENDBRANCH  14  15
ENDBRANCH  13  14
ENDBRANCH  12  13
ENDBRANCH   1  12
TORSDOF 16
ENDMDL
MODEL 9
REMARK VINA RESULT:    -5.205      3.751      7.116
REMARK INTER + INTRA:         -11.019
REMARK INTER:                  -9.206
REMARK INTRA:                  -1.813
REMARK UNBOUND:                -0.945
REMARK SMILES CCCCCCCCCCCCCCCCCC(=O)[O-]
REMARK SMILES IDX 10 1 11 2 12 3 13 4 14 5 15 6 16 7 17 8 18 9 19 10 20 11
REMARK SMILES IDX 9 12 8 13 7 14 6 15 5 16 4 17 3 18 2 19 1 20
REMARK H PARENT
REMARK Flexibility Score: inf
ROOT
ATOM      1  C   UNL     1      10.173  38.775  48.590  1.00  0.00     0.000 C 
ENDROOT
BRANCH   1   2
ATOM      2  C   UNL     1       8.673  38.773  48.247  1.00  0.00     0.000 C 
BRANCH   2   3
ATOM      3  C   UNL     1       8.008  40.147  48.451  1.00  0.00     0.000 C 
BRANCH   3   4
ATOM      4  C   UNL     1       6.482  40.178  48.248  1.00  0.00     0.000 C 
BRANCH   4   5
ATOM      5  C   UNL     1       5.866  41.558  48.531  1.00  0.00     0.000 C 
BRANCH   5   6
ATOM      6  C   UNL     1       5.170  42.169  47.301  1.00  0.00     0.000 C 
BRANCH   6   7
ATOM      7  C   UNL     1       5.875  41.922  45.951  1.00  0.00     0.006 C 
BRANCH   7   8
ATOM      8  C   UNL     1       5.251  42.662  44.758  1.00  0.00     0.053 C 
BRANCH   8   9
ATOM      9  C   UNL     1       6.289  43.128  43.783  1.00  0.00     0.041 C 
ATOM     10  O   UNL     1       6.725  42.344  42.901  1.00  0.00    -0.550 OA
ATOM     11  O   UNL     1       6.797  44.418  43.870  1.00  0.00    -0.550 OA
ENDBRANCH   8   9
ENDBRANCH   7   8
ENDBRANCH   6   7
ENDBRANCH   5   6
ENDBRANCH   4   5
ENDBRANCH   3   4
ENDBRANCH   2   3
ENDBRANCH   1   2
BRANCH   1  12
ATOM     12  C   UNL     1      10.804  40.172  48.474  1.00  0.00     0.000 C 
BRANCH  12  13
ATOM     13  C   UNL     1      12.342  40.128  48.491  1.00  0.00    -0.000 C 
BRANCH  13  14
ATOM     14  C   UNL     1      12.915  39.129  47.471  1.00  0.00    -0.000 C 
BRANCH  14  15
ATOM     15  C   UNL     1      12.935  39.695  46.041  1.00  0.00    -0.000 C 
BRANCH  15  16
ATOM     16  C   UNL     1      12.945  38.596  44.961  1.00  0.00    -0.000 C 
BRANCH  16  17
ATOM     17  C   UNL     1      11.692  38.551  44.067  1.00  0.00    -0.000 C 
BRANCH  17  18
ATOM     18  C   UNL     1      10.394  38.347  44.867  1.00  0.00    -0.000 C 
BRANCH  18  19
ATOM     19  C   UNL     1       9.418  39.524  44.717  1.00  0.00    -0.003 C 
ATOM     20  C   UNL     1       9.497  40.184  43.340  1.00  0.00     0.004 C 
ENDBRANCH  18  19
ENDBRANCH  17  18
ENDBRANCH  16  17
ENDBRANCH  15  16
ENDBRANCH  14  15
ENDBRANCH  13  14
ENDBRANCH  12  13
ENDBRANCH   1  12
TORSDOF 16
ENDMDL
