MODEL 1
REMARK VINA RESULT:    -5.430      0.000      0.000
REMARK INTER + INTRA:         -12.961
REMARK INTER:                 -10.510
REMARK INTRA:                  -2.451
REMARK UNBOUND:                -2.451
REMARK SMILES CCCCCCCCCCCCCCCCCC(=O)[O-]
REMARK SMILES IDX 10 1 11 2 12 3 13 4 14 5 15 6 16 7 17 8 18 9 19 10 20 11
REMARK SMILES IDX 9 12 8 13 7 14 6 15 5 16 4 17 3 18 2 19 1 20
REMARK H PARENT
REMARK Flexibility Score: inf
ROOT
ATOM      1  C   UNL     1      -4.315   7.121 -22.241  1.00  0.00     0.000 C 
ENDROOT
BRANCH   1   2
ATOM      2  C   UNL     1      -3.789   5.724 -21.844  1.00  0.00     0.000 C 
BRANCH   2   3
ATOM      3  C   UNL     1      -2.746   5.762 -20.714  1.00  0.00     0.000 C 
BRANCH   3   4
ATOM      4  C   UNL     1      -3.117   4.855 -19.530  1.00  0.00     0.000 C 
BRANCH   4   5
ATOM      5  C   UNL     1      -1.965   3.930 -19.106  1.00  0.00     0.000 C 
BRANCH   5   6
ATOM      6  C   UNL     1      -0.645   4.693 -18.899  1.00  0.00     0.000 C 
BRANCH   6   7
ATOM      7  C   UNL     1      -0.663   5.572 -17.638  1.00  0.00     0.006 C 
BRANCH   7   8
ATOM      8  C   UNL     1      -0.614   7.072 -17.961  1.00  0.00     0.053 C 
BRANCH   8   9
ATOM      9  C   UNL     1      -1.872   7.745 -17.510  1.00  0.00     0.041 C 
ATOM     10  O   UNL     1      -2.084   8.952 -17.801  1.00  0.00    -0.550 OA
ATOM     11  O   UNL     1      -2.791   7.052 -16.732  1.00  0.00    -0.550 OA
ENDBRANCH   8   9
ENDBRANCH   7   8
ENDBRANCH   6   7
ENDBRANCH   5   6
ENDBRANCH   4   5
ENDBRANCH   3   4
ENDBRANCH   2   3
ENDBRANCH   1   2
BRANCH   1  12
ATOM     12  C   UNL     1      -5.631   7.043 -23.037  1.00  0.00     0.000 C 
BRANCH  12  13
ATOM     13  C   UNL     1      -6.844   6.727 -22.147  1.00  0.00    -0.000 C 
BRANCH  13  14
ATOM     14  C   UNL     1      -7.251   7.913 -21.258  1.00  0.00    -0.000 C 
BRANCH  14  15
ATOM     15  C   UNL     1      -7.809   7.463 -19.898  1.00  0.00    -0.000 C 
BRANCH  15  16
ATOM     16  C   UNL     1      -6.713   6.976 -18.935  1.00  0.00    -0.000 C 
BRANCH  16  17
ATOM     17  C   UNL     1      -5.499   7.920 -18.883  1.00  0.00    -0.000 C 
BRANCH  17  18
ATOM     18  C   UNL     1      -5.677   9.154 -17.979  1.00  0.00    -0.000 C 
BRANCH  18  19
ATOM     19  C   UNL     1      -5.509  10.482 -18.734  1.00  0.00    -0.003 C 
ATOM     20  C   UNL     1      -4.778  10.272 -20.057  1.00  0.00     0.004 C 
ENDBRANCH  18  19
ENDBRANCH  17  18
ENDBRANCH  16  17
ENDBRANCH  15  16
ENDBRANCH  14  15
ENDBRANCH  13  14
ENDBRANCH  12  13
ENDBRANCH   1  12
TORSDOF 16
ENDMDL
MODEL 2
REMARK VINA RESULT:    -5.430      1.704      4.172
REMARK INTER + INTRA:         -12.960
REMARK INTER:                 -10.266
REMARK INTRA:                  -2.695
REMARK UNBOUND:                -2.451
REMARK SMILES CCCCCCCCCCCCCCCCCC(=O)[O-]
REMARK SMILES IDX 10 1 11 2 12 3 13 4 14 5 15 6 16 7 17 8 18 9 19 10 20 11
REMARK SMILES IDX 9 12 8 13 7 14 6 15 5 16 4 17 3 18 2 19 1 20
REMARK H PARENT
REMARK Flexibility Score: inf
ROOT
ATOM      1  C   UNL     1      -1.333   4.376 -19.533  1.00  0.00     0.000 C 
ENDROOT
BRANCH   1   2
ATOM      2  C   UNL     1      -1.353   4.256 -17.994  1.00  0.00     0.000 C 
BRANCH   2   3
ATOM      3  C   UNL     1      -1.348   5.616 -17.274  1.00  0.00     0.000 C 
BRANCH   3   4
ATOM      4  C   UNL     1      -0.490   6.668 -17.994  1.00  0.00     0.000 C 
BRANCH   4   5
ATOM      5  C   UNL     1      -1.037   8.094 -17.830  1.00  0.00     0.000 C 
BRANCH   5   6
ATOM      6  C   UNL     1      -2.372   8.128 -17.065  1.00  0.00     0.000 C 
BRANCH   6   7
ATOM      7  C   UNL     1      -2.989   9.535 -17.015  1.00  0.00     0.006 C 
BRANCH   7   8
ATOM      8  C   UNL     1      -2.983  10.233 -18.382  1.00  0.00     0.053 C 
BRANCH   8   9
ATOM      9  C   UNL     1      -4.296  10.907 -18.630  1.00  0.00     0.041 C 
ATOM     10  O   UNL     1      -4.908  11.470 -17.684  1.00  0.00    -0.550 OA
ATOM     11  O   UNL     1      -4.865  10.875 -19.897  1.00  0.00    -0.550 OA
ENDBRANCH   8   9
ENDBRANCH   7   8
ENDBRANCH   6   7
ENDBRANCH   5   6
ENDBRANCH   4   5
ENDBRANCH   3   4
ENDBRANCH   2   3
ENDBRANCH   1   2
BRANCH   1  12
ATOM     12  C   UNL     1      -2.749   4.340 -20.137  1.00  0.00     0.000 C 
BRANCH  12  13
ATOM     13  C   UNL     1      -3.059   5.576 -20.996  1.00  0.00    -0.000 C 
BRANCH  13  14
ATOM     14  C   UNL     1      -3.558   6.767 -20.162  1.00  0.00    -0.000 C 
BRANCH  14  15
ATOM     15  C   UNL     1      -4.695   6.377 -19.203  1.00  0.00    -0.000 C 
BRANCH  15  16
ATOM     16  C   UNL     1      -5.744   7.491 -19.038  1.00  0.00    -0.000 C 
BRANCH  16  17
ATOM     17  C   UNL     1      -6.998   7.263 -19.899  1.00  0.00    -0.000 C 
BRANCH  17  18
ATOM     18  C   UNL     1      -6.934   7.874 -21.311  1.00  0.00    -0.000 C 
BRANCH  18  19
ATOM     19  C   UNL     1      -6.951   6.816 -22.425  1.00  0.00    -0.003 C 
ATOM     20  C   UNL     1      -5.662   6.856 -23.240  1.00  0.00     0.004 C 
ENDBRANCH  18  19
ENDBRANCH  17  18
ENDBRANCH  16  17
ENDBRANCH  15  16
ENDBRANCH  14  15
ENDBRANCH  13  14
ENDBRANCH  12  13
ENDBRANCH   1  12
TORSDOF 16
ENDMDL
MODEL 3
REMARK VINA RESULT:    -5.419      2.167      5.415
REMARK INTER + INTRA:         -12.938
REMARK INTER:                 -10.677
REMARK INTRA:                  -2.260
REMARK UNBOUND:                -2.451
REMARK SMILES CCCCCCCCCCCCCCCCCC(=O)[O-]
REMARK SMILES IDX 10 1 11 2 12 3 13 4 14 5 15 6 16 7 17 8 18 9 19 10 20 11
REMARK SMILES IDX 9 12 8 13 7 14 6 15 5 16 4 17 3 18 2 19 1 20
REMARK H PARENT
REMARK Flexibility Score: inf
ROOT
ATOM      1  C   UNL     1      -4.126   7.260 -21.590  1.00  0.00     0.000 C 
ENDROOT
BRANCH   1   2
ATOM      2  C   UNL     1      -5.128   6.661 -22.600  1.00  0.00     0.000 C 
BRANCH   2   3
ATOM      3  C   UNL     1      -6.574   7.142 -22.384  1.00  0.00     0.000 C 
BRANCH   3   4
ATOM      4  C   UNL     1      -6.667   8.339 -21.426  1.00  0.00     0.000 C 
BRANCH   4   5
ATOM      5  C   UNL     1      -7.954   8.330 -20.587  1.00  0.00     0.000 C 
BRANCH   5   6
ATOM      6  C   UNL     1      -7.957   7.214 -19.528  1.00  0.00     0.000 C 
BRANCH   6   7
ATOM      7  C   UNL     1      -6.819   7.366 -18.507  1.00  0.00     0.006 C 
BRANCH   7   8
ATOM      8  C   UNL     1      -6.729   6.179 -17.538  1.00  0.00     0.053 C 
BRANCH   8   9
ATOM      9  C   UNL     1      -7.155   6.592 -16.164  1.00  0.00     0.041 C 
ATOM     10  O   UNL     1      -7.691   7.717 -15.978  1.00  0.00    -0.550 OA
ATOM     11  O   UNL     1      -6.920   5.754 -15.082  1.00  0.00    -0.550 OA
ENDBRANCH   8   9
ENDBRANCH   7   8
ENDBRANCH   6   7
ENDBRANCH   5   6
ENDBRANCH   4   5
ENDBRANCH   3   4
ENDBRANCH   2   3
ENDBRANCH   1   2
BRANCH   1  12
ATOM     12  C   UNL     1      -3.813   6.290 -20.437  1.00  0.00     0.000 C 
BRANCH  12  13
ATOM     13  C   UNL     1      -2.536   5.469 -20.681  1.00  0.00    -0.000 C 
BRANCH  13  14
ATOM     14  C   UNL     1      -2.582   4.088 -20.005  1.00  0.00    -0.000 C 
BRANCH  14  15
ATOM     15  C   UNL     1      -1.610   3.984 -18.818  1.00  0.00    -0.000 C 
BRANCH  15  16
ATOM     16  C   UNL     1      -0.604   5.147 -18.767  1.00  0.00    -0.000 C 
BRANCH  16  17
ATOM     17  C   UNL     1      -0.884   6.129 -17.616  1.00  0.00    -0.000 C 
BRANCH  17  18
ATOM     18  C   UNL     1      -2.227   5.914 -16.893  1.00  0.00    -0.000 C 
BRANCH  18  19
ATOM     19  C   UNL     1      -3.140   7.149 -16.944  1.00  0.00    -0.003 C 
ATOM     20  C   UNL     1      -2.415   8.343 -17.559  1.00  0.00     0.004 C 
ENDBRANCH  18  19
ENDBRANCH  17  18
ENDBRANCH  16  17
ENDBRANCH  15  16
ENDBRANCH  14  15
ENDBRANCH  13  14
ENDBRANCH  12  13
ENDBRANCH   1  12
TORSDOF 16
ENDMDL
MODEL 4
REMARK VINA RESULT:    -5.367      1.400      2.846
REMARK INTER + INTRA:         -12.838
REMARK INTER:                 -10.528
REMARK INTRA:                  -2.310
REMARK UNBOUND:                -2.451
REMARK SMILES CCCCCCCCCCCCCCCCCC(=O)[O-]
REMARK SMILES IDX 10 1 11 2 12 3 13 4 14 5 15 6 16 7 17 8 18 9 19 10 20 11
REMARK SMILES IDX 9 12 8 13 7 14 6 15 5 16 4 17 3 18 2 19 1 20
REMARK H PARENT
REMARK Flexibility Score: inf
ROOT
ATOM      1  C   UNL     1      -2.801   5.770 -20.894  1.00  0.00     0.000 C 
ENDROOT
BRANCH   1   2
ATOM      2  C   UNL     1      -2.726   4.430 -20.131  1.00  0.00     0.000 C 
BRANCH   2   3
ATOM      3  C   UNL     1      -1.457   4.285 -19.272  1.00  0.00     0.000 C 
BRANCH   3   4
ATOM      4  C   UNL     1      -1.590   4.956 -17.896  1.00  0.00     0.000 C 
BRANCH   4   5
ATOM      5  C   UNL     1      -0.472   5.974 -17.621  1.00  0.00     0.000 C 
BRANCH   5   6
ATOM      6  C   UNL     1      -0.870   7.406 -18.021  1.00  0.00     0.000 C 
BRANCH   6   7
ATOM      7  C   UNL     1      -2.255   7.805 -17.488  1.00  0.00     0.006 C 
BRANCH   7   8
ATOM      8  C   UNL     1      -2.695   9.195 -17.966  1.00  0.00     0.053 C 
BRANCH   8   9
ATOM      9  C   UNL     1      -3.515   9.873 -16.913  1.00  0.00     0.041 C 
ATOM     10  O   UNL     1      -4.548  10.519 -17.233  1.00  0.00    -0.550 OA
ATOM     11  O   UNL     1      -3.114   9.829 -15.584  1.00  0.00    -0.550 OA
ENDBRANCH   8   9
ENDBRANCH   7   8
ENDBRANCH   6   7
ENDBRANCH   5   6
ENDBRANCH   4   5
ENDBRANCH   3   4
ENDBRANCH   2   3
ENDBRANCH   1   2
BRANCH   1  12
ATOM     12  C   UNL     1      -3.699   5.681 -22.141  1.00  0.00     0.000 C 
BRANCH  12  13
ATOM     13  C   UNL     1      -4.399   7.010 -22.465  1.00  0.00    -0.000 C 
BRANCH  13  14
ATOM     14  C   UNL     1      -5.658   6.821 -23.328  1.00  0.00    -0.000 C 
BRANCH  14  15
ATOM     15  C   UNL     1      -6.943   6.758 -22.486  1.00  0.00    -0.000 C 
BRANCH  15  16
ATOM     16  C   UNL     1      -7.046   7.907 -21.468  1.00  0.00    -0.000 C 
BRANCH  16  17
ATOM     17  C   UNL     1      -7.167   7.411 -20.016  1.00  0.00    -0.000 C 
BRANCH  17  18
ATOM     18  C   UNL     1      -6.066   7.915 -19.065  1.00  0.00    -0.000 C 
BRANCH  18  19
ATOM     19  C   UNL     1      -6.022   7.146 -17.735  1.00  0.00    -0.003 C 
ATOM     20  C   UNL     1      -5.371   5.778 -17.914  1.00  0.00     0.004 C 
ENDBRANCH  18  19
ENDBRANCH  17  18
ENDBRANCH  16  17
ENDBRANCH  15  16
ENDBRANCH  14  15
ENDBRANCH  13  14
ENDBRANCH  12  13
ENDBRANCH   1  12
TORSDOF 16
ENDMDL
MODEL 5
REMARK VINA RESULT:    -5.363      1.582      4.371
REMARK INTER + INTRA:         -12.829
REMARK INTER:                  -9.747
REMARK INTRA:                  -3.083
REMARK UNBOUND:                -2.451
REMARK SMILES CCCCCCCCCCCCCCCCCC(=O)[O-]
REMARK SMILES IDX 10 1 11 2 12 3 13 4 14 5 15 6 16 7 17 8 18 9 19 10 20 11
REMARK SMILES IDX 9 12 8 13 7 14 6 15 5 16 4 17 3 18 2 19 1 20
REMARK H PARENT
REMARK Flexibility Score: inf
ROOT
ATOM      1  C   UNL     1      -7.819   7.490 -19.589  1.00  0.00     0.000 C 
ENDROOT
BRANCH   1   2
ATOM      2  C   UNL     1      -7.165   8.239 -18.408  1.00  0.00     0.000 C 
BRANCH   2   3
ATOM      3  C   UNL     1      -6.961   7.358 -17.163  1.00  0.00     0.000 C 
BRANCH   3   4
ATOM      4  C   UNL     1      -6.469   5.944 -17.507  1.00  0.00     0.000 C 
BRANCH   4   5
ATOM      5  C   UNL     1      -4.971   5.901 -17.844  1.00  0.00     0.000 C 
BRANCH   5   6
ATOM      6  C   UNL     1      -4.083   5.988 -16.591  1.00  0.00     0.000 C 
BRANCH   6   7
ATOM      7  C   UNL     1      -3.112   7.179 -16.637  1.00  0.00     0.006 C 
BRANCH   7   8
ATOM      8  C   UNL     1      -3.185   7.951 -17.961  1.00  0.00     0.053 C 
BRANCH   8   9
ATOM      9  C   UNL     1      -3.507   9.391 -17.708  1.00  0.00     0.041 C 
ATOM     10  O   UNL     1      -2.980  10.291 -18.413  1.00  0.00    -0.550 OA
ATOM     11  O   UNL     1      -4.356   9.741 -16.665  1.00  0.00    -0.550 OA
ENDBRANCH   8   9
ENDBRANCH   7   8
ENDBRANCH   6   7
ENDBRANCH   5   6
ENDBRANCH   4   5
ENDBRANCH   3   4
ENDBRANCH   2   3
ENDBRANCH   1   2
BRANCH   1  12
ATOM     12  C   UNL     1      -7.110   7.778 -20.925  1.00  0.00     0.000 C 
BRANCH  12  13
ATOM     13  C   UNL     1      -5.915   8.732 -20.769  1.00  0.00    -0.000 C 
BRANCH  13  14
ATOM     14  C   UNL     1      -4.614   8.151 -21.347  1.00  0.00    -0.000 C 
BRANCH  14  15
ATOM     15  C   UNL     1      -4.613   6.614 -21.361  1.00  0.00    -0.000 C 
BRANCH  15  16
ATOM     16  C   UNL     1      -3.254   6.022 -21.776  1.00  0.00    -0.000 C 
BRANCH  16  17
ATOM     17  C   UNL     1      -2.368   5.657 -20.571  1.00  0.00    -0.000 C 
BRANCH  17  18
ATOM     18  C   UNL     1      -2.647   4.273 -19.958  1.00  0.00    -0.000 C 
BRANCH  18  19
ATOM     19  C   UNL     1      -1.586   3.846 -18.931  1.00  0.00    -0.003 C 
ATOM     20  C   UNL     1      -0.736   5.035 -18.494  1.00  0.00     0.004 C 
ENDBRANCH  18  19
ENDBRANCH  17  18
ENDBRANCH  16  17
ENDBRANCH  15  16
ENDBRANCH  14  15
ENDBRANCH  13  14
ENDBRANCH  12  13
ENDBRANCH   1  12
TORSDOF 16
ENDMDL
MODEL 6
REMARK VINA RESULT:    -5.353      1.183      4.914
REMARK INTER + INTRA:         -12.810
REMARK INTER:                 -10.435
REMARK INTRA:                  -2.376
REMARK UNBOUND:                -2.451
REMARK SMILES CCCCCCCCCCCCCCCCCC(=O)[O-]
REMARK SMILES IDX 10 1 11 2 12 3 13 4 14 5 15 6 16 7 17 8 18 9 19 10 20 11
REMARK SMILES IDX 9 12 8 13 7 14 6 15 5 16 4 17 3 18 2 19 1 20
REMARK H PARENT
REMARK Flexibility Score: inf
ROOT
ATOM      1  C   UNL     1      -5.509   7.108 -23.253  1.00  0.00     0.000 C 
ENDROOT
BRANCH   1   2
ATOM      2  C   UNL     1      -6.574   6.689 -22.216  1.00  0.00     0.000 C 
BRANCH   2   3
ATOM      3  C   UNL     1      -7.448   7.858 -21.731  1.00  0.00     0.000 C 
BRANCH   3   4
ATOM      4  C   UNL     1      -7.457   8.001 -20.201  1.00  0.00     0.000 C 
BRANCH   4   5
ATOM      5  C   UNL     1      -6.230   7.356 -19.537  1.00  0.00     0.000 C 
BRANCH   5   6
ATOM      6  C   UNL     1      -5.263   8.398 -18.950  1.00  0.00     0.000 C 
BRANCH   6   7
ATOM      7  C   UNL     1      -4.691   9.341 -20.020  1.00  0.00     0.006 C 
BRANCH   7   8
ATOM      8  C   UNL     1      -4.707  10.812 -19.583  1.00  0.00     0.053 C 
BRANCH   8   9
ATOM      9  C   UNL     1      -3.765  11.028 -18.441  1.00  0.00     0.041 C 
ATOM     10  O   UNL     1      -4.130  11.693 -17.435  1.00  0.00    -0.550 OA
ATOM     11  O   UNL     1      -2.468  10.533 -18.506  1.00  0.00    -0.550 OA
ENDBRANCH   8   9
ENDBRANCH   7   8
ENDBRANCH   6   7
ENDBRANCH   5   6
ENDBRANCH   4   5
ENDBRANCH   3   4
ENDBRANCH   2   3
ENDBRANCH   1   2
BRANCH   1  12
ATOM     12  C   UNL     1      -4.076   6.935 -22.718  1.00  0.00     0.000 C 
BRANCH  12  13
ATOM     13  C   UNL     1      -3.878   5.608 -21.970  1.00  0.00    -0.000 C 
BRANCH  13  14
ATOM     14  C   UNL     1      -2.795   5.698 -20.881  1.00  0.00    -0.000 C 
BRANCH  14  15
ATOM     15  C   UNL     1      -2.742   4.438 -20.001  1.00  0.00    -0.000 C 
BRANCH  15  16
ATOM     16  C   UNL     1      -1.319   4.109 -19.517  1.00  0.00    -0.000 C 
BRANCH  16  17
ATOM     17  C   UNL     1      -0.953   4.825 -18.204  1.00  0.00    -0.000 C 
BRANCH  17  18
ATOM     18  C   UNL     1      -0.103   6.097 -18.376  1.00  0.00    -0.000 C 
BRANCH  18  19
ATOM     19  C   UNL     1      -0.805   7.363 -17.861  1.00  0.00    -0.003 C 
ATOM     20  C   UNL     1      -2.223   7.051 -17.391  1.00  0.00     0.004 C 
ENDBRANCH  18  19
ENDBRANCH  17  18
ENDBRANCH  16  17
ENDBRANCH  15  16
ENDBRANCH  14  15
ENDBRANCH  13  14
ENDBRANCH  12  13
ENDBRANCH   1  12
TORSDOF 16
ENDMDL
MODEL 7
REMARK VINA RESULT:    -5.306      1.720      5.381
REMARK INTER + INTRA:         -12.719
REMARK INTER:                 -10.344
REMARK INTRA:                  -2.375
REMARK UNBOUND:                -2.451
REMARK SMILES CCCCCCCCCCCCCCCCCC(=O)[O-]
REMARK SMILES IDX 10 1 11 2 12 3 13 4 14 5 15 6 16 7 17 8 18 9 19 10 20 11
REMARK SMILES IDX 9 12 8 13 7 14 6 15 5 16 4 17 3 18 2 19 1 20
REMARK H PARENT
REMARK Flexibility Score: inf
ROOT
ATOM      1  C   UNL     1      -2.960   5.759 -20.569  1.00  0.00     0.000 C 
ENDROOT
BRANCH   1   2
ATOM      2  C   UNL     1      -3.449   5.974 -22.018  1.00  0.00     0.000 C 
BRANCH   2   3
ATOM      3  C   UNL     1      -4.418   7.160 -22.167  1.00  0.00     0.000 C 
BRANCH   3   4
ATOM      4  C   UNL     1      -5.759   6.757 -22.801  1.00  0.00     0.000 C 
BRANCH   4   5
ATOM      5  C   UNL     1      -6.969   7.308 -22.031  1.00  0.00     0.000 C 
BRANCH   5   6
ATOM      6  C   UNL     1      -6.633   7.643 -20.567  1.00  0.00     0.000 C 
BRANCH   6   7
ATOM      7  C   UNL     1      -6.994   9.089 -20.194  1.00  0.00     0.006 C 
BRANCH   7   8
ATOM      8  C   UNL     1      -5.898  10.092 -20.576  1.00  0.00     0.053 C 
BRANCH   8   9
ATOM      9  C   UNL     1      -5.421  10.831 -19.366  1.00  0.00     0.041 C 
ATOM     10  O   UNL     1      -4.452  11.631 -19.453  1.00  0.00    -0.550 OA
ATOM     11  O   UNL     1      -6.019  10.605 -18.132  1.00  0.00    -0.550 OA
ENDBRANCH   8   9
ENDBRANCH   7   8
ENDBRANCH   6   7
ENDBRANCH   5   6
ENDBRANCH   4   5
ENDBRANCH   3   4
ENDBRANCH   2   3
ENDBRANCH   1   2
BRANCH   1  12
ATOM     12  C   UNL     1      -2.337   4.367 -20.366  1.00  0.00     0.000 C 
BRANCH  12  13
ATOM     13  C   UNL     1      -2.035   4.061 -18.890  1.00  0.00    -0.000 C 
BRANCH  13  14
ATOM     14  C   UNL     1      -0.694   4.653 -18.425  1.00  0.00    -0.000 C 
BRANCH  14  15
ATOM     15  C   UNL     1      -0.877   5.785 -17.400  1.00  0.00    -0.000 C 
BRANCH  15  16
ATOM     16  C   UNL     1      -0.728   7.184 -18.023  1.00  0.00    -0.000 C 
BRANCH  16  17
ATOM     17  C   UNL     1      -1.894   8.124 -17.668  1.00  0.00    -0.000 C 
BRANCH  17  18
ATOM     18  C   UNL     1      -3.020   7.475 -16.842  1.00  0.00    -0.000 C 
BRANCH  18  19
ATOM     19  C   UNL     1      -4.366   7.445 -17.582  1.00  0.00    -0.003 C 
ATOM     20  C   UNL     1      -4.938   6.031 -17.623  1.00  0.00     0.004 C 
ENDBRANCH  18  19
ENDBRANCH  17  18
ENDBRANCH  16  17
ENDBRANCH  15  16
ENDBRANCH  14  15
ENDBRANCH  13  14
ENDBRANCH  12  13
ENDBRANCH   1  12
TORSDOF 16
ENDMDL
MODEL 8
REMARK VINA RESULT:    -5.271      2.020      4.270
REMARK INTER + INTRA:         -12.653
REMARK INTER:                 -10.102
REMARK INTRA:                  -2.551
REMARK UNBOUND:                -2.451
REMARK SMILES CCCCCCCCCCCCCCCCCC(=O)[O-]
REMARK SMILES IDX 10 1 11 2 12 3 13 4 14 5 15 6 16 7 17 8 18 9 19 10 20 11
REMARK SMILES IDX 9 12 8 13 7 14 6 15 5 16 4 17 3 18 2 19 1 20
REMARK H PARENT
REMARK Flexibility Score: inf
ROOT
ATOM      1  C   UNL     1      -1.435   4.011 -19.272  1.00  0.00     0.000 C 
ENDROOT
BRANCH   1   2
ATOM      2  C   UNL     1      -0.981   4.808 -18.031  1.00  0.00     0.000 C 
BRANCH   2   3
ATOM      3  C   UNL     1      -0.175   6.073 -18.377  1.00  0.00     0.000 C 
BRANCH   3   4
ATOM      4  C   UNL     1      -0.902   7.368 -17.983  1.00  0.00     0.000 C 
BRANCH   4   5
ATOM      5  C   UNL     1      -2.290   7.111 -17.377  1.00  0.00     0.000 C 
BRANCH   5   6
ATOM      6  C   UNL     1      -3.375   8.015 -17.987  1.00  0.00     0.000 C 
BRANCH   6   7
ATOM      7  C   UNL     1      -4.796   7.492 -17.723  1.00  0.00     0.006 C 
BRANCH   7   8
ATOM      8  C   UNL     1      -5.676   8.513 -16.989  1.00  0.00     0.053 C 
BRANCH   8   9
ATOM      9  C   UNL     1      -7.063   7.980 -16.818  1.00  0.00     0.041 C 
ATOM     10  O   UNL     1      -7.688   8.173 -15.742  1.00  0.00    -0.550 OA
ATOM     11  O   UNL     1      -7.650   7.232 -17.831  1.00  0.00    -0.550 OA
ENDBRANCH   8   9
ENDBRANCH   7   8
ENDBRANCH   6   7
ENDBRANCH   5   6
ENDBRANCH   4   5
ENDBRANCH   3   4
ENDBRANCH   2   3
ENDBRANCH   1   2
BRANCH   1  12
ATOM     12  C   UNL     1      -2.811   4.470 -19.788  1.00  0.00     0.000 C 
BRANCH  12  13
ATOM     13  C   UNL     1      -2.710   5.374 -21.027  1.00  0.00    -0.000 C 
BRANCH  13  14
ATOM     14  C   UNL     1      -3.873   6.375 -21.127  1.00  0.00    -0.000 C 
BRANCH  14  15
ATOM     15  C   UNL     1      -4.484   6.425 -22.537  1.00  0.00    -0.000 C 
BRANCH  15  16
ATOM     16  C   UNL     1      -5.988   6.750 -22.524  1.00  0.00    -0.000 C 
BRANCH  16  17
ATOM     17  C   UNL     1      -6.492   7.194 -21.139  1.00  0.00    -0.000 C 
BRANCH  17  18
ATOM     18  C   UNL     1      -7.430   8.415 -21.152  1.00  0.00    -0.000 C 
BRANCH  18  19
ATOM     19  C   UNL     1      -6.860   9.619 -20.386  1.00  0.00    -0.003 C 
ATOM     20  C   UNL     1      -5.375   9.805 -20.683  1.00  0.00     0.004 C 
ENDBRANCH  18  19
ENDBRANCH  17  18
ENDBRANCH  16  17
ENDBRANCH  15  16
ENDBRANCH  14  15
ENDBRANCH  13  14
ENDBRANCH  12  13
ENDBRANCH   1  12
TORSDOF 16
ENDMDL
MODEL 9
REMARK VINA RESULT:    -5.258      1.836      4.931
REMARK INTER + INTRA:         -12.626
REMARK INTER:                 -10.023
REMARK INTRA:                  -2.604
REMARK UNBOUND:                -2.451
REMARK SMILES CCCCCCCCCCCCCCCCCC(=O)[O-]
REMARK SMILES IDX 10 1 11 2 12 3 13 4 14 5 15 6 16 7 17 8 18 9 19 10 20 11
REMARK SMILES IDX 9 12 8 13 7 14 6 15 5 16 4 17 3 18 2 19 1 20
REMARK H PARENT
REMARK Flexibility Score: inf
ROOT
ATOM      1  C   UNL     1      -6.599   7.447 -21.081  1.00  0.00     0.000 C 
ENDROOT
BRANCH   1   2
ATOM      2  C   UNL     1      -7.566   8.526 -20.549  1.00  0.00     0.000 C 
BRANCH   2   3
ATOM      3  C   UNL     1      -6.879   9.870 -20.250  1.00  0.00     0.000 C 
BRANCH   3   4
ATOM      4  C   UNL     1      -5.389   9.873 -20.624  1.00  0.00     0.000 C 
BRANCH   4   5
ATOM      5  C   UNL     1      -4.468   9.976 -19.398  1.00  0.00     0.000 C 
BRANCH   5   6
ATOM      6  C   UNL     1      -3.815   8.630 -19.038  1.00  0.00     0.000 C 
BRANCH   6   7
ATOM      7  C   UNL     1      -4.288   8.090 -17.679  1.00  0.00     0.006 C 
BRANCH   7   8
ATOM      8  C   UNL     1      -5.164   6.837 -17.812  1.00  0.00     0.053 C 
BRANCH   8   9
ATOM      9  C   UNL     1      -6.508   7.073 -17.198  1.00  0.00     0.041 C 
ATOM     10  O   UNL     1      -6.954   8.245 -17.079  1.00  0.00    -0.550 OA
ATOM     11  O   UNL     1      -7.251   6.001 -16.719  1.00  0.00    -0.550 OA
ENDBRANCH   8   9
ENDBRANCH   7   8
ENDBRANCH   6   7
ENDBRANCH   5   6
ENDBRANCH   4   5
ENDBRANCH   3   4
ENDBRANCH   2   3
ENDBRANCH   1   2
BRANCH   1  12
ATOM     12  C   UNL     1      -6.846   7.125 -22.566  1.00  0.00     0.000 C 
BRANCH  12  13
ATOM     13  C   UNL     1      -5.557   6.750 -23.315  1.00  0.00    -0.000 C 
BRANCH  13  14
ATOM     14  C   UNL     1      -4.295   6.954 -22.460  1.00  0.00    -0.000 C 
BRANCH  14  15
ATOM     15  C   UNL     1      -3.610   5.625 -22.100  1.00  0.00    -0.000 C 
BRANCH  15  16
ATOM     16  C   UNL     1      -2.750   5.723 -20.828  1.00  0.00    -0.000 C 
BRANCH  16  17
ATOM     17  C   UNL     1      -2.745   4.421 -20.008  1.00  0.00    -0.000 C 
BRANCH  17  18
ATOM     18  C   UNL     1      -1.536   4.251 -19.070  1.00  0.00    -0.000 C 
BRANCH  18  19
ATOM     19  C   UNL     1      -1.487   5.308 -17.955  1.00  0.00    -0.003 C 
ATOM     20  C   UNL     1      -0.138   6.019 -17.932  1.00  0.00     0.004 C 
ENDBRANCH  18  19
ENDBRANCH  17  18
ENDBRANCH  16  17
ENDBRANCH  15  16
ENDBRANCH  14  15
ENDBRANCH  13  14
ENDBRANCH  12  13
ENDBRANCH   1  12
TORSDOF 16
ENDMDL
