MODEL 1
REMARK VINA RESULT:    -4.033      0.000      0.000
REMARK INTER + INTRA:          -9.255
REMARK INTER:                  -7.334
REMARK INTRA:                  -1.921
REMARK UNBOUND:                -1.921
REMARK SMILES CCCCCCCCCCCCCCCC(=O)[O-]
REMARK SMILES IDX 9 1 10 2 11 3 12 4 13 5 14 6 15 7 16 8 17 9 18 10 8 11 7 12
REMARK SMILES IDX 6 13 5 14 4 15 3 16 2 17 1 18
REMARK H PARENT
REMARK Flexibility Score: inf
ROOT
ATOM      1  C   UNL     1     -94.510  42.433  13.215  1.00  0.00     0.000 C 
ENDROOT
BRANCH   1   2
ATOM      2  C   UNL     1     -94.671  41.336  12.143  1.00  0.00     0.000 C 
BRANCH   2   3
ATOM      3  C   UNL     1     -94.310  41.774  10.709  1.00  0.00     0.000 C 
BRANCH   3   4
ATOM      4  C   UNL     1     -93.035  41.130  10.131  1.00  0.00     0.000 C 
BRANCH   4   5
ATOM      5  C   UNL     1     -92.323  40.135  11.069  1.00  0.00     0.000 C 
BRANCH   5   6
ATOM      6  C   UNL     1     -92.311  38.699  10.516  1.00  0.00     0.006 C 
BRANCH   6   7
ATOM      7  C   UNL     1     -93.518  37.885  10.998  1.00  0.00     0.053 C 
BRANCH   7   8
ATOM      8  C   UNL     1     -93.601  36.554  10.315  1.00  0.00     0.041 C 
ATOM      9  O   UNL     1     -92.700  35.693  10.495  1.00  0.00    -0.550 OA
ATOM     10  O   UNL     1     -94.658  36.277   9.457  1.00  0.00    -0.550 OA
ENDBRANCH   7   8
ENDBRANCH   6   7
ENDBRANCH   5   6
ENDBRANCH   4   5
ENDBRANCH   3   4
ENDBRANCH   2   3
ENDBRANCH   1   2
BRANCH   1  11
ATOM     11  C   UNL     1     -95.191  42.133  14.566  1.00  0.00     0.000 C 
BRANCH  11  12
ATOM     12  C   UNL     1     -94.291  42.290  15.805  1.00  0.00    -0.000 C 
BRANCH  12  13
ATOM     13  C   UNL     1     -92.795  42.361  15.454  1.00  0.00    -0.000 C 
BRANCH  13  14
ATOM     14  C   UNL     1     -92.042  41.052  15.761  1.00  0.00    -0.000 C 
BRANCH  14  15
ATOM     15  C   UNL     1     -91.875  40.093  14.568  1.00  0.00    -0.000 C 
BRANCH  15  16
ATOM     16  C   UNL     1     -92.930  38.973  14.543  1.00  0.00    -0.000 C 
BRANCH  16  17
ATOM     17  C   UNL     1     -93.643  38.806  15.895  1.00  0.00    -0.003 C 
ATOM     18  C   UNL     1     -94.115  37.374  16.142  1.00  0.00     0.004 C 
ENDBRANCH  16  17
ENDBRANCH  15  16
ENDBRANCH  14  15
ENDBRANCH  13  14
ENDBRANCH  12  13
ENDBRANCH  11  12
ENDBRANCH   1  11
TORSDOF 14
ENDMDL
MODEL 2
REMARK VINA RESULT:    -4.005      1.060      1.692
REMARK INTER + INTRA:          -9.203
REMARK INTER:                  -7.019
REMARK INTRA:                  -2.185
REMARK UNBOUND:                -1.921
REMARK SMILES CCCCCCCCCCCCCCCC(=O)[O-]
REMARK SMILES IDX 9 1 10 2 11 3 12 4 13 5 14 6 15 7 16 8 17 9 18 10 8 11 7 12
REMARK SMILES IDX 6 13 5 14 4 15 3 16 2 17 1 18
REMARK H PARENT
REMARK Flexibility Score: inf
ROOT
ATOM      1  C   UNL     1     -95.360  41.420  13.372  1.00  0.00     0.000 C 
ENDROOT
BRANCH   1   2
ATOM      2  C   UNL     1     -95.180  40.978  11.905  1.00  0.00     0.000 C 
BRANCH   2   3
ATOM      3  C   UNL     1     -94.010  41.655  11.164  1.00  0.00     0.000 C 
BRANCH   3   4
ATOM      4  C   UNL     1     -93.069  40.693  10.412  1.00  0.00     0.000 C 
BRANCH   4   5
ATOM      5  C   UNL     1     -92.113  39.883  11.307  1.00  0.00     0.000 C 
BRANCH   5   6
ATOM      6  C   UNL     1     -92.363  38.367  11.228  1.00  0.00     0.006 C 
BRANCH   6   7
ATOM      7  C   UNL     1     -92.700  37.911   9.802  1.00  0.00     0.053 C 
BRANCH   7   8
ATOM      8  C   UNL     1     -93.317  36.546   9.786  1.00  0.00     0.041 C 
ATOM      9  O   UNL     1     -94.295  36.302   9.031  1.00  0.00    -0.550 OA
ATOM     10  O   UNL     1     -92.829  35.552  10.624  1.00  0.00    -0.550 OA
ENDBRANCH   7   8
ENDBRANCH   6   7
ENDBRANCH   5   6
ENDBRANCH   4   5
ENDBRANCH   3   4
ENDBRANCH   2   3
ENDBRANCH   1   2
BRANCH   1  11
ATOM     11  C   UNL     1     -94.197  42.249  13.953  1.00  0.00     0.000 C 
BRANCH  11  12
ATOM     12  C   UNL     1     -93.571  41.690  15.243  1.00  0.00    -0.000 C 
BRANCH  12  13
ATOM     13  C   UNL     1     -92.289  40.880  14.985  1.00  0.00    -0.000 C 
BRANCH  13  14
ATOM     14  C   UNL     1     -92.552  39.369  14.843  1.00  0.00    -0.000 C 
BRANCH  14  15
ATOM     15  C   UNL     1     -93.372  38.733  15.980  1.00  0.00    -0.000 C 
BRANCH  15  16
ATOM     16  C   UNL     1     -94.133  37.470  15.540  1.00  0.00    -0.000 C 
BRANCH  16  17
ATOM     17  C   UNL     1     -95.309  37.788  14.603  1.00  0.00    -0.003 C 
ATOM     18  C   UNL     1     -95.058  37.335  13.164  1.00  0.00     0.004 C 
ENDBRANCH  16  17
ENDBRANCH  15  16
ENDBRANCH  14  15
ENDBRANCH  13  14
ENDBRANCH  12  13
ENDBRANCH  11  12
ENDBRANCH   1  11
TORSDOF 14
ENDMDL
MODEL 3
REMARK VINA RESULT:    -3.847      1.276      1.943
REMARK INTER + INTRA:          -8.917
REMARK INTER:                  -6.641
REMARK INTRA:                  -2.276
REMARK UNBOUND:                -1.921
REMARK SMILES CCCCCCCCCCCCCCCC(=O)[O-]
REMARK SMILES IDX 9 1 10 2 11 3 12 4 13 5 14 6 15 7 16 8 17 9 18 10 8 11 7 12
REMARK SMILES IDX 6 13 5 14 4 15 3 16 2 17 1 18
REMARK H PARENT
REMARK Flexibility Score: inf
ROOT
ATOM      1  C   UNL     1     -94.605  41.373  12.101  1.00  0.00     0.000 C 
ENDROOT
BRANCH   1   2
ATOM      2  C   UNL     1     -93.992  41.782  10.747  1.00  0.00     0.000 C 
BRANCH   2   3
ATOM      3  C   UNL     1     -92.982  40.775  10.162  1.00  0.00     0.000 C 
BRANCH   3   4
ATOM      4  C   UNL     1     -92.113  40.042  11.203  1.00  0.00     0.000 C 
BRANCH   4   5
ATOM      5  C   UNL     1     -92.322  38.517  11.270  1.00  0.00     0.000 C 
BRANCH   5   6
ATOM      6  C   UNL     1     -93.584  38.054  10.521  1.00  0.00     0.006 C 
BRANCH   6   7
ATOM      7  C   UNL     1     -94.082  36.691  11.018  1.00  0.00     0.053 C 
BRANCH   7   8
ATOM      8  C   UNL     1     -95.532  36.732  11.393  1.00  0.00     0.041 C 
ATOM      9  O   UNL     1     -96.144  37.831  11.439  1.00  0.00    -0.550 OA
ATOM     10  O   UNL     1     -96.199  35.558  11.718  1.00  0.00    -0.550 OA
ENDBRANCH   7   8
ENDBRANCH   6   7
ENDBRANCH   5   6
ENDBRANCH   4   5
ENDBRANCH   3   4
ENDBRANCH   2   3
ENDBRANCH   1   2
BRANCH   1  11
ATOM     11  C   UNL     1     -94.541  42.453  13.201  1.00  0.00     0.000 C 
BRANCH  11  12
ATOM     12  C   UNL     1     -95.326  42.131  14.485  1.00  0.00    -0.000 C 
BRANCH  12  13
ATOM     13  C   UNL     1     -94.444  42.146  15.745  1.00  0.00    -0.000 C 
BRANCH  13  14
ATOM     14  C   UNL     1     -92.946  42.316  15.429  1.00  0.00    -0.000 C 
BRANCH  14  15
ATOM     15  C   UNL     1     -92.057  41.109  15.781  1.00  0.00    -0.000 C 
BRANCH  15  16
ATOM     16  C   UNL     1     -92.152  39.971  14.751  1.00  0.00    -0.000 C 
BRANCH  16  17
ATOM     17  C   UNL     1     -93.004  38.793  15.253  1.00  0.00    -0.003 C 
ATOM     18  C   UNL     1     -94.256  38.565  14.407  1.00  0.00     0.004 C 
ENDBRANCH  16  17
ENDBRANCH  15  16
ENDBRANCH  14  15
ENDBRANCH  13  14
ENDBRANCH  12  13
ENDBRANCH  11  12
ENDBRANCH   1  11
TORSDOF 14
ENDMDL
MODEL 4
REMARK VINA RESULT:    -3.829      3.330      6.304
REMARK INTER + INTRA:          -8.884
REMARK INTER:                  -6.605
REMARK INTRA:                  -2.279
REMARK UNBOUND:                -1.921
REMARK SMILES CCCCCCCCCCCCCCCC(=O)[O-]
REMARK SMILES IDX 9 1 10 2 11 3 12 4 13 5 14 6 15 7 16 8 17 9 18 10 8 11 7 12
REMARK SMILES IDX 6 13 5 14 4 15 3 16 2 17 1 18
REMARK H PARENT
REMARK Flexibility Score: inf
ROOT
ATOM      1  C   UNL     1     -95.497  36.598  11.363  1.00  0.00     0.000 C 
ENDROOT
BRANCH   1   2
ATOM      2  C   UNL     1     -95.852  37.528  12.540  1.00  0.00     0.000 C 
BRANCH   2   3
ATOM      3  C   UNL     1     -94.879  37.461  13.734  1.00  0.00     0.000 C 
BRANCH   3   4
ATOM      4  C   UNL     1     -94.473  38.826  14.324  1.00  0.00     0.000 C 
BRANCH   4   5
ATOM      5  C   UNL     1     -93.003  38.933  14.772  1.00  0.00     0.000 C 
BRANCH   5   6
ATOM      6  C   UNL     1     -92.482  40.381  14.768  1.00  0.00     0.006 C 
BRANCH   6   7
ATOM      7  C   UNL     1     -92.254  40.915  16.188  1.00  0.00     0.053 C 
BRANCH   7   8
ATOM      8  C   UNL     1     -93.337  41.862  16.608  1.00  0.00     0.041 C 
ATOM      9  O   UNL     1     -93.362  42.316  17.782  1.00  0.00    -0.550 OA
ATOM     10  O   UNL     1     -94.333  42.221  15.709  1.00  0.00    -0.550 OA
ENDBRANCH   7   8
ENDBRANCH   6   7
ENDBRANCH   5   6
ENDBRANCH   4   5
ENDBRANCH   3   4
ENDBRANCH   2   3
ENDBRANCH   1   2
BRANCH   1  11
ATOM     11  C   UNL     1     -94.023  36.144  11.308  1.00  0.00     0.000 C 
BRANCH  11  12
ATOM     12  C   UNL     1     -93.317  36.363   9.958  1.00  0.00    -0.000 C 
BRANCH  12  13
ATOM     13  C   UNL     1     -92.646  37.743   9.850  1.00  0.00    -0.000 C 
BRANCH  13  14
ATOM     14  C   UNL     1     -92.372  38.387  11.222  1.00  0.00    -0.000 C 
BRANCH  14  15
ATOM     15  C   UNL     1     -91.962  39.871  11.183  1.00  0.00    -0.000 C 
BRANCH  15  16
ATOM     16  C   UNL     1     -92.994  40.762  10.470  1.00  0.00    -0.000 C 
BRANCH  16  17
ATOM     17  C   UNL     1     -94.368  40.739  11.158  1.00  0.00    -0.003 C 
ATOM     18  C   UNL     1     -94.575  41.919  12.107  1.00  0.00     0.004 C 
ENDBRANCH  16  17
ENDBRANCH  15  16
ENDBRANCH  14  15
ENDBRANCH  13  14
ENDBRANCH  12  13
ENDBRANCH  11  12
ENDBRANCH   1  11
TORSDOF 14
ENDMDL
MODEL 5
REMARK VINA RESULT:    -3.827      3.392      5.885
REMARK INTER + INTRA:          -8.880
REMARK INTER:                  -6.543
REMARK INTRA:                  -2.337
REMARK UNBOUND:                -1.921
REMARK SMILES CCCCCCCCCCCCCCCC(=O)[O-]
REMARK SMILES IDX 9 1 10 2 11 3 12 4 13 5 14 6 15 7 16 8 17 9 18 10 8 11 7 12
REMARK SMILES IDX 6 13 5 14 4 15 3 16 2 17 1 18
REMARK H PARENT
REMARK Flexibility Score: inf
ROOT
ATOM      1  C   UNL     1     -95.349  40.075  12.463  1.00  0.00     0.000 C 
ENDROOT
BRANCH   1   2
ATOM      2  C   UNL     1     -95.257  39.646  13.942  1.00  0.00     0.000 C 
BRANCH   2   3
ATOM      3  C   UNL     1     -94.220  38.544  14.234  1.00  0.00     0.000 C 
BRANCH   3   4
ATOM      4  C   UNL     1     -93.132  38.926  15.257  1.00  0.00     0.000 C 
BRANCH   4   5
ATOM      5  C   UNL     1     -92.098  39.954  14.757  1.00  0.00     0.000 C 
BRANCH   5   6
ATOM      6  C   UNL     1     -91.885  41.114  15.745  1.00  0.00     0.006 C 
BRANCH   6   7
ATOM      7  C   UNL     1     -93.019  42.145  15.678  1.00  0.00     0.053 C 
BRANCH   7   8
ATOM      8  C   UNL     1     -93.908  42.074  16.883  1.00  0.00     0.041 C 
ATOM      9  O   UNL     1     -95.156  41.978  16.745  1.00  0.00    -0.550 OA
ATOM     10  O   UNL     1     -93.359  42.141  18.156  1.00  0.00    -0.550 OA
ENDBRANCH   7   8
ENDBRANCH   6   7
ENDBRANCH   5   6
ENDBRANCH   4   5
ENDBRANCH   3   4
ENDBRANCH   2   3
ENDBRANCH   1   2
BRANCH   1  11
ATOM     11  C   UNL     1     -94.295  41.108  12.015  1.00  0.00     0.000 C 
BRANCH  11  12
ATOM     12  C   UNL     1     -93.464  40.709  10.782  1.00  0.00    -0.000 C 
BRANCH  12  13
ATOM     13  C   UNL     1     -92.110  40.080  11.151  1.00  0.00    -0.000 C 
BRANCH  13  14
ATOM     14  C   UNL     1     -92.158  38.542  11.215  1.00  0.00    -0.000 C 
BRANCH  14  15
ATOM     15  C   UNL     1     -92.674  37.846   9.942  1.00  0.00    -0.000 C 
BRANCH  15  16
ATOM     16  C   UNL     1     -93.250  36.446  10.213  1.00  0.00    -0.000 C 
BRANCH  16  17
ATOM     17  C   UNL     1     -94.311  36.450  11.325  1.00  0.00    -0.003 C 
ATOM     18  C   UNL     1     -95.721  36.716  10.798  1.00  0.00     0.004 C 
ENDBRANCH  16  17
ENDBRANCH  15  16
ENDBRANCH  14  15
ENDBRANCH  13  14
ENDBRANCH  12  13
ENDBRANCH  11  12
ENDBRANCH   1  11
TORSDOF 14
ENDMDL
MODEL 6
REMARK VINA RESULT:    -3.744      1.192      2.293
REMARK INTER + INTRA:          -8.730
REMARK INTER:                  -6.620
REMARK INTRA:                  -2.111
REMARK UNBOUND:                -1.921
REMARK SMILES CCCCCCCCCCCCCCCC(=O)[O-]
REMARK SMILES IDX 9 1 10 2 11 3 12 4 13 5 14 6 15 7 16 8 17 9 18 10 8 11 7 12
REMARK SMILES IDX 6 13 5 14 4 15 3 16 2 17 1 18
REMARK H PARENT
REMARK Flexibility Score: inf
ROOT
ATOM      1  C   UNL     1     -96.333  41.644  11.424  1.00  0.00     0.000 C 
ENDROOT
BRANCH   1   2
ATOM      2  C   UNL     1     -95.767  41.859  10.006  1.00  0.00     0.000 C 
BRANCH   2   3
ATOM      3  C   UNL     1     -94.231  41.976   9.933  1.00  0.00     0.000 C 
BRANCH   3   4
ATOM      4  C   UNL     1     -93.475  40.634   9.891  1.00  0.00     0.000 C 
BRANCH   4   5
ATOM      5  C   UNL     1     -92.475  40.412  11.041  1.00  0.00     0.000 C 
BRANCH   5   6
ATOM      6  C   UNL     1     -92.098  38.932  11.227  1.00  0.00     0.006 C 
BRANCH   6   7
ATOM      7  C   UNL     1     -93.313  38.006  11.097  1.00  0.00     0.053 C 
BRANCH   7   8
ATOM      8  C   UNL     1     -93.055  36.878  10.145  1.00  0.00     0.041 C 
ATOM      9  O   UNL     1     -92.891  35.707  10.579  1.00  0.00    -0.550 OA
ATOM     10  O   UNL     1     -92.967  37.125   8.781  1.00  0.00    -0.550 OA
ENDBRANCH   7   8
ENDBRANCH   6   7
ENDBRANCH   5   6
ENDBRANCH   4   5
ENDBRANCH   3   4
ENDBRANCH   2   3
ENDBRANCH   1   2
BRANCH   1  11
ATOM     11  C   UNL     1     -95.734  42.557  12.514  1.00  0.00     0.000 C 
BRANCH  11  12
ATOM     12  C   UNL     1     -94.775  41.864  13.499  1.00  0.00    -0.000 C 
BRANCH  12  13
ATOM     13  C   UNL     1     -95.092  40.372  13.693  1.00  0.00    -0.000 C 
BRANCH  13  14
ATOM     14  C   UNL     1     -94.388  39.762  14.920  1.00  0.00    -0.000 C 
BRANCH  14  15
ATOM     15  C   UNL     1     -92.953  39.262  14.676  1.00  0.00    -0.000 C 
BRANCH  15  16
ATOM     16  C   UNL     1     -91.886  40.333  14.958  1.00  0.00    -0.000 C 
BRANCH  16  17
ATOM     17  C   UNL     1     -92.188  41.147  16.226  1.00  0.00    -0.003 C 
ATOM     18  C   UNL     1     -92.178  42.655  15.979  1.00  0.00     0.004 C 
ENDBRANCH  16  17
ENDBRANCH  15  16
ENDBRANCH  14  15
ENDBRANCH  13  14
ENDBRANCH  12  13
ENDBRANCH  11  12
ENDBRANCH   1  11
TORSDOF 14
ENDMDL
MODEL 7
REMARK VINA RESULT:    -3.740      1.287      2.179
REMARK INTER + INTRA:          -8.722
REMARK INTER:                  -6.656
REMARK INTRA:                  -2.066
REMARK UNBOUND:                -1.921
REMARK SMILES CCCCCCCCCCCCCCCC(=O)[O-]
REMARK SMILES IDX 9 1 10 2 11 3 12 4 13 5 14 6 15 7 16 8 17 9 18 10 8 11 7 12
REMARK SMILES IDX 6 13 5 14 4 15 3 16 2 17 1 18
REMARK H PARENT
REMARK Flexibility Score: inf
ROOT
ATOM      1  C   UNL     1     -95.190  41.260  13.449  1.00  0.00     0.000 C 
ENDROOT
BRANCH   1   2
ATOM      2  C   UNL     1     -95.916  41.233  12.089  1.00  0.00     0.000 C 
BRANCH   2   3
ATOM      3  C   UNL     1     -95.058  40.743  10.906  1.00  0.00     0.000 C 
BRANCH   3   4
ATOM      4  C   UNL     1     -93.654  41.372  10.812  1.00  0.00     0.000 C 
BRANCH   4   5
ATOM      5  C   UNL     1     -92.484  40.387  11.000  1.00  0.00     0.000 C 
BRANCH   5   6
ATOM      6  C   UNL     1     -92.614  39.131  10.121  1.00  0.00     0.006 C 
BRANCH   6   7
ATOM      7  C   UNL     1     -92.568  37.840  10.948  1.00  0.00     0.053 C 
BRANCH   7   8
ATOM      8  C   UNL     1     -93.021  36.653  10.154  1.00  0.00     0.041 C 
ATOM      9  O   UNL     1     -93.185  35.539  10.718  1.00  0.00    -0.550 OA
ATOM     10  O   UNL     1     -93.236  36.772   8.788  1.00  0.00    -0.550 OA
ENDBRANCH   7   8
ENDBRANCH   6   7
ENDBRANCH   5   6
ENDBRANCH   4   5
ENDBRANCH   3   4
ENDBRANCH   2   3
ENDBRANCH   1   2
BRANCH   1  11
ATOM     11  C   UNL     1     -95.275  39.951  14.262  1.00  0.00     0.000 C 
BRANCH  11  12
ATOM     12  C   UNL     1     -94.150  38.935  13.992  1.00  0.00    -0.000 C 
BRANCH  12  13
ATOM     13  C   UNL     1     -93.015  39.011  15.027  1.00  0.00    -0.000 C 
BRANCH  13  14
ATOM     14  C   UNL     1     -91.876  39.958  14.603  1.00  0.00    -0.000 C 
BRANCH  14  15
ATOM     15  C   UNL     1     -91.937  41.373  15.208  1.00  0.00    -0.000 C 
BRANCH  15  16
ATOM     16  C   UNL     1     -92.036  41.368  16.743  1.00  0.00    -0.000 C 
BRANCH  16  17
ATOM     17  C   UNL     1     -93.402  41.862  17.247  1.00  0.00    -0.003 C 
ATOM     18  C   UNL     1     -94.074  40.874  18.200  1.00  0.00     0.004 C 
ENDBRANCH  16  17
ENDBRANCH  15  16
ENDBRANCH  14  15
ENDBRANCH  13  14
ENDBRANCH  12  13
ENDBRANCH  11  12
ENDBRANCH   1  11
TORSDOF 14
ENDMDL
MODEL 8
REMARK VINA RESULT:    -3.672      2.129      4.635
REMARK INTER + INTRA:          -8.598
REMARK INTER:                  -6.419
REMARK INTRA:                  -2.179
REMARK UNBOUND:                -1.921
REMARK SMILES CCCCCCCCCCCCCCCC(=O)[O-]
REMARK SMILES IDX 9 1 10 2 11 3 12 4 13 5 14 6 15 7 16 8 17 9 18 10 8 11 7 12
REMARK SMILES IDX 6 13 5 14 4 15 3 16 2 17 1 18
REMARK H PARENT
REMARK Flexibility Score: inf
ROOT
ATOM      1  C   UNL     1     -95.334  42.119  13.208  1.00  0.00     0.000 C 
ENDROOT
BRANCH   1   2
ATOM      2  C   UNL     1     -94.134  42.806  13.892  1.00  0.00     0.000 C 
BRANCH   2   3
ATOM      3  C   UNL     1     -93.757  42.229  15.271  1.00  0.00     0.000 C 
BRANCH   3   4
ATOM      4  C   UNL     1     -92.283  41.806  15.421  1.00  0.00     0.000 C 
BRANCH   4   5
ATOM      5  C   UNL     1     -91.974  40.357  14.998  1.00  0.00     0.000 C 
BRANCH   5   6
ATOM      6  C   UNL     1     -93.022  39.351  15.506  1.00  0.00     0.006 C 
BRANCH   6   7
ATOM      7  C   UNL     1     -93.712  38.606  14.356  1.00  0.00     0.053 C 
BRANCH   7   8
ATOM      8  C   UNL     1     -95.204  38.630  14.494  1.00  0.00     0.041 C 
ATOM      9  O   UNL     1     -95.929  38.072  13.629  1.00  0.00    -0.550 OA
ATOM     10  O   UNL     1     -95.793  39.294  15.562  1.00  0.00    -0.550 OA
ENDBRANCH   7   8
ENDBRANCH   6   7
ENDBRANCH   5   6
ENDBRANCH   4   5
ENDBRANCH   3   4
ENDBRANCH   2   3
ENDBRANCH   1   2
BRANCH   1  11
ATOM     11  C   UNL     1     -94.982  41.264  11.974  1.00  0.00     0.000 C 
BRANCH  11  12
ATOM     12  C   UNL     1     -94.172  41.987  10.882  1.00  0.00    -0.000 C 
BRANCH  12  13
ATOM     13  C   UNL     1     -93.065  41.107  10.276  1.00  0.00    -0.000 C 
BRANCH  13  14
ATOM     14  C   UNL     1     -92.241  40.359  11.341  1.00  0.00    -0.000 C 
BRANCH  14  15
ATOM     15  C   UNL     1     -92.250  38.824  11.223  1.00  0.00    -0.000 C 
BRANCH  15  16
ATOM     16  C   UNL     1     -93.518  38.280  10.545  1.00  0.00    -0.000 C 
BRANCH  16  17
ATOM     17  C   UNL     1     -93.797  36.812  10.908  1.00  0.00    -0.003 C 
ATOM     18  C   UNL     1     -92.910  35.833  10.140  1.00  0.00     0.004 C 
ENDBRANCH  16  17
ENDBRANCH  15  16
ENDBRANCH  14  15
ENDBRANCH  13  14
ENDBRANCH  12  13
ENDBRANCH  11  12
ENDBRANCH   1  11
TORSDOF 14
ENDMDL
MODEL 9
REMARK VINA RESULT:    -3.652      1.707      2.780
REMARK INTER + INTRA:          -8.563
REMARK INTER:                  -6.254
REMARK INTRA:                  -2.308
REMARK UNBOUND:                -1.921
REMARK SMILES CCCCCCCCCCCCCCCC(=O)[O-]
REMARK SMILES IDX 9 1 10 2 11 3 12 4 13 5 14 6 15 7 16 8 17 9 18 10 8 11 7 12
REMARK SMILES IDX 6 13 5 14 4 15 3 16 2 17 1 18
REMARK H PARENT
REMARK Flexibility Score: inf
ROOT
ATOM      1  C   UNL     1     -94.392  41.269  14.285  1.00  0.00     0.000 C 
ENDROOT
BRANCH   1   2
ATOM      2  C   UNL     1     -94.419  41.911  12.883  1.00  0.00     0.000 C 
BRANCH   2   3
ATOM      3  C   UNL     1     -94.514  40.911  11.714  1.00  0.00     0.000 C 
BRANCH   3   4
ATOM      4  C   UNL     1     -93.350  40.971  10.706  1.00  0.00     0.000 C 
BRANCH   4   5
ATOM      5  C   UNL     1     -92.180  40.014  11.003  1.00  0.00     0.000 C 
BRANCH   5   6
ATOM      6  C   UNL     1     -92.607  38.536  11.018  1.00  0.00     0.006 C 
BRANCH   6   7
ATOM      7  C   UNL     1     -92.558  37.907   9.620  1.00  0.00     0.053 C 
BRANCH   7   8
ATOM      8  C   UNL     1     -93.194  36.551   9.597  1.00  0.00     0.041 C 
ATOM      9  O   UNL     1     -94.203  36.336   8.875  1.00  0.00    -0.550 OA
ATOM     10  O   UNL     1     -92.688  35.532  10.394  1.00  0.00    -0.550 OA
ENDBRANCH   7   8
ENDBRANCH   6   7
ENDBRANCH   5   6
ENDBRANCH   4   5
ENDBRANCH   3   4
ENDBRANCH   2   3
ENDBRANCH   1   2
BRANCH   1  11
ATOM     11  C   UNL     1     -93.002  40.802  14.764  1.00  0.00     0.000 C 
BRANCH  11  12
ATOM     12  C   UNL     1     -92.741  39.289  14.651  1.00  0.00    -0.000 C 
BRANCH  12  13
ATOM     13  C   UNL     1     -93.427  38.478  15.764  1.00  0.00    -0.000 C 
BRANCH  13  14
ATOM     14  C   UNL     1     -94.638  37.670  15.260  1.00  0.00    -0.000 C 
BRANCH  14  15
ATOM     15  C   UNL     1     -94.807  37.621  13.731  1.00  0.00    -0.000 C 
BRANCH  15  16
ATOM     16  C   UNL     1     -96.226  37.997  13.270  1.00  0.00    -0.000 C 
BRANCH  16  17
ATOM     17  C   UNL     1     -97.138  38.399  14.440  1.00  0.00    -0.003 C 
ATOM     18  C   UNL     1     -97.698  39.814  14.297  1.00  0.00     0.004 C 
ENDBRANCH  16  17
ENDBRANCH  15  16
ENDBRANCH  14  15
ENDBRANCH  13  14
ENDBRANCH  12  13
ENDBRANCH  11  12
ENDBRANCH   1  11
TORSDOF 14
ENDMDL
