MODEL 1
REMARK VINA RESULT:    -5.757      0.000      0.000
REMARK INTER + INTRA:          -6.904
REMARK INTER:                  -6.767
REMARK INTRA:                  -0.137
REMARK UNBOUND:                -0.137
REMARK SMILES O=C([O-])C=Cc1ccc(O)c(O)c1
REMARK SMILES IDX 6 1 13 2 7 3 11 4 8 5 9 6 5 7 4 8 2 9 1 10 3 11 12 12 10 14
REMARK H PARENT 12 13 10 15
REMARK Flexibility Score: inf
ROOT
ATOM      1  C   UNL     1     -22.614 -18.630 -13.237  1.00  0.00    -0.022 A 
ATOM      2  C   UNL     1     -23.785 -19.350 -13.525  1.00  0.00     0.058 A 
ATOM      3  C   UNL     1     -21.470 -19.335 -12.812  1.00  0.00     0.012 A 
ATOM      4  C   UNL     1     -23.827 -20.744 -13.370  1.00  0.00     0.157 A 
ATOM      5  C   UNL     1     -21.511 -20.723 -12.657  1.00  0.00     0.051 A 
ATOM      6  C   UNL     1     -22.688 -21.431 -12.933  1.00  0.00     0.157 A 
ENDROOT
BRANCH   1   7
ATOM      7  C   UNL     1     -22.620 -17.159 -13.427  1.00  0.00     0.010 C 
ATOM      8  C   UNL     1     -21.510 -16.411 -13.491  1.00  0.00     0.025 C 
BRANCH   8   9
ATOM      9  C   UNL     1     -21.564 -14.952 -13.671  1.00  0.00     0.064 C 
ATOM     10  O   UNL     1     -21.101 -14.198 -12.776  1.00  0.00    -0.545 OA
ATOM     11  O   UNL     1     -22.119 -14.390 -14.815  1.00  0.00    -0.545 OA
ENDBRANCH   8   9
ENDBRANCH   1   7
BRANCH   4  12
ATOM     12  O   UNL     1     -24.994 -21.451 -13.649  1.00  0.00    -0.504 OA
ATOM     13  H   UNL     1     -25.347 -21.541 -14.595  1.00  0.00     0.293 HD
ENDBRANCH   4  12
BRANCH   6  14
ATOM     14  O   UNL     1     -22.733 -22.816 -12.778  1.00  0.00    -0.504 OA
ATOM     15  H   UNL     1     -23.311 -23.251 -12.068  1.00  0.00     0.293 HD
ENDBRANCH   6  14
TORSDOF 4
ENDMDL
MODEL 2
REMARK VINA RESULT:    -5.370      1.568      2.264
REMARK INTER + INTRA:          -6.449
REMARK INTER:                  -6.313
REMARK INTRA:                  -0.136
REMARK UNBOUND:                -0.137
REMARK SMILES O=C([O-])C=Cc1ccc(O)c(O)c1
REMARK SMILES IDX 6 1 13 2 7 3 11 4 8 5 9 6 5 7 4 8 2 9 1 10 3 11 12 12 10 14
REMARK H PARENT 12 13 10 15
REMARK Flexibility Score: inf
ROOT
ATOM      1  C   UNL     1     -22.967 -19.736 -12.538  1.00  0.00    -0.022 A 
ATOM      2  C   UNL     1     -22.658 -21.033 -12.981  1.00  0.00     0.058 A 
ATOM      3  C   UNL     1     -24.122 -19.543 -11.754  1.00  0.00     0.012 A 
ATOM      4  C   UNL     1     -23.495 -22.115 -12.671  1.00  0.00     0.157 A 
ATOM      5  C   UNL     1     -24.956 -20.621 -11.445  1.00  0.00     0.051 A 
ATOM      6  C   UNL     1     -24.647 -21.907 -11.903  1.00  0.00     0.157 A 
ENDROOT
BRANCH   1   7
ATOM      7  C   UNL     1     -22.043 -18.628 -12.886  1.00  0.00     0.010 C 
ATOM      8  C   UNL     1     -22.450 -17.399 -13.228  1.00  0.00     0.025 C 
BRANCH   8   9
ATOM      9  C   UNL     1     -21.497 -16.332 -13.575  1.00  0.00     0.064 C 
ATOM     10  O   UNL     1     -20.263 -16.579 -13.581  1.00  0.00    -0.545 OA
ATOM     11  O   UNL     1     -21.938 -15.054 -13.899  1.00  0.00    -0.545 OA
ENDBRANCH   8   9
ENDBRANCH   1   7
BRANCH   4  12
ATOM     12  O   UNL     1     -23.187 -23.397 -13.121  1.00  0.00    -0.504 OA
ATOM     13  H   UNL     1     -23.773 -23.878 -13.794  1.00  0.00     0.293 HD
ENDBRANCH   4  12
BRANCH   6  14
ATOM     14  O   UNL     1     -25.478 -22.985 -11.598  1.00  0.00    -0.504 OA
ATOM     15  H   UNL     1     -26.217 -22.905 -10.908  1.00  0.00     0.293 HD
ENDBRANCH   6  14
TORSDOF 4
ENDMDL
MODEL 3
REMARK VINA RESULT:    -5.123      1.598      1.845
REMARK INTER + INTRA:          -6.159
REMARK INTER:                  -6.026
REMARK INTRA:                  -0.132
REMARK UNBOUND:                -0.137
REMARK SMILES O=C([O-])C=Cc1ccc(O)c(O)c1
REMARK SMILES IDX 6 1 13 2 7 3 11 4 8 5 9 6 5 7 4 8 2 9 1 10 3 11 12 12 10 14
REMARK H PARENT 12 13 10 15
REMARK Flexibility Score: inf
ROOT
ATOM      1  C   UNL     1     -22.703 -19.669 -12.668  1.00  0.00    -0.022 A 
ATOM      2  C   UNL     1     -23.871 -19.570 -11.893  1.00  0.00     0.058 A 
ATOM      3  C   UNL     1     -22.277 -20.942 -13.095  1.00  0.00     0.012 A 
ATOM      4  C   UNL     1     -24.590 -20.718 -11.529  1.00  0.00     0.157 A 
ATOM      5  C   UNL     1     -22.992 -22.086 -12.732  1.00  0.00     0.051 A 
ATOM      6  C   UNL     1     -24.147 -21.978 -11.948  1.00  0.00     0.157 A 
ENDROOT
BRANCH   1   7
ATOM      7  C   UNL     1     -21.986 -18.422 -13.033  1.00  0.00     0.010 C 
ATOM      8  C   UNL     1     -22.601 -17.282 -13.374  1.00  0.00     0.025 C 
BRANCH   8   9
ATOM      9  C   UNL     1     -21.849 -16.071 -13.739  1.00  0.00     0.064 C 
ATOM     10  O   UNL     1     -20.658 -15.939 -13.355  1.00  0.00    -0.545 OA
ATOM     11  O   UNL     1     -22.433 -15.068 -14.505  1.00  0.00    -0.545 OA
ENDBRANCH   8   9
ENDBRANCH   1   7
BRANCH   4  12
ATOM     12  O   UNL     1     -25.742 -20.613 -10.754  1.00  0.00    -0.504 OA
ATOM     13  H   UNL     1     -26.454 -19.920 -10.953  1.00  0.00     0.293 HD
ENDBRANCH   4  12
BRANCH   6  14
ATOM     14  O   UNL     1     -24.863 -23.118 -11.583  1.00  0.00    -0.504 OA
ATOM     15  H   UNL     1     -25.778 -23.317 -11.971  1.00  0.00     0.293 HD
ENDBRANCH   6  14
TORSDOF 4
ENDMDL
MODEL 4
REMARK VINA RESULT:    -5.079      1.868      5.924
REMARK INTER + INTRA:          -6.107
REMARK INTER:                  -5.980
REMARK INTRA:                  -0.127
REMARK UNBOUND:                -0.137
REMARK SMILES O=C([O-])C=Cc1ccc(O)c(O)c1
REMARK SMILES IDX 6 1 13 2 7 3 11 4 8 5 9 6 5 7 4 8 2 9 1 10 3 11 12 12 10 14
REMARK H PARENT 12 13 10 15
REMARK Flexibility Score: inf
ROOT
ATOM      1  C   UNL     1     -23.384 -19.849 -13.105  1.00  0.00    -0.022 A 
ATOM      2  C   UNL     1     -23.859 -18.701 -13.763  1.00  0.00     0.058 A 
ATOM      3  C   UNL     1     -22.109 -19.811 -12.508  1.00  0.00     0.012 A 
ATOM      4  C   UNL     1     -23.070 -17.545 -13.846  1.00  0.00     0.157 A 
ATOM      5  C   UNL     1     -21.322 -18.659 -12.591  1.00  0.00     0.051 A 
ATOM      6  C   UNL     1     -21.798 -17.525 -13.261  1.00  0.00     0.157 A 
ENDROOT
BRANCH   1   7
ATOM      7  C   UNL     1     -24.263 -21.042 -13.037  1.00  0.00     0.010 C 
ATOM      8  C   UNL     1     -24.699 -21.708 -14.114  1.00  0.00     0.025 C 
BRANCH   8   9
ATOM      9  C   UNL     1     -25.579 -22.882 -14.000  1.00  0.00     0.064 C 
ATOM     10  O   UNL     1     -25.533 -23.780 -14.880  1.00  0.00    -0.545 OA
ATOM     11  O   UNL     1     -26.461 -23.017 -12.933  1.00  0.00    -0.545 OA
ENDBRANCH   8   9
ENDBRANCH   1   7
BRANCH   4  12
ATOM     12  O   UNL     1     -23.542 -16.413 -14.507  1.00  0.00    -0.504 OA
ATOM     13  H   UNL     1     -23.475 -15.490 -14.094  1.00  0.00     0.293 HD
ENDBRANCH   4  12
BRANCH   6  14
ATOM     14  O   UNL     1     -21.015 -16.374 -13.347  1.00  0.00    -0.504 OA
ATOM     15  H   UNL     1     -20.456 -16.174 -14.169  1.00  0.00     0.293 HD
ENDBRANCH   6  14
TORSDOF 4
ENDMDL
MODEL 5
REMARK VINA RESULT:    -4.642      1.195      5.841
REMARK INTER + INTRA:          -5.593
REMARK INTER:                  -5.456
REMARK INTRA:                  -0.137
REMARK UNBOUND:                -0.137
REMARK SMILES O=C([O-])C=Cc1ccc(O)c(O)c1
REMARK SMILES IDX 6 1 13 2 7 3 11 4 8 5 9 6 5 7 4 8 2 9 1 10 3 11 12 12 10 14
REMARK H PARENT 12 13 10 15
REMARK Flexibility Score: inf
ROOT
ATOM      1  C   UNL     1     -22.852 -17.735 -13.645  1.00  0.00    -0.022 A 
ATOM      2  C   UNL     1     -23.592 -16.833 -14.429  1.00  0.00     0.058 A 
ATOM      3  C   UNL     1     -21.615 -17.318 -13.115  1.00  0.00     0.012 A 
ATOM      4  C   UNL     1     -23.099 -15.549 -14.702  1.00  0.00     0.157 A 
ATOM      5  C   UNL     1     -21.124 -16.038 -13.387  1.00  0.00     0.051 A 
ATOM      6  C   UNL     1     -21.862 -15.152 -14.181  1.00  0.00     0.157 A 
ENDROOT
BRANCH   1   7
ATOM      7  C   UNL     1     -23.423 -19.078 -13.379  1.00  0.00     0.010 C 
ATOM      8  C   UNL     1     -22.729 -20.090 -12.841  1.00  0.00     0.025 C 
BRANCH   8   9
ATOM      9  C   UNL     1     -23.334 -21.410 -12.604  1.00  0.00     0.064 C 
ATOM     10  O   UNL     1     -22.783 -22.439 -13.073  1.00  0.00    -0.545 OA
ATOM     11  O   UNL     1     -24.507 -21.539 -11.867  1.00  0.00    -0.545 OA
ENDBRANCH   8   9
ENDBRANCH   1   7
BRANCH   4  12
ATOM     12  O   UNL     1     -23.833 -14.663 -15.487  1.00  0.00    -0.504 OA
ATOM     13  H   UNL     1     -23.703 -14.610 -16.491  1.00  0.00     0.293 HD
ENDBRANCH   4  12
BRANCH   6  14
ATOM     14  O   UNL     1     -21.373 -13.875 -14.455  1.00  0.00    -0.504 OA
ATOM     15  H   UNL     1     -21.790 -13.291 -15.172  1.00  0.00     0.293 HD
ENDBRANCH   6  14
TORSDOF 4
ENDMDL
MODEL 6
REMARK VINA RESULT:    -4.635      0.772      2.045
REMARK INTER + INTRA:          -5.585
REMARK INTER:                  -5.449
REMARK INTRA:                  -0.137
REMARK UNBOUND:                -0.137
REMARK SMILES O=C([O-])C=Cc1ccc(O)c(O)c1
REMARK SMILES IDX 6 1 13 2 7 3 11 4 8 5 9 6 5 7 4 8 2 9 1 10 3 11 12 12 10 14
REMARK H PARENT 12 13 10 15
REMARK Flexibility Score: inf
ROOT
ATOM      1  C   UNL     1     -22.737 -18.913 -13.214  1.00  0.00    -0.022 A 
ATOM      2  C   UNL     1     -21.991 -20.077 -12.963  1.00  0.00     0.058 A 
ATOM      3  C   UNL     1     -24.126 -19.027 -13.419  1.00  0.00     0.012 A 
ATOM      4  C   UNL     1     -22.610 -21.335 -12.940  1.00  0.00     0.157 A 
ATOM      5  C   UNL     1     -24.744 -20.281 -13.396  1.00  0.00     0.051 A 
ATOM      6  C   UNL     1     -23.989 -21.436 -13.159  1.00  0.00     0.157 A 
ENDROOT
BRANCH   1   7
ATOM      7  C   UNL     1     -22.034 -17.606 -13.218  1.00  0.00     0.010 C 
ATOM      8  C   UNL     1     -22.546 -16.487 -13.746  1.00  0.00     0.025 C 
BRANCH   8   9
ATOM      9  C   UNL     1     -21.808 -15.213 -13.736  1.00  0.00     0.064 C 
ATOM     10  O   UNL     1     -21.624 -14.593 -14.815  1.00  0.00    -0.545 OA
ATOM     11  O   UNL     1     -21.310 -14.682 -12.552  1.00  0.00    -0.545 OA
ENDBRANCH   8   9
ENDBRANCH   1   7
BRANCH   4  12
ATOM     12  O   UNL     1     -21.864 -22.485 -12.700  1.00  0.00    -0.504 OA
ATOM     13  H   UNL     1     -21.606 -23.117 -13.449  1.00  0.00     0.293 HD
ENDBRANCH   4  12
BRANCH   6  14
ATOM     14  O   UNL     1     -24.603 -22.688 -13.138  1.00  0.00    -0.504 OA
ATOM     15  H   UNL     1     -24.933 -23.102 -12.273  1.00  0.00     0.293 HD
ENDBRANCH   6  14
TORSDOF 4
ENDMDL
MODEL 7
REMARK VINA RESULT:    -4.572      1.711      2.468
REMARK INTER + INTRA:          -5.511
REMARK INTER:                  -5.379
REMARK INTRA:                  -0.132
REMARK UNBOUND:                -0.137
REMARK SMILES O=C([O-])C=Cc1ccc(O)c(O)c1
REMARK SMILES IDX 6 1 13 2 7 3 11 4 8 5 9 6 5 7 4 8 2 9 1 10 3 11 12 12 10 14
REMARK H PARENT 12 13 10 15
REMARK Flexibility Score: inf
ROOT
ATOM      1  C   UNL     1     -23.670 -20.585 -13.532  1.00  0.00    -0.022 A 
ATOM      2  C   UNL     1     -24.613 -21.215 -14.361  1.00  0.00     0.058 A 
ATOM      3  C   UNL     1     -22.731 -21.381 -12.845  1.00  0.00     0.012 A 
ATOM      4  C   UNL     1     -24.639 -22.612 -14.487  1.00  0.00     0.157 A 
ATOM      5  C   UNL     1     -22.757 -22.772 -12.970  1.00  0.00     0.051 A 
ATOM      6  C   UNL     1     -23.710 -23.391 -13.788  1.00  0.00     0.157 A 
ENDROOT
BRANCH   1   7
ATOM      7  C   UNL     1     -23.680 -19.105 -13.442  1.00  0.00     0.010 C 
ATOM      8  C   UNL     1     -22.636 -18.332 -13.770  1.00  0.00     0.025 C 
BRANCH   8   9
ATOM      9  C   UNL     1     -22.687 -16.865 -13.656  1.00  0.00     0.064 C 
ATOM     10  O   UNL     1     -23.622 -16.231 -14.209  1.00  0.00    -0.545 OA
ATOM     11  O   UNL     1     -21.717 -16.167 -12.944  1.00  0.00    -0.545 OA
ENDBRANCH   8   9
ENDBRANCH   1   7
BRANCH   4  12
ATOM     12  O   UNL     1     -25.583 -23.230 -15.304  1.00  0.00    -0.504 OA
ATOM     13  H   UNL     1     -26.534 -23.388 -14.991  1.00  0.00     0.293 HD
ENDBRANCH   4  12
BRANCH   6  14
ATOM     14  O   UNL     1     -23.739 -24.780 -13.913  1.00  0.00    -0.504 OA
ATOM     15  H   UNL     1     -24.422 -25.343 -13.418  1.00  0.00     0.293 HD
ENDBRANCH   6  14
TORSDOF 4
ENDMDL
MODEL 8
REMARK VINA RESULT:    -4.531      1.157      6.104
REMARK INTER + INTRA:          -5.464
REMARK INTER:                  -5.325
REMARK INTRA:                  -0.138
REMARK UNBOUND:                -0.137
REMARK SMILES O=C([O-])C=Cc1ccc(O)c(O)c1
REMARK SMILES IDX 6 1 13 2 7 3 11 4 8 5 9 6 5 7 4 8 2 9 1 10 3 11 12 12 10 14
REMARK H PARENT 12 13 10 15
REMARK Flexibility Score: inf
ROOT
ATOM      1  C   UNL     1     -22.681 -17.774 -13.396  1.00  0.00    -0.022 A 
ATOM      2  C   UNL     1     -21.545 -16.978 -13.170  1.00  0.00     0.058 A 
ATOM      3  C   UNL     1     -23.731 -17.254 -14.177  1.00  0.00     0.012 A 
ATOM      4  C   UNL     1     -21.465 -15.679 -13.692  1.00  0.00     0.157 A 
ATOM      5  C   UNL     1     -23.652 -15.959 -14.697  1.00  0.00     0.051 A 
ATOM      6  C   UNL     1     -22.522 -15.168 -14.455  1.00  0.00     0.157 A 
ENDROOT
BRANCH   1   7
ATOM      7  C   UNL     1     -22.710 -19.145 -12.829  1.00  0.00     0.010 C 
ATOM      8  C   UNL     1     -23.627 -20.066 -13.154  1.00  0.00     0.025 C 
BRANCH   8   9
ATOM      9  C   UNL     1     -23.624 -21.412 -12.559  1.00  0.00     0.064 C 
ATOM     10  O   UNL     1     -22.725 -22.231 -12.881  1.00  0.00    -0.545 OA
ATOM     11  O   UNL     1     -24.599 -21.794 -11.644  1.00  0.00    -0.545 OA
ENDBRANCH   8   9
ENDBRANCH   1   7
BRANCH   4  12
ATOM     12  O   UNL     1     -20.341 -14.891 -13.458  1.00  0.00    -0.504 OA
ATOM     13  H   UNL     1     -20.301 -14.240 -12.682  1.00  0.00     0.293 HD
ENDBRANCH   4  12
BRANCH   6  14
ATOM     14  O   UNL     1     -22.441 -13.875 -14.971  1.00  0.00    -0.504 OA
ATOM     15  H   UNL     1     -23.109 -13.534 -15.654  1.00  0.00     0.293 HD
ENDBRANCH   6  14
TORSDOF 4
ENDMDL
MODEL 9
REMARK VINA RESULT:    -3.980     12.818     13.993
REMARK INTER + INTRA:          -4.815
REMARK INTER:                  -4.676
REMARK INTRA:                  -0.139
REMARK UNBOUND:                -0.137
REMARK SMILES O=C([O-])C=Cc1ccc(O)c(O)c1
REMARK SMILES IDX 6 1 13 2 7 3 11 4 8 5 9 6 5 7 4 8 2 9 1 10 3 11 12 12 10 14
REMARK H PARENT 12 13 10 15
REMARK Flexibility Score: inf
ROOT
ATOM      1  C   UNL     1     -28.347 -30.619 -14.332  1.00  0.00    -0.022 A 
ATOM      2  C   UNL     1     -28.194 -31.507 -13.253  1.00  0.00     0.058 A 
ATOM      3  C   UNL     1     -28.745 -29.293 -14.069  1.00  0.00     0.012 A 
ATOM      4  C   UNL     1     -28.455 -31.091 -11.940  1.00  0.00     0.157 A 
ATOM      5  C   UNL     1     -29.006 -28.879 -12.760  1.00  0.00     0.051 A 
ATOM      6  C   UNL     1     -28.864 -29.775 -11.694  1.00  0.00     0.157 A 
ENDROOT
BRANCH   1   7
ATOM      7  C   UNL     1     -28.048 -31.107 -15.701  1.00  0.00     0.010 C 
ATOM      8  C   UNL     1     -27.877 -30.302 -16.758  1.00  0.00     0.025 C 
BRANCH   8   9
ATOM      9  C   UNL     1     -27.592 -30.831 -18.101  1.00  0.00     0.064 C 
ATOM     10  O   UNL     1     -28.345 -31.709 -18.596  1.00  0.00    -0.545 OA
ATOM     11  O   UNL     1     -26.502 -30.375 -18.835  1.00  0.00    -0.545 OA
ENDBRANCH   8   9
ENDBRANCH   1   7
BRANCH   4  12
ATOM     12  O   UNL     1     -28.309 -31.978 -10.876  1.00  0.00    -0.504 OA
ATOM     13  H   UNL     1     -27.733 -31.754 -10.072  1.00  0.00     0.293 HD
ENDBRANCH   4  12
BRANCH   6  14
ATOM     14  O   UNL     1     -29.125 -29.365 -10.387  1.00  0.00    -0.504 OA
ATOM     15  H   UNL     1     -29.833 -29.819  -9.820  1.00  0.00     0.293 HD
ENDBRANCH   6  14
TORSDOF 4
ENDMDL
