MODEL 1
REMARK VINA RESULT:    -3.019      0.000      0.000
REMARK INTER + INTRA:         -14.374
REMARK INTER:                  -7.961
REMARK INTRA:                  -6.413
REMARK UNBOUND:                -6.413
REMARK SMILES CCCCCCCCCCCCCCCCCCCCCCCCCCCCCC(=O)[O-]
REMARK SMILES IDX 16 1 17 2 18 3 19 4 20 5 21 6 22 7 23 8 24 9 25 10 26 11
REMARK SMILES IDX 27 12 28 13 29 14 30 15 31 16 32 17 15 18 14 19 13 20 12 21
REMARK SMILES IDX 11 22 10 23 9 24 8 25 7 26 6 27 5 28 4 29 3 30 2 31 1 32
REMARK H PARENT
REMARK Flexibility Score: inf
ROOT
ATOM      1  C   UNL     1     -99.302 150.038 233.317  1.00  0.00     0.000 C 
ENDROOT
BRANCH   1   2
ATOM      2  C   UNL     1     -98.700 149.083 232.267  1.00  0.00     0.000 C 
BRANCH   2   3
ATOM      3  C   UNL     1     -98.159 147.751 232.826  1.00  0.00     0.000 C 
BRANCH   3   4
ATOM      4  C   UNL     1     -96.623 147.658 232.918  1.00  0.00     0.000 C 
BRANCH   4   5
ATOM      5  C   UNL     1     -95.868 148.169 231.675  1.00  0.00     0.000 C 
BRANCH   5   6
ATOM      6  C   UNL     1     -95.028 149.443 231.897  1.00  0.00     0.000 C 
BRANCH   6   7
ATOM      7  C   UNL     1     -94.999 149.964 233.346  1.00  0.00     0.000 C 
BRANCH   7   8
ATOM      8  C   UNL     1     -95.336 151.460 233.447  1.00  0.00     0.000 C 
BRANCH   8   9
ATOM      9  C   UNL     1     -96.255 151.944 232.313  1.00  0.00     0.000 C 
BRANCH   9  10
ATOM     10  C   UNL     1     -97.298 152.988 232.762  1.00  0.00     0.000 C 
BRANCH  10  11
ATOM     11  C   UNL     1     -96.902 153.668 234.081  1.00  0.00     0.000 C 
BRANCH  11  12
ATOM     12  C   UNL     1     -98.140 154.063 234.894  1.00  0.00     0.000 C 
BRANCH  12  13
ATOM     13  C   UNL     1     -99.416 153.939 234.047  1.00  0.00     0.006 C 
BRANCH  13  14
ATOM     14  C   UNL     1    -100.570 153.292 234.825  1.00  0.00     0.053 C 
BRANCH  14  15
ATOM     15  C   UNL     1    -100.900 154.059 236.068  1.00  0.00     0.041 C 
ATOM     16  O   UNL     1    -101.019 153.462 237.170  1.00  0.00    -0.550 OA
ATOM     17  O   UNL     1    -101.063 155.438 236.013  1.00  0.00    -0.550 OA
ENDBRANCH  14  15
ENDBRANCH  13  14
ENDBRANCH  12  13
ENDBRANCH  11  12
ENDBRANCH  10  11
ENDBRANCH   9  10
ENDBRANCH   8   9
ENDBRANCH   7   8
ENDBRANCH   6   7
ENDBRANCH   5   6
ENDBRANCH   4   5
ENDBRANCH   3   4
ENDBRANCH   2   3
ENDBRANCH   1   2
BRANCH   1  18
ATOM     18  C   UNL     1    -100.044 149.298 234.442  1.00  0.00     0.000 C 
BRANCH  18  19
ATOM     19  C   UNL     1     -99.526 149.677 235.838  1.00  0.00     0.000 C 
BRANCH  19  20
ATOM     20  C   UNL     1     -98.252 150.538 235.790  1.00  0.00     0.000 C 
BRANCH  20  21
ATOM     21  C   UNL     1     -96.995 149.755 236.199  1.00  0.00     0.000 C 
BRANCH  21  22
ATOM     22  C   UNL     1     -97.321 148.349 236.729  1.00  0.00     0.000 C 
BRANCH  22  23
ATOM     23  C   UNL     1     -96.077 147.447 236.702  1.00  0.00     0.000 C 
BRANCH  23  24
ATOM     24  C   UNL     1     -94.767 148.237 236.523  1.00  0.00    -0.000 C 
BRANCH  24  25
ATOM     25  C   UNL     1     -93.963 148.466 237.815  1.00  0.00    -0.000 C 
BRANCH  25  26
ATOM     26  C   UNL     1     -94.330 147.482 238.934  1.00  0.00    -0.000 C 
BRANCH  26  27
ATOM     27  C   UNL     1     -95.079 148.197 240.069  1.00  0.00    -0.000 C 
BRANCH  27  28
ATOM     28  C   UNL     1     -95.104 149.724 239.887  1.00  0.00    -0.000 C 
BRANCH  28  29
ATOM     29  C   UNL     1     -96.455 150.338 240.294  1.00  0.00    -0.000 C 
BRANCH  29  30
ATOM     30  C   UNL     1     -97.557 149.282 240.495  1.00  0.00    -0.000 C 
BRANCH  30  31
ATOM     31  C   UNL     1     -98.982 149.759 240.164  1.00  0.00    -0.003 C 
ATOM     32  C   UNL     1     -99.006 150.998 239.268  1.00  0.00     0.004 C 
ENDBRANCH  30  31
ENDBRANCH  29  30
ENDBRANCH  28  29
ENDBRANCH  27  28
ENDBRANCH  26  27
ENDBRANCH  25  26
ENDBRANCH  24  25
ENDBRANCH  23  24
ENDBRANCH  22  23
ENDBRANCH  21  22
ENDBRANCH  20  21
ENDBRANCH  19  20
ENDBRANCH  18  19
ENDBRANCH   1  18
TORSDOF 28
ENDMDL
MODEL 2
REMARK VINA RESULT:    -2.982      2.396      6.901
REMARK INTER + INTRA:         -14.276
REMARK INTER:                  -8.563
REMARK INTRA:                  -5.713
REMARK UNBOUND:                -6.413
REMARK SMILES CCCCCCCCCCCCCCCCCCCCCCCCCCCCCC(=O)[O-]
REMARK SMILES IDX 16 1 17 2 18 3 19 4 20 5 21 6 22 7 23 8 24 9 25 10 26 11
REMARK SMILES IDX 27 12 28 13 29 14 30 15 31 16 32 17 15 18 14 19 13 20 12 21
REMARK SMILES IDX 11 22 10 23 9 24 8 25 7 26 6 27 5 28 4 29 3 30 2 31 1 32
REMARK H PARENT
REMARK Flexibility Score: inf
ROOT
ATOM      1  C   UNL     1     -99.813 149.209 236.194  1.00  0.00     0.000 C 
ENDROOT
BRANCH   1   2
ATOM      2  C   UNL     1     -98.724 150.081 236.849  1.00  0.00     0.000 C 
BRANCH   2   3
ATOM      3  C   UNL     1     -97.330 149.426 236.947  1.00  0.00     0.000 C 
BRANCH   3   4
ATOM      4  C   UNL     1     -97.312 147.898 236.742  1.00  0.00     0.000 C 
BRANCH   4   5
ATOM      5  C   UNL     1     -95.924 147.302 236.433  1.00  0.00     0.000 C 
BRANCH   5   6
ATOM      6  C   UNL     1     -94.750 148.299 236.516  1.00  0.00     0.000 C 
BRANCH   6   7
ATOM      7  C   UNL     1     -93.813 148.108 237.723  1.00  0.00     0.000 C 
BRANCH   7   8
ATOM      8  C   UNL     1     -94.253 148.919 238.952  1.00  0.00     0.000 C 
BRANCH   8   9
ATOM      9  C   UNL     1     -95.040 148.080 239.972  1.00  0.00     0.000 C 
BRANCH   9  10
ATOM     10  C   UNL     1     -96.361 148.735 240.427  1.00  0.00     0.000 C 
BRANCH  10  11
ATOM     11  C   UNL     1     -96.313 150.266 240.315  1.00  0.00     0.000 C 
BRANCH  11  12
ATOM     12  C   UNL     1     -97.723 150.867 240.329  1.00  0.00     0.000 C 
BRANCH  12  13
ATOM     13  C   UNL     1     -98.780 149.781 240.581  1.00  0.00     0.006 C 
BRANCH  13  14
ATOM     14  C   UNL     1     -99.643 150.084 241.814  1.00  0.00     0.053 C 
BRANCH  14  15
ATOM     15  C   UNL     1     -98.857 149.966 243.084  1.00  0.00     0.041 C 
ATOM     16  O   UNL     1     -98.756 150.951 243.861  1.00  0.00    -0.550 OA
ATOM     17  O   UNL     1     -98.249 148.762 243.416  1.00  0.00    -0.550 OA
ENDBRANCH  14  15
ENDBRANCH  13  14
ENDBRANCH  12  13
ENDBRANCH  11  12
ENDBRANCH  10  11
ENDBRANCH   9  10
ENDBRANCH   8   9
ENDBRANCH   7   8
ENDBRANCH   6   7
ENDBRANCH   5   6
ENDBRANCH   4   5
ENDBRANCH   3   4
ENDBRANCH   2   3
ENDBRANCH   1   2
BRANCH   1  18
ATOM     18  C   UNL     1    -100.094 149.599 234.734  1.00  0.00     0.000 C 
BRANCH  18  19
ATOM     19  C   UNL     1     -99.221 148.822 233.737  1.00  0.00     0.000 C 
BRANCH  19  20
ATOM     20  C   UNL     1     -98.117 149.689 233.107  1.00  0.00     0.000 C 
BRANCH  20  21
ATOM     21  C   UNL     1     -96.731 149.031 233.190  1.00  0.00     0.000 C 
BRANCH  21  22
ATOM     22  C   UNL     1     -95.596 150.058 233.331  1.00  0.00     0.000 C 
BRANCH  22  23
ATOM     23  C   UNL     1     -95.987 151.182 234.302  1.00  0.00     0.000 C 
BRANCH  23  24
ATOM     24  C   UNL     1     -96.042 152.566 233.628  1.00  0.00    -0.000 C 
BRANCH  24  25
ATOM     25  C   UNL     1     -97.013 153.568 234.277  1.00  0.00    -0.000 C 
BRANCH  25  26
ATOM     26  C   UNL     1     -98.331 152.922 234.728  1.00  0.00    -0.000 C 
BRANCH  26  27
ATOM     27  C   UNL     1     -99.414 153.988 234.956  1.00  0.00    -0.000 C 
BRANCH  27  28
ATOM     28  C   UNL     1    -100.318 154.180 233.727  1.00  0.00    -0.000 C 
BRANCH  28  29
ATOM     29  C   UNL     1    -100.001 155.477 232.965  1.00  0.00    -0.000 C 
BRANCH  29  30
ATOM     30  C   UNL     1     -99.130 155.242 231.716  1.00  0.00    -0.000 C 
BRANCH  30  31
ATOM     31  C   UNL     1     -99.146 153.802 231.175  1.00  0.00    -0.003 C 
ATOM     32  C   UNL     1     -97.818 153.385 230.544  1.00  0.00     0.004 C 
ENDBRANCH  30  31
ENDBRANCH  29  30
ENDBRANCH  28  29
ENDBRANCH  27  28
ENDBRANCH  26  27
ENDBRANCH  25  26
ENDBRANCH  24  25
ENDBRANCH  23  24
ENDBRANCH  22  23
ENDBRANCH  21  22
ENDBRANCH  20  21
ENDBRANCH  19  20
ENDBRANCH  18  19
ENDBRANCH   1  18
TORSDOF 28
ENDMDL
MODEL 3
REMARK VINA RESULT:    -2.964      2.094      6.073
REMARK INTER + INTRA:         -14.229
REMARK INTER:                  -7.636
REMARK INTRA:                  -6.593
REMARK UNBOUND:                -6.413
REMARK SMILES CCCCCCCCCCCCCCCCCCCCCCCCCCCCCC(=O)[O-]
REMARK SMILES IDX 16 1 17 2 18 3 19 4 20 5 21 6 22 7 23 8 24 9 25 10 26 11
REMARK SMILES IDX 27 12 28 13 29 14 30 15 31 16 32 17 15 18 14 19 13 20 12 21
REMARK SMILES IDX 11 22 10 23 9 24 8 25 7 26 6 27 5 28 4 29 3 30 2 31 1 32
REMARK H PARENT
REMARK Flexibility Score: inf
ROOT
ATOM      1  C   UNL     1     -99.929 149.050 236.137  1.00  0.00     0.000 C 
ENDROOT
BRANCH   1   2
ATOM      2  C   UNL     1     -98.991 150.046 236.846  1.00  0.00     0.000 C 
BRANCH   2   3
ATOM      3  C   UNL     1     -97.554 149.538 237.084  1.00  0.00     0.000 C 
BRANCH   3   4
ATOM      4  C   UNL     1     -97.382 148.008 237.009  1.00  0.00     0.000 C 
BRANCH   4   5
ATOM      5  C   UNL     1     -96.004 147.534 236.510  1.00  0.00     0.000 C 
BRANCH   5   6
ATOM      6  C   UNL     1     -94.868 148.570 236.640  1.00  0.00     0.000 C 
BRANCH   6   7
ATOM      7  C   UNL     1     -93.909 148.344 237.824  1.00  0.00     0.000 C 
BRANCH   7   8
ATOM      8  C   UNL     1     -94.352 149.081 239.098  1.00  0.00     0.000 C 
BRANCH   8   9
ATOM      9  C   UNL     1     -95.118 148.176 240.077  1.00  0.00     0.000 C 
BRANCH   9  10
ATOM     10  C   UNL     1     -96.411 148.811 240.627  1.00  0.00     0.000 C 
BRANCH  10  11
ATOM     11  C   UNL     1     -96.459 150.326 240.381  1.00  0.00     0.000 C 
BRANCH  11  12
ATOM     12  C   UNL     1     -97.904 150.839 240.361  1.00  0.00     0.000 C 
BRANCH  12  13
ATOM     13  C   UNL     1     -98.840 149.870 241.099  1.00  0.00     0.006 C 
BRANCH  13  14
ATOM     14  C   UNL     1    -100.199 149.728 240.399  1.00  0.00     0.053 C 
BRANCH  14  15
ATOM     15  C   UNL     1    -100.396 148.352 239.842  1.00  0.00     0.041 C 
ATOM     16  O   UNL     1     -99.477 147.495 239.926  1.00  0.00    -0.550 OA
ATOM     17  O   UNL     1    -101.601 148.010 239.242  1.00  0.00    -0.550 OA
ENDBRANCH  14  15
ENDBRANCH  13  14
ENDBRANCH  12  13
ENDBRANCH  11  12
ENDBRANCH  10  11
ENDBRANCH   9  10
ENDBRANCH   8   9
ENDBRANCH   7   8
ENDBRANCH   6   7
ENDBRANCH   5   6
ENDBRANCH   4   5
ENDBRANCH   3   4
ENDBRANCH   2   3
ENDBRANCH   1   2
BRANCH   1  18
ATOM     18  C   UNL     1    -100.167 149.401 234.659  1.00  0.00     0.000 C 
BRANCH  18  19
ATOM     19  C   UNL     1     -99.117 148.775 233.728  1.00  0.00     0.000 C 
BRANCH  19  20
ATOM     20  C   UNL     1     -98.110 149.805 233.186  1.00  0.00     0.000 C 
BRANCH  20  21
ATOM     21  C   UNL     1     -96.659 149.304 233.258  1.00  0.00     0.000 C 
BRANCH  21  22
ATOM     22  C   UNL     1     -95.663 150.427 233.591  1.00  0.00     0.000 C 
BRANCH  22  23
ATOM     23  C   UNL     1     -96.340 151.545 234.397  1.00  0.00     0.000 C 
BRANCH  23  24
ATOM     24  C   UNL     1     -96.438 152.871 233.620  1.00  0.00    -0.000 C 
BRANCH  24  25
ATOM     25  C   UNL     1     -97.352 153.933 234.256  1.00  0.00    -0.000 C 
BRANCH  25  26
ATOM     26  C   UNL     1     -98.454 153.328 235.136  1.00  0.00    -0.000 C 
BRANCH  26  27
ATOM     27  C   UNL     1     -99.768 153.190 234.351  1.00  0.00    -0.000 C 
BRANCH  27  28
ATOM     28  C   UNL     1    -100.976 152.935 235.267  1.00  0.00    -0.000 C 
BRANCH  28  29
ATOM     29  C   UNL     1    -100.649 153.184 236.749  1.00  0.00    -0.000 C 
BRANCH  29  30
ATOM     30  C   UNL     1    -101.695 152.581 237.704  1.00  0.00    -0.000 C 
BRANCH  30  31
ATOM     31  C   UNL     1    -102.907 151.931 237.014  1.00  0.00    -0.003 C 
ATOM     32  C   UNL     1    -103.155 150.493 237.468  1.00  0.00     0.004 C 
ENDBRANCH  30  31
ENDBRANCH  29  30
ENDBRANCH  28  29
ENDBRANCH  27  28
ENDBRANCH  26  27
ENDBRANCH  25  26
ENDBRANCH  24  25
ENDBRANCH  23  24
ENDBRANCH  22  23
ENDBRANCH  21  22
ENDBRANCH  20  21
ENDBRANCH  19  20
ENDBRANCH  18  19
ENDBRANCH   1  18
TORSDOF 28
ENDMDL
MODEL 4
REMARK VINA RESULT:    -2.945      2.818      7.039
REMARK INTER + INTRA:         -14.179
REMARK INTER:                  -9.375
REMARK INTRA:                  -4.804
REMARK UNBOUND:                -6.413
REMARK SMILES CCCCCCCCCCCCCCCCCCCCCCCCCCCCCC(=O)[O-]
REMARK SMILES IDX 16 1 17 2 18 3 19 4 20 5 21 6 22 7 23 8 24 9 25 10 26 11
REMARK SMILES IDX 27 12 28 13 29 14 30 15 31 16 32 17 15 18 14 19 13 20 12 21
REMARK SMILES IDX 11 22 10 23 9 24 8 25 7 26 6 27 5 28 4 29 3 30 2 31 1 32
REMARK H PARENT
REMARK Flexibility Score: inf
ROOT
ATOM      1  C   UNL     1     -95.776 148.221 239.820  1.00  0.00     0.000 C 
ENDROOT
BRANCH   1   2
ATOM      2  C   UNL     1     -97.132 147.498 239.711  1.00  0.00     0.000 C 
BRANCH   2   3
ATOM      3  C   UNL     1     -97.463 146.931 238.315  1.00  0.00     0.000 C 
BRANCH   3   4
ATOM      4  C   UNL     1     -98.669 147.586 237.614  1.00  0.00     0.000 C 
BRANCH   4   5
ATOM      5  C   UNL     1     -98.323 148.383 236.340  1.00  0.00     0.000 C 
BRANCH   5   6
ATOM      6  C   UNL     1     -98.348 149.917 236.501  1.00  0.00     0.000 C 
BRANCH   6   7
ATOM      7  C   UNL     1     -99.745 150.561 236.421  1.00  0.00     0.000 C 
BRANCH   7   8
ATOM      8  C   UNL     1    -100.133 151.302 237.710  1.00  0.00     0.000 C 
BRANCH   8   9
ATOM      9  C   UNL     1     -99.081 151.159 238.822  1.00  0.00     0.000 C 
BRANCH   9  10
ATOM     10  C   UNL     1     -99.657 150.649 240.160  1.00  0.00     0.000 C 
BRANCH  10  11
ATOM     11  C   UNL     1     -98.566 150.465 241.224  1.00  0.00     0.000 C 
BRANCH  11  12
ATOM     12  C   UNL     1     -98.986 149.431 242.276  1.00  0.00     0.000 C 
BRANCH  12  13
ATOM     13  C   UNL     1     -98.546 149.869 243.682  1.00  0.00     0.006 C 
BRANCH  13  14
ATOM     14  C   UNL     1     -99.643 150.653 244.415  1.00  0.00     0.053 C 
BRANCH  14  15
ATOM     15  C   UNL     1     -99.144 151.977 244.908  1.00  0.00     0.041 C 
ATOM     16  O   UNL     1     -99.706 153.042 244.544  1.00  0.00    -0.550 OA
ATOM     17  O   UNL     1     -98.066 152.033 245.783  1.00  0.00    -0.550 OA
ENDBRANCH  14  15
ENDBRANCH  13  14
ENDBRANCH  12  13
ENDBRANCH  11  12
ENDBRANCH  10  11
ENDBRANCH   9  10
ENDBRANCH   8   9
ENDBRANCH   7   8
ENDBRANCH   6   7
ENDBRANCH   5   6
ENDBRANCH   4   5
ENDBRANCH   3   4
ENDBRANCH   2   3
ENDBRANCH   1   2
BRANCH   1  18
ATOM     18  C   UNL     1     -95.688 149.467 238.923  1.00  0.00     0.000 C 
BRANCH  18  19
ATOM     19  C   UNL     1     -94.707 149.284 237.754  1.00  0.00     0.000 C 
BRANCH  19  20
ATOM     20  C   UNL     1     -93.754 148.093 237.955  1.00  0.00     0.000 C 
BRANCH  20  21
ATOM     21  C   UNL     1     -93.645 147.208 236.704  1.00  0.00     0.000 C 
BRANCH  21  22
ATOM     22  C   UNL     1     -94.837 147.382 235.750  1.00  0.00     0.000 C 
BRANCH  22  23
ATOM     23  C   UNL     1     -94.374 147.412 234.286  1.00  0.00     0.000 C 
BRANCH  23  24
ATOM     24  C   UNL     1     -94.438 148.819 233.664  1.00  0.00    -0.000 C 
BRANCH  24  25
ATOM     25  C   UNL     1     -95.782 149.548 233.840  1.00  0.00    -0.000 C 
BRANCH  25  26
ATOM     26  C   UNL     1     -95.628 150.958 234.425  1.00  0.00    -0.000 C 
BRANCH  26  27
ATOM     27  C   UNL     1     -95.638 152.018 233.313  1.00  0.00    -0.000 C 
BRANCH  27  28
ATOM     28  C   UNL     1     -97.030 152.638 233.103  1.00  0.00    -0.000 C 
BRANCH  28  29
ATOM     29  C   UNL     1     -97.666 153.103 234.424  1.00  0.00    -0.000 C 
BRANCH  29  30
ATOM     30  C   UNL     1     -97.418 154.594 234.718  1.00  0.00    -0.000 C 
BRANCH  30  31
ATOM     31  C   UNL     1     -98.604 155.524 234.405  1.00  0.00    -0.003 C 
ATOM     32  C   UNL     1     -98.628 155.996 232.952  1.00  0.00     0.004 C 
ENDBRANCH  30  31
ENDBRANCH  29  30
ENDBRANCH  28  29
ENDBRANCH  27  28
ENDBRANCH  26  27
ENDBRANCH  25  26
ENDBRANCH  24  25
ENDBRANCH  23  24
ENDBRANCH  22  23
ENDBRANCH  21  22
ENDBRANCH  20  21
ENDBRANCH  19  20
ENDBRANCH  18  19
ENDBRANCH   1  18
TORSDOF 28
ENDMDL
MODEL 5
REMARK VINA RESULT:    -2.921      3.047      6.821
REMARK INTER + INTRA:         -14.114
REMARK INTER:                  -8.973
REMARK INTRA:                  -5.141
REMARK UNBOUND:                -6.413
REMARK SMILES CCCCCCCCCCCCCCCCCCCCCCCCCCCCCC(=O)[O-]
REMARK SMILES IDX 16 1 17 2 18 3 19 4 20 5 21 6 22 7 23 8 24 9 25 10 26 11
REMARK SMILES IDX 27 12 28 13 29 14 30 15 31 16 32 17 15 18 14 19 13 20 12 21
REMARK SMILES IDX 11 22 10 23 9 24 8 25 7 26 6 27 5 28 4 29 3 30 2 31 1 32
REMARK H PARENT
REMARK Flexibility Score: inf
ROOT
ATOM      1  C   UNL     1     -96.842 149.500 236.669  1.00  0.00     0.000 C 
ENDROOT
BRANCH   1   2
ATOM      2  C   UNL     1     -95.320 149.430 236.439  1.00  0.00     0.000 C 
BRANCH   2   3
ATOM      3  C   UNL     1     -94.813 148.121 235.797  1.00  0.00     0.000 C 
BRANCH   3   4
ATOM      4  C   UNL     1     -93.788 147.337 236.639  1.00  0.00     0.000 C 
BRANCH   4   5
ATOM      5  C   UNL     1     -93.617 147.841 238.086  1.00  0.00     0.000 C 
BRANCH   5   6
ATOM      6  C   UNL     1     -94.370 147.026 239.156  1.00  0.00     0.000 C 
BRANCH   6   7
ATOM      7  C   UNL     1     -95.069 147.862 240.244  1.00  0.00     0.000 C 
BRANCH   7   8
ATOM      8  C   UNL     1     -95.027 149.371 239.953  1.00  0.00     0.000 C 
BRANCH   8   9
ATOM      9  C   UNL     1     -96.354 150.078 240.276  1.00  0.00     0.000 C 
BRANCH   9  10
ATOM     10  C   UNL     1     -97.579 149.140 240.253  1.00  0.00     0.000 C 
BRANCH  10  11
ATOM     11  C   UNL     1     -98.276 149.070 241.619  1.00  0.00     0.000 C 
BRANCH  11  12
ATOM     12  C   UNL     1     -98.371 150.457 242.265  1.00  0.00     0.000 C 
BRANCH  12  13
ATOM     13  C   UNL     1     -99.387 150.457 243.418  1.00  0.00     0.006 C 
BRANCH  13  14
ATOM     14  C   UNL     1     -99.194 151.652 244.362  1.00  0.00     0.053 C 
BRANCH  14  15
ATOM     15  C   UNL     1     -99.657 151.342 245.752  1.00  0.00     0.041 C 
ATOM     16  O   UNL     1     -99.812 152.268 246.591  1.00  0.00    -0.550 OA
ATOM     17  O   UNL     1     -99.931 150.031 246.118  1.00  0.00    -0.550 OA
ENDBRANCH  14  15
ENDBRANCH  13  14
ENDBRANCH  12  13
ENDBRANCH  11  12
ENDBRANCH  10  11
ENDBRANCH   9  10
ENDBRANCH   8   9
ENDBRANCH   7   8
ENDBRANCH   6   7
ENDBRANCH   5   6
ENDBRANCH   4   5
ENDBRANCH   3   4
ENDBRANCH   2   3
ENDBRANCH   1   2
BRANCH   1  18
ATOM     18  C   UNL     1     -97.536 148.138 236.502  1.00  0.00     0.000 C 
BRANCH  18  19
ATOM     19  C   UNL     1     -98.680 148.179 235.477  1.00  0.00     0.000 C 
BRANCH  19  20
ATOM     20  C   UNL     1     -98.462 149.238 234.382  1.00  0.00     0.000 C 
BRANCH  20  21
ATOM     21  C   UNL     1     -97.495 148.762 233.286  1.00  0.00     0.000 C 
BRANCH  21  22
ATOM     22  C   UNL     1     -96.949 149.920 232.436  1.00  0.00     0.000 C 
BRANCH  22  23
ATOM     23  C   UNL     1     -95.938 150.760 233.231  1.00  0.00     0.000 C 
BRANCH  23  24
ATOM     24  C   UNL     1     -96.060 152.270 232.951  1.00  0.00    -0.000 C 
BRANCH  24  25
ATOM     25  C   UNL     1     -97.456 152.868 233.196  1.00  0.00    -0.000 C 
BRANCH  25  26
ATOM     26  C   UNL     1     -97.922 152.729 234.653  1.00  0.00    -0.000 C 
BRANCH  26  27
ATOM     27  C   UNL     1     -99.225 153.508 234.888  1.00  0.00    -0.000 C 
BRANCH  27  28
ATOM     28  C   UNL     1     -99.860 153.195 236.252  1.00  0.00    -0.000 C 
BRANCH  28  29
ATOM     29  C   UNL     1     -99.760 151.703 236.614  1.00  0.00    -0.000 C 
BRANCH  29  30
ATOM     30  C   UNL     1     -99.606 151.461 238.127  1.00  0.00    -0.000 C 
BRANCH  30  31
ATOM     31  C   UNL     1    -100.803 150.768 238.799  1.00  0.00    -0.003 C 
ATOM     32  C   UNL     1    -100.776 149.247 238.650  1.00  0.00     0.004 C 
ENDBRANCH  30  31
ENDBRANCH  29  30
ENDBRANCH  28  29
ENDBRANCH  27  28
ENDBRANCH  26  27
ENDBRANCH  25  26
ENDBRANCH  24  25
ENDBRANCH  23  24
ENDBRANCH  22  23
ENDBRANCH  21  22
ENDBRANCH  20  21
ENDBRANCH  19  20
ENDBRANCH  18  19
ENDBRANCH   1  18
TORSDOF 28
ENDMDL
MODEL 6
REMARK VINA RESULT:    -2.904      2.804      7.367
REMARK INTER + INTRA:         -14.071
REMARK INTER:                  -8.665
REMARK INTRA:                  -5.405
REMARK UNBOUND:                -6.413
REMARK SMILES CCCCCCCCCCCCCCCCCCCCCCCCCCCCCC(=O)[O-]
REMARK SMILES IDX 16 1 17 2 18 3 19 4 20 5 21 6 22 7 23 8 24 9 25 10 26 11
REMARK SMILES IDX 27 12 28 13 29 14 30 15 31 16 32 17 15 18 14 19 13 20 12 21
REMARK SMILES IDX 11 22 10 23 9 24 8 25 7 26 6 27 5 28 4 29 3 30 2 31 1 32
REMARK H PARENT
REMARK Flexibility Score: inf
ROOT
ATOM      1  C   UNL     1     -95.547 149.632 236.617  1.00  0.00     0.000 C 
ENDROOT
BRANCH   1   2
ATOM      2  C   UNL     1     -94.643 148.393 236.471  1.00  0.00     0.000 C 
BRANCH   2   3
ATOM      3  C   UNL     1     -93.814 148.035 237.722  1.00  0.00     0.000 C 
BRANCH   3   4
ATOM      4  C   UNL     1     -94.235 148.765 239.013  1.00  0.00     0.000 C 
BRANCH   4   5
ATOM      5  C   UNL     1     -95.114 147.937 239.970  1.00  0.00     0.000 C 
BRANCH   5   6
ATOM      6  C   UNL     1     -96.311 148.693 240.580  1.00  0.00     0.000 C 
BRANCH   6   7
ATOM      7  C   UNL     1     -96.388 150.190 240.227  1.00  0.00     0.000 C 
BRANCH   7   8
ATOM      8  C   UNL     1     -97.752 150.812 240.566  1.00  0.00     0.000 C 
BRANCH   8   9
ATOM      9  C   UNL     1     -98.726 150.800 239.376  1.00  0.00     0.000 C 
BRANCH   9  10
ATOM     10  C   UNL     1    -100.121 150.239 239.722  1.00  0.00     0.000 C 
BRANCH  10  11
ATOM     11  C   UNL     1    -100.034 148.922 240.506  1.00  0.00     0.000 C 
BRANCH  11  12
ATOM     12  C   UNL     1    -100.972 148.936 241.719  1.00  0.00     0.000 C 
BRANCH  12  13
ATOM     13  C   UNL     1    -101.232 150.374 242.194  1.00  0.00     0.006 C 
BRANCH  13  14
ATOM     14  C   UNL     1    -101.173 150.500 243.722  1.00  0.00     0.053 C 
BRANCH  14  15
ATOM     15  C   UNL     1     -99.941 151.222 244.173  1.00  0.00     0.041 C 
ATOM     16  O   UNL     1    -100.036 152.286 244.838  1.00  0.00    -0.550 OA
ATOM     17  O   UNL     1     -98.685 150.711 243.870  1.00  0.00    -0.550 OA
ENDBRANCH  14  15
ENDBRANCH  13  14
ENDBRANCH  12  13
ENDBRANCH  11  12
ENDBRANCH  10  11
ENDBRANCH   9  10
ENDBRANCH   8   9
ENDBRANCH   7   8
ENDBRANCH   6   7
ENDBRANCH   5   6
ENDBRANCH   4   5
ENDBRANCH   3   4
ENDBRANCH   2   3
ENDBRANCH   1   2
BRANCH   1  18
ATOM     18  C   UNL     1     -97.036 149.314 236.401  1.00  0.00     0.000 C 
BRANCH  18  19
ATOM     19  C   UNL     1     -97.464 148.005 237.081  1.00  0.00     0.000 C 
BRANCH  19  20
ATOM     20  C   UNL     1     -98.992 147.834 237.140  1.00  0.00     0.000 C 
BRANCH  20  21
ATOM     21  C   UNL     1     -99.708 148.522 235.967  1.00  0.00     0.000 C 
BRANCH  21  22
ATOM     22  C   UNL     1    -101.093 149.063 236.355  1.00  0.00     0.000 C 
BRANCH  22  23
ATOM     23  C   UNL     1    -101.333 150.454 235.750  1.00  0.00     0.000 C 
BRANCH  23  24
ATOM     24  C   UNL     1    -100.028 151.167 235.349  1.00  0.00    -0.000 C 
BRANCH  24  25
ATOM     25  C   UNL     1     -99.592 152.306 236.289  1.00  0.00    -0.000 C 
BRANCH  25  26
ATOM     26  C   UNL     1    -100.415 153.588 236.101  1.00  0.00    -0.000 C 
BRANCH  26  27
ATOM     27  C   UNL     1    -100.252 154.139 234.675  1.00  0.00    -0.000 C 
BRANCH  27  28
ATOM     28  C   UNL     1     -99.054 155.093 234.547  1.00  0.00    -0.000 C 
BRANCH  28  29
ATOM     29  C   UNL     1     -98.217 154.812 233.287  1.00  0.00    -0.000 C 
BRANCH  29  30
ATOM     30  C   UNL     1     -97.777 153.340 233.175  1.00  0.00    -0.000 C 
BRANCH  30  31
ATOM     31  C   UNL     1     -96.610 152.939 234.093  1.00  0.00    -0.003 C 
ATOM     32  C   UNL     1     -95.707 151.868 233.481  1.00  0.00     0.004 C 
ENDBRANCH  30  31
ENDBRANCH  29  30
ENDBRANCH  28  29
ENDBRANCH  27  28
ENDBRANCH  26  27
ENDBRANCH  25  26
ENDBRANCH  24  25
ENDBRANCH  23  24
ENDBRANCH  22  23
ENDBRANCH  21  22
ENDBRANCH  20  21
ENDBRANCH  19  20
ENDBRANCH  18  19
ENDBRANCH   1  18
TORSDOF 28
ENDMDL
MODEL 7
REMARK VINA RESULT:    -2.898      3.290      7.931
REMARK INTER + INTRA:         -14.055
REMARK INTER:                  -8.641
REMARK INTRA:                  -5.414
REMARK UNBOUND:                -6.413
REMARK SMILES CCCCCCCCCCCCCCCCCCCCCCCCCCCCCC(=O)[O-]
REMARK SMILES IDX 16 1 17 2 18 3 19 4 20 5 21 6 22 7 23 8 24 9 25 10 26 11
REMARK SMILES IDX 27 12 28 13 29 14 30 15 31 16 32 17 15 18 14 19 13 20 12 21
REMARK SMILES IDX 11 22 10 23 9 24 8 25 7 26 6 27 5 28 4 29 3 30 2 31 1 32
REMARK H PARENT
REMARK Flexibility Score: inf
ROOT
ATOM      1  C   UNL     1     -95.817 149.820 239.785  1.00  0.00     0.000 C 
ENDROOT
BRANCH   1   2
ATOM      2  C   UNL     1     -96.866 150.581 240.619  1.00  0.00     0.000 C 
BRANCH   2   3
ATOM      3  C   UNL     1     -98.203 150.856 239.899  1.00  0.00     0.000 C 
BRANCH   3   4
ATOM      4  C   UNL     1     -98.396 150.096 238.572  1.00  0.00     0.000 C 
BRANCH   4   5
ATOM      5  C   UNL     1     -99.491 149.012 238.600  1.00  0.00     0.000 C 
BRANCH   5   6
ATOM      6  C   UNL     1    -100.832 149.450 239.224  1.00  0.00     0.000 C 
BRANCH   6   7
ATOM      7  C   UNL     1    -101.486 148.418 240.161  1.00  0.00     0.000 C 
BRANCH   7   8
ATOM      8  C   UNL     1    -100.625 147.158 240.352  1.00  0.00     0.000 C 
BRANCH   8   9
ATOM      9  C   UNL     1    -100.134 146.984 241.798  1.00  0.00     0.000 C 
BRANCH   9  10
ATOM     10  C   UNL     1     -98.601 147.073 241.948  1.00  0.00     0.000 C 
BRANCH  10  11
ATOM     11  C   UNL     1     -98.180 148.197 242.905  1.00  0.00     0.000 C 
BRANCH  11  12
ATOM     12  C   UNL     1     -99.329 149.183 243.142  1.00  0.00     0.000 C 
BRANCH  12  13
ATOM     13  C   UNL     1     -98.793 150.556 243.579  1.00  0.00     0.006 C 
BRANCH  13  14
ATOM     14  C   UNL     1     -99.787 151.310 244.471  1.00  0.00     0.053 C 
BRANCH  14  15
ATOM     15  C   UNL     1     -99.213 151.594 245.826  1.00  0.00     0.041 C 
ATOM     16  O   UNL     1     -98.381 152.525 245.980  1.00  0.00    -0.550 OA
ATOM     17  O   UNL     1     -99.610 150.838 246.922  1.00  0.00    -0.550 OA
ENDBRANCH  14  15
ENDBRANCH  13  14
ENDBRANCH  12  13
ENDBRANCH  11  12
ENDBRANCH  10  11
ENDBRANCH   9  10
ENDBRANCH   8   9
ENDBRANCH   7   8
ENDBRANCH   6   7
ENDBRANCH   5   6
ENDBRANCH   4   5
ENDBRANCH   3   4
ENDBRANCH   2   3
ENDBRANCH   1   2
BRANCH   1  18
ATOM     18  C   UNL     1     -95.504 148.423 240.347  1.00  0.00     0.000 C 
BRANCH  18  19
ATOM     19  C   UNL     1     -95.151 147.411 239.247  1.00  0.00     0.000 C 
BRANCH  19  20
ATOM     20  C   UNL     1     -96.373 146.976 238.420  1.00  0.00     0.000 C 
BRANCH  20  21
ATOM     21  C   UNL     1     -96.217 147.296 236.926  1.00  0.00     0.000 C 
BRANCH  21  22
ATOM     22  C   UNL     1     -95.003 148.194 236.636  1.00  0.00     0.000 C 
BRANCH  22  23
ATOM     23  C   UNL     1     -95.444 149.558 236.085  1.00  0.00     0.000 C 
BRANCH  23  24
ATOM     24  C   UNL     1     -96.863 149.534 235.487  1.00  0.00    -0.000 C 
BRANCH  24  25
ATOM     25  C   UNL     1     -96.991 150.158 234.086  1.00  0.00    -0.000 C 
BRANCH  25  26
ATOM     26  C   UNL     1     -95.707 150.860 233.622  1.00  0.00    -0.000 C 
BRANCH  26  27
ATOM     27  C   UNL     1     -95.991 152.318 233.229  1.00  0.00    -0.000 C 
BRANCH  27  28
ATOM     28  C   UNL     1     -96.657 153.114 234.364  1.00  0.00    -0.000 C 
BRANCH  28  29
ATOM     29  C   UNL     1     -97.952 153.808 233.907  1.00  0.00    -0.000 C 
BRANCH  29  30
ATOM     30  C   UNL     1     -99.219 153.163 234.497  1.00  0.00    -0.000 C 
BRANCH  30  31
ATOM     31  C   UNL     1     -99.069 152.631 235.933  1.00  0.00    -0.003 C 
ATOM     32  C   UNL     1    -100.335 152.804 236.772  1.00  0.00     0.004 C 
ENDBRANCH  30  31
ENDBRANCH  29  30
ENDBRANCH  28  29
ENDBRANCH  27  28
ENDBRANCH  26  27
ENDBRANCH  25  26
ENDBRANCH  24  25
ENDBRANCH  23  24
ENDBRANCH  22  23
ENDBRANCH  21  22
ENDBRANCH  20  21
ENDBRANCH  19  20
ENDBRANCH  18  19
ENDBRANCH   1  18
TORSDOF 28
ENDMDL
MODEL 8
REMARK VINA RESULT:    -2.836      1.605      4.487
REMARK INTER + INTRA:         -13.891
REMARK INTER:                  -7.809
REMARK INTRA:                  -6.082
REMARK UNBOUND:                -6.413
REMARK SMILES CCCCCCCCCCCCCCCCCCCCCCCCCCCCCC(=O)[O-]
REMARK SMILES IDX 16 1 17 2 18 3 19 4 20 5 21 6 22 7 23 8 24 9 25 10 26 11
REMARK SMILES IDX 27 12 28 13 29 14 30 15 31 16 32 17 15 18 14 19 13 20 12 21
REMARK SMILES IDX 11 22 10 23 9 24 8 25 7 26 6 27 5 28 4 29 3 30 2 31 1 32
REMARK H PARENT
REMARK Flexibility Score: inf
ROOT
ATOM      1  C   UNL     1     -95.934 151.174 234.687  1.00  0.00     0.000 C 
ENDROOT
BRANCH   1   2
ATOM      2  C   UNL     1     -95.893 152.304 233.640  1.00  0.00     0.000 C 
BRANCH   2   3
ATOM      3  C   UNL     1     -96.270 151.882 232.204  1.00  0.00     0.000 C 
BRANCH   3   4
ATOM      4  C   UNL     1     -97.293 152.797 231.503  1.00  0.00     0.000 C 
BRANCH   4   5
ATOM      5  C   UNL     1     -98.762 152.348 231.633  1.00  0.00     0.000 C 
BRANCH   5   6
ATOM      6  C   UNL     1     -99.591 153.115 232.683  1.00  0.00     0.000 C 
BRANCH   6   7
ATOM      7  C   UNL     1     -98.930 154.393 233.232  1.00  0.00     0.000 C 
BRANCH   7   8
ATOM      8  C   UNL     1     -98.674 154.326 234.746  1.00  0.00     0.000 C 
BRANCH   8   9
ATOM      9  C   UNL     1     -99.140 153.002 235.374  1.00  0.00     0.000 C 
BRANCH   9  10
ATOM     10  C   UNL     1    -100.289 153.169 236.390  1.00  0.00     0.000 C 
BRANCH  10  11
ATOM     11  C   UNL     1    -101.396 152.124 236.185  1.00  0.00     0.000 C 
BRANCH  11  12
ATOM     12  C   UNL     1    -102.395 152.578 235.115  1.00  0.00     0.000 C 
BRANCH  12  13
ATOM     13  C   UNL     1    -102.817 154.038 235.344  1.00  0.00     0.006 C 
BRANCH  13  14
ATOM     14  C   UNL     1    -102.547 154.920 234.117  1.00  0.00     0.053 C 
BRANCH  14  15
ATOM     15  C   UNL     1    -101.915 156.223 234.497  1.00  0.00     0.041 C 
ATOM     16  O   UNL     1    -101.445 156.387 235.654  1.00  0.00    -0.550 OA
ATOM     17  O   UNL     1    -101.831 157.253 233.569  1.00  0.00    -0.550 OA
ENDBRANCH  14  15
ENDBRANCH  13  14
ENDBRANCH  12  13
ENDBRANCH  11  12
ENDBRANCH  10  11
ENDBRANCH   9  10
ENDBRANCH   8   9
ENDBRANCH   7   8
ENDBRANCH   6   7
ENDBRANCH   5   6
ENDBRANCH   4   5
ENDBRANCH   3   4
ENDBRANCH   2   3
ENDBRANCH   1   2
BRANCH   1  18
ATOM     18  C   UNL     1     -95.618 149.793 234.089  1.00  0.00     0.000 C 
BRANCH  18  19
ATOM     19  C   UNL     1     -95.393 148.722 235.167  1.00  0.00     0.000 C 
BRANCH  19  20
ATOM     20  C   UNL     1     -95.096 149.321 236.552  1.00  0.00     0.000 C 
BRANCH  20  21
ATOM     21  C   UNL     1     -94.482 148.296 237.519  1.00  0.00     0.000 C 
BRANCH  21  22
ATOM     22  C   UNL     1     -94.112 148.912 238.878  1.00  0.00     0.000 C 
BRANCH  22  23
ATOM     23  C   UNL     1     -95.242 148.715 239.900  1.00  0.00     0.000 C 
BRANCH  23  24
ATOM     24  C   UNL     1     -95.975 150.025 240.245  1.00  0.00    -0.000 C 
BRANCH  24  25
ATOM     25  C   UNL     1     -97.481 149.874 240.526  1.00  0.00    -0.000 C 
BRANCH  25  26
ATOM     26  C   UNL     1     -98.317 151.026 239.953  1.00  0.00    -0.000 C 
BRANCH  26  27
ATOM     27  C   UNL     1     -99.250 150.525 238.840  1.00  0.00    -0.000 C 
BRANCH  27  28
ATOM     28  C   UNL     1     -98.487 150.140 237.562  1.00  0.00    -0.000 C 
BRANCH  28  29
ATOM     29  C   UNL     1     -98.673 148.658 237.195  1.00  0.00    -0.000 C 
BRANCH  29  30
ATOM     30  C   UNL     1     -99.528 148.456 235.930  1.00  0.00    -0.000 C 
BRANCH  30  31
ATOM     31  C   UNL     1     -99.163 149.368 234.746  1.00  0.00    -0.003 C 
ATOM     32  C   UNL     1    -100.339 149.626 233.804  1.00  0.00     0.004 C 
ENDBRANCH  30  31
ENDBRANCH  29  30
ENDBRANCH  28  29
ENDBRANCH  27  28
ENDBRANCH  26  27
ENDBRANCH  25  26
ENDBRANCH  24  25
ENDBRANCH  23  24
ENDBRANCH  22  23
ENDBRANCH  21  22
ENDBRANCH  20  21
ENDBRANCH  19  20
ENDBRANCH  18  19
ENDBRANCH   1  18
TORSDOF 28
ENDMDL
MODEL 9
REMARK VINA RESULT:    -2.790      1.582      5.126
REMARK INTER + INTRA:         -13.769
REMARK INTER:                  -8.116
REMARK INTRA:                  -5.653
REMARK UNBOUND:                -6.413
REMARK SMILES CCCCCCCCCCCCCCCCCCCCCCCCCCCCCC(=O)[O-]
REMARK SMILES IDX 16 1 17 2 18 3 19 4 20 5 21 6 22 7 23 8 24 9 25 10 26 11
REMARK SMILES IDX 27 12 28 13 29 14 30 15 31 16 32 17 15 18 14 19 13 20 12 21
REMARK SMILES IDX 11 22 10 23 9 24 8 25 7 26 6 27 5 28 4 29 3 30 2 31 1 32
REMARK H PARENT
REMARK Flexibility Score: inf
ROOT
ATOM      1  C   UNL     1     -94.807 149.233 239.637  1.00  0.00     0.000 C 
ENDROOT
BRANCH   1   2
ATOM      2  C   UNL     1     -94.659 148.879 238.145  1.00  0.00     0.000 C 
BRANCH   2   3
ATOM      3  C   UNL     1     -95.631 147.799 237.627  1.00  0.00     0.000 C 
BRANCH   3   4
ATOM      4  C   UNL     1     -96.373 148.161 236.324  1.00  0.00     0.000 C 
BRANCH   4   5
ATOM      5  C   UNL     1     -96.059 149.563 235.768  1.00  0.00     0.000 C 
BRANCH   5   6
ATOM      6  C   UNL     1     -95.361 149.581 234.393  1.00  0.00     0.000 C 
BRANCH   6   7
ATOM      7  C   UNL     1     -95.471 150.909 233.621  1.00  0.00     0.000 C 
BRANCH   7   8
ATOM      8  C   UNL     1     -96.547 150.872 232.524  1.00  0.00     0.000 C 
BRANCH   8   9
ATOM      9  C   UNL     1     -96.132 151.632 231.253  1.00  0.00     0.000 C 
BRANCH   9  10
ATOM     10  C   UNL     1     -96.957 152.910 230.998  1.00  0.00     0.000 C 
BRANCH  10  11
ATOM     11  C   UNL     1     -98.190 152.992 231.910  1.00  0.00     0.000 C 
BRANCH  11  12
ATOM     12  C   UNL     1     -98.381 154.412 232.456  1.00  0.00     0.000 C 
BRANCH  12  13
ATOM     13  C   UNL     1     -97.846 154.524 233.892  1.00  0.00     0.006 C 
BRANCH  13  14
ATOM     14  C   UNL     1     -98.005 155.940 234.463  1.00  0.00     0.053 C 
BRANCH  14  15
ATOM     15  C   UNL     1     -99.434 156.390 234.440  1.00  0.00     0.041 C 
ATOM     16  O   UNL     1    -100.283 155.847 235.194  1.00  0.00    -0.550 OA
ATOM     17  O   UNL     1     -99.825 157.421 233.595  1.00  0.00    -0.550 OA
ENDBRANCH  14  15
ENDBRANCH  13  14
ENDBRANCH  12  13
ENDBRANCH  11  12
ENDBRANCH  10  11
ENDBRANCH   9  10
ENDBRANCH   8   9
ENDBRANCH   7   8
ENDBRANCH   6   7
ENDBRANCH   5   6
ENDBRANCH   4   5
ENDBRANCH   3   4
ENDBRANCH   2   3
ENDBRANCH   1   2
BRANCH   1  18
ATOM     18  C   UNL     1     -95.845 148.358 240.359  1.00  0.00     0.000 C 
BRANCH  18  19
ATOM     19  C   UNL     1     -96.986 149.182 240.974  1.00  0.00     0.000 C 
BRANCH  19  20
ATOM     20  C   UNL     1     -97.076 150.604 240.394  1.00  0.00     0.000 C 
BRANCH  20  21
ATOM     21  C   UNL     1     -98.438 150.890 239.742  1.00  0.00     0.000 C 
BRANCH  21  22
ATOM     22  C   UNL     1     -98.729 149.964 238.551  1.00  0.00     0.000 C 
BRANCH  22  23
ATOM     23  C   UNL     1    -100.009 149.147 238.786  1.00  0.00     0.000 C 
BRANCH  23  24
ATOM     24  C   UNL     1    -101.265 150.027 238.926  1.00  0.00    -0.000 C 
BRANCH  24  25
ATOM     25  C   UNL     1    -101.665 150.799 237.656  1.00  0.00    -0.000 C 
BRANCH  25  26
ATOM     26  C   UNL     1    -101.475 152.316 237.791  1.00  0.00    -0.000 C 
BRANCH  26  27
ATOM     27  C   UNL     1    -100.258 152.790 236.983  1.00  0.00    -0.000 C 
BRANCH  27  28
ATOM     28  C   UNL     1    -100.328 152.361 235.508  1.00  0.00    -0.000 C 
BRANCH  28  29
ATOM     29  C   UNL     1     -99.205 151.379 235.131  1.00  0.00    -0.000 C 
BRANCH  29  30
ATOM     30  C   UNL     1     -99.714 150.161 234.339  1.00  0.00    -0.000 C 
BRANCH  30  31
ATOM     31  C   UNL     1     -99.683 148.827 235.106  1.00  0.00    -0.003 C 
ATOM     32  C   UNL     1    -101.042 148.130 235.150  1.00  0.00     0.004 C 
ENDBRANCH  30  31
ENDBRANCH  29  30
ENDBRANCH  28  29
ENDBRANCH  27  28
ENDBRANCH  26  27
ENDBRANCH  25  26
ENDBRANCH  24  25
ENDBRANCH  23  24
ENDBRANCH  22  23
ENDBRANCH  21  22
ENDBRANCH  20  21
ENDBRANCH  19  20
ENDBRANCH  18  19
ENDBRANCH   1  18
TORSDOF 28
ENDMDL
