MODEL 1
REMARK VINA RESULT:    -4.466      0.000      0.000
REMARK INTER + INTRA:          -4.597
REMARK INTER:                  -4.597
REMARK INTRA:                   0.000
REMARK UNBOUND:                 0.000
REMARK SMILES O=c1ccc2ccc(O)cc2o1
REMARK SMILES IDX 6 1 7 2 8 3 10 4 11 5 5 6 4 7 3 8 2 9 1 10 12 11 9 12
REMARK H PARENT 9 13
REMARK Flexibility Score: inf
ROOT
ATOM      1  C   UNL     1      75.191  39.481  19.977  1.00  0.00     0.016 A 
ATOM      2  C   UNL     1      74.841  40.093  21.184  1.00  0.00     0.047 A 
ATOM      3  C   UNL     1      73.746  39.622  21.926  1.00  0.00     0.119 A 
ATOM      4  C   UNL     1      73.001  38.534  21.455  1.00  0.00     0.094 A 
ATOM      5  C   UNL     1      73.344  37.916  20.248  1.00  0.00     0.142 A 
ATOM      6  C   UNL     1      74.446  38.392  19.504  1.00  0.00     0.018 A 
ATOM      7  C   UNL     1      74.766  37.753  18.302  1.00  0.00     0.019 A 
ATOM      8  C   UNL     1      73.993  36.674  17.875  1.00  0.00     0.094 A 
ATOM      9  C   UNL     1      72.916  36.256  18.664  1.00  0.00     0.336 A 
ATOM     10  O   UNL     1      72.206  35.284  18.295  1.00  0.00    -0.246 OA
ATOM     11  O   UNL     1      72.634  36.882  19.804  1.00  0.00    -0.423 OA
ENDROOT
BRANCH   3  12
ATOM     12  O   UNL     1      73.392  40.228  23.129  1.00  0.00    -0.508 OA
ATOM     13  H   UNL     1      74.020  40.861  23.608  1.00  0.00     0.293 HD
ENDBRANCH   3  12
TORSDOF 1
ENDMDL
MODEL 2
REMARK VINA RESULT:    -4.368      1.888      2.712
REMARK INTER + INTRA:          -4.496
REMARK INTER:                  -4.496
REMARK INTRA:                   0.000
REMARK UNBOUND:                 0.000
REMARK SMILES O=c1ccc2ccc(O)cc2o1
REMARK SMILES IDX 6 1 7 2 8 3 10 4 11 5 5 6 4 7 3 8 2 9 1 10 12 11 9 12
REMARK H PARENT 9 13
REMARK Flexibility Score: inf
ROOT
ATOM      1  C   UNL     1      74.609  39.777  21.674  1.00  0.00     0.016 A 
ATOM      2  C   UNL     1      75.749  40.492  21.294  1.00  0.00     0.047 A 
ATOM      3  C   UNL     1      76.355  40.249  20.051  1.00  0.00     0.119 A 
ATOM      4  C   UNL     1      75.818  39.287  19.188  1.00  0.00     0.094 A 
ATOM      5  C   UNL     1      74.677  38.566  19.561  1.00  0.00     0.142 A 
ATOM      6  C   UNL     1      74.068  38.813  20.811  1.00  0.00     0.018 A 
ATOM      7  C   UNL     1      72.929  38.078  21.155  1.00  0.00     0.019 A 
ATOM      8  C   UNL     1      72.432  37.131  20.262  1.00  0.00     0.094 A 
ATOM      9  C   UNL     1      73.086  36.940  19.040  1.00  0.00     0.336 A 
ATOM     10  O   UNL     1      72.652  36.089  18.221  1.00  0.00    -0.246 OA
ATOM     11  O   UNL     1      74.168  37.653  18.737  1.00  0.00    -0.423 OA
ENDROOT
BRANCH   3  12
ATOM     12  O   UNL     1      77.492  40.958  19.667  1.00  0.00    -0.508 OA
ATOM     13  H   UNL     1      77.661  41.902  19.990  1.00  0.00     0.293 HD
ENDBRANCH   3  12
TORSDOF 1
ENDMDL
MODEL 3
REMARK VINA RESULT:    -4.099      3.139      4.307
REMARK INTER + INTRA:          -4.218
REMARK INTER:                  -4.218
REMARK INTRA:                   0.000
REMARK UNBOUND:                 0.000
REMARK SMILES O=c1ccc2ccc(O)cc2o1
REMARK SMILES IDX 6 1 7 2 8 3 10 4 11 5 5 6 4 7 3 8 2 9 1 10 12 11 9 12
REMARK H PARENT 9 13
REMARK Flexibility Score: inf
ROOT
ATOM      1  C   UNL     1      70.929  40.342  22.775  1.00  0.00     0.016 A 
ATOM      2  C   UNL     1      69.634  40.661  22.357  1.00  0.00     0.047 A 
ATOM      3  C   UNL     1      69.291  40.593  20.997  1.00  0.00     0.119 A 
ATOM      4  C   UNL     1      70.250  40.203  20.055  1.00  0.00     0.094 A 
ATOM      5  C   UNL     1      71.549  39.882  20.464  1.00  0.00     0.142 A 
ATOM      6  C   UNL     1      71.891  39.951  21.832  1.00  0.00     0.018 A 
ATOM      7  C   UNL     1      73.197  39.623  22.212  1.00  0.00     0.019 A 
ATOM      8  C   UNL     1      74.116  39.241  21.235  1.00  0.00     0.094 A 
ATOM      9  C   UNL     1      73.706  39.194  19.899  1.00  0.00     0.336 A 
ATOM     10  O   UNL     1      74.521  38.851  19.003  1.00  0.00    -0.246 OA
ATOM     11  O   UNL     1      72.457  39.511  19.565  1.00  0.00    -0.423 OA
ENDROOT
BRANCH   3  12
ATOM     12  O   UNL     1      68.002  40.911  20.575  1.00  0.00    -0.508 OA
ATOM     13  H   UNL     1      67.325  40.191  20.354  1.00  0.00     0.293 HD
ENDBRANCH   3  12
TORSDOF 1
ENDMDL
MODEL 4
REMARK VINA RESULT:    -3.979      3.109      4.465
REMARK INTER + INTRA:          -4.095
REMARK INTER:                  -4.095
REMARK INTRA:                   0.000
REMARK UNBOUND:                 0.000
REMARK SMILES O=c1ccc2ccc(O)cc2o1
REMARK SMILES IDX 6 1 7 2 8 3 10 4 11 5 5 6 4 7 3 8 2 9 1 10 12 11 9 12
REMARK H PARENT 9 13
REMARK Flexibility Score: inf
ROOT
ATOM      1  C   UNL     1      72.372  38.853  20.411  1.00  0.00     0.016 A 
ATOM      2  C   UNL     1      71.078  39.188  20.823  1.00  0.00     0.047 A 
ATOM      3  C   UNL     1      70.882  40.012  21.942  1.00  0.00     0.119 A 
ATOM      4  C   UNL     1      71.986  40.501  22.650  1.00  0.00     0.094 A 
ATOM      5  C   UNL     1      73.284  40.171  22.246  1.00  0.00     0.142 A 
ATOM      6  C   UNL     1      73.479  39.342  21.119  1.00  0.00     0.018 A 
ATOM      7  C   UNL     1      74.788  39.030  20.739  1.00  0.00     0.019 A 
ATOM      8  C   UNL     1      75.854  39.541  21.477  1.00  0.00     0.094 A 
ATOM      9  C   UNL     1      75.587  40.357  22.581  1.00  0.00     0.336 A 
ATOM     10  O   UNL     1      76.536  40.828  23.260  1.00  0.00    -0.246 OA
ATOM     11  O   UNL     1      74.331  40.638  22.922  1.00  0.00    -0.423 OA
ENDROOT
BRANCH   3  12
ATOM     12  O   UNL     1      69.595  40.349  22.357  1.00  0.00    -0.508 OA
ATOM     13  H   UNL     1      69.290  41.313  22.404  1.00  0.00     0.293 HD
ENDBRANCH   3  12
TORSDOF 1
ENDMDL
MODEL 5
REMARK VINA RESULT:    -3.953      2.215      4.517
REMARK INTER + INTRA:          -4.069
REMARK INTER:                  -4.069
REMARK INTRA:                   0.000
REMARK UNBOUND:                 0.000
REMARK SMILES O=c1ccc2ccc(O)cc2o1
REMARK SMILES IDX 6 1 7 2 8 3 10 4 11 5 5 6 4 7 3 8 2 9 1 10 12 11 9 12
REMARK H PARENT 9 13
REMARK Flexibility Score: inf
ROOT
ATOM      1  C   UNL     1      73.260  38.157  21.235  1.00  0.00     0.016 A 
ATOM      2  C   UNL     1      72.638  37.211  20.414  1.00  0.00     0.047 A 
ATOM      3  C   UNL     1      73.081  37.016  19.096  1.00  0.00     0.119 A 
ATOM      4  C   UNL     1      74.150  37.772  18.600  1.00  0.00     0.094 A 
ATOM      5  C   UNL     1      74.777  38.722  19.415  1.00  0.00     0.142 A 
ATOM      6  C   UNL     1      74.330  38.915  20.740  1.00  0.00     0.018 A 
ATOM      7  C   UNL     1      74.978  39.870  21.531  1.00  0.00     0.019 A 
ATOM      8  C   UNL     1      76.038  40.598  20.991  1.00  0.00     0.094 A 
ATOM      9  C   UNL     1      76.427  40.353  19.670  1.00  0.00     0.336 A 
ATOM     10  O   UNL     1      77.382  41.000  19.165  1.00  0.00    -0.246 OA
ATOM     11  O   UNL     1      75.794  39.438  18.940  1.00  0.00    -0.423 OA
ENDROOT
BRANCH   3  12
ATOM     12  O   UNL     1      72.465  36.076  18.273  1.00  0.00    -0.508 OA
ATOM     13  H   UNL     1      72.729  35.099  18.296  1.00  0.00     0.293 HD
ENDBRANCH   3  12
TORSDOF 1
ENDMDL
MODEL 6
REMARK VINA RESULT:    -3.950      2.860      4.680
REMARK INTER + INTRA:          -4.066
REMARK INTER:                  -4.066
REMARK INTRA:                   0.000
REMARK UNBOUND:                 0.000
REMARK SMILES O=c1ccc2ccc(O)cc2o1
REMARK SMILES IDX 6 1 7 2 8 3 10 4 11 5 5 6 4 7 3 8 2 9 1 10 12 11 9 12
REMARK H PARENT 9 13
REMARK Flexibility Score: inf
ROOT
ATOM      1  C   UNL     1      73.449  39.246  22.007  1.00  0.00     0.016 A 
ATOM      2  C   UNL     1      74.143  38.588  20.986  1.00  0.00     0.047 A 
ATOM      3  C   UNL     1      73.548  38.405  19.729  1.00  0.00     0.119 A 
ATOM      4  C   UNL     1      72.252  38.882  19.494  1.00  0.00     0.094 A 
ATOM      5  C   UNL     1      71.551  39.541  20.510  1.00  0.00     0.142 A 
ATOM      6  C   UNL     1      72.152  39.724  21.774  1.00  0.00     0.018 A 
ATOM      7  C   UNL     1      71.427  40.387  22.769  1.00  0.00     0.019 A 
ATOM      8  C   UNL     1      70.140  40.843  22.487  1.00  0.00     0.094 A 
ATOM      9  C   UNL     1      69.607  40.627  21.212  1.00  0.00     0.336 A 
ATOM     10  O   UNL     1      68.447  41.031  20.938  1.00  0.00    -0.246 OA
ATOM     11  O   UNL     1      70.320  39.994  20.283  1.00  0.00    -0.423 OA
ENDROOT
BRANCH   3  12
ATOM     12  O   UNL     1      74.234  37.751  18.708  1.00  0.00    -0.508 OA
ATOM     13  H   UNL     1      74.214  36.743  18.619  1.00  0.00     0.293 HD
ENDBRANCH   3  12
TORSDOF 1
ENDMDL
MODEL 7
REMARK VINA RESULT:    -3.905      2.785      4.238
REMARK INTER + INTRA:          -4.019
REMARK INTER:                  -4.019
REMARK INTRA:                   0.000
REMARK UNBOUND:                 0.000
REMARK SMILES O=c1ccc2ccc(O)cc2o1
REMARK SMILES IDX 6 1 7 2 8 3 10 4 11 5 5 6 4 7 3 8 2 9 1 10 12 11 9 12
REMARK H PARENT 9 13
REMARK Flexibility Score: inf
ROOT
ATOM      1  C   UNL     1      74.207  38.500  19.771  1.00  0.00     0.016 A 
ATOM      2  C   UNL     1      75.497  39.011  19.602  1.00  0.00     0.047 A 
ATOM      3  C   UNL     1      75.896  40.169  20.287  1.00  0.00     0.119 A 
ATOM      4  C   UNL     1      74.997  40.818  21.143  1.00  0.00     0.094 A 
ATOM      5  C   UNL     1      73.704  40.314  21.318  1.00  0.00     0.142 A 
ATOM      6  C   UNL     1      73.306  39.147  20.628  1.00  0.00     0.018 A 
ATOM      7  C   UNL     1      72.007  38.667  20.824  1.00  0.00     0.019 A 
ATOM      8  C   UNL     1      71.149  39.348  21.686  1.00  0.00     0.094 A 
ATOM      9  C   UNL     1      71.612  40.496  22.337  1.00  0.00     0.336 A 
ATOM     10  O   UNL     1      70.853  41.125  23.120  1.00  0.00    -0.246 OA
ATOM     11  O   UNL     1      72.853  40.932  22.133  1.00  0.00    -0.423 OA
ENDROOT
BRANCH   3  12
ATOM     12  O   UNL     1      77.180  40.684  20.122  1.00  0.00    -0.508 OA
ATOM     13  H   UNL     1      77.889  40.576  20.837  1.00  0.00     0.293 HD
ENDBRANCH   3  12
TORSDOF 1
ENDMDL
