MODEL 1
REMARK VINA RESULT:    -5.590      0.000      0.000
REMARK INTER + INTRA:         -10.360
REMARK INTER:                  -9.512
REMARK INTRA:                  -0.848
REMARK UNBOUND:                -0.848
REMARK SMILES CCCCCCCCCCCCCC(=O)[O-]
REMARK SMILES IDX 8 1 9 2 10 3 11 4 12 5 13 6 14 7 15 8 16 9 7 10 6 11 5 12
REMARK SMILES IDX 4 13 3 14 2 15 1 16
REMARK H PARENT
REMARK Flexibility Score: inf
ROOT
ATOM      1  C   UNL     1     103.887 313.300 197.770  1.00  0.00     0.000 C 
ENDROOT
BRANCH   1   2
ATOM      2  C   UNL     1     103.663 311.861 198.265  1.00  0.00     0.000 C 
BRANCH   2   3
ATOM      3  C   UNL     1     103.215 311.807 199.736  1.00  0.00     0.000 C 
BRANCH   3   4
ATOM      4  C   UNL     1     104.390 311.905 200.725  1.00  0.00     0.000 C 
BRANCH   4   5
ATOM      5  C   UNL     1     103.995 312.174 202.192  1.00  0.00     0.006 C 
BRANCH   5   6
ATOM      6  C   UNL     1     103.931 310.920 203.077  1.00  0.00     0.053 C 
BRANCH   6   7
ATOM      7  C   UNL     1     102.528 310.599 203.494  1.00  0.00     0.041 C 
ATOM      8  O   UNL     1     101.592 310.641 202.652  1.00  0.00    -0.550 OA
ATOM      9  O   UNL     1     102.249 310.287 204.818  1.00  0.00    -0.550 OA
ENDBRANCH   6   7
ENDBRANCH   5   6
ENDBRANCH   4   5
ENDBRANCH   3   4
ENDBRANCH   2   3
ENDBRANCH   1   2
BRANCH   1  10
ATOM     10  C   UNL     1     104.136 313.374 196.253  1.00  0.00     0.000 C 
BRANCH  10  11
ATOM     11  C   UNL     1     104.294 311.985 195.615  1.00  0.00    -0.000 C 
BRANCH  11  12
ATOM     12  C   UNL     1     105.666 311.799 194.945  1.00  0.00    -0.000 C 
BRANCH  12  13
ATOM     13  C   UNL     1     105.558 311.485 193.442  1.00  0.00    -0.000 C 
BRANCH  13  14
ATOM     14  C   UNL     1     104.177 311.769 192.815  1.00  0.00    -0.000 C 
BRANCH  14  15
ATOM     15  C   UNL     1     104.124 312.998 191.891  1.00  0.00    -0.003 C 
ATOM     16  C   UNL     1     103.757 314.285 192.628  1.00  0.00     0.004 C 
ENDBRANCH  14  15
ENDBRANCH  13  14
ENDBRANCH  12  13
ENDBRANCH  11  12
ENDBRANCH  10  11
ENDBRANCH   1  10
TORSDOF 12
ENDMDL
MODEL 2
REMARK VINA RESULT:    -5.569      0.950      1.887
REMARK INTER + INTRA:         -10.323
REMARK INTER:                  -9.432
REMARK INTRA:                  -0.891
REMARK UNBOUND:                -0.848
REMARK SMILES CCCCCCCCCCCCCC(=O)[O-]
REMARK SMILES IDX 8 1 9 2 10 3 11 4 12 5 13 6 14 7 15 8 16 9 7 10 6 11 5 12
REMARK SMILES IDX 4 13 3 14 2 15 1 16
REMARK H PARENT
REMARK Flexibility Score: inf
ROOT
ATOM      1  C   UNL     1     104.659 312.297 195.582  1.00  0.00     0.000 C 
ENDROOT
BRANCH   1   2
ATOM      2  C   UNL     1     104.138 312.944 196.875  1.00  0.00     0.000 C 
BRANCH   2   3
ATOM      3  C   UNL     1     103.862 311.911 197.982  1.00  0.00     0.000 C 
BRANCH   3   4
ATOM      4  C   UNL     1     103.493 312.559 199.328  1.00  0.00     0.000 C 
BRANCH   4   5
ATOM      5  C   UNL     1     103.036 311.578 200.427  1.00  0.00     0.006 C 
BRANCH   5   6
ATOM      6  C   UNL     1     103.955 311.523 201.657  1.00  0.00     0.053 C 
BRANCH   6   7
ATOM      7  C   UNL     1     103.258 310.949 202.853  1.00  0.00     0.041 C 
ATOM      8  O   UNL     1     102.048 310.609 202.777  1.00  0.00    -0.550 OA
ATOM      9  O   UNL     1     103.934 310.821 204.059  1.00  0.00    -0.550 OA
ENDBRANCH   6   7
ENDBRANCH   5   6
ENDBRANCH   4   5
ENDBRANCH   3   4
ENDBRANCH   2   3
ENDBRANCH   1   2
BRANCH   1  10
ATOM     10  C   UNL     1     103.528 311.742 194.698  1.00  0.00     0.000 C 
BRANCH  10  11
ATOM     11  C   UNL     1     104.010 311.377 193.285  1.00  0.00    -0.000 C 
BRANCH  11  12
ATOM     12  C   UNL     1     105.463 311.813 193.029  1.00  0.00    -0.000 C 
BRANCH  12  13
ATOM     13  C   UNL     1     105.562 313.069 192.145  1.00  0.00    -0.000 C 
BRANCH  13  14
ATOM     14  C   UNL     1     104.260 313.451 191.410  1.00  0.00    -0.000 C 
BRANCH  14  15
ATOM     15  C   UNL     1     103.712 314.850 191.744  1.00  0.00    -0.003 C 
ATOM     16  C   UNL     1     103.710 315.148 193.242  1.00  0.00     0.004 C 
ENDBRANCH  14  15
ENDBRANCH  13  14
ENDBRANCH  12  13
ENDBRANCH  11  12
ENDBRANCH  10  11
ENDBRANCH   1  10
TORSDOF 12
ENDMDL
MODEL 3
REMARK VINA RESULT:    -5.549      1.688      2.990
REMARK INTER + INTRA:         -10.289
REMARK INTER:                  -9.786
REMARK INTRA:                  -0.503
REMARK UNBOUND:                -0.848
REMARK SMILES CCCCCCCCCCCCCC(=O)[O-]
REMARK SMILES IDX 8 1 9 2 10 3 11 4 12 5 13 6 14 7 15 8 16 9 7 10 6 11 5 12
REMARK SMILES IDX 4 13 3 14 2 15 1 16
REMARK H PARENT
REMARK Flexibility Score: inf
ROOT
ATOM      1  C   UNL     1     103.382 311.820 194.764  1.00  0.00     0.000 C 
ENDROOT
BRANCH   1   2
ATOM      2  C   UNL     1     104.425 312.055 195.870  1.00  0.00     0.000 C 
BRANCH   2   3
ATOM      3  C   UNL     1     104.045 311.368 197.193  1.00  0.00     0.000 C 
BRANCH   3   4
ATOM      4  C   UNL     1     103.748 312.369 198.323  1.00  0.00     0.000 C 
BRANCH   4   5
ATOM      5  C   UNL     1     103.250 311.744 199.643  1.00  0.00     0.006 C 
BRANCH   5   6
ATOM      6  C   UNL     1     104.232 311.867 200.819  1.00  0.00     0.053 C 
BRANCH   6   7
ATOM      7  C   UNL     1     103.648 311.339 202.094  1.00  0.00     0.041 C 
ATOM      8  O   UNL     1     104.360 311.256 203.129  1.00  0.00    -0.550 OA
ATOM      9  O   UNL     1     102.328 310.909 202.130  1.00  0.00    -0.550 OA
ENDBRANCH   6   7
ENDBRANCH   5   6
ENDBRANCH   4   5
ENDBRANCH   3   4
ENDBRANCH   2   3
ENDBRANCH   1   2
BRANCH   1  10
ATOM     10  C   UNL     1     104.021 311.432 193.418  1.00  0.00     0.000 C 
BRANCH  10  11
ATOM     11  C   UNL     1     105.407 312.065 193.221  1.00  0.00    -0.000 C 
BRANCH  11  12
ATOM     12  C   UNL     1     105.421 313.110 192.092  1.00  0.00    -0.000 C 
BRANCH  12  13
ATOM     13  C   UNL     1     104.080 313.194 191.342  1.00  0.00    -0.000 C 
BRANCH  13  14
ATOM     14  C   UNL     1     103.698 314.605 190.848  1.00  0.00    -0.000 C 
BRANCH  14  15
ATOM     15  C   UNL     1     103.884 314.837 189.338  1.00  0.00    -0.003 C 
ATOM     16  C   UNL     1     102.626 314.529 188.527  1.00  0.00     0.004 C 
ENDBRANCH  14  15
ENDBRANCH  13  14
ENDBRANCH  12  13
ENDBRANCH  11  12
ENDBRANCH  10  11
ENDBRANCH   1  10
TORSDOF 12
ENDMDL
MODEL 4
REMARK VINA RESULT:    -5.537      6.777      9.702
REMARK INTER + INTRA:         -10.269
REMARK INTER:                  -8.704
REMARK INTRA:                  -1.564
REMARK UNBOUND:                -0.848
REMARK SMILES CCCCCCCCCCCCCC(=O)[O-]
REMARK SMILES IDX 8 1 9 2 10 3 11 4 12 5 13 6 14 7 15 8 16 9 7 10 6 11 5 12
REMARK SMILES IDX 4 13 3 14 2 15 1 16
REMARK H PARENT
REMARK Flexibility Score: inf
ROOT
ATOM      1  C   UNL     1     104.223 311.536 193.076  1.00  0.00     0.000 C 
ENDROOT
BRANCH   1   2
ATOM      2  C   UNL     1     103.974 312.623 192.018  1.00  0.00     0.000 C 
BRANCH   2   3
ATOM      3  C   UNL     1     105.242 313.433 191.695  1.00  0.00     0.000 C 
BRANCH   3   4
ATOM      4  C   UNL     1     105.032 314.447 190.557  1.00  0.00     0.000 C 
BRANCH   4   5
ATOM      5  C   UNL     1     103.666 314.363 189.845  1.00  0.00     0.006 C 
BRANCH   5   6
ATOM      6  C   UNL     1     103.601 315.098 188.497  1.00  0.00     0.053 C 
BRANCH   6   7
ATOM      7  C   UNL     1     102.281 315.775 188.290  1.00  0.00     0.041 C 
ATOM      8  O   UNL     1     102.164 317.013 188.497  1.00  0.00    -0.550 OA
ATOM      9  O   UNL     1     101.172 315.036 187.902  1.00  0.00    -0.550 OA
ENDBRANCH   6   7
ENDBRANCH   5   6
ENDBRANCH   4   5
ENDBRANCH   3   4
ENDBRANCH   2   3
ENDBRANCH   1   2
BRANCH   1  10
ATOM     10  C   UNL     1     105.680 311.512 193.572  1.00  0.00     0.000 C 
BRANCH  10  11
ATOM     11  C   UNL     1     105.795 311.817 195.073  1.00  0.00    -0.000 C 
BRANCH  11  12
ATOM     12  C   UNL     1     104.427 311.837 195.777  1.00  0.00    -0.000 C 
BRANCH  12  13
ATOM     13  C   UNL     1     104.109 313.197 196.423  1.00  0.00    -0.000 C 
BRANCH  13  14
ATOM     14  C   UNL     1     103.296 314.165 195.538  1.00  0.00    -0.000 C 
BRANCH  14  15
ATOM     15  C   UNL     1     104.133 315.215 194.786  1.00  0.00    -0.003 C 
ATOM     16  C   UNL     1     103.362 315.895 193.656  1.00  0.00     0.004 C 
ENDBRANCH  14  15
ENDBRANCH  13  14
ENDBRANCH  12  13
ENDBRANCH  11  12
ENDBRANCH  10  11
ENDBRANCH   1  10
TORSDOF 12
ENDMDL
MODEL 5
REMARK VINA RESULT:    -5.507     19.888     20.580
REMARK INTER + INTRA:         -10.217
REMARK INTER:                  -9.633
REMARK INTRA:                  -0.584
REMARK UNBOUND:                -0.848
REMARK SMILES CCCCCCCCCCCCCC(=O)[O-]
REMARK SMILES IDX 8 1 9 2 10 3 11 4 12 5 13 6 14 7 15 8 16 9 7 10 6 11 5 12
REMARK SMILES IDX 4 13 3 14 2 15 1 16
REMARK H PARENT
REMARK Flexibility Score: inf
ROOT
ATOM      1  C   UNL     1      88.997 325.075 196.301  1.00  0.00     0.000 C 
ENDROOT
BRANCH   1   2
ATOM      2  C   UNL     1      88.536 324.881 197.755  1.00  0.00     0.000 C 
BRANCH   2   3
ATOM      3  C   UNL     1      88.836 326.105 198.637  1.00  0.00     0.000 C 
BRANCH   3   4
ATOM      4  C   UNL     1      88.867 325.769 200.139  1.00  0.00     0.000 C 
BRANCH   4   5
ATOM      5  C   UNL     1      90.051 326.370 200.923  1.00  0.00     0.006 C 
BRANCH   5   6
ATOM      6  C   UNL     1      89.862 326.394 202.448  1.00  0.00     0.053 C 
BRANCH   6   7
ATOM      7  C   UNL     1      90.935 327.182 203.134  1.00  0.00     0.041 C 
ATOM      8  O   UNL     1      92.084 327.264 202.625  1.00  0.00    -0.550 OA
ATOM      9  O   UNL     1      90.676 327.799 204.352  1.00  0.00    -0.550 OA
ENDBRANCH   6   7
ENDBRANCH   5   6
ENDBRANCH   4   5
ENDBRANCH   3   4
ENDBRANCH   2   3
ENDBRANCH   1   2
BRANCH   1  10
ATOM     10  C   UNL     1      88.823 326.523 195.811  1.00  0.00     0.000 C 
BRANCH  10  11
ATOM     11  C   UNL     1      88.375 326.598 194.343  1.00  0.00    -0.000 C 
BRANCH  11  12
ATOM     12  C   UNL     1      86.896 326.217 194.159  1.00  0.00    -0.000 C 
BRANCH  12  13
ATOM     13  C   UNL     1      86.704 325.010 193.223  1.00  0.00    -0.000 C 
BRANCH  13  14
ATOM     14  C   UNL     1      87.885 324.730 192.270  1.00  0.00    -0.000 C 
BRANCH  14  15
ATOM     15  C   UNL     1      87.724 323.480 191.387  1.00  0.00    -0.003 C 
ATOM     16  C   UNL     1      88.418 323.613 190.033  1.00  0.00     0.004 C 
ENDBRANCH  14  15
ENDBRANCH  13  14
ENDBRANCH  12  13
ENDBRANCH  11  12
ENDBRANCH  10  11
ENDBRANCH   1  10
TORSDOF 12
ENDMDL
MODEL 6
REMARK VINA RESULT:    -5.436     19.299     21.830
REMARK INTER + INTRA:         -10.097
REMARK INTER:                  -8.902
REMARK INTRA:                  -1.194
REMARK UNBOUND:                -0.848
REMARK SMILES CCCCCCCCCCCCCC(=O)[O-]
REMARK SMILES IDX 8 1 9 2 10 3 11 4 12 5 13 6 14 7 15 8 16 9 7 10 6 11 5 12
REMARK SMILES IDX 4 13 3 14 2 15 1 16
REMARK H PARENT
REMARK Flexibility Score: inf
ROOT
ATOM      1  C   UNL     1      88.091 325.351 193.293  1.00  0.00     0.000 C 
ENDROOT
BRANCH   1   2
ATOM      2  C   UNL     1      86.738 324.670 193.028  1.00  0.00     0.000 C 
BRANCH   2   3
ATOM      3  C   UNL     1      86.751 323.809 191.753  1.00  0.00     0.000 C 
BRANCH   3   4
ATOM      4  C   UNL     1      88.103 323.844 191.020  1.00  0.00     0.000 C 
BRANCH   4   5
ATOM      5  C   UNL     1      88.115 323.180 189.628  1.00  0.00     0.006 C 
BRANCH   5   6
ATOM      6  C   UNL     1      89.322 323.552 188.753  1.00  0.00     0.053 C 
BRANCH   6   7
ATOM      7  C   UNL     1      90.354 322.466 188.730  1.00  0.00     0.041 C 
ATOM      8  O   UNL     1      91.422 322.620 188.080  1.00  0.00    -0.550 OA
ATOM      9  O   UNL     1      90.122 321.270 189.398  1.00  0.00    -0.550 OA
ENDBRANCH   6   7
ENDBRANCH   5   6
ENDBRANCH   4   5
ENDBRANCH   3   4
ENDBRANCH   2   3
ENDBRANCH   1   2
BRANCH   1  10
ATOM     10  C   UNL     1      87.946 326.695 194.030  1.00  0.00     0.000 C 
BRANCH  10  11
ATOM     11  C   UNL     1      86.670 326.763 194.883  1.00  0.00    -0.000 C 
BRANCH  11  12
ATOM     12  C   UNL     1      86.863 326.150 196.280  1.00  0.00    -0.000 C 
BRANCH  12  13
ATOM     13  C   UNL     1      88.308 326.281 196.794  1.00  0.00    -0.000 C 
BRANCH  13  14
ATOM     14  C   UNL     1      88.983 324.951 197.188  1.00  0.00    -0.000 C 
BRANCH  14  15
ATOM     15  C   UNL     1      88.292 323.687 196.645  1.00  0.00    -0.003 C 
ATOM     16  C   UNL     1      89.187 322.871 195.715  1.00  0.00     0.004 C 
ENDBRANCH  14  15
ENDBRANCH  13  14
ENDBRANCH  12  13
ENDBRANCH  11  12
ENDBRANCH  10  11
ENDBRANCH   1  10
TORSDOF 12
ENDMDL
MODEL 7
REMARK VINA RESULT:    -5.427      7.029     10.347
REMARK INTER + INTRA:         -10.082
REMARK INTER:                  -8.706
REMARK INTRA:                  -1.376
REMARK UNBOUND:                -0.848
REMARK SMILES CCCCCCCCCCCCCC(=O)[O-]
REMARK SMILES IDX 8 1 9 2 10 3 11 4 12 5 13 6 14 7 15 8 16 9 7 10 6 11 5 12
REMARK SMILES IDX 4 13 3 14 2 15 1 16
REMARK H PARENT
REMARK Flexibility Score: inf
ROOT
ATOM      1  C   UNL     1     104.110 312.814 192.043  1.00  0.00     0.000 C 
ENDROOT
BRANCH   1   2
ATOM      2  C   UNL     1     105.453 313.500 191.742  1.00  0.00     0.000 C 
BRANCH   2   3
ATOM      3  C   UNL     1     105.356 314.500 190.576  1.00  0.00     0.000 C 
BRANCH   3   4
ATOM      4  C   UNL     1     103.910 314.934 190.279  1.00  0.00     0.000 C 
BRANCH   4   5
ATOM      5  C   UNL     1     103.426 314.669 188.838  1.00  0.00     0.006 C 
BRANCH   5   6
ATOM      6  C   UNL     1     103.267 315.930 187.974  1.00  0.00     0.053 C 
BRANCH   6   7
ATOM      7  C   UNL     1     104.582 316.591 187.700  1.00  0.00     0.041 C 
ATOM      8  O   UNL     1     105.396 316.072 186.890  1.00  0.00    -0.550 OA
ATOM      9  O   UNL     1     104.925 317.763 188.363  1.00  0.00    -0.550 OA
ENDBRANCH   6   7
ENDBRANCH   5   6
ENDBRANCH   4   5
ENDBRANCH   3   4
ENDBRANCH   2   3
ENDBRANCH   1   2
BRANCH   1  10
ATOM     10  C   UNL     1     104.247 311.655 193.046  1.00  0.00     0.000 C 
BRANCH  10  11
ATOM     11  C   UNL     1     105.670 311.535 193.615  1.00  0.00    -0.000 C 
BRANCH  11  12
ATOM     12  C   UNL     1     105.704 311.676 195.147  1.00  0.00    -0.000 C 
BRANCH  12  13
ATOM     13  C   UNL     1     104.308 311.899 195.756  1.00  0.00    -0.000 C 
BRANCH  13  14
ATOM     14  C   UNL     1     104.090 313.286 196.394  1.00  0.00    -0.000 C 
BRANCH  14  15
ATOM     15  C   UNL     1     103.288 314.278 195.532  1.00  0.00    -0.003 C 
ATOM     16  C   UNL     1     104.176 315.266 194.778  1.00  0.00     0.004 C 
ENDBRANCH  14  15
ENDBRANCH  13  14
ENDBRANCH  12  13
ENDBRANCH  11  12
ENDBRANCH  10  11
ENDBRANCH   1  10
TORSDOF 12
ENDMDL
MODEL 8
REMARK VINA RESULT:    -5.423     19.271     20.421
REMARK INTER + INTRA:         -10.075
REMARK INTER:                  -9.018
REMARK INTRA:                  -1.057
REMARK UNBOUND:                -0.848
REMARK SMILES CCCCCCCCCCCCCC(=O)[O-]
REMARK SMILES IDX 8 1 9 2 10 3 11 4 12 5 13 6 14 7 15 8 16 9 7 10 6 11 5 12
REMARK SMILES IDX 4 13 3 14 2 15 1 16
REMARK H PARENT
REMARK Flexibility Score: inf
ROOT
ATOM      1  C   UNL     1      87.751 326.104 196.429  1.00  0.00     0.000 C 
ENDROOT
BRANCH   1   2
ATOM      2  C   UNL     1      88.283 326.372 197.846  1.00  0.00     0.000 C 
BRANCH   2   3
ATOM      3  C   UNL     1      89.142 325.214 198.383  1.00  0.00     0.000 C 
BRANCH   3   4
ATOM      4  C   UNL     1      88.845 324.882 199.857  1.00  0.00     0.000 C 
BRANCH   4   5
ATOM      5  C   UNL     1      89.077 326.038 200.851  1.00  0.00     0.006 C 
BRANCH   5   6
ATOM      6  C   UNL     1      90.550 326.435 201.038  1.00  0.00     0.053 C 
BRANCH   6   7
ATOM      7  C   UNL     1      90.833 326.900 202.433  1.00  0.00     0.041 C 
ATOM      8  O   UNL     1      89.894 327.014 203.265  1.00  0.00    -0.550 OA
ATOM      9  O   UNL     1      92.127 327.238 202.807  1.00  0.00    -0.550 OA
ENDBRANCH   6   7
ENDBRANCH   5   6
ENDBRANCH   4   5
ENDBRANCH   3   4
ENDBRANCH   2   3
ENDBRANCH   1   2
BRANCH   1  10
ATOM     10  C   UNL     1      88.779 326.444 195.335  1.00  0.00     0.000 C 
BRANCH  10  11
ATOM     11  C   UNL     1      88.117 326.759 193.984  1.00  0.00    -0.000 C 
BRANCH  11  12
ATOM     12  C   UNL     1      87.232 325.606 193.480  1.00  0.00    -0.000 C 
BRANCH  12  13
ATOM     13  C   UNL     1      87.939 324.726 192.433  1.00  0.00    -0.000 C 
BRANCH  13  14
ATOM     14  C   UNL     1      88.145 323.255 192.851  1.00  0.00    -0.000 C 
BRANCH  14  15
ATOM     15  C   UNL     1      87.796 322.942 194.317  1.00  0.00    -0.003 C 
ATOM     16  C   UNL     1      89.031 322.757 195.197  1.00  0.00     0.004 C 
ENDBRANCH  14  15
ENDBRANCH  13  14
ENDBRANCH  12  13
ENDBRANCH  11  12
ENDBRANCH  10  11
ENDBRANCH   1  10
TORSDOF 12
ENDMDL
