MODEL 1
REMARK VINA RESULT:    -5.234      0.000      0.000
REMARK INTER + INTRA:          -5.540
REMARK INTER:                  -5.540
REMARK INTRA:                   0.000
REMARK UNBOUND:                 0.000
REMARK SMILES O=c1ccc2cc(O)c(O)cc2o1
REMARK SMILES IDX 4 1 3 2 2 3 1 4 13 5 12 6 11 7 9 8 7 9 6 10 5 11 8 12 10 14
REMARK H PARENT 8 13 10 15
REMARK Flexibility Score: inf
ROOT
ATOM      1  C   UNL     1      59.400  48.150  29.066  1.00  0.00     0.019 A 
ATOM      2  C   UNL     1      58.015  48.045  28.952  1.00  0.00     0.094 A 
ATOM      3  C   UNL     1      57.376  48.656  27.867  1.00  0.00     0.336 A 
ATOM      4  O   UNL     1      56.127  48.573  27.746  1.00  0.00    -0.246 OA
ATOM      5  O   UNL     1      58.082  49.327  26.960  1.00  0.00    -0.423 OA
ATOM      6  C   UNL     1      59.405  49.452  27.032  1.00  0.00     0.142 A 
ATOM      7  C   UNL     1      60.094  50.168  26.050  1.00  0.00     0.098 A 
ATOM      8  C   UNL     1      61.486  50.304  26.118  1.00  0.00     0.161 A 
ATOM      9  C   UNL     1      62.198  49.716  27.180  1.00  0.00     0.158 A 
ATOM     10  C   UNL     1      61.511  48.995  28.168  1.00  0.00     0.062 A 
ATOM     11  C   UNL     1      60.117  48.861  28.098  1.00  0.00     0.022 A 
ENDROOT
BRANCH   9  12
ATOM     12  O   UNL     1      63.583  49.851  27.249  1.00  0.00    -0.504 OA
ATOM     13  H   UNL     1      64.018  50.706  27.577  1.00  0.00     0.293 HD
ENDBRANCH   9  12
BRANCH   8  14
ATOM     14  O   UNL     1      62.144  51.025  25.122  1.00  0.00    -0.504 OA
ATOM     15  H   UNL     1      62.752  50.578  24.446  1.00  0.00     0.293 HD
ENDBRANCH   8  14
TORSDOF 2
ENDMDL
MODEL 2
REMARK VINA RESULT:    -5.182      1.264      2.300
REMARK INTER + INTRA:          -5.485
REMARK INTER:                  -5.485
REMARK INTRA:                   0.000
REMARK UNBOUND:                 0.000
REMARK SMILES O=c1ccc2cc(O)c(O)cc2o1
REMARK SMILES IDX 4 1 3 2 2 3 1 4 13 5 12 6 11 7 9 8 7 9 6 10 5 11 8 12 10 14
REMARK H PARENT 8 13 10 15
REMARK Flexibility Score: inf
ROOT
ATOM      1  C   UNL     1      58.176  48.997  27.003  1.00  0.00     0.019 A 
ATOM      2  C   UNL     1      57.554  48.320  28.051  1.00  0.00     0.094 A 
ATOM      3  C   UNL     1      58.314  47.957  29.169  1.00  0.00     0.336 A 
ATOM      4  O   UNL     1      57.771  47.345  30.125  1.00  0.00    -0.246 OA
ATOM      5  O   UNL     1      59.609  48.255  29.228  1.00  0.00    -0.423 OA
ATOM      6  C   UNL     1      60.241  48.899  28.250  1.00  0.00     0.142 A 
ATOM      7  C   UNL     1      61.604  49.185  28.368  1.00  0.00     0.098 A 
ATOM      8  C   UNL     1      62.276  49.863  27.345  1.00  0.00     0.161 A 
ATOM      9  C   UNL     1      61.578  50.260  26.189  1.00  0.00     0.158 A 
ATOM     10  C   UNL     1      60.209  49.977  26.066  1.00  0.00     0.062 A 
ATOM     11  C   UNL     1      59.538  49.298  27.092  1.00  0.00     0.022 A 
ENDROOT
BRANCH   9  12
ATOM     12  O   UNL     1      62.246  50.936  25.169  1.00  0.00    -0.504 OA
ATOM     13  H   UNL     1      62.950  50.478  24.601  1.00  0.00     0.293 HD
ENDBRANCH   9  12
BRANCH   8  14
ATOM     14  O   UNL     1      63.636  50.133  27.492  1.00  0.00    -0.504 OA
ATOM     15  H   UNL     1      64.117  50.812  26.912  1.00  0.00     0.293 HD
ENDBRANCH   8  14
TORSDOF 2
ENDMDL
MODEL 3
REMARK VINA RESULT:    -4.921     10.730     12.278
REMARK INTER + INTRA:          -5.209
REMARK INTER:                  -5.209
REMARK INTRA:                   0.000
REMARK UNBOUND:                 0.000
REMARK SMILES O=c1ccc2cc(O)c(O)cc2o1
REMARK SMILES IDX 4 1 3 2 2 3 1 4 13 5 12 6 11 7 9 8 7 9 6 10 5 11 8 12 10 14
REMARK H PARENT 8 13 10 15
REMARK Flexibility Score: inf
ROOT
ATOM      1  C   UNL     1      67.373  41.035  28.475  1.00  0.00     0.019 A 
ATOM      2  C   UNL     1      68.628  40.459  28.663  1.00  0.00     0.094 A 
ATOM      3  C   UNL     1      69.024  39.408  27.828  1.00  0.00     0.336 A 
ATOM      4  O   UNL     1      70.153  38.875  27.982  1.00  0.00    -0.246 OA
ATOM      5  O   UNL     1      68.213  38.967  26.870  1.00  0.00    -0.423 OA
ATOM      6  C   UNL     1      67.007  39.487  26.657  1.00  0.00     0.142 A 
ATOM      7  C   UNL     1      66.198  38.983  25.635  1.00  0.00     0.098 A 
ATOM      8  C   UNL     1      64.929  39.525  25.404  1.00  0.00     0.161 A 
ATOM      9  C   UNL     1      64.462  40.585  26.204  1.00  0.00     0.158 A 
ATOM     10  C   UNL     1      65.270  41.096  27.230  1.00  0.00     0.062 A 
ATOM     11  C   UNL     1      66.541  40.551  27.460  1.00  0.00     0.022 A 
ENDROOT
BRANCH   9  12
ATOM     12  O   UNL     1      63.198  41.126  25.974  1.00  0.00    -0.504 OA
ATOM     13  H   UNL     1      62.633  40.840  25.182  1.00  0.00     0.293 HD
ENDBRANCH   9  12
BRANCH   8  14
ATOM     14  O   UNL     1      64.146  39.000  24.377  1.00  0.00    -0.504 OA
ATOM     15  H   UNL     1      63.466  39.561  23.876  1.00  0.00     0.293 HD
ENDBRANCH   8  14
TORSDOF 2
ENDMDL
MODEL 4
REMARK VINA RESULT:    -4.904     10.726     11.429
REMARK INTER + INTRA:          -5.191
REMARK INTER:                  -5.191
REMARK INTRA:                   0.000
REMARK UNBOUND:                 0.000
REMARK SMILES O=c1ccc2cc(O)c(O)cc2o1
REMARK SMILES IDX 4 1 3 2 2 3 1 4 13 5 12 6 11 7 9 8 7 9 6 10 5 11 8 12 10 14
REMARK H PARENT 8 13 10 15
REMARK Flexibility Score: inf
ROOT
ATOM      1  C   UNL     1      68.500  53.223  20.166  1.00  0.00     0.019 A 
ATOM      2  C   UNL     1      67.427  52.994  19.307  1.00  0.00     0.094 A 
ATOM      3  C   UNL     1      66.846  51.721  19.273  1.00  0.00     0.336 A 
ATOM      4  O   UNL     1      65.876  51.495  18.504  1.00  0.00    -0.246 OA
ATOM      5  O   UNL     1      67.312  50.747  20.050  1.00  0.00    -0.423 OA
ATOM      6  C   UNL     1      68.335  50.924  20.883  1.00  0.00     0.142 A 
ATOM      7  C   UNL     1      68.782  49.863  21.676  1.00  0.00     0.098 A 
ATOM      8  C   UNL     1      69.857  50.040  22.555  1.00  0.00     0.161 A 
ATOM      9  C   UNL     1      70.492  51.293  22.644  1.00  0.00     0.158 A 
ATOM     10  C   UNL     1      70.046  52.361  21.851  1.00  0.00     0.062 A 
ATOM     11  C   UNL     1      68.970  52.182  20.971  1.00  0.00     0.022 A 
ENDROOT
BRANCH   9  12
ATOM     12  O   UNL     1      71.562  51.471  23.519  1.00  0.00    -0.504 OA
ATOM     13  H   UNL     1      71.417  51.631  24.510  1.00  0.00     0.293 HD
ENDBRANCH   9  12
BRANCH   8  14
ATOM     14  O   UNL     1      70.280  48.962  23.332  1.00  0.00    -0.504 OA
ATOM     15  H   UNL     1      70.080  48.002  23.076  1.00  0.00     0.293 HD
ENDBRANCH   8  14
TORSDOF 2
ENDMDL
MODEL 5
REMARK VINA RESULT:    -4.731     10.985     11.938
REMARK INTER + INTRA:          -5.008
REMARK INTER:                  -5.008
REMARK INTRA:                   0.000
REMARK UNBOUND:                 0.000
REMARK SMILES O=c1ccc2cc(O)c(O)cc2o1
REMARK SMILES IDX 4 1 3 2 2 3 1 4 13 5 12 6 11 7 9 8 7 9 6 10 5 11 8 12 10 14
REMARK H PARENT 8 13 10 15
REMARK Flexibility Score: inf
ROOT
ATOM      1  C   UNL     1      67.628  51.480  19.812  1.00  0.00     0.019 A 
ATOM      2  C   UNL     1      67.501  52.708  19.164  1.00  0.00     0.094 A 
ATOM      3  C   UNL     1      68.341  53.762  19.540  1.00  0.00     0.336 A 
ATOM      4  O   UNL     1      68.242  54.878  18.967  1.00  0.00    -0.246 OA
ATOM      5  O   UNL     1      69.246  53.593  20.500  1.00  0.00    -0.423 OA
ATOM      6  C   UNL     1      69.399  52.438  21.144  1.00  0.00     0.142 A 
ATOM      7  C   UNL     1      70.368  52.319  22.144  1.00  0.00     0.098 A 
ATOM      8  C   UNL     1      70.536  51.108  22.826  1.00  0.00     0.161 A 
ATOM      9  C   UNL     1      69.727  50.002  22.503  1.00  0.00     0.158 A 
ATOM     10  C   UNL     1      68.755  50.116  21.498  1.00  0.00     0.062 A 
ATOM     11  C   UNL     1      68.588  51.330  20.817  1.00  0.00     0.022 A 
ENDROOT
BRANCH   9  12
ATOM     12  O   UNL     1      69.894  48.795  23.180  1.00  0.00    -0.504 OA
ATOM     13  H   UNL     1      69.312  47.989  22.981  1.00  0.00     0.293 HD
ENDBRANCH   9  12
BRANCH   8  14
ATOM     14  O   UNL     1      71.510  51.021  23.820  1.00  0.00    -0.504 OA
ATOM     15  H   UNL     1      72.455  51.361  23.680  1.00  0.00     0.293 HD
ENDBRANCH   8  14
TORSDOF 2
ENDMDL
MODEL 6
REMARK VINA RESULT:    -4.649     11.027     11.789
REMARK INTER + INTRA:          -4.921
REMARK INTER:                  -4.921
REMARK INTRA:                   0.000
REMARK UNBOUND:                 0.000
REMARK SMILES O=c1ccc2cc(O)c(O)cc2o1
REMARK SMILES IDX 4 1 3 2 2 3 1 4 13 5 12 6 11 7 9 8 7 9 6 10 5 11 8 12 10 14
REMARK H PARENT 8 13 10 15
REMARK Flexibility Score: inf
ROOT
ATOM      1  C   UNL     1      68.902  50.031  21.588  1.00  0.00     0.019 A 
ATOM      2  C   UNL     1      69.862  50.071  22.599  1.00  0.00     0.094 A 
ATOM      3  C   UNL     1      70.417  51.305  22.957  1.00  0.00     0.336 A 
ATOM      4  O   UNL     1      71.284  51.362  23.867  1.00  0.00    -0.246 OA
ATOM      5  O   UNL     1      70.034  52.420  22.342  1.00  0.00    -0.423 OA
ATOM      6  C   UNL     1      69.122  52.425  21.372  1.00  0.00     0.142 A 
ATOM      7  C   UNL     1      68.758  53.629  20.761  1.00  0.00     0.098 A 
ATOM      8  C   UNL     1      67.800  53.643  19.741  1.00  0.00     0.161 A 
ATOM      9  C   UNL     1      67.197  52.441  19.326  1.00  0.00     0.158 A 
ATOM     10  C   UNL     1      67.558  51.230  19.937  1.00  0.00     0.062 A 
ATOM     11  C   UNL     1      68.518  51.218  20.958  1.00  0.00     0.022 A 
ENDROOT
BRANCH   9  12
ATOM     12  O   UNL     1      66.242  52.454  18.311  1.00  0.00    -0.504 OA
ATOM     13  H   UNL     1      66.201  51.722  17.611  1.00  0.00     0.293 HD
ENDBRANCH   9  12
BRANCH   8  14
ATOM     14  O   UNL     1      67.458  54.860  19.151  1.00  0.00    -0.504 OA
ATOM     15  H   UNL     1      66.546  55.022  18.739  1.00  0.00     0.293 HD
ENDBRANCH   8  14
TORSDOF 2
ENDMDL
MODEL 7
REMARK VINA RESULT:    -4.503     12.051     15.101
REMARK INTER + INTRA:          -4.766
REMARK INTER:                  -4.766
REMARK INTRA:                   0.000
REMARK UNBOUND:                 0.000
REMARK SMILES O=c1ccc2cc(O)c(O)cc2o1
REMARK SMILES IDX 4 1 3 2 2 3 1 4 13 5 12 6 11 7 9 8 7 9 6 10 5 11 8 12 10 14
REMARK H PARENT 8 13 10 15
REMARK Flexibility Score: inf
ROOT
ATOM      1  C   UNL     1      70.406  54.262  16.254  1.00  0.00     0.019 A 
ATOM      2  C   UNL     1      71.780  54.490  16.289  1.00  0.00     0.094 A 
ATOM      3  C   UNL     1      72.527  53.967  17.351  1.00  0.00     0.336 A 
ATOM      4  O   UNL     1      73.769  54.161  17.400  1.00  0.00    -0.246 OA
ATOM      5  O   UNL     1      71.932  53.264  18.311  1.00  0.00    -0.423 OA
ATOM      6  C   UNL     1      70.622  53.025  18.316  1.00  0.00     0.142 A 
ATOM      7  C   UNL     1      70.052  52.279  19.351  1.00  0.00     0.098 A 
ATOM      8  C   UNL     1      68.676  52.022  19.364  1.00  0.00     0.161 A 
ATOM      9  C   UNL     1      67.860  52.516  18.328  1.00  0.00     0.158 A 
ATOM     10  C   UNL     1      68.428  53.263  17.286  1.00  0.00     0.062 A 
ATOM     11  C   UNL     1      69.806  53.520  17.276  1.00  0.00     0.022 A 
ENDROOT
BRANCH   9  12
ATOM     12  O   UNL     1      66.490  52.260  18.339  1.00  0.00    -0.504 OA
ATOM     13  H   UNL     1      65.998  51.967  17.503  1.00  0.00     0.293 HD
ENDBRANCH   9  12
BRANCH   8  14
ATOM     14  O   UNL     1      68.137  51.276  20.411  1.00  0.00    -0.504 OA
ATOM     15  H   UNL     1      67.816  51.706  21.270  1.00  0.00     0.293 HD
ENDBRANCH   8  14
TORSDOF 2
ENDMDL
MODEL 8
REMARK VINA RESULT:    -4.483     11.106     11.664
REMARK INTER + INTRA:          -4.745
REMARK INTER:                  -4.745
REMARK INTRA:                   0.000
REMARK UNBOUND:                 0.000
REMARK SMILES O=c1ccc2cc(O)c(O)cc2o1
REMARK SMILES IDX 4 1 3 2 2 3 1 4 13 5 12 6 11 7 9 8 7 9 6 10 5 11 8 12 10 14
REMARK H PARENT 8 13 10 15
REMARK Flexibility Score: inf
ROOT
ATOM      1  C   UNL     1      69.829  52.536  22.656  1.00  0.00     0.019 A 
ATOM      2  C   UNL     1      70.171  51.277  23.149  1.00  0.00     0.094 A 
ATOM      3  C   UNL     1      69.695  50.139  22.487  1.00  0.00     0.336 A 
ATOM      4  O   UNL     1      69.993  48.994  22.916  1.00  0.00    -0.246 OA
ATOM      5  O   UNL     1      68.930  50.259  21.406  1.00  0.00    -0.423 OA
ATOM      6  C   UNL     1      68.579  51.441  20.904  1.00  0.00     0.142 A 
ATOM      7  C   UNL     1      67.772  51.506  19.765  1.00  0.00     0.098 A 
ATOM      8  C   UNL     1      67.400  52.745  19.231  1.00  0.00     0.161 A 
ATOM      9  C   UNL     1      67.840  53.934  19.842  1.00  0.00     0.158 A 
ATOM     10  C   UNL     1      68.652  53.874  20.985  1.00  0.00     0.062 A 
ATOM     11  C   UNL     1      69.023  52.633  21.519  1.00  0.00     0.022 A 
ENDROOT
BRANCH   9  12
ATOM     12  O   UNL     1      67.470  55.168  19.311  1.00  0.00    -0.504 OA
ATOM     13  H   UNL     1      66.692  55.697  19.687  1.00  0.00     0.293 HD
ENDBRANCH   9  12
BRANCH   8  14
ATOM     14  O   UNL     1      66.593  52.776  18.094  1.00  0.00    -0.504 OA
ATOM     15  H   UNL     1      66.917  52.440  17.194  1.00  0.00     0.293 HD
ENDBRANCH   8  14
TORSDOF 2
ENDMDL
MODEL 9
REMARK VINA RESULT:    -4.416     12.160     14.998
REMARK INTER + INTRA:          -4.674
REMARK INTER:                  -4.674
REMARK INTRA:                   0.000
REMARK UNBOUND:                 0.000
REMARK SMILES O=c1ccc2cc(O)c(O)cc2o1
REMARK SMILES IDX 4 1 3 2 2 3 1 4 13 5 12 6 11 7 9 8 7 9 6 10 5 11 8 12 10 14
REMARK H PARENT 8 13 10 15
REMARK Flexibility Score: inf
ROOT
ATOM      1  C   UNL     1      71.981  53.492  17.951  1.00  0.00     0.019 A 
ATOM      2  C   UNL     1      72.315  54.220  16.810  1.00  0.00     0.094 A 
ATOM      3  C   UNL     1      71.313  54.525  15.883  1.00  0.00     0.336 A 
ATOM      4  O   UNL     1      71.594  55.182  14.847  1.00  0.00    -0.246 OA
ATOM      5  O   UNL     1      70.061  54.125  16.089  1.00  0.00    -0.423 OA
ATOM      6  C   UNL     1      69.699  53.427  17.163  1.00  0.00     0.142 A 
ATOM      7  C   UNL     1      68.368  53.034  17.327  1.00  0.00     0.098 A 
ATOM      8  C   UNL     1      67.980  52.301  18.454  1.00  0.00     0.161 A 
ATOM      9  C   UNL     1      68.933  51.957  19.430  1.00  0.00     0.158 A 
ATOM     10  C   UNL     1      70.271  52.350  19.272  1.00  0.00     0.062 A 
ATOM     11  C   UNL     1      70.657  53.084  18.142  1.00  0.00     0.022 A 
ENDROOT
BRANCH   9  12
ATOM     12  O   UNL     1      68.548  51.227  20.554  1.00  0.00    -0.504 OA
ATOM     13  H   UNL     1      67.611  51.294  20.934  1.00  0.00     0.293 HD
ENDBRANCH   9  12
BRANCH   8  14
ATOM     14  O   UNL     1      66.645  51.923  18.588  1.00  0.00    -0.504 OA
ATOM     15  H   UNL     1      65.976  52.481  19.105  1.00  0.00     0.293 HD
ENDBRANCH   8  14
TORSDOF 2
ENDMDL
