MODEL 1
REMARK VINA RESULT:    -5.540      0.000      0.000
REMARK INTER + INTRA:          -6.778
REMARK INTER:                  -6.511
REMARK INTRA:                  -0.266
REMARK UNBOUND:                -0.266
REMARK SMILES O=c1cc(-c2ccc(O)c(O)c2)oc2cc(O)cc(O)c12
REMARK SMILES IDX 4 1 3 2 2 3 1 4 21 5 19 6 18 7 16 8 15 9 14 10 13 11 5 12
REMARK SMILES IDX 6 13 7 14 8 15 12 16 10 17 9 18 11 20 20 22 17 24
REMARK H PARENT 9 19 11 21 20 23 17 25
REMARK Flexibility Score: inf
ROOT
ATOM      1  C   UNL     1      23.586  29.452   5.903  1.00  0.00     0.138 A 
ATOM      2  C   UNL     1      24.895  29.400   6.401  1.00  0.00     0.100 A 
ATOM      3  C   UNL     1      25.538  28.168   6.523  1.00  0.00     0.197 A 
ATOM      4  O   UNL     1      26.692  28.148   7.023  1.00  0.00    -0.289 OA
ATOM      5  C   UNL     1      24.879  26.985   6.110  1.00  0.00     0.107 A 
ATOM      6  C   UNL     1      25.449  25.676   6.155  1.00  0.00     0.134 A 
ATOM      7  C   UNL     1      24.663  24.569   5.811  1.00  0.00     0.093 A 
ATOM      8  C   UNL     1      23.350  24.726   5.370  1.00  0.00     0.123 A 
ATOM      9  C   UNL     1      22.799  26.005   5.274  1.00  0.00     0.094 A 
ATOM     10  C   UNL     1      23.545  27.126   5.642  1.00  0.00     0.146 A 
ATOM     11  O   UNL     1      22.977  28.323   5.553  1.00  0.00    -0.456 OA
ENDROOT
BRANCH   1  12
ATOM     12  C   UNL     1      22.854  30.735   5.749  1.00  0.00     0.021 A 
ATOM     13  C   UNL     1      22.744  31.319   4.476  1.00  0.00     0.016 A 
ATOM     14  C   UNL     1      22.055  32.522   4.303  1.00  0.00     0.051 A 
ATOM     15  C   UNL     1      21.457  33.157   5.394  1.00  0.00     0.157 A 
ATOM     16  C   UNL     1      22.238  31.372   6.845  1.00  0.00     0.062 A 
ATOM     17  C   UNL     1      21.544  32.580   6.671  1.00  0.00     0.158 A 
BRANCH  15  18
ATOM     18  O   UNL     1      20.778  34.358   5.190  1.00  0.00    -0.504 OA
ATOM     19  H   UNL     1      20.041  34.673   5.811  1.00  0.00     0.293 HD
ENDBRANCH  15  18
BRANCH  17  20
ATOM     20  O   UNL     1      20.939  33.203   7.761  1.00  0.00    -0.504 OA
ATOM     21  H   UNL     1      20.208  33.894   7.639  1.00  0.00     0.293 HD
ENDBRANCH  17  20
ENDBRANCH   1  12
BRANCH   6  22
ATOM     22  O   UNL     1      26.776  25.411   6.505  1.00  0.00    -0.507 OA
ATOM     23  H   UNL     1      27.323  24.637   6.162  1.00  0.00     0.293 HD
ENDBRANCH   6  22
BRANCH   8  24
ATOM     24  O   UNL     1      22.603  23.603   5.021  1.00  0.00    -0.508 OA
ATOM     25  H   UNL     1      22.726  22.716   5.495  1.00  0.00     0.293 HD
ENDBRANCH   8  24
TORSDOF 5
ENDMDL
MODEL 2
REMARK VINA RESULT:    -5.034      1.383      1.556
REMARK INTER + INTRA:          -6.183
REMARK INTER:                  -5.913
REMARK INTRA:                  -0.270
REMARK UNBOUND:                -0.266
REMARK SMILES O=c1cc(-c2ccc(O)c(O)c2)oc2cc(O)cc(O)c12
REMARK SMILES IDX 4 1 3 2 2 3 1 4 21 5 19 6 18 7 16 8 15 9 14 10 13 11 5 12
REMARK SMILES IDX 6 13 7 14 8 15 12 16 10 17 9 18 11 20 20 22 17 24
REMARK H PARENT 9 19 11 21 20 23 17 25
REMARK Flexibility Score: inf
ROOT
ATOM      1  C   UNL     1      24.141  29.926   5.350  1.00  0.00     0.138 A 
ATOM      2  C   UNL     1      25.448  30.161   4.903  1.00  0.00     0.100 A 
ATOM      3  C   UNL     1      26.371  29.115   4.886  1.00  0.00     0.197 A 
ATOM      4  O   UNL     1      27.551  29.370   4.531  1.00  0.00    -0.289 OA
ATOM      5  C   UNL     1      25.972  27.817   5.287  1.00  0.00     0.107 A 
ATOM      6  C   UNL     1      26.818  26.666   5.279  1.00  0.00     0.134 A 
ATOM      7  C   UNL     1      26.338  25.454   5.793  1.00  0.00     0.093 A 
ATOM      8  C   UNL     1      25.029  25.336   6.258  1.00  0.00     0.123 A 
ATOM      9  C   UNL     1      24.179  26.442   6.224  1.00  0.00     0.094 A 
ATOM     10  C   UNL     1      24.637  27.672   5.750  1.00  0.00     0.146 A 
ATOM     11  O   UNL     1      23.801  28.705   5.751  1.00  0.00    -0.456 OA
ENDROOT
BRANCH   1  12
ATOM     12  C   UNL     1      23.118  31.000   5.386  1.00  0.00     0.021 A 
ATOM     13  C   UNL     1      22.615  31.516   4.179  1.00  0.00     0.016 A 
ATOM     14  C   UNL     1      21.646  32.523   4.185  1.00  0.00     0.051 A 
ATOM     15  C   UNL     1      21.156  33.024   5.393  1.00  0.00     0.157 A 
ATOM     16  C   UNL     1      22.610  31.499   6.602  1.00  0.00     0.062 A 
ATOM     17  C   UNL     1      21.635  32.509   6.608  1.00  0.00     0.158 A 
BRANCH  15  18
ATOM     18  O   UNL     1      20.190  34.030   5.367  1.00  0.00    -0.504 OA
ATOM     19  H   UNL     1      19.880  34.502   6.209  1.00  0.00     0.293 HD
ENDBRANCH  15  18
BRANCH  17  20
ATOM     20  O   UNL     1      21.141  32.998   7.817  1.00  0.00    -0.504 OA
ATOM     21  H   UNL     1      21.056  33.992   7.993  1.00  0.00     0.293 HD
ENDBRANCH  17  20
ENDBRANCH   1  12
BRANCH   6  22
ATOM     22  O   UNL     1      28.117  26.652   4.764  1.00  0.00    -0.507 OA
ATOM     23  H   UNL     1      28.790  25.915   4.908  1.00  0.00     0.293 HD
ENDBRANCH   6  22
BRANCH   8  24
ATOM     24  O   UNL     1      24.581  24.111   6.747  1.00  0.00    -0.508 OA
ATOM     25  H   UNL     1      24.975  23.235   6.425  1.00  0.00     0.293 HD
ENDBRANCH   8  24
TORSDOF 5
ENDMDL
MODEL 3
REMARK VINA RESULT:    -5.007      1.304      2.704
REMARK INTER + INTRA:          -6.151
REMARK INTER:                  -5.870
REMARK INTRA:                  -0.281
REMARK UNBOUND:                -0.266
REMARK SMILES O=c1cc(-c2ccc(O)c(O)c2)oc2cc(O)cc(O)c12
REMARK SMILES IDX 4 1 3 2 2 3 1 4 21 5 19 6 18 7 16 8 15 9 14 10 13 11 5 12
REMARK SMILES IDX 6 13 7 14 8 15 12 16 10 17 9 18 11 20 20 22 17 24
REMARK H PARENT 9 19 11 21 20 23 17 25
REMARK Flexibility Score: inf
ROOT
ATOM      1  C   UNL     1      23.322  29.461   5.258  1.00  0.00     0.138 A 
ATOM      2  C   UNL     1      22.848  28.397   4.479  1.00  0.00     0.100 A 
ATOM      3  C   UNL     1      23.519  27.174   4.498  1.00  0.00     0.197 A 
ATOM      4  O   UNL     1      23.101  26.256   3.746  1.00  0.00    -0.289 OA
ATOM      5  C   UNL     1      24.652  27.006   5.331  1.00  0.00     0.107 A 
ATOM      6  C   UNL     1      25.396  25.793   5.458  1.00  0.00     0.134 A 
ATOM      7  C   UNL     1      26.559  25.776   6.240  1.00  0.00     0.093 A 
ATOM      8  C   UNL     1      26.972  26.907   6.942  1.00  0.00     0.123 A 
ATOM      9  C   UNL     1      26.224  28.083   6.864  1.00  0.00     0.094 A 
ATOM     10  C   UNL     1      25.080  28.142   6.068  1.00  0.00     0.146 A 
ATOM     11  O   UNL     1      24.407  29.286   6.007  1.00  0.00    -0.456 OA
ENDROOT
BRANCH   1  12
ATOM     12  C   UNL     1      22.646  30.782   5.279  1.00  0.00     0.021 A 
ATOM     13  C   UNL     1      22.433  31.468   4.071  1.00  0.00     0.016 A 
ATOM     14  C   UNL     1      21.793  32.710   4.062  1.00  0.00     0.051 A 
ATOM     15  C   UNL     1      21.347  33.284   5.255  1.00  0.00     0.157 A 
ATOM     16  C   UNL     1      22.182  31.359   6.478  1.00  0.00     0.062 A 
ATOM     17  C   UNL     1      21.538  32.605   6.469  1.00  0.00     0.158 A 
BRANCH  15  18
ATOM     18  O   UNL     1      20.713  34.525   5.214  1.00  0.00    -0.504 OA
ATOM     19  H   UNL     1      19.761  34.633   4.882  1.00  0.00     0.293 HD
ENDBRANCH  15  18
BRANCH  17  20
ATOM     20  O   UNL     1      21.084  33.168   7.662  1.00  0.00    -0.504 OA
ATOM     21  H   UNL     1      21.679  33.760   8.229  1.00  0.00     0.293 HD
ENDBRANCH  17  20
ENDBRANCH   1  12
BRANCH   6  22
ATOM     22  O   UNL     1      25.029  24.582   4.863  1.00  0.00    -0.507 OA
ATOM     23  H   UNL     1      25.333  24.267   3.956  1.00  0.00     0.293 HD
ENDBRANCH   6  22
BRANCH   8  24
ATOM     24  O   UNL     1      28.125  26.849   7.722  1.00  0.00    -0.508 OA
ATOM     25  H   UNL     1      28.639  25.984   7.845  1.00  0.00     0.293 HD
ENDBRANCH   8  24
TORSDOF 5
ENDMDL
MODEL 4
REMARK VINA RESULT:    -4.956      2.339      6.588
REMARK INTER + INTRA:          -6.092
REMARK INTER:                  -5.780
REMARK INTRA:                  -0.312
REMARK UNBOUND:                -0.266
REMARK SMILES O=c1cc(-c2ccc(O)c(O)c2)oc2cc(O)cc(O)c12
REMARK SMILES IDX 4 1 3 2 2 3 1 4 21 5 19 6 18 7 16 8 15 9 14 10 13 11 5 12
REMARK SMILES IDX 6 13 7 14 8 15 12 16 10 17 9 18 11 20 20 22 17 24
REMARK H PARENT 9 19 11 21 20 23 17 25
REMARK Flexibility Score: inf
ROOT
ATOM      1  C   UNL     1      24.910  27.136   6.202  1.00  0.00     0.138 A 
ATOM      2  C   UNL     1      26.304  27.252   6.289  1.00  0.00     0.100 A 
ATOM      3  C   UNL     1      26.870  28.435   6.765  1.00  0.00     0.197 A 
ATOM      4  O   UNL     1      28.125  28.528   6.781  1.00  0.00    -0.289 OA
ATOM      5  C   UNL     1      26.033  29.495   7.189  1.00  0.00     0.107 A 
ATOM      6  C   UNL     1      26.498  30.735   7.725  1.00  0.00     0.134 A 
ATOM      7  C   UNL     1      25.576  31.748   8.018  1.00  0.00     0.093 A 
ATOM      8  C   UNL     1      24.206  31.547   7.852  1.00  0.00     0.123 A 
ATOM      9  C   UNL     1      23.739  30.321   7.377  1.00  0.00     0.094 A 
ATOM     10  C   UNL     1      24.633  29.304   7.043  1.00  0.00     0.146 A 
ATOM     11  O   UNL     1      24.148  28.158   6.577  1.00  0.00    -0.456 OA
ENDROOT
BRANCH   1  12
ATOM     12  C   UNL     1      24.254  25.900   5.707  1.00  0.00     0.021 A 
ATOM     13  C   UNL     1      24.987  24.997   4.918  1.00  0.00     0.016 A 
ATOM     14  C   UNL     1      24.396  23.823   4.445  1.00  0.00     0.051 A 
ATOM     15  C   UNL     1      23.067  23.526   4.758  1.00  0.00     0.157 A 
ATOM     16  C   UNL     1      22.918  25.590   6.030  1.00  0.00     0.062 A 
ATOM     17  C   UNL     1      22.324  24.410   5.556  1.00  0.00     0.158 A 
BRANCH  15  18
ATOM     18  O   UNL     1      22.503  22.347   4.269  1.00  0.00    -0.504 OA
ATOM     19  H   UNL     1      22.540  22.099   3.287  1.00  0.00     0.293 HD
ENDBRANCH  15  18
BRANCH  17  20
ATOM     20  O   UNL     1      21.001  24.113   5.881  1.00  0.00    -0.504 OA
ATOM     21  H   UNL     1      20.770  23.437   6.600  1.00  0.00     0.293 HD
ENDBRANCH  17  20
ENDBRANCH   1  12
BRANCH   6  22
ATOM     22  O   UNL     1      27.839  31.014   8.006  1.00  0.00    -0.507 OA
ATOM     23  H   UNL     1      28.358  30.638   8.783  1.00  0.00     0.293 HD
ENDBRANCH   6  22
BRANCH   8  24
ATOM     24  O   UNL     1      23.318  32.572   8.169  1.00  0.00    -0.508 OA
ATOM     25  H   UNL     1      22.315  32.431   8.146  1.00  0.00     0.293 HD
ENDBRANCH   8  24
TORSDOF 5
ENDMDL
MODEL 5
REMARK VINA RESULT:    -4.852      1.625      6.622
REMARK INTER + INTRA:          -5.969
REMARK INTER:                  -5.682
REMARK INTRA:                  -0.287
REMARK UNBOUND:                -0.266
REMARK SMILES O=c1cc(-c2ccc(O)c(O)c2)oc2cc(O)cc(O)c12
REMARK SMILES IDX 4 1 3 2 2 3 1 4 21 5 19 6 18 7 16 8 15 9 14 10 13 11 5 12
REMARK SMILES IDX 6 13 7 14 8 15 12 16 10 17 9 18 11 20 20 22 17 24
REMARK H PARENT 9 19 11 21 20 23 17 25
REMARK Flexibility Score: inf
ROOT
ATOM      1  C   UNL     1      24.302  27.265   6.032  1.00  0.00     0.138 A 
ATOM      2  C   UNL     1      25.559  27.448   6.624  1.00  0.00     0.100 A 
ATOM      3  C   UNL     1      25.944  28.721   7.046  1.00  0.00     0.197 A 
ATOM      4  O   UNL     1      27.099  28.864   7.525  1.00  0.00    -0.289 OA
ATOM      5  C   UNL     1      25.050  29.810   6.905  1.00  0.00     0.107 A 
ATOM      6  C   UNL     1      25.320  31.146   7.331  1.00  0.00     0.134 A 
ATOM      7  C   UNL     1      24.396  32.161   7.048  1.00  0.00     0.093 A 
ATOM      8  C   UNL     1      23.189  31.879   6.410  1.00  0.00     0.123 A 
ATOM      9  C   UNL     1      22.893  30.568   6.035  1.00  0.00     0.094 A 
ATOM     10  C   UNL     1      23.807  29.541   6.271  1.00  0.00     0.146 A 
ATOM     11  O   UNL     1      23.494  28.309   5.882  1.00  0.00    -0.456 OA
ENDROOT
BRANCH   1  12
ATOM     12  C   UNL     1      23.839  25.933   5.568  1.00  0.00     0.021 A 
ATOM     13  C   UNL     1      24.676  25.158   4.746  1.00  0.00     0.016 A 
ATOM     14  C   UNL     1      24.268  23.898   4.301  1.00  0.00     0.051 A 
ATOM     15  C   UNL     1      23.023  23.386   4.676  1.00  0.00     0.157 A 
ATOM     16  C   UNL     1      22.591  25.406   5.954  1.00  0.00     0.062 A 
ATOM     17  C   UNL     1      22.181  24.140   5.508  1.00  0.00     0.158 A 
BRANCH  15  18
ATOM     18  O   UNL     1      22.643  22.126   4.214  1.00  0.00    -0.504 OA
ATOM     19  H   UNL     1      22.627  21.313   4.819  1.00  0.00     0.293 HD
ENDBRANCH  15  18
BRANCH  17  20
ATOM     20  O   UNL     1      20.942  23.629   5.895  1.00  0.00    -0.504 OA
ATOM     21  H   UNL     1      20.118  24.215   5.944  1.00  0.00     0.293 HD
ENDBRANCH  17  20
ENDBRANCH   1  12
BRANCH   6  22
ATOM     22  O   UNL     1      26.459  31.525   8.047  1.00  0.00    -0.507 OA
ATOM     23  H   UNL     1      26.727  32.476   8.251  1.00  0.00     0.293 HD
ENDBRANCH   6  22
BRANCH   8  24
ATOM     24  O   UNL     1      22.287  32.911   6.159  1.00  0.00    -0.508 OA
ATOM     25  H   UNL     1      21.686  32.904   5.344  1.00  0.00     0.293 HD
ENDBRANCH   8  24
TORSDOF 5
ENDMDL
MODEL 6
REMARK VINA RESULT:    -4.733      1.667      7.200
REMARK INTER + INTRA:          -5.830
REMARK INTER:                  -5.566
REMARK INTRA:                  -0.264
REMARK UNBOUND:                -0.266
REMARK SMILES O=c1cc(-c2ccc(O)c(O)c2)oc2cc(O)cc(O)c12
REMARK SMILES IDX 4 1 3 2 2 3 1 4 21 5 19 6 18 7 16 8 15 9 14 10 13 11 5 12
REMARK SMILES IDX 6 13 7 14 8 15 12 16 10 17 9 18 11 20 20 22 17 24
REMARK H PARENT 9 19 11 21 20 23 17 25
REMARK Flexibility Score: inf
ROOT
ATOM      1  C   UNL     1      24.547  28.975   5.729  1.00  0.00     0.138 A 
ATOM      2  C   UNL     1      24.248  29.259   4.390  1.00  0.00     0.100 A 
ATOM      3  C   UNL     1      23.383  30.310   4.083  1.00  0.00     0.197 A 
ATOM      4  O   UNL     1      23.092  30.505   2.875  1.00  0.00    -0.289 OA
ATOM      5  C   UNL     1      22.843  31.104   5.124  1.00  0.00     0.107 A 
ATOM      6  C   UNL     1      21.978  32.223   4.929  1.00  0.00     0.134 A 
ATOM      7  C   UNL     1      21.427  32.871   6.043  1.00  0.00     0.093 A 
ATOM      8  C   UNL     1      21.755  32.480   7.340  1.00  0.00     0.123 A 
ATOM      9  C   UNL     1      22.639  31.419   7.541  1.00  0.00     0.094 A 
ATOM     10  C   UNL     1      23.178  30.731   6.453  1.00  0.00     0.146 A 
ATOM     11  O   UNL     1      24.001  29.715   6.689  1.00  0.00    -0.456 OA
ENDROOT
BRANCH   1  12
ATOM     12  C   UNL     1      25.463  27.871   6.113  1.00  0.00     0.021 A 
ATOM     13  C   UNL     1      26.676  28.172   6.754  1.00  0.00     0.016 A 
ATOM     14  C   UNL     1      27.553  27.151   7.132  1.00  0.00     0.051 A 
ATOM     15  C   UNL     1      27.229  25.815   6.885  1.00  0.00     0.157 A 
ATOM     16  C   UNL     1      25.134  26.521   5.878  1.00  0.00     0.062 A 
ATOM     17  C   UNL     1      26.014  25.495   6.259  1.00  0.00     0.158 A 
BRANCH  15  18
ATOM     18  O   UNL     1      28.125  24.818   7.272  1.00  0.00    -0.504 OA
ATOM     19  H   UNL     1      28.472  24.745   8.222  1.00  0.00     0.293 HD
ENDBRANCH  15  18
BRANCH  17  20
ATOM     20  O   UNL     1      25.680  24.163   6.021  1.00  0.00    -0.504 OA
ATOM     21  H   UNL     1      25.245  23.871   5.154  1.00  0.00     0.293 HD
ENDBRANCH  17  20
ENDBRANCH   1  12
BRANCH   6  22
ATOM     22  O   UNL     1      21.646  32.749   3.677  1.00  0.00    -0.507 OA
ATOM     23  H   UNL     1      20.927  32.390   3.069  1.00  0.00     0.293 HD
ENDBRANCH   6  22
BRANCH   8  24
ATOM     24  O   UNL     1      21.200  33.158   8.423  1.00  0.00    -0.508 OA
ATOM     25  H   UNL     1      21.752  33.787   8.995  1.00  0.00     0.293 HD
ENDBRANCH   8  24
TORSDOF 5
ENDMDL
MODEL 7
REMARK VINA RESULT:    -4.676      2.383      6.752
REMARK INTER + INTRA:          -5.762
REMARK INTER:                  -5.476
REMARK INTRA:                  -0.287
REMARK UNBOUND:                -0.266
REMARK SMILES O=c1cc(-c2ccc(O)c(O)c2)oc2cc(O)cc(O)c12
REMARK SMILES IDX 4 1 3 2 2 3 1 4 21 5 19 6 18 7 16 8 15 9 14 10 13 11 5 12
REMARK SMILES IDX 6 13 7 14 8 15 12 16 10 17 9 18 11 20 20 22 17 24
REMARK H PARENT 9 19 11 21 20 23 17 25
REMARK Flexibility Score: inf
ROOT
ATOM      1  C   UNL     1      23.581  27.156   5.567  1.00  0.00     0.138 A 
ATOM      2  C   UNL     1      22.867  28.297   5.176  1.00  0.00     0.100 A 
ATOM      3  C   UNL     1      23.351  29.563   5.510  1.00  0.00     0.197 A 
ATOM      4  O   UNL     1      22.660  30.565   5.193  1.00  0.00    -0.289 OA
ATOM      5  C   UNL     1      24.576  29.686   6.210  1.00  0.00     0.107 A 
ATOM      6  C   UNL     1      25.184  30.926   6.574  1.00  0.00     0.134 A 
ATOM      7  C   UNL     1      26.349  30.920   7.352  1.00  0.00     0.093 A 
ATOM      8  C   UNL     1      26.959  29.724   7.729  1.00  0.00     0.123 A 
ATOM      9  C   UNL     1      26.399  28.507   7.336  1.00  0.00     0.094 A 
ATOM     10  C   UNL     1      25.221  28.479   6.589  1.00  0.00     0.146 A 
ATOM     11  O   UNL     1      24.712  27.299   6.251  1.00  0.00    -0.456 OA
ENDROOT
BRANCH   1  12
ATOM     12  C   UNL     1      23.115  25.786   5.236  1.00  0.00     0.021 A 
ATOM     13  C   UNL     1      24.059  24.765   5.035  1.00  0.00     0.016 A 
ATOM     14  C   UNL     1      23.647  23.465   4.730  1.00  0.00     0.051 A 
ATOM     15  C   UNL     1      22.287  23.161   4.629  1.00  0.00     0.157 A 
ATOM     16  C   UNL     1      21.744  25.471   5.147  1.00  0.00     0.062 A 
ATOM     17  C   UNL     1      21.330  24.166   4.842  1.00  0.00     0.158 A 
BRANCH  15  18
ATOM     18  O   UNL     1      21.906  21.855   4.321  1.00  0.00    -0.504 OA
ATOM     19  H   UNL     1      22.447  21.051   4.620  1.00  0.00     0.293 HD
ENDBRANCH  15  18
BRANCH  17  20
ATOM     20  O   UNL     1      19.971  23.865   4.754  1.00  0.00    -0.504 OA
ATOM     21  H   UNL     1      19.451  23.520   5.553  1.00  0.00     0.293 HD
ENDBRANCH  17  20
ENDBRANCH   1  12
BRANCH   6  22
ATOM     22  O   UNL     1      24.704  32.179   6.183  1.00  0.00    -0.507 OA
ATOM     23  H   UNL     1      24.228  32.373   5.317  1.00  0.00     0.293 HD
ENDBRANCH   6  22
BRANCH   8  24
ATOM     24  O   UNL     1      28.125  29.757   8.490  1.00  0.00    -0.508 OA
ATOM     25  H   UNL     1      28.616  28.908   8.747  1.00  0.00     0.293 HD
ENDBRANCH   8  24
TORSDOF 5
ENDMDL
MODEL 8
REMARK VINA RESULT:    -4.496      1.824      7.085
REMARK INTER + INTRA:          -5.551
REMARK INTER:                  -5.269
REMARK INTRA:                  -0.281
REMARK UNBOUND:                -0.266
REMARK SMILES O=c1cc(-c2ccc(O)c(O)c2)oc2cc(O)cc(O)c12
REMARK SMILES IDX 4 1 3 2 2 3 1 4 21 5 19 6 18 7 16 8 15 9 14 10 13 11 5 12
REMARK SMILES IDX 6 13 7 14 8 15 12 16 10 17 9 18 11 20 20 22 17 24
REMARK H PARENT 9 19 11 21 20 23 17 25
REMARK Flexibility Score: inf
ROOT
ATOM      1  C   UNL     1      25.252  27.353   6.332  1.00  0.00     0.138 A 
ATOM      2  C   UNL     1      26.393  27.827   6.994  1.00  0.00     0.100 A 
ATOM      3  C   UNL     1      26.447  29.158   7.410  1.00  0.00     0.197 A 
ATOM      4  O   UNL     1      27.506  29.566   7.953  1.00  0.00    -0.289 OA
ATOM      5  C   UNL     1      25.338  30.010   7.191  1.00  0.00     0.107 A 
ATOM      6  C   UNL     1      25.267  31.375   7.602  1.00  0.00     0.134 A 
ATOM      7  C   UNL     1      24.154  32.147   7.242  1.00  0.00     0.093 A 
ATOM      8  C   UNL     1      23.087  31.590   6.539  1.00  0.00     0.123 A 
ATOM      9  C   UNL     1      23.124  30.242   6.177  1.00  0.00     0.094 A 
ATOM     10  C   UNL     1      24.234  29.456   6.490  1.00  0.00     0.146 A 
ATOM     11  O   UNL     1      24.237  28.183   6.110  1.00  0.00    -0.456 OA
ENDROOT
BRANCH   1  12
ATOM     12  C   UNL     1      25.138  25.947   5.870  1.00  0.00     0.021 A 
ATOM     13  C   UNL     1      23.911  25.274   6.001  1.00  0.00     0.016 A 
ATOM     14  C   UNL     1      23.775  23.952   5.568  1.00  0.00     0.051 A 
ATOM     15  C   UNL     1      24.857  23.284   4.990  1.00  0.00     0.157 A 
ATOM     16  C   UNL     1      26.222  25.273   5.274  1.00  0.00     0.062 A 
ATOM     17  C   UNL     1      26.086  23.946   4.838  1.00  0.00     0.158 A 
BRANCH  15  18
ATOM     18  O   UNL     1      24.691  21.964   4.570  1.00  0.00    -0.504 OA
ATOM     19  H   UNL     1      23.782  21.515   4.551  1.00  0.00     0.293 HD
ENDBRANCH  15  18
BRANCH  17  20
ATOM     20  O   UNL     1      27.166  23.287   4.251  1.00  0.00    -0.504 OA
ATOM     21  H   UNL     1      27.580  22.465   4.675  1.00  0.00     0.293 HD
ENDBRANCH  17  20
ENDBRANCH   1  12
BRANCH   6  22
ATOM     22  O   UNL     1      26.241  32.013   8.377  1.00  0.00    -0.507 OA
ATOM     23  H   UNL     1      26.687  31.616   9.189  1.00  0.00     0.293 HD
ENDBRANCH   6  22
BRANCH   8  24
ATOM     24  O   UNL     1      21.990  32.383   6.212  1.00  0.00    -0.508 OA
ATOM     25  H   UNL     1      21.261  32.052   5.591  1.00  0.00     0.293 HD
ENDBRANCH   8  24
TORSDOF 5
ENDMDL
MODEL 9
REMARK VINA RESULT:    -4.413      2.484      3.795
REMARK INTER + INTRA:          -5.454
REMARK INTER:                  -5.144
REMARK INTRA:                  -0.310
REMARK UNBOUND:                -0.266
REMARK SMILES O=c1cc(-c2ccc(O)c(O)c2)oc2cc(O)cc(O)c12
REMARK SMILES IDX 4 1 3 2 2 3 1 4 21 5 19 6 18 7 16 8 15 9 14 10 13 11 5 12
REMARK SMILES IDX 6 13 7 14 8 15 12 16 10 17 9 18 11 20 20 22 17 24
REMARK H PARENT 9 19 11 21 20 23 17 25
REMARK Flexibility Score: inf
ROOT
ATOM      1  C   UNL     1      24.740  26.947   6.151  1.00  0.00     0.138 A 
ATOM      2  C   UNL     1      25.773  26.112   5.705  1.00  0.00     0.100 A 
ATOM      3  C   UNL     1      25.467  24.857   5.178  1.00  0.00     0.197 A 
ATOM      4  O   UNL     1      26.419  24.109   4.836  1.00  0.00    -0.289 OA
ATOM      5  C   UNL     1      24.115  24.451   5.066  1.00  0.00     0.107 A 
ATOM      6  C   UNL     1      23.682  23.207   4.513  1.00  0.00     0.134 A 
ATOM      7  C   UNL     1      22.321  22.875   4.546  1.00  0.00     0.093 A 
ATOM      8  C   UNL     1      21.374  23.762   5.056  1.00  0.00     0.123 A 
ATOM      9  C   UNL     1      21.782  25.001   5.553  1.00  0.00     0.094 A 
ATOM     10  C   UNL     1      23.134  25.347   5.566  1.00  0.00     0.146 A 
ATOM     11  O   UNL     1      23.482  26.529   6.064  1.00  0.00    -0.456 OA
ENDROOT
BRANCH   1  12
ATOM     12  C   UNL     1      25.007  28.293   6.717  1.00  0.00     0.021 A 
ATOM     13  C   UNL     1      26.268  28.571   7.274  1.00  0.00     0.016 A 
ATOM     14  C   UNL     1      26.547  29.832   7.807  1.00  0.00     0.051 A 
ATOM     15  C   UNL     1      25.579  30.839   7.785  1.00  0.00     0.157 A 
ATOM     16  C   UNL     1      24.038  29.316   6.686  1.00  0.00     0.062 A 
ATOM     17  C   UNL     1      24.319  30.583   7.219  1.00  0.00     0.158 A 
BRANCH  15  18
ATOM     18  O   UNL     1      25.887  32.087   8.326  1.00  0.00    -0.504 OA
ATOM     19  H   UNL     1      26.726  32.594   8.067  1.00  0.00     0.293 HD
ENDBRANCH  15  18
BRANCH  17  20
ATOM     20  O   UNL     1      23.353  31.588   7.185  1.00  0.00    -0.504 OA
ATOM     21  H   UNL     1      23.047  32.000   6.311  1.00  0.00     0.293 HD
ENDBRANCH  17  20
ENDBRANCH   1  12
BRANCH   6  22
ATOM     22  O   UNL     1      24.534  22.280   3.905  1.00  0.00    -0.507 OA
ATOM     23  H   UNL     1      25.152  22.479   3.135  1.00  0.00     0.293 HD
ENDBRANCH   6  22
BRANCH   8  24
ATOM     24  O   UNL     1      20.028  23.404   5.058  1.00  0.00    -0.508 OA
ATOM     25  H   UNL     1      19.294  24.099   5.000  1.00  0.00     0.293 HD
ENDBRANCH   8  24
TORSDOF 5
ENDMDL
