MODEL 1
REMARK VINA RESULT:    -6.292      0.000      0.000
REMARK INTER + INTRA:          -7.671
REMARK INTER:                  -7.396
REMARK INTRA:                  -0.275
REMARK UNBOUND:                -0.275
REMARK SMILES O=c1cc(-c2ccc(O)c(O)c2)oc2cc(O)cc(O)c12
REMARK SMILES IDX 4 1 3 2 2 3 1 4 21 5 19 6 18 7 16 8 15 9 14 10 13 11 5 12
REMARK SMILES IDX 6 13 7 14 8 15 12 16 10 17 9 18 11 20 20 22 17 24
REMARK H PARENT 9 19 11 21 20 23 17 25
REMARK Flexibility Score: inf
ROOT
ATOM      1  C   UNL     1      24.575  30.223   6.950  1.00  0.00     0.138 A 
ATOM      2  C   UNL     1      24.071  30.852   8.097  1.00  0.00     0.100 A 
ATOM      3  C   UNL     1      22.960  31.691   7.993  1.00  0.00     0.197 A 
ATOM      4  O   UNL     1      22.493  32.192   9.048  1.00  0.00    -0.289 OA
ATOM      5  C   UNL     1      22.372  31.924   6.727  1.00  0.00     0.107 A 
ATOM      6  C   UNL     1      21.262  32.790   6.495  1.00  0.00     0.134 A 
ATOM      7  C   UNL     1      20.691  32.852   5.217  1.00  0.00     0.093 A 
ATOM      8  C   UNL     1      21.227  32.124   4.152  1.00  0.00     0.123 A 
ATOM      9  C   UNL     1      22.343  31.318   4.357  1.00  0.00     0.094 A 
ATOM     10  C   UNL     1      22.915  31.208   5.627  1.00  0.00     0.146 A 
ATOM     11  O   UNL     1      23.970  30.415   5.784  1.00  0.00    -0.456 OA
ENDROOT
BRANCH   1  12
ATOM     12  C   UNL     1      25.754  29.322   7.005  1.00  0.00     0.021 A 
ATOM     13  C   UNL     1      25.755  28.065   6.370  1.00  0.00     0.016 A 
ATOM     14  C   UNL     1      26.876  27.234   6.446  1.00  0.00     0.051 A 
ATOM     15  C   UNL     1      28.009  27.637   7.163  1.00  0.00     0.157 A 
ATOM     16  C   UNL     1      26.890  29.713   7.735  1.00  0.00     0.062 A 
ATOM     17  C   UNL     1      28.014  28.883   7.812  1.00  0.00     0.158 A 
BRANCH  15  18
ATOM     18  O   UNL     1      29.125  26.805   7.237  1.00  0.00    -0.504 OA
ATOM     19  H   UNL     1      29.039  25.797   7.181  1.00  0.00     0.293 HD
ENDBRANCH  15  18
BRANCH  17  20
ATOM     20  O   UNL     1      29.125  29.312   8.538  1.00  0.00    -0.504 OA
ATOM     21  H   UNL     1      29.494  30.252   8.452  1.00  0.00     0.293 HD
ENDBRANCH  17  20
ENDBRANCH   1  12
BRANCH   6  22
ATOM     22  O   UNL     1      20.703  33.623   7.469  1.00  0.00    -0.507 OA
ATOM     23  H   UNL     1      21.196  33.984   8.271  1.00  0.00     0.293 HD
ENDBRANCH   6  22
BRANCH   8  24
ATOM     24  O   UNL     1      20.661  32.204   2.881  1.00  0.00    -0.508 OA
ATOM     25  H   UNL     1      20.018  31.500   2.543  1.00  0.00     0.293 HD
ENDBRANCH   8  24
TORSDOF 5
ENDMDL
MODEL 2
REMARK VINA RESULT:    -6.126      1.181      2.704
REMARK INTER + INTRA:          -7.476
REMARK INTER:                  -7.189
REMARK INTRA:                  -0.287
REMARK UNBOUND:                -0.275
REMARK SMILES O=c1cc(-c2ccc(O)c(O)c2)oc2cc(O)cc(O)c12
REMARK SMILES IDX 4 1 3 2 2 3 1 4 21 5 19 6 18 7 16 8 15 9 14 10 13 11 5 12
REMARK SMILES IDX 6 13 7 14 8 15 12 16 10 17 9 18 11 20 20 22 17 24
REMARK H PARENT 9 19 11 21 20 23 17 25
REMARK Flexibility Score: inf
ROOT
ATOM      1  C   UNL     1      24.992  29.515   6.107  1.00  0.00     0.138 A 
ATOM      2  C   UNL     1      24.734  29.704   4.742  1.00  0.00     0.100 A 
ATOM      3  C   UNL     1      23.711  30.567   4.346  1.00  0.00     0.197 A 
ATOM      4  O   UNL     1      23.543  30.763   3.115  1.00  0.00    -0.289 OA
ATOM      5  C   UNL     1      22.924  31.221   5.324  1.00  0.00     0.107 A 
ATOM      6  C   UNL     1      21.830  32.091   5.038  1.00  0.00     0.134 A 
ATOM      7  C   UNL     1      21.198  32.773   6.086  1.00  0.00     0.093 A 
ATOM      8  C   UNL     1      21.583  32.569   7.413  1.00  0.00     0.123 A 
ATOM      9  C   UNL     1      22.614  31.681   7.707  1.00  0.00     0.094 A 
ATOM     10  C   UNL     1      23.287  31.011   6.682  1.00  0.00     0.146 A 
ATOM     11  O   UNL     1      24.275  30.183   7.003  1.00  0.00    -0.456 OA
ENDROOT
BRANCH   1  12
ATOM     12  C   UNL     1      26.066  28.608   6.582  1.00  0.00     0.021 A 
ATOM     13  C   UNL     1      26.145  27.267   6.158  1.00  0.00     0.016 A 
ATOM     14  C   UNL     1      27.161  26.433   6.630  1.00  0.00     0.051 A 
ATOM     15  C   UNL     1      28.110  26.917   7.538  1.00  0.00     0.157 A 
ATOM     16  C   UNL     1      27.015  29.082   7.505  1.00  0.00     0.062 A 
ATOM     17  C   UNL     1      28.035  28.249   7.979  1.00  0.00     0.158 A 
BRANCH  15  18
ATOM     18  O   UNL     1      29.124  26.082   8.007  1.00  0.00    -0.504 OA
ATOM     19  H   UNL     1      29.429  26.109   8.972  1.00  0.00     0.293 HD
ENDBRANCH  15  18
BRANCH  17  20
ATOM     20  O   UNL     1      28.961  28.761   8.886  1.00  0.00    -0.504 OA
ATOM     21  H   UNL     1      28.737  28.903   9.864  1.00  0.00     0.293 HD
ENDBRANCH  17  20
ENDBRANCH   1  12
BRANCH   6  22
ATOM     22  O   UNL     1      21.312  32.300   3.756  1.00  0.00    -0.507 OA
ATOM     23  H   UNL     1      21.466  31.692   2.966  1.00  0.00     0.293 HD
ENDBRANCH   6  22
BRANCH   8  24
ATOM     24  O   UNL     1      20.939  33.241   8.451  1.00  0.00    -0.508 OA
ATOM     25  H   UNL     1      21.018  34.245   8.561  1.00  0.00     0.293 HD
ENDBRANCH   8  24
TORSDOF 5
ENDMDL
MODEL 3
REMARK VINA RESULT:    -5.874      1.508      7.296
REMARK INTER + INTRA:          -7.180
REMARK INTER:                  -6.884
REMARK INTRA:                  -0.295
REMARK UNBOUND:                -0.275
REMARK SMILES O=c1cc(-c2ccc(O)c(O)c2)oc2cc(O)cc(O)c12
REMARK SMILES IDX 4 1 3 2 2 3 1 4 21 5 19 6 18 7 16 8 15 9 14 10 13 11 5 12
REMARK SMILES IDX 6 13 7 14 8 15 12 16 10 17 9 18 11 20 20 22 17 24
REMARK H PARENT 9 19 11 21 20 23 17 25
REMARK Flexibility Score: inf
ROOT
ATOM      1  C   UNL     1      24.140  29.542   5.813  1.00  0.00     0.138 A 
ATOM      2  C   UNL     1      24.049  28.276   5.217  1.00  0.00     0.100 A 
ATOM      3  C   UNL     1      25.035  27.321   5.472  1.00  0.00     0.197 A 
ATOM      4  O   UNL     1      24.894  26.175   4.973  1.00  0.00    -0.289 OA
ATOM      5  C   UNL     1      26.132  27.647   6.304  1.00  0.00     0.107 A 
ATOM      6  C   UNL     1      27.215  26.767   6.602  1.00  0.00     0.134 A 
ATOM      7  C   UNL     1      28.187  27.160   7.532  1.00  0.00     0.093 A 
ATOM      8  C   UNL     1      28.145  28.423   8.128  1.00  0.00     0.123 A 
ATOM      9  C   UNL     1      27.122  29.308   7.803  1.00  0.00     0.094 A 
ATOM     10  C   UNL     1      26.119  28.934   6.905  1.00  0.00     0.146 A 
ATOM     11  O   UNL     1      25.151  29.803   6.633  1.00  0.00    -0.456 OA
ENDROOT
BRANCH   1  12
ATOM     12  C   UNL     1      23.121  30.594   5.575  1.00  0.00     0.021 A 
ATOM     13  C   UNL     1      22.626  30.867   4.284  1.00  0.00     0.016 A 
ATOM     14  C   UNL     1      21.674  31.871   4.089  1.00  0.00     0.051 A 
ATOM     15  C   UNL     1      21.206  32.624   5.172  1.00  0.00     0.157 A 
ATOM     16  C   UNL     1      22.656  31.365   6.655  1.00  0.00     0.062 A 
ATOM     17  C   UNL     1      21.702  32.371   6.461  1.00  0.00     0.158 A 
BRANCH  15  18
ATOM     18  O   UNL     1      20.256  33.625   4.972  1.00  0.00    -0.504 OA
ATOM     19  H   UNL     1      19.915  33.855   4.046  1.00  0.00     0.293 HD
ENDBRANCH  15  18
BRANCH  17  20
ATOM     20  O   UNL     1      21.260  33.106   7.561  1.00  0.00    -0.504 OA
ATOM     21  H   UNL     1      21.856  33.773   8.037  1.00  0.00     0.293 HD
ENDBRANCH  17  20
ENDBRANCH   1  12
BRANCH   6  22
ATOM     22  O   UNL     1      27.397  25.519   5.999  1.00  0.00    -0.507 OA
ATOM     23  H   UNL     1      28.190  25.263   5.431  1.00  0.00     0.293 HD
ENDBRANCH   6  22
BRANCH   8  24
ATOM     24  O   UNL     1      29.125  28.810   9.041  1.00  0.00    -0.508 OA
ATOM     25  H   UNL     1      29.926  29.359   8.756  1.00  0.00     0.293 HD
ENDBRANCH   8  24
TORSDOF 5
ENDMDL
MODEL 4
REMARK VINA RESULT:    -5.749      1.484      7.013
REMARK INTER + INTRA:          -7.033
REMARK INTER:                  -6.764
REMARK INTRA:                  -0.269
REMARK UNBOUND:                -0.275
REMARK SMILES O=c1cc(-c2ccc(O)c(O)c2)oc2cc(O)cc(O)c12
REMARK SMILES IDX 4 1 3 2 2 3 1 4 21 5 19 6 18 7 16 8 15 9 14 10 13 11 5 12
REMARK SMILES IDX 6 13 7 14 8 15 12 16 10 17 9 18 11 20 20 22 17 24
REMARK H PARENT 9 19 11 21 20 23 17 25
REMARK Flexibility Score: inf
ROOT
ATOM      1  C   UNL     1      24.822  29.735   6.670  1.00  0.00     0.138 A 
ATOM      2  C   UNL     1      25.963  30.155   7.367  1.00  0.00     0.100 A 
ATOM      3  C   UNL     1      27.017  29.261   7.568  1.00  0.00     0.197 A 
ATOM      4  O   UNL     1      28.053  29.684   8.142  1.00  0.00    -0.289 OA
ATOM      5  C   UNL     1      26.912  27.933   7.092  1.00  0.00     0.107 A 
ATOM      6  C   UNL     1      27.906  26.925   7.274  1.00  0.00     0.134 A 
ATOM      7  C   UNL     1      27.743  25.676   6.658  1.00  0.00     0.093 A 
ATOM      8  C   UNL     1      26.595  25.383   5.918  1.00  0.00     0.123 A 
ATOM      9  C   UNL     1      25.595  26.342   5.781  1.00  0.00     0.094 A 
ATOM     10  C   UNL     1      25.743  27.607   6.354  1.00  0.00     0.146 A 
ATOM     11  O   UNL     1      24.773  28.499   6.187  1.00  0.00    -0.456 OA
ENDROOT
BRANCH   1  12
ATOM     12  C   UNL     1      23.673  30.644   6.430  1.00  0.00     0.021 A 
ATOM     13  C   UNL     1      23.203  30.915   5.130  1.00  0.00     0.016 A 
ATOM     14  C   UNL     1      22.125  31.783   4.934  1.00  0.00     0.051 A 
ATOM     15  C   UNL     1      21.504  32.400   6.027  1.00  0.00     0.157 A 
ATOM     16  C   UNL     1      23.053  31.279   7.521  1.00  0.00     0.062 A 
ATOM     17  C   UNL     1      21.972  32.147   7.327  1.00  0.00     0.158 A 
BRANCH  15  18
ATOM     18  O   UNL     1      20.428  33.264   5.827  1.00  0.00    -0.504 OA
ATOM     19  H   UNL     1      20.039  33.810   6.586  1.00  0.00     0.293 HD
ENDBRANCH  15  18
BRANCH  17  20
ATOM     20  O   UNL     1      21.379  32.749   8.436  1.00  0.00    -0.504 OA
ATOM     21  H   UNL     1      20.443  32.510   8.742  1.00  0.00     0.293 HD
ENDBRANCH  17  20
ENDBRANCH   1  12
BRANCH   6  22
ATOM     22  O   UNL     1      29.049  27.086   8.062  1.00  0.00    -0.507 OA
ATOM     23  H   UNL     1      29.982  27.223   7.704  1.00  0.00     0.293 HD
ENDBRANCH   6  22
BRANCH   8  24
ATOM     24  O   UNL     1      26.435  24.133   5.322  1.00  0.00    -0.508 OA
ATOM     25  H   UNL     1      27.139  23.410   5.410  1.00  0.00     0.293 HD
ENDBRANCH   8  24
TORSDOF 5
ENDMDL
MODEL 5
REMARK VINA RESULT:    -5.699      1.522      7.085
REMARK INTER + INTRA:          -6.974
REMARK INTER:                  -6.680
REMARK INTRA:                  -0.294
REMARK UNBOUND:                -0.275
REMARK SMILES O=c1cc(-c2ccc(O)c(O)c2)oc2cc(O)cc(O)c12
REMARK SMILES IDX 4 1 3 2 2 3 1 4 21 5 19 6 18 7 16 8 15 9 14 10 13 11 5 12
REMARK SMILES IDX 6 13 7 14 8 15 12 16 10 17 9 18 11 20 20 22 17 24
REMARK H PARENT 9 19 11 21 20 23 17 25
REMARK Flexibility Score: inf
ROOT
ATOM      1  C   UNL     1      24.911  29.688   7.005  1.00  0.00     0.138 A 
ATOM      2  C   UNL     1      26.136  29.991   7.617  1.00  0.00     0.100 A 
ATOM      3  C   UNL     1      27.160  29.043   7.618  1.00  0.00     0.197 A 
ATOM      4  O   UNL     1      28.267  29.366   8.119  1.00  0.00    -0.289 OA
ATOM      5  C   UNL     1      26.945  27.775   7.028  1.00  0.00     0.107 A 
ATOM      6  C   UNL     1      27.902  26.717   7.005  1.00  0.00     0.134 A 
ATOM      7  C   UNL     1      27.619  25.545   6.291  1.00  0.00     0.093 A 
ATOM      8  C   UNL     1      26.389  25.371   5.650  1.00  0.00     0.123 A 
ATOM      9  C   UNL     1      25.428  26.376   5.713  1.00  0.00     0.094 A 
ATOM     10  C   UNL     1      25.693  27.570   6.388  1.00  0.00     0.146 A 
ATOM     11  O   UNL     1      24.754  28.511   6.411  1.00  0.00    -0.456 OA
ENDROOT
BRANCH   1  12
ATOM     12  C   UNL     1      23.789  30.659   6.977  1.00  0.00     0.021 A 
ATOM     13  C   UNL     1      23.401  31.376   8.126  1.00  0.00     0.016 A 
ATOM     14  C   UNL     1      22.334  32.276   8.072  1.00  0.00     0.051 A 
ATOM     15  C   UNL     1      21.630  32.470   6.878  1.00  0.00     0.157 A 
ATOM     16  C   UNL     1      23.067  30.849   5.785  1.00  0.00     0.062 A 
ATOM     17  C   UNL     1      21.998  31.751   5.728  1.00  0.00     0.158 A 
BRANCH  15  18
ATOM     18  O   UNL     1      20.566  33.369   6.828  1.00  0.00    -0.504 OA
ATOM     19  H   UNL     1      20.479  34.047   6.080  1.00  0.00     0.293 HD
ENDBRANCH  15  18
BRANCH  17  20
ATOM     20  O   UNL     1      21.316  31.917   4.524  1.00  0.00    -0.504 OA
ATOM     21  H   UNL     1      20.513  32.530   4.440  1.00  0.00     0.293 HD
ENDBRANCH  17  20
ENDBRANCH   1  12
BRANCH   6  22
ATOM     22  O   UNL     1      29.125  26.754   7.682  1.00  0.00    -0.507 OA
ATOM     23  H   UNL     1      29.249  27.068   8.632  1.00  0.00     0.293 HD
ENDBRANCH   6  22
BRANCH   8  24
ATOM     24  O   UNL     1      26.111  24.196   4.955  1.00  0.00    -0.508 OA
ATOM     25  H   UNL     1      25.270  24.096   4.400  1.00  0.00     0.293 HD
ENDBRANCH   8  24
TORSDOF 5
ENDMDL
MODEL 6
REMARK VINA RESULT:    -5.543      1.529      3.273
REMARK INTER + INTRA:          -6.790
REMARK INTER:                  -6.525
REMARK INTRA:                  -0.265
REMARK UNBOUND:                -0.275
REMARK SMILES O=c1cc(-c2ccc(O)c(O)c2)oc2cc(O)cc(O)c12
REMARK SMILES IDX 4 1 3 2 2 3 1 4 21 5 19 6 18 7 16 8 15 9 14 10 13 11 5 12
REMARK SMILES IDX 6 13 7 14 8 15 12 16 10 17 9 18 11 20 20 22 17 24
REMARK H PARENT 9 19 11 21 20 23 17 25
REMARK Flexibility Score: inf
ROOT
ATOM      1  C   UNL     1      24.639  29.339   5.767  1.00  0.00     0.138 A 
ATOM      2  C   UNL     1      24.346  29.611   4.424  1.00  0.00     0.100 A 
ATOM      3  C   UNL     1      23.381  30.569   4.108  1.00  0.00     0.197 A 
ATOM      4  O   UNL     1      23.184  30.836   2.895  1.00  0.00    -0.289 OA
ATOM      5  C   UNL     1      22.685  31.234   5.146  1.00  0.00     0.107 A 
ATOM      6  C   UNL     1      21.654  32.200   4.943  1.00  0.00     0.134 A 
ATOM      7  C   UNL     1      21.117  32.878   6.046  1.00  0.00     0.093 A 
ATOM      8  C   UNL     1      21.533  32.581   7.346  1.00  0.00     0.123 A 
ATOM      9  C   UNL     1      22.501  31.603   7.557  1.00  0.00     0.094 A 
ATOM     10  C   UNL     1      23.080  30.933   6.477  1.00  0.00     0.146 A 
ATOM     11  O   UNL     1      24.011  30.017   6.721  1.00  0.00    -0.456 OA
ENDROOT
BRANCH   1  12
ATOM     12  C   UNL     1      25.655  28.329   6.158  1.00  0.00     0.021 A 
ATOM     13  C   UNL     1      26.857  28.697   6.793  1.00  0.00     0.016 A 
ATOM     14  C   UNL     1      27.800  27.726   7.141  1.00  0.00     0.051 A 
ATOM     15  C   UNL     1      27.565  26.376   6.853  1.00  0.00     0.157 A 
ATOM     16  C   UNL     1      25.434  26.973   5.860  1.00  0.00     0.062 A 
ATOM     17  C   UNL     1      26.376  25.999   6.208  1.00  0.00     0.158 A 
BRANCH  15  18
ATOM     18  O   UNL     1      28.508  25.410   7.202  1.00  0.00    -0.504 OA
ATOM     19  H   UNL     1      29.502  25.601   7.162  1.00  0.00     0.293 HD
ENDBRANCH  15  18
BRANCH  17  20
ATOM     20  O   UNL     1      26.114  24.663   5.904  1.00  0.00    -0.504 OA
ATOM     21  H   UNL     1      25.722  24.023   6.584  1.00  0.00     0.293 HD
ENDBRANCH  17  20
ENDBRANCH   1  12
BRANCH   6  22
ATOM     22  O   UNL     1      21.107  32.509   3.694  1.00  0.00    -0.507 OA
ATOM     23  H   UNL     1      20.259  32.110   3.321  1.00  0.00     0.293 HD
ENDBRANCH   6  22
BRANCH   8  24
ATOM     24  O   UNL     1      20.983  33.251   8.437  1.00  0.00    -0.508 OA
ATOM     25  H   UNL     1      21.101  34.249   8.561  1.00  0.00     0.293 HD
ENDBRANCH   8  24
TORSDOF 5
ENDMDL
MODEL 7
REMARK VINA RESULT:    -5.396      2.203      7.133
REMARK INTER + INTRA:          -6.618
REMARK INTER:                  -6.356
REMARK INTRA:                  -0.262
REMARK UNBOUND:                -0.275
REMARK SMILES O=c1cc(-c2ccc(O)c(O)c2)oc2cc(O)cc(O)c12
REMARK SMILES IDX 4 1 3 2 2 3 1 4 21 5 19 6 18 7 16 8 15 9 14 10 13 11 5 12
REMARK SMILES IDX 6 13 7 14 8 15 12 16 10 17 9 18 11 20 20 22 17 24
REMARK H PARENT 9 19 11 21 20 23 17 25
REMARK Flexibility Score: inf
ROOT
ATOM      1  C   UNL     1      24.663  29.570   6.164  1.00  0.00     0.138 A 
ATOM      2  C   UNL     1      25.795  29.927   5.419  1.00  0.00     0.100 A 
ATOM      3  C   UNL     1      26.641  28.930   4.930  1.00  0.00     0.197 A 
ATOM      4  O   UNL     1      27.615  29.277   4.213  1.00  0.00    -0.289 OA
ATOM      5  C   UNL     1      26.365  27.571   5.214  1.00  0.00     0.107 A 
ATOM      6  C   UNL     1      27.179  26.474   4.801  1.00  0.00     0.134 A 
ATOM      7  C   UNL     1      26.744  25.164   5.042  1.00  0.00     0.093 A 
ATOM      8  C   UNL     1      25.555  24.915   5.732  1.00  0.00     0.123 A 
ATOM      9  C   UNL     1      24.782  25.980   6.187  1.00  0.00     0.094 A 
ATOM     10  C   UNL     1      25.171  27.297   5.933  1.00  0.00     0.146 A 
ATOM     11  O   UNL     1      24.397  28.285   6.370  1.00  0.00    -0.456 OA
ENDROOT
BRANCH   1  12
ATOM     12  C   UNL     1      23.731  30.589   6.710  1.00  0.00     0.021 A 
ATOM     13  C   UNL     1      23.821  31.036   8.043  1.00  0.00     0.016 A 
ATOM     14  C   UNL     1      22.924  31.989   8.532  1.00  0.00     0.051 A 
ATOM     15  C   UNL     1      21.919  32.506   7.706  1.00  0.00     0.157 A 
ATOM     16  C   UNL     1      22.710  31.103   5.891  1.00  0.00     0.062 A 
ATOM     17  C   UNL     1      21.811  32.058   6.379  1.00  0.00     0.158 A 
BRANCH  15  18
ATOM     18  O   UNL     1      21.027  33.457   8.198  1.00  0.00    -0.504 OA
ATOM     19  H   UNL     1      21.243  34.013   9.017  1.00  0.00     0.293 HD
ENDBRANCH  15  18
BRANCH  17  20
ATOM     20  O   UNL     1      20.819  32.549   5.531  1.00  0.00    -0.504 OA
ATOM     21  H   UNL     1      20.001  33.033   5.883  1.00  0.00     0.293 HD
ENDBRANCH  17  20
ENDBRANCH   1  12
BRANCH   6  22
ATOM     22  O   UNL     1      28.423  26.614   4.179  1.00  0.00    -0.507 OA
ATOM     23  H   UNL     1      29.020  27.423   4.258  1.00  0.00     0.293 HD
ENDBRANCH   6  22
BRANCH   8  24
ATOM     24  O   UNL     1      25.139  23.608   5.980  1.00  0.00    -0.508 OA
ATOM     25  H   UNL     1      24.554  23.380   6.775  1.00  0.00     0.293 HD
ENDBRANCH   8  24
TORSDOF 5
ENDMDL
MODEL 8
REMARK VINA RESULT:    -5.309      2.721      7.048
REMARK INTER + INTRA:          -6.515
REMARK INTER:                  -6.252
REMARK INTRA:                  -0.263
REMARK UNBOUND:                -0.275
REMARK SMILES O=c1cc(-c2ccc(O)c(O)c2)oc2cc(O)cc(O)c12
REMARK SMILES IDX 4 1 3 2 2 3 1 4 21 5 19 6 18 7 16 8 15 9 14 10 13 11 5 12
REMARK SMILES IDX 6 13 7 14 8 15 12 16 10 17 9 18 11 20 20 22 17 24
REMARK H PARENT 9 19 11 21 20 23 17 25
REMARK Flexibility Score: inf
ROOT
ATOM      1  C   UNL     1      23.779  28.955   5.937  1.00  0.00     0.138 A 
ATOM      2  C   UNL     1      25.143  28.937   6.260  1.00  0.00     0.100 A 
ATOM      3  C   UNL     1      25.813  27.717   6.357  1.00  0.00     0.197 A 
ATOM      4  O   UNL     1      27.050  27.735   6.586  1.00  0.00    -0.289 OA
ATOM      5  C   UNL     1      25.105  26.508   6.158  1.00  0.00     0.107 A 
ATOM      6  C   UNL     1      25.675  25.205   6.271  1.00  0.00     0.134 A 
ATOM      7  C   UNL     1      24.904  24.083   5.939  1.00  0.00     0.093 A 
ATOM      8  C   UNL     1      23.567  24.215   5.556  1.00  0.00     0.123 A 
ATOM      9  C   UNL     1      22.987  25.479   5.495  1.00  0.00     0.094 A 
ATOM     10  C   UNL     1      23.738  26.620   5.787  1.00  0.00     0.146 A 
ATOM     11  O   UNL     1      23.150  27.808   5.703  1.00  0.00    -0.456 OA
ENDROOT
BRANCH   1  12
ATOM     12  C   UNL     1      23.017  30.224   5.823  1.00  0.00     0.021 A 
ATOM     13  C   UNL     1      22.669  30.769   4.572  1.00  0.00     0.016 A 
ATOM     14  C   UNL     1      21.961  31.971   4.495  1.00  0.00     0.051 A 
ATOM     15  C   UNL     1      21.595  32.654   5.661  1.00  0.00     0.157 A 
ATOM     16  C   UNL     1      22.659  30.924   6.989  1.00  0.00     0.062 A 
ATOM     17  C   UNL     1      21.948  32.127   6.915  1.00  0.00     0.158 A 
BRANCH  15  18
ATOM     18  O   UNL     1      20.888  33.852   5.580  1.00  0.00    -0.504 OA
ATOM     19  H   UNL     1      20.676  34.399   6.405  1.00  0.00     0.293 HD
ENDBRANCH  15  18
BRANCH  17  20
ATOM     20  O   UNL     1      21.603  32.784   8.095  1.00  0.00    -0.504 OA
ATOM     21  H   UNL     1      20.767  33.352   8.171  1.00  0.00     0.293 HD
ENDBRANCH  17  20
ENDBRANCH   1  12
BRANCH   6  22
ATOM     22  O   UNL     1      26.974  24.956   6.725  1.00  0.00    -0.507 OA
ATOM     23  H   UNL     1      27.535  24.161   6.461  1.00  0.00     0.293 HD
ENDBRANCH   6  22
BRANCH   8  24
ATOM     24  O   UNL     1      22.804  23.092   5.241  1.00  0.00    -0.508 OA
ATOM     25  H   UNL     1      22.147  22.697   5.902  1.00  0.00     0.293 HD
ENDBRANCH   8  24
TORSDOF 5
ENDMDL
MODEL 9
REMARK VINA RESULT:    -5.196      1.808      7.255
REMARK INTER + INTRA:          -6.383
REMARK INTER:                  -6.092
REMARK INTRA:                  -0.291
REMARK UNBOUND:                -0.275
REMARK SMILES O=c1cc(-c2ccc(O)c(O)c2)oc2cc(O)cc(O)c12
REMARK SMILES IDX 4 1 3 2 2 3 1 4 21 5 19 6 18 7 16 8 15 9 14 10 13 11 5 12
REMARK SMILES IDX 6 13 7 14 8 15 12 16 10 17 9 18 11 20 20 22 17 24
REMARK H PARENT 9 19 11 21 20 23 17 25
REMARK Flexibility Score: inf
ROOT
ATOM      1  C   UNL     1      24.116  29.594   6.410  1.00  0.00     0.138 A 
ATOM      2  C   UNL     1      23.693  28.892   5.273  1.00  0.00     0.100 A 
ATOM      3  C   UNL     1      24.468  27.839   4.785  1.00  0.00     0.197 A 
ATOM      4  O   UNL     1      24.032  27.188   3.801  1.00  0.00    -0.289 OA
ATOM      5  C   UNL     1      25.687  27.508   5.422  1.00  0.00     0.107 A 
ATOM      6  C   UNL     1      26.578  26.481   4.989  1.00  0.00     0.134 A 
ATOM      7  C   UNL     1      27.700  26.166   5.767  1.00  0.00     0.093 A 
ATOM      8  C   UNL     1      27.993  26.883   6.930  1.00  0.00     0.123 A 
ATOM      9  C   UNL     1      27.159  27.923   7.332  1.00  0.00     0.094 A 
ATOM     10  C   UNL     1      26.014  28.238   6.596  1.00  0.00     0.146 A 
ATOM     11  O   UNL     1      25.237  29.228   7.022  1.00  0.00    -0.456 OA
ENDROOT
BRANCH   1  12
ATOM     12  C   UNL     1      23.331  30.723   6.970  1.00  0.00     0.021 A 
ATOM     13  C   UNL     1      23.503  31.156   8.300  1.00  0.00     0.016 A 
ATOM     14  C   UNL     1      22.743  32.215   8.803  1.00  0.00     0.051 A 
ATOM     15  C   UNL     1      21.795  32.854   7.995  1.00  0.00     0.157 A 
ATOM     16  C   UNL     1      22.367  31.361   6.170  1.00  0.00     0.062 A 
ATOM     17  C   UNL     1      21.605  32.422   6.672  1.00  0.00     0.158 A 
BRANCH  15  18
ATOM     18  O   UNL     1      21.039  33.911   8.501  1.00  0.00    -0.504 OA
ATOM     19  H   UNL     1      20.048  33.993   8.309  1.00  0.00     0.293 HD
ENDBRANCH  15  18
BRANCH  17  20
ATOM     20  O   UNL     1      20.667  33.034   5.842  1.00  0.00    -0.504 OA
ATOM     21  H   UNL     1      19.887  32.524   5.443  1.00  0.00     0.293 HD
ENDBRANCH  17  20
ENDBRANCH   1  12
BRANCH   6  22
ATOM     22  O   UNL     1      26.422  25.762   3.800  1.00  0.00    -0.507 OA
ATOM     23  H   UNL     1      26.022  26.131   2.951  1.00  0.00     0.293 HD
ENDBRANCH   6  22
BRANCH   8  24
ATOM     24  O   UNL     1      29.120  26.573   7.690  1.00  0.00    -0.508 OA
ATOM     25  H   UNL     1      29.690  27.296   8.110  1.00  0.00     0.293 HD
ENDBRANCH   8  24
TORSDOF 5
ENDMDL
