MODEL 1
REMARK VINA RESULT:    -4.958      0.000      0.000
REMARK INTER + INTRA:         -15.569
REMARK INTER:                 -11.335
REMARK INTRA:                  -4.234
REMARK UNBOUND:                -4.234
REMARK SMILES CCCCCCCCCCCCCCCCCCCCCCCC(=O)[O-]
REMARK SMILES IDX 13 1 14 2 15 3 16 4 17 5 18 6 19 7 20 8 21 9 22 10 23 11
REMARK SMILES IDX 24 12 25 13 26 14 12 15 11 16 10 17 9 18 8 19 7 20 6 21 5 22
REMARK SMILES IDX 4 23 3 24 2 25 1 26
REMARK H PARENT
REMARK Flexibility Score: inf
ROOT
ATOM      1  C   UNL     1     -25.757  59.348  30.700  1.00  0.00     0.000 C 
ENDROOT
BRANCH   1   2
ATOM      2  C   UNL     1     -26.586  59.385  31.990  1.00  0.00     0.000 C 
BRANCH   2   3
ATOM      3  C   UNL     1     -27.296  60.735  32.145  1.00  0.00     0.000 C 
BRANCH   3   4
ATOM      4  C   UNL     1     -26.453  61.714  32.970  1.00  0.00     0.000 C 
BRANCH   4   5
ATOM      5  C   UNL     1     -26.793  61.610  34.464  1.00  0.00     0.000 C 
BRANCH   5   6
ATOM      6  C   UNL     1     -25.602  61.121  35.319  1.00  0.00     0.000 C 
BRANCH   6   7
ATOM      7  C   UNL     1     -24.384  60.673  34.490  1.00  0.00     0.000 C 
BRANCH   7   8
ATOM      8  C   UNL     1     -23.051  61.324  34.899  1.00  0.00     0.000 C 
BRANCH   8   9
ATOM      9  C   UNL     1     -22.518  60.839  36.265  1.00  0.00     0.000 C 
BRANCH   9  10
ATOM     10  C   UNL     1     -21.154  61.455  36.621  1.00  0.00     0.006 C 
BRANCH  10  11
ATOM     11  C   UNL     1     -20.447  62.048  35.395  1.00  0.00     0.053 C 
BRANCH  11  12
ATOM     12  C   UNL     1     -19.339  61.162  34.913  1.00  0.00     0.041 C 
ATOM     13  O   UNL     1     -18.954  60.190  35.614  1.00  0.00    -0.550 OA
ATOM     14  O   UNL     1     -18.753  61.394  33.675  1.00  0.00    -0.550 OA
ENDBRANCH  11  12
ENDBRANCH  10  11
ENDBRANCH   9  10
ENDBRANCH   8   9
ENDBRANCH   7   8
ENDBRANCH   6   7
ENDBRANCH   5   6
ENDBRANCH   4   5
ENDBRANCH   3   4
ENDBRANCH   2   3
ENDBRANCH   1   2
BRANCH   1  15
ATOM     15  C   UNL     1     -24.482  58.514  30.885  1.00  0.00     0.000 C 
BRANCH  15  16
ATOM     16  C   UNL     1     -23.634  58.427  29.603  1.00  0.00     0.000 C 
BRANCH  16  17
ATOM     17  C   UNL     1     -24.098  59.393  28.491  1.00  0.00     0.000 C 
BRANCH  17  18
ATOM     18  C   UNL     1     -22.942  60.251  27.946  1.00  0.00    -0.000 C 
BRANCH  18  19
ATOM     19  C   UNL     1     -23.212  61.764  28.092  1.00  0.00    -0.000 C 
BRANCH  19  20
ATOM     20  C   UNL     1     -24.361  62.100  29.060  1.00  0.00    -0.000 C 
BRANCH  20  21
ATOM     21  C   UNL     1     -23.926  62.763  30.379  1.00  0.00    -0.000 C 
BRANCH  21  22
ATOM     22  C   UNL     1     -23.047  61.881  31.289  1.00  0.00    -0.000 C 
BRANCH  22  23
ATOM     23  C   UNL     1     -21.612  62.421  31.476  1.00  0.00    -0.000 C 
BRANCH  23  24
ATOM     24  C   UNL     1     -20.574  61.602  30.696  1.00  0.00    -0.000 C 
BRANCH  24  25
ATOM     25  C   UNL     1     -20.709  60.106  31.001  1.00  0.00    -0.003 C 
ATOM     26  C   UNL     1     -19.955  59.263  29.975  1.00  0.00     0.004 C 
ENDBRANCH  24  25
ENDBRANCH  23  24
ENDBRANCH  22  23
ENDBRANCH  21  22
ENDBRANCH  20  21
ENDBRANCH  19  20
ENDBRANCH  18  19
ENDBRANCH  17  18
ENDBRANCH  16  17
ENDBRANCH  15  16
ENDBRANCH   1  15
TORSDOF 22
ENDMDL
MODEL 2
REMARK VINA RESULT:    -4.823      2.365      5.683
REMARK INTER + INTRA:         -15.259
REMARK INTER:                 -10.513
REMARK INTRA:                  -4.746
REMARK UNBOUND:                -4.234
REMARK SMILES CCCCCCCCCCCCCCCCCCCCCCCC(=O)[O-]
REMARK SMILES IDX 13 1 14 2 15 3 16 4 17 5 18 6 19 7 20 8 21 9 22 10 23 11
REMARK SMILES IDX 24 12 25 13 26 14 12 15 11 16 10 17 9 18 8 19 7 20 6 21 5 22
REMARK SMILES IDX 4 23 3 24 2 25 1 26
REMARK H PARENT
REMARK Flexibility Score: inf
ROOT
ATOM      1  C   UNL     1     -20.489  60.551  29.914  1.00  0.00     0.000 C 
ENDROOT
BRANCH   1   2
ATOM      2  C   UNL     1     -20.252  61.655  28.876  1.00  0.00     0.000 C 
BRANCH   2   3
ATOM      3  C   UNL     1     -21.369  61.668  27.826  1.00  0.00     0.000 C 
BRANCH   3   4
ATOM      4  C   UNL     1     -22.204  60.385  27.891  1.00  0.00     0.000 C 
BRANCH   4   5
ATOM      5  C   UNL     1     -23.706  60.705  27.914  1.00  0.00     0.000 C 
BRANCH   5   6
ATOM      6  C   UNL     1     -24.552  59.579  28.549  1.00  0.00     0.000 C 
BRANCH   6   7
ATOM      7  C   UNL     1     -23.824  58.811  29.669  1.00  0.00     0.000 C 
BRANCH   7   8
ATOM      8  C   UNL     1     -24.690  58.492  30.900  1.00  0.00     0.000 C 
BRANCH   8   9
ATOM      9  C   UNL     1     -23.930  57.738  32.014  1.00  0.00     0.000 C 
BRANCH   9  10
ATOM     10  C   UNL     1     -22.476  58.218  32.167  1.00  0.00     0.006 C 
BRANCH  10  11
ATOM     11  C   UNL     1     -21.481  57.052  32.215  1.00  0.00     0.053 C 
BRANCH  11  12
ATOM     12  C   UNL     1     -21.337  56.392  30.878  1.00  0.00     0.041 C 
ATOM     13  O   UNL     1     -20.675  56.949  29.963  1.00  0.00    -0.550 OA
ATOM     14  O   UNL     1     -21.910  55.146  30.654  1.00  0.00    -0.550 OA
ENDBRANCH  11  12
ENDBRANCH  10  11
ENDBRANCH   9  10
ENDBRANCH   8   9
ENDBRANCH   7   8
ENDBRANCH   6   7
ENDBRANCH   5   6
ENDBRANCH   4   5
ENDBRANCH   3   4
ENDBRANCH   2   3
ENDBRANCH   1   2
BRANCH   1  15
ATOM     15  C   UNL     1     -20.620  61.138  31.326  1.00  0.00     0.000 C 
BRANCH  15  16
ATOM     16  C   UNL     1     -21.575  62.343  31.384  1.00  0.00     0.000 C 
BRANCH  16  17
ATOM     17  C   UNL     1     -23.068  61.947  31.403  1.00  0.00     0.000 C 
BRANCH  17  18
ATOM     18  C   UNL     1     -23.918  62.834  30.477  1.00  0.00    -0.000 C 
BRANCH  18  19
ATOM     19  C   UNL     1     -25.394  62.908  30.923  1.00  0.00    -0.000 C 
BRANCH  19  20
ATOM     20  C   UNL     1     -25.892  61.638  31.638  1.00  0.00    -0.000 C 
BRANCH  20  21
ATOM     21  C   UNL     1     -26.983  61.875  32.697  1.00  0.00    -0.000 C 
BRANCH  21  22
ATOM     22  C   UNL     1     -26.757  61.147  34.036  1.00  0.00    -0.000 C 
BRANCH  22  23
ATOM     23  C   UNL     1     -25.391  60.433  34.132  1.00  0.00    -0.000 C 
BRANCH  23  24
ATOM     24  C   UNL     1     -24.435  61.132  35.110  1.00  0.00    -0.000 C 
BRANCH  24  25
ATOM     25  C   UNL     1     -22.986  60.690  34.873  1.00  0.00    -0.003 C 
ATOM     26  C   UNL     1     -22.006  61.811  35.211  1.00  0.00     0.004 C 
ENDBRANCH  24  25
ENDBRANCH  23  24
ENDBRANCH  22  23
ENDBRANCH  21  22
ENDBRANCH  20  21
ENDBRANCH  19  20
ENDBRANCH  18  19
ENDBRANCH  17  18
ENDBRANCH  16  17
ENDBRANCH  15  16
ENDBRANCH   1  15
TORSDOF 22
ENDMDL
MODEL 3
REMARK VINA RESULT:    -4.773      2.989      5.301
REMARK INTER + INTRA:         -15.145
REMARK INTER:                 -10.966
REMARK INTRA:                  -4.179
REMARK UNBOUND:                -4.234
REMARK SMILES CCCCCCCCCCCCCCCCCCCCCCCC(=O)[O-]
REMARK SMILES IDX 13 1 14 2 15 3 16 4 17 5 18 6 19 7 20 8 21 9 22 10 23 11
REMARK SMILES IDX 24 12 25 13 26 14 12 15 11 16 10 17 9 18 8 19 7 20 6 21 5 22
REMARK SMILES IDX 4 23 3 24 2 25 1 26
REMARK H PARENT
REMARK Flexibility Score: inf
ROOT
ATOM      1  C   UNL     1     -21.444  60.755  28.456  1.00  0.00     0.000 C 
ENDROOT
BRANCH   1   2
ATOM      2  C   UNL     1     -20.296  61.588  29.039  1.00  0.00     0.000 C 
BRANCH   2   3
ATOM      3  C   UNL     1     -20.522  61.862  30.531  1.00  0.00     0.000 C 
BRANCH   3   4
ATOM      4  C   UNL     1     -21.286  60.712  31.196  1.00  0.00     0.000 C 
BRANCH   4   5
ATOM      5  C   UNL     1     -22.131  61.219  32.373  1.00  0.00     0.000 C 
BRANCH   5   6
ATOM      6  C   UNL     1     -21.299  61.987  33.424  1.00  0.00     0.000 C 
BRANCH   6   7
ATOM      7  C   UNL     1     -21.855  61.878  34.857  1.00  0.00     0.000 C 
BRANCH   7   8
ATOM      8  C   UNL     1     -22.501  60.523  35.196  1.00  0.00     0.000 C 
BRANCH   8   9
ATOM      9  C   UNL     1     -23.870  60.648  35.900  1.00  0.00     0.000 C 
BRANCH   9  10
ATOM     10  C   UNL     1     -25.027  60.864  34.908  1.00  0.00     0.006 C 
BRANCH  10  11
ATOM     11  C   UNL     1     -26.199  61.627  35.540  1.00  0.00     0.053 C 
BRANCH  11  12
ATOM     12  C   UNL     1     -27.432  61.543  34.694  1.00  0.00     0.041 C 
ATOM     13  O   UNL     1     -27.847  62.558  34.076  1.00  0.00    -0.550 OA
ATOM     14  O   UNL     1     -28.106  60.335  34.566  1.00  0.00    -0.550 OA
ENDBRANCH  11  12
ENDBRANCH  10  11
ENDBRANCH   9  10
ENDBRANCH   8   9
ENDBRANCH   7   8
ENDBRANCH   6   7
ENDBRANCH   5   6
ENDBRANCH   4   5
ENDBRANCH   3   4
ENDBRANCH   2   3
ENDBRANCH   1   2
BRANCH   1  15
ATOM     15  C   UNL     1     -22.470  61.648  27.744  1.00  0.00     0.000 C 
BRANCH  15  16
ATOM     16  C   UNL     1     -23.845  61.645  28.436  1.00  0.00     0.000 C 
BRANCH  16  17
ATOM     17  C   UNL     1     -23.959  62.670  29.585  1.00  0.00     0.000 C 
BRANCH  17  18
ATOM     18  C   UNL     1     -25.383  62.737  30.166  1.00  0.00    -0.000 C 
BRANCH  18  19
ATOM     19  C   UNL     1     -25.529  61.913  31.463  1.00  0.00    -0.000 C 
BRANCH  19  20
ATOM     20  C   UNL     1     -26.237  60.559  31.264  1.00  0.00    -0.000 C 
BRANCH  20  21
ATOM     21  C   UNL     1     -25.367  59.323  31.551  1.00  0.00    -0.000 C 
BRANCH  21  22
ATOM     22  C   UNL     1     -24.477  58.869  30.378  1.00  0.00    -0.000 C 
BRANCH  22  23
ATOM     23  C   UNL     1     -23.602  57.639  30.703  1.00  0.00    -0.000 C 
BRANCH  23  24
ATOM     24  C   UNL     1     -23.621  57.287  32.198  1.00  0.00    -0.000 C 
BRANCH  24  25
ATOM     25  C   UNL     1     -22.277  57.614  32.858  1.00  0.00    -0.003 C 
ATOM     26  C   UNL     1     -22.190  57.016  34.260  1.00  0.00     0.004 C 
ENDBRANCH  24  25
ENDBRANCH  23  24
ENDBRANCH  22  23
ENDBRANCH  21  22
ENDBRANCH  20  21
ENDBRANCH  19  20
ENDBRANCH  18  19
ENDBRANCH  17  18
ENDBRANCH  16  17
ENDBRANCH  15  16
ENDBRANCH   1  15
TORSDOF 22
ENDMDL
MODEL 4
REMARK VINA RESULT:    -4.743      1.460      3.654
REMARK INTER + INTRA:         -15.076
REMARK INTER:                 -10.495
REMARK INTRA:                  -4.581
REMARK UNBOUND:                -4.234
REMARK SMILES CCCCCCCCCCCCCCCCCCCCCCCC(=O)[O-]
REMARK SMILES IDX 13 1 14 2 15 3 16 4 17 5 18 6 19 7 20 8 21 9 22 10 23 11
REMARK SMILES IDX 24 12 25 13 26 14 12 15 11 16 10 17 9 18 8 19 7 20 6 21 5 22
REMARK SMILES IDX 4 23 3 24 2 25 1 26
REMARK H PARENT
REMARK Flexibility Score: inf
ROOT
ATOM      1  C   UNL     1     -20.983  61.131  30.186  1.00  0.00     0.000 C 
ENDROOT
BRANCH   1   2
ATOM      2  C   UNL     1     -21.623  62.261  31.003  1.00  0.00     0.000 C 
BRANCH   2   3
ATOM      3  C   UNL     1     -23.112  61.984  31.246  1.00  0.00     0.000 C 
BRANCH   3   4
ATOM      4  C   UNL     1     -23.991  63.006  30.517  1.00  0.00     0.000 C 
BRANCH   4   5
ATOM      5  C   UNL     1     -25.458  62.879  30.951  1.00  0.00     0.000 C 
BRANCH   5   6
ATOM      6  C   UNL     1     -25.801  61.480  31.512  1.00  0.00     0.000 C 
BRANCH   6   7
ATOM      7  C   UNL     1     -26.603  61.517  32.826  1.00  0.00     0.000 C 
BRANCH   7   8
ATOM      8  C   UNL     1     -26.247  60.407  33.831  1.00  0.00     0.000 C 
BRANCH   8   9
ATOM      9  C   UNL     1     -25.287  60.870  34.950  1.00  0.00     0.000 C 
BRANCH   9  10
ATOM     10  C   UNL     1     -23.809  60.624  34.601  1.00  0.00     0.006 C 
BRANCH  10  11
ATOM     11  C   UNL     1     -22.867  61.565  35.363  1.00  0.00     0.053 C 
BRANCH  11  12
ATOM     12  C   UNL     1     -21.472  61.509  34.821  1.00  0.00     0.041 C 
ATOM     13  O   UNL     1     -20.888  60.402  34.683  1.00  0.00    -0.550 OA
ATOM     14  O   UNL     1     -20.828  62.679  34.439  1.00  0.00    -0.550 OA
ENDBRANCH  11  12
ENDBRANCH  10  11
ENDBRANCH   9  10
ENDBRANCH   8   9
ENDBRANCH   7   8
ENDBRANCH   6   7
ENDBRANCH   5   6
ENDBRANCH   4   5
ENDBRANCH   3   4
ENDBRANCH   2   3
ENDBRANCH   1   2
BRANCH   1  15
ATOM     15  C   UNL     1     -20.519  61.636  28.813  1.00  0.00     0.000 C 
BRANCH  15  16
ATOM     16  C   UNL     1     -21.662  61.699  27.784  1.00  0.00     0.000 C 
BRANCH  16  17
ATOM     17  C   UNL     1     -22.505  60.407  27.718  1.00  0.00     0.000 C 
BRANCH  17  18
ATOM     18  C   UNL     1     -23.994  60.667  28.006  1.00  0.00    -0.000 C 
BRANCH  18  19
ATOM     19  C   UNL     1     -24.704  59.431  28.599  1.00  0.00    -0.000 C 
BRANCH  19  20
ATOM     20  C   UNL     1     -23.847  58.648  29.612  1.00  0.00    -0.000 C 
BRANCH  20  21
ATOM     21  C   UNL     1     -24.492  58.454  30.995  1.00  0.00    -0.000 C 
BRANCH  21  22
ATOM     22  C   UNL     1     -23.627  57.686  32.013  1.00  0.00    -0.000 C 
BRANCH  22  23
ATOM     23  C   UNL     1     -22.200  58.254  32.168  1.00  0.00    -0.000 C 
BRANCH  23  24
ATOM     24  C   UNL     1     -21.119  57.218  31.826  1.00  0.00    -0.000 C 
BRANCH  24  25
ATOM     25  C   UNL     1     -20.046  57.823  30.913  1.00  0.00    -0.003 C 
ATOM     26  C   UNL     1     -20.339  57.526  29.445  1.00  0.00     0.004 C 
ENDBRANCH  24  25
ENDBRANCH  23  24
ENDBRANCH  22  23
ENDBRANCH  21  22
ENDBRANCH  20  21
ENDBRANCH  19  20
ENDBRANCH  18  19
ENDBRANCH  17  18
ENDBRANCH  16  17
ENDBRANCH  15  16
ENDBRANCH   1  15
TORSDOF 22
ENDMDL
MODEL 5
REMARK VINA RESULT:    -4.713      1.524      4.013
REMARK INTER + INTRA:         -15.009
REMARK INTER:                 -10.746
REMARK INTRA:                  -4.263
REMARK UNBOUND:                -4.234
REMARK SMILES CCCCCCCCCCCCCCCCCCCCCCCC(=O)[O-]
REMARK SMILES IDX 13 1 14 2 15 3 16 4 17 5 18 6 19 7 20 8 21 9 22 10 23 11
REMARK SMILES IDX 24 12 25 13 26 14 12 15 11 16 10 17 9 18 8 19 7 20 6 21 5 22
REMARK SMILES IDX 4 23 3 24 2 25 1 26
REMARK H PARENT
REMARK Flexibility Score: inf
ROOT
ATOM      1  C   UNL     1     -22.531  61.670  27.757  1.00  0.00     0.000 C 
ENDROOT
BRANCH   1   2
ATOM      2  C   UNL     1     -23.854  61.396  28.483  1.00  0.00     0.000 C 
BRANCH   2   3
ATOM      3  C   UNL     1     -24.344  62.651  29.218  1.00  0.00     0.000 C 
BRANCH   3   4
ATOM      4  C   UNL     1     -25.173  62.281  30.452  1.00  0.00     0.000 C 
BRANCH   4   5
ATOM      5  C   UNL     1     -25.801  60.888  30.297  1.00  0.00     0.000 C 
BRANCH   5   6
ATOM      6  C   UNL     1     -26.472  60.383  31.594  1.00  0.00     0.000 C 
BRANCH   6   7
ATOM      7  C   UNL     1     -26.024  61.137  32.859  1.00  0.00     0.000 C 
BRANCH   7   8
ATOM      8  C   UNL     1     -25.692  60.237  34.063  1.00  0.00     0.000 C 
BRANCH   8   9
ATOM      9  C   UNL     1     -25.015  60.989  35.230  1.00  0.00     0.000 C 
BRANCH   9  10
ATOM     10  C   UNL     1     -23.574  60.513  35.484  1.00  0.00     0.006 C 
BRANCH  10  11
ATOM     11  C   UNL     1     -22.607  61.682  35.711  1.00  0.00     0.053 C 
BRANCH  11  12
ATOM     12  C   UNL     1     -21.185  61.218  35.781  1.00  0.00     0.041 C 
ATOM     13  O   UNL     1     -20.923  59.997  35.948  1.00  0.00    -0.550 OA
ATOM     14  O   UNL     1     -20.148  62.130  35.633  1.00  0.00    -0.550 OA
ENDBRANCH  11  12
ENDBRANCH  10  11
ENDBRANCH   9  10
ENDBRANCH   8   9
ENDBRANCH   7   8
ENDBRANCH   6   7
ENDBRANCH   5   6
ENDBRANCH   4   5
ENDBRANCH   3   4
ENDBRANCH   2   3
ENDBRANCH   1   2
BRANCH   1  15
ATOM     15  C   UNL     1     -21.391  60.828  28.348  1.00  0.00     0.000 C 
BRANCH  15  16
ATOM     16  C   UNL     1     -20.248  61.687  28.916  1.00  0.00     0.000 C 
BRANCH  16  17
ATOM     17  C   UNL     1     -20.131  61.619  30.454  1.00  0.00     0.000 C 
BRANCH  17  18
ATOM     18  C   UNL     1     -21.205  62.468  31.158  1.00  0.00    -0.000 C 
BRANCH  18  19
ATOM     19  C   UNL     1     -21.897  61.706  32.309  1.00  0.00    -0.000 C 
BRANCH  19  20
ATOM     20  C   UNL     1     -22.631  60.429  31.858  1.00  0.00    -0.000 C 
BRANCH  20  21
ATOM     21  C   UNL     1     -22.021  59.114  32.371  1.00  0.00    -0.000 C 
BRANCH  21  22
ATOM     22  C   UNL     1     -22.092  57.935  31.381  1.00  0.00    -0.000 C 
BRANCH  22  23
ATOM     23  C   UNL     1     -23.156  58.115  30.277  1.00  0.00    -0.000 C 
BRANCH  23  24
ATOM     24  C   UNL     1     -22.920  57.181  29.081  1.00  0.00    -0.000 C 
BRANCH  24  25
ATOM     25  C   UNL     1     -23.310  57.863  27.764  1.00  0.00    -0.003 C 
ATOM     26  C   UNL     1     -23.327  56.865  26.609  1.00  0.00     0.004 C 
ENDBRANCH  24  25
ENDBRANCH  23  24
ENDBRANCH  22  23
ENDBRANCH  21  22
ENDBRANCH  20  21
ENDBRANCH  19  20
ENDBRANCH  18  19
ENDBRANCH  17  18
ENDBRANCH  16  17
ENDBRANCH  15  16
ENDBRANCH   1  15
TORSDOF 22
ENDMDL
MODEL 6
REMARK VINA RESULT:    -4.666      2.485      5.746
REMARK INTER + INTRA:         -14.901
REMARK INTER:                 -10.600
REMARK INTRA:                  -4.301
REMARK UNBOUND:                -4.234
REMARK SMILES CCCCCCCCCCCCCCCCCCCCCCCC(=O)[O-]
REMARK SMILES IDX 13 1 14 2 15 3 16 4 17 5 18 6 19 7 20 8 21 9 22 10 23 11
REMARK SMILES IDX 24 12 25 13 26 14 12 15 11 16 10 17 9 18 8 19 7 20 6 21 5 22
REMARK SMILES IDX 4 23 3 24 2 25 1 26
REMARK H PARENT
REMARK Flexibility Score: inf
ROOT
ATOM      1  C   UNL     1     -24.671  60.544  34.840  1.00  0.00     0.000 C 
ENDROOT
BRANCH   1   2
ATOM      2  C   UNL     1     -25.935  61.287  35.289  1.00  0.00     0.000 C 
BRANCH   2   3
ATOM      3  C   UNL     1     -27.185  60.685  34.634  1.00  0.00     0.000 C 
BRANCH   3   4
ATOM      4  C   UNL     1     -28.013  61.764  33.928  1.00  0.00     0.000 C 
BRANCH   4   5
ATOM      5  C   UNL     1     -27.658  61.843  32.436  1.00  0.00     0.000 C 
BRANCH   5   6
ATOM      6  C   UNL     1     -26.962  60.566  31.915  1.00  0.00     0.000 C 
BRANCH   6   7
ATOM      7  C   UNL     1     -25.667  60.842  31.127  1.00  0.00     0.000 C 
BRANCH   7   8
ATOM      8  C   UNL     1     -25.022  62.211  31.408  1.00  0.00     0.000 C 
BRANCH   8   9
ATOM      9  C   UNL     1     -24.014  62.655  30.324  1.00  0.00     0.000 C 
BRANCH   9  10
ATOM     10  C   UNL     1     -24.395  62.151  28.921  1.00  0.00     0.006 C 
BRANCH  10  11
ATOM     11  C   UNL     1     -23.187  61.597  28.155  1.00  0.00     0.053 C 
BRANCH  11  12
ATOM     12  C   UNL     1     -23.266  60.110  27.999  1.00  0.00     0.041 C 
ATOM     13  O   UNL     1     -24.360  59.511  28.172  1.00  0.00    -0.550 OA
ATOM     14  O   UNL     1     -22.137  59.388  27.633  1.00  0.00    -0.550 OA
ENDBRANCH  11  12
ENDBRANCH  10  11
ENDBRANCH   9  10
ENDBRANCH   8   9
ENDBRANCH   7   8
ENDBRANCH   6   7
ENDBRANCH   5   6
ENDBRANCH   4   5
ENDBRANCH   3   4
ENDBRANCH   2   3
ENDBRANCH   1   2
BRANCH   1  15
ATOM     15  C   UNL     1     -23.483  60.868  35.758  1.00  0.00     0.000 C 
BRANCH  15  16
ATOM     16  C   UNL     1     -22.590  59.646  36.031  1.00  0.00     0.000 C 
BRANCH  16  17
ATOM     17  C   UNL     1     -21.142  60.015  36.420  1.00  0.00     0.000 C 
BRANCH  17  18
ATOM     18  C   UNL     1     -20.894  61.534  36.370  1.00  0.00    -0.000 C 
BRANCH  18  19
ATOM     19  C   UNL     1     -20.068  61.955  35.136  1.00  0.00    -0.000 C 
BRANCH  19  20
ATOM     20  C   UNL     1     -20.877  62.733  34.081  1.00  0.00    -0.000 C 
BRANCH  20  21
ATOM     21  C   UNL     1     -20.882  62.107  32.676  1.00  0.00    -0.000 C 
BRANCH  21  22
ATOM     22  C   UNL     1     -21.766  60.853  32.527  1.00  0.00    -0.000 C 
BRANCH  22  23
ATOM     23  C   UNL     1     -21.488  60.048  31.239  1.00  0.00    -0.000 C 
BRANCH  23  24
ATOM     24  C   UNL     1     -22.234  58.706  31.217  1.00  0.00    -0.000 C 
BRANCH  24  25
ATOM     25  C   UNL     1     -22.815  58.376  32.597  1.00  0.00    -0.003 C 
ATOM     26  C   UNL     1     -24.179  57.702  32.475  1.00  0.00     0.004 C 
ENDBRANCH  24  25
ENDBRANCH  23  24
ENDBRANCH  22  23
ENDBRANCH  21  22
ENDBRANCH  20  21
ENDBRANCH  19  20
ENDBRANCH  18  19
ENDBRANCH  17  18
ENDBRANCH  16  17
ENDBRANCH  15  16
ENDBRANCH   1  15
TORSDOF 22
ENDMDL
MODEL 7
REMARK VINA RESULT:    -4.666      1.162      3.223
REMARK INTER + INTRA:         -14.901
REMARK INTER:                 -10.369
REMARK INTRA:                  -4.532
REMARK UNBOUND:                -4.234
REMARK SMILES CCCCCCCCCCCCCCCCCCCCCCCC(=O)[O-]
REMARK SMILES IDX 13 1 14 2 15 3 16 4 17 5 18 6 19 7 20 8 21 9 22 10 23 11
REMARK SMILES IDX 24 12 25 13 26 14 12 15 11 16 10 17 9 18 8 19 7 20 6 21 5 22
REMARK SMILES IDX 4 23 3 24 2 25 1 26
REMARK H PARENT
REMARK Flexibility Score: inf
ROOT
ATOM      1  C   UNL     1     -25.812  60.574  30.726  1.00  0.00     0.000 C 
ENDROOT
BRANCH   1   2
ATOM      2  C   UNL     1     -26.599  59.944  31.882  1.00  0.00     0.000 C 
BRANCH   2   3
ATOM      3  C   UNL     1     -25.715  59.791  33.126  1.00  0.00     0.000 C 
BRANCH   3   4
ATOM      4  C   UNL     1     -26.290  60.571  34.313  1.00  0.00     0.000 C 
BRANCH   4   5
ATOM      5  C   UNL     1     -25.174  61.023  35.267  1.00  0.00     0.000 C 
BRANCH   5   6
ATOM      6  C   UNL     1     -23.767  60.597  34.792  1.00  0.00     0.000 C 
BRANCH   6   7
ATOM      7  C   UNL     1     -22.772  60.349  35.942  1.00  0.00     0.000 C 
BRANCH   7   8
ATOM      8  C   UNL     1     -21.796  61.508  36.210  1.00  0.00     0.000 C 
BRANCH   8   9
ATOM      9  C   UNL     1     -21.398  62.289  34.938  1.00  0.00     0.000 C 
BRANCH   9  10
ATOM     10  C   UNL     1     -20.130  61.727  34.271  1.00  0.00     0.006 C 
BRANCH  10  11
ATOM     11  C   UNL     1     -19.139  61.157  35.294  1.00  0.00     0.053 C 
BRANCH  11  12
ATOM     12  C   UNL     1     -18.843  59.713  35.030  1.00  0.00     0.041 C 
ATOM     13  O   UNL     1     -17.834  59.167  35.549  1.00  0.00    -0.550 OA
ATOM     14  O   UNL     1     -19.700  58.961  34.236  1.00  0.00    -0.550 OA
ENDBRANCH  11  12
ENDBRANCH  10  11
ENDBRANCH   9  10
ENDBRANCH   8   9
ENDBRANCH   7   8
ENDBRANCH   6   7
ENDBRANCH   5   6
ENDBRANCH   4   5
ENDBRANCH   3   4
ENDBRANCH   2   3
ENDBRANCH   1   2
BRANCH   1  15
ATOM     15  C   UNL     1     -25.494  62.048  31.013  1.00  0.00     0.000 C 
BRANCH  15  16
ATOM     16  C   UNL     1     -24.066  62.442  30.595  1.00  0.00     0.000 C 
BRANCH  16  17
ATOM     17  C   UNL     1     -22.979  61.956  31.578  1.00  0.00     0.000 C 
BRANCH  17  18
ATOM     18  C   UNL     1     -21.652  61.634  30.868  1.00  0.00    -0.000 C 
BRANCH  18  19
ATOM     19  C   UNL     1     -21.202  60.175  31.093  1.00  0.00    -0.000 C 
BRANCH  19  20
ATOM     20  C   UNL     1     -22.283  59.282  31.731  1.00  0.00    -0.000 C 
BRANCH  20  21
ATOM     21  C   UNL     1     -22.529  57.946  31.009  1.00  0.00    -0.000 C 
BRANCH  21  22
ATOM     22  C   UNL     1     -23.702  57.955  30.008  1.00  0.00    -0.000 C 
BRANCH  22  23
ATOM     23  C   UNL     1     -23.269  58.210  28.548  1.00  0.00    -0.000 C 
BRANCH  23  24
ATOM     24  C   UNL     1     -23.459  59.675  28.130  1.00  0.00    -0.000 C 
BRANCH  24  25
ATOM     25  C   UNL     1     -22.222  60.202  27.392  1.00  0.00    -0.003 C 
ATOM     26  C   UNL     1     -22.186  61.728  27.395  1.00  0.00     0.004 C 
ENDBRANCH  24  25
ENDBRANCH  23  24
ENDBRANCH  22  23
ENDBRANCH  21  22
ENDBRANCH  20  21
ENDBRANCH  19  20
ENDBRANCH  18  19
ENDBRANCH  17  18
ENDBRANCH  16  17
ENDBRANCH  15  16
ENDBRANCH   1  15
TORSDOF 22
ENDMDL
MODEL 8
REMARK VINA RESULT:    -4.655      1.360      3.249
REMARK INTER + INTRA:         -14.876
REMARK INTER:                 -10.604
REMARK INTRA:                  -4.272
REMARK UNBOUND:                -4.234
REMARK SMILES CCCCCCCCCCCCCCCCCCCCCCCC(=O)[O-]
REMARK SMILES IDX 13 1 14 2 15 3 16 4 17 5 18 6 19 7 20 8 21 9 22 10 23 11
REMARK SMILES IDX 24 12 25 13 26 14 12 15 11 16 10 17 9 18 8 19 7 20 6 21 5 22
REMARK SMILES IDX 4 23 3 24 2 25 1 26
REMARK H PARENT
REMARK Flexibility Score: inf
ROOT
ATOM      1  C   UNL     1     -23.661  59.331  28.123  1.00  0.00     0.000 C 
ENDROOT
BRANCH   1   2
ATOM      2  C   UNL     1     -23.356  58.129  29.026  1.00  0.00     0.000 C 
BRANCH   2   3
ATOM      3  C   UNL     1     -24.094  58.250  30.365  1.00  0.00     0.000 C 
BRANCH   3   4
ATOM      4  C   UNL     1     -25.367  59.091  30.221  1.00  0.00     0.000 C 
BRANCH   4   5
ATOM      5  C   UNL     1     -26.093  59.226  31.568  1.00  0.00     0.000 C 
BRANCH   5   6
ATOM      6  C   UNL     1     -26.712  60.626  31.780  1.00  0.00     0.000 C 
BRANCH   6   7
ATOM      7  C   UNL     1     -26.308  61.288  33.111  1.00  0.00     0.000 C 
BRANCH   7   8
ATOM      8  C   UNL     1     -25.490  60.390  34.056  1.00  0.00     0.000 C 
BRANCH   8   9
ATOM      9  C   UNL     1     -24.981  61.120  35.319  1.00  0.00     0.000 C 
BRANCH   9  10
ATOM     10  C   UNL     1     -23.581  60.650  35.750  1.00  0.00     0.006 C 
BRANCH  10  11
ATOM     11  C   UNL     1     -22.534  61.766  35.643  1.00  0.00     0.053 C 
BRANCH  11  12
ATOM     12  C   UNL     1     -21.171  61.285  36.037  1.00  0.00     0.041 C 
ATOM     13  O   UNL     1     -21.041  60.225  36.705  1.00  0.00    -0.550 OA
ATOM     14  O   UNL     1     -20.043  61.993  35.641  1.00  0.00    -0.550 OA
ENDBRANCH  11  12
ENDBRANCH  10  11
ENDBRANCH   9  10
ENDBRANCH   8   9
ENDBRANCH   7   8
ENDBRANCH   6   7
ENDBRANCH   5   6
ENDBRANCH   4   5
ENDBRANCH   3   4
ENDBRANCH   2   3
ENDBRANCH   1   2
BRANCH   1  15
ATOM     15  C   UNL     1     -22.397  60.164  27.867  1.00  0.00     0.000 C 
BRANCH  15  16
ATOM     16  C   UNL     1     -22.522  61.609  28.382  1.00  0.00     0.000 C 
BRANCH  16  17
ATOM     17  C   UNL     1     -23.953  61.986  28.822  1.00  0.00     0.000 C 
BRANCH  17  18
ATOM     18  C   UNL     1     -23.992  62.556  30.251  1.00  0.00    -0.000 C 
BRANCH  18  19
ATOM     19  C   UNL     1     -22.657  62.355  31.002  1.00  0.00    -0.000 C 
BRANCH  19  20
ATOM     20  C   UNL     1     -22.691  61.215  32.037  1.00  0.00    -0.000 C 
BRANCH  20  21
ATOM     21  C   UNL     1     -21.326  60.573  32.339  1.00  0.00    -0.000 C 
BRANCH  21  22
ATOM     22  C   UNL     1     -20.763  59.684  31.212  1.00  0.00    -0.000 C 
BRANCH  22  23
ATOM     23  C   UNL     1     -19.532  60.288  30.502  1.00  0.00    -0.000 C 
BRANCH  23  24
ATOM     24  C   UNL     1     -18.319  60.405  31.436  1.00  0.00    -0.000 C 
BRANCH  24  25
ATOM     25  C   UNL     1     -17.997  59.058  32.094  1.00  0.00    -0.003 C 
ATOM     26  C   UNL     1     -17.384  58.086  31.089  1.00  0.00     0.004 C 
ENDBRANCH  24  25
ENDBRANCH  23  24
ENDBRANCH  22  23
ENDBRANCH  21  22
ENDBRANCH  20  21
ENDBRANCH  19  20
ENDBRANCH  18  19
ENDBRANCH  17  18
ENDBRANCH  16  17
ENDBRANCH  15  16
ENDBRANCH   1  15
TORSDOF 22
ENDMDL
MODEL 9
REMARK VINA RESULT:    -4.616      2.895      5.148
REMARK INTER + INTRA:         -14.785
REMARK INTER:                 -11.283
REMARK INTRA:                  -3.502
REMARK UNBOUND:                -4.234
REMARK SMILES CCCCCCCCCCCCCCCCCCCCCCCC(=O)[O-]
REMARK SMILES IDX 13 1 14 2 15 3 16 4 17 5 18 6 19 7 20 8 21 9 22 10 23 11
REMARK SMILES IDX 24 12 25 13 26 14 12 15 11 16 10 17 9 18 8 19 7 20 6 21 5 22
REMARK SMILES IDX 4 23 3 24 2 25 1 26
REMARK H PARENT
REMARK Flexibility Score: inf
ROOT
ATOM      1  C   UNL     1     -21.010  61.133  29.914  1.00  0.00     0.000 C 
ENDROOT
BRANCH   1   2
ATOM      2  C   UNL     1     -20.955  62.272  30.940  1.00  0.00     0.000 C 
BRANCH   2   3
ATOM      3  C   UNL     1     -21.582  61.840  32.272  1.00  0.00     0.000 C 
BRANCH   3   4
ATOM      4  C   UNL     1     -20.517  61.312  33.239  1.00  0.00     0.000 C 
BRANCH   4   5
ATOM      5  C   UNL     1     -20.449  62.174  34.508  1.00  0.00     0.000 C 
BRANCH   5   6
ATOM      6  C   UNL     1     -21.779  62.194  35.294  1.00  0.00     0.000 C 
BRANCH   6   7
ATOM      7  C   UNL     1     -22.001  60.947  36.171  1.00  0.00     0.000 C 
BRANCH   7   8
ATOM      8  C   UNL     1     -23.432  60.383  36.141  1.00  0.00     0.000 C 
BRANCH   8   9
ATOM      9  C   UNL     1     -24.260  60.860  34.925  1.00  0.00     0.000 C 
BRANCH   9  10
ATOM     10  C   UNL     1     -25.703  61.234  35.303  1.00  0.00     0.006 C 
BRANCH  10  11
ATOM     11  C   UNL     1     -26.737  60.532  34.413  1.00  0.00     0.053 C 
BRANCH  11  12
ATOM     12  C   UNL     1     -27.500  61.511  33.574  1.00  0.00     0.041 C 
ATOM     13  O   UNL     1     -27.787  62.649  34.030  1.00  0.00    -0.550 OA
ATOM     14  O   UNL     1     -27.866  61.176  32.277  1.00  0.00    -0.550 OA
ENDBRANCH  11  12
ENDBRANCH  10  11
ENDBRANCH   9  10
ENDBRANCH   8   9
ENDBRANCH   7   8
ENDBRANCH   6   7
ENDBRANCH   5   6
ENDBRANCH   4   5
ENDBRANCH   3   4
ENDBRANCH   2   3
ENDBRANCH   1   2
BRANCH   1  15
ATOM     15  C   UNL     1     -20.647  61.636  28.510  1.00  0.00     0.000 C 
BRANCH  15  16
ATOM     16  C   UNL     1     -21.823  61.546  27.522  1.00  0.00     0.000 C 
BRANCH  16  17
ATOM     17  C   UNL     1     -23.206  61.676  28.196  1.00  0.00     0.000 C 
BRANCH  17  18
ATOM     18  C   UNL     1     -24.019  60.372  28.115  1.00  0.00    -0.000 C 
BRANCH  18  19
ATOM     19  C   UNL     1     -25.168  60.329  29.146  1.00  0.00    -0.000 C 
BRANCH  19  20
ATOM     20  C   UNL     1     -24.752  60.777  30.560  1.00  0.00    -0.000 C 
BRANCH  20  21
ATOM     21  C   UNL     1     -24.680  59.650  31.604  1.00  0.00    -0.000 C 
BRANCH  21  22
ATOM     22  C   UNL     1     -24.131  58.310  31.075  1.00  0.00    -0.000 C 
BRANCH  22  23
ATOM     23  C   UNL     1     -22.602  58.161  31.233  1.00  0.00    -0.000 C 
BRANCH  23  24
ATOM     24  C   UNL     1     -21.975  57.339  30.098  1.00  0.00    -0.000 C 
BRANCH  24  25
ATOM     25  C   UNL     1     -22.999  57.054  28.993  1.00  0.00    -0.003 C 
ATOM     26  C   UNL     1     -22.949  55.591  28.559  1.00  0.00     0.004 C 
ENDBRANCH  24  25
ENDBRANCH  23  24
ENDBRANCH  22  23
ENDBRANCH  21  22
ENDBRANCH  20  21
ENDBRANCH  19  20
ENDBRANCH  18  19
ENDBRANCH  17  18
ENDBRANCH  16  17
ENDBRANCH  15  16
ENDBRANCH   1  15
TORSDOF 22
ENDMDL
