MODEL 1
REMARK VINA RESULT:    -5.341      0.000      0.000
REMARK INTER + INTRA:          -9.345
REMARK INTER:                  -8.464
REMARK INTRA:                  -0.882
REMARK UNBOUND:                -0.882
REMARK SMILES CCCCCCCCCCCC(=O)[O-]
REMARK SMILES IDX 7 1 8 2 9 3 10 4 11 5 12 6 13 7 14 8 6 9 5 10 4 11 3 12 2 13
REMARK SMILES IDX 1 14
REMARK H PARENT
REMARK Flexibility Score: inf
ROOT
ATOM      1  C   UNL     1      43.461  40.293  15.107  1.00  0.00     0.000 C 
ENDROOT
BRANCH   1   2
ATOM      2  C   UNL     1      42.152  41.106  15.052  1.00  0.00     0.000 C 
BRANCH   2   3
ATOM      3  C   UNL     1      41.015  40.587  15.953  1.00  0.00     0.000 C 
BRANCH   3   4
ATOM      4  C   UNL     1      40.845  41.331  17.291  1.00  0.00     0.006 C 
BRANCH   4   5
ATOM      5  C   UNL     1      41.514  40.628  18.486  1.00  0.00     0.053 C 
BRANCH   5   6
ATOM      6  C   UNL     1      42.134  41.596  19.448  1.00  0.00     0.041 C 
ATOM      7  O   UNL     1      41.687  41.701  20.619  1.00  0.00    -0.550 OA
ATOM      8  O   UNL     1      43.184  42.408  19.038  1.00  0.00    -0.550 OA
ENDBRANCH   5   6
ENDBRANCH   4   5
ENDBRANCH   3   4
ENDBRANCH   2   3
ENDBRANCH   1   2
BRANCH   1   9
ATOM      9  C   UNL     1      43.291  38.767  14.983  1.00  0.00     0.000 C 
BRANCH   9  10
ATOM     10  C   UNL     1      42.868  38.325  13.572  1.00  0.00    -0.000 C 
BRANCH  10  11
ATOM     11  C   UNL     1      42.122  36.982  13.574  1.00  0.00    -0.000 C 
BRANCH  11  12
ATOM     12  C   UNL     1      40.593  37.151  13.537  1.00  0.00    -0.000 C 
BRANCH  12  13
ATOM     13  C   UNL     1      40.168  38.564  13.113  1.00  0.00    -0.003 C 
ATOM     14  C   UNL     1      39.079  38.556  12.039  1.00  0.00     0.004 C 
ENDBRANCH  12  13
ENDBRANCH  11  12
ENDBRANCH  10  11
ENDBRANCH   9  10
ENDBRANCH   1   9
TORSDOF 10
ENDMDL
MODEL 2
REMARK VINA RESULT:    -5.268      0.805      1.644
REMARK INTER + INTRA:          -9.230
REMARK INTER:                  -8.431
REMARK INTRA:                  -0.799
REMARK UNBOUND:                -0.882
REMARK SMILES CCCCCCCCCCCC(=O)[O-]
REMARK SMILES IDX 7 1 8 2 9 3 10 4 11 5 12 6 13 7 14 8 6 9 5 10 4 11 3 12 2 13
REMARK SMILES IDX 1 14
REMARK H PARENT
REMARK Flexibility Score: inf
ROOT
ATOM      1  C   UNL     1      41.882  41.431  15.267  1.00  0.00     0.000 C 
ENDROOT
BRANCH   1   2
ATOM      2  C   UNL     1      40.883  40.612  16.111  1.00  0.00     0.000 C 
BRANCH   2   3
ATOM      3  C   UNL     1      40.731  41.066  17.575  1.00  0.00     0.000 C 
BRANCH   3   4
ATOM      4  C   UNL     1      42.013  40.983  18.426  1.00  0.00     0.006 C 
BRANCH   4   5
ATOM      5  C   UNL     1      41.750  40.873  19.940  1.00  0.00     0.053 C 
BRANCH   5   6
ATOM      6  C   UNL     1      41.947  42.176  20.653  1.00  0.00     0.041 C 
ATOM      7  O   UNL     1      40.989  42.713  21.267  1.00  0.00    -0.550 OA
ATOM      8  O   UNL     1      43.179  42.815  20.609  1.00  0.00    -0.550 OA
ENDBRANCH   5   6
ENDBRANCH   4   5
ENDBRANCH   3   4
ENDBRANCH   2   3
ENDBRANCH   1   2
BRANCH   1   9
ATOM      9  C   UNL     1      43.196  40.706  14.921  1.00  0.00     0.000 C 
BRANCH   9  10
ATOM     10  C   UNL     1      43.068  39.175  14.978  1.00  0.00    -0.000 C 
BRANCH  10  11
ATOM     11  C   UNL     1      42.808  38.553  13.597  1.00  0.00    -0.000 C 
BRANCH  11  12
ATOM     12  C   UNL     1      42.209  37.139  13.684  1.00  0.00    -0.000 C 
BRANCH  12  13
ATOM     13  C   UNL     1      40.690  37.129  13.457  1.00  0.00    -0.003 C 
ATOM     14  C   UNL     1      40.144  38.501  13.057  1.00  0.00     0.004 C 
ENDBRANCH  12  13
ENDBRANCH  11  12
ENDBRANCH  10  11
ENDBRANCH   9  10
ENDBRANCH   1   9
TORSDOF 10
ENDMDL
MODEL 3
REMARK VINA RESULT:    -5.057      1.612      2.330
REMARK INTER + INTRA:          -8.894
REMARK INTER:                  -7.855
REMARK INTRA:                  -1.039
REMARK UNBOUND:                -0.882
REMARK SMILES CCCCCCCCCCCC(=O)[O-]
REMARK SMILES IDX 7 1 8 2 9 3 10 4 11 5 12 6 13 7 14 8 6 9 5 10 4 11 3 12 2 13
REMARK SMILES IDX 1 14
REMARK H PARENT
REMARK Flexibility Score: inf
ROOT
ATOM      1  C   UNL     1      41.392  40.668  15.239  1.00  0.00     0.000 C 
ENDROOT
BRANCH   1   2
ATOM      2  C   UNL     1      40.621  40.828  16.565  1.00  0.00     0.000 C 
BRANCH   2   3
ATOM      3  C   UNL     1      41.463  40.649  17.843  1.00  0.00     0.000 C 
BRANCH   3   4
ATOM      4  C   UNL     1      41.769  41.947  18.616  1.00  0.00     0.006 C 
BRANCH   4   5
ATOM      5  C   UNL     1      43.148  42.554  18.294  1.00  0.00     0.053 C 
BRANCH   5   6
ATOM      6  C   UNL     1      43.048  43.795  17.461  1.00  0.00     0.041 C 
ATOM      7  O   UNL     1      42.327  43.811  16.430  1.00  0.00    -0.550 OA
ATOM      8  O   UNL     1      43.781  44.925  17.804  1.00  0.00    -0.550 OA
ENDBRANCH   5   6
ENDBRANCH   4   5
ENDBRANCH   3   4
ENDBRANCH   2   3
ENDBRANCH   1   2
BRANCH   1   9
ATOM      9  C   UNL     1      42.888  40.333  15.387  1.00  0.00     0.000 C 
BRANCH   9  10
ATOM     10  C   UNL     1      43.224  38.896  14.955  1.00  0.00    -0.000 C 
BRANCH  10  11
ATOM     11  C   UNL     1      42.577  38.516  13.614  1.00  0.00    -0.000 C 
BRANCH  11  12
ATOM     12  C   UNL     1      41.993  37.093  13.618  1.00  0.00    -0.000 C 
BRANCH  12  13
ATOM     13  C   UNL     1      40.470  37.082  13.419  1.00  0.00    -0.003 C 
ATOM     14  C   UNL     1      39.945  38.383  12.812  1.00  0.00     0.004 C 
ENDBRANCH  12  13
ENDBRANCH  11  12
ENDBRANCH  10  11
ENDBRANCH   9  10
ENDBRANCH   1   9
TORSDOF 10
ENDMDL
MODEL 4
REMARK VINA RESULT:    -4.796      3.150      6.729
REMARK INTER + INTRA:          -8.481
REMARK INTER:                  -7.740
REMARK INTRA:                  -0.741
REMARK UNBOUND:                -0.882
REMARK SMILES CCCCCCCCCCCC(=O)[O-]
REMARK SMILES IDX 7 1 8 2 9 3 10 4 11 5 12 6 13 7 14 8 6 9 5 10 4 11 3 12 2 13
REMARK SMILES IDX 1 14
REMARK H PARENT
REMARK Flexibility Score: inf
ROOT
ATOM      1  C   UNL     1      41.328  41.003  16.529  1.00  0.00     0.000 C 
ENDROOT
BRANCH   1   2
ATOM      2  C   UNL     1      42.776  41.331  16.113  1.00  0.00     0.000 C 
BRANCH   2   3
ATOM      3  C   UNL     1      43.330  40.499  14.941  1.00  0.00     0.000 C 
BRANCH   3   4
ATOM      4  C   UNL     1      43.062  38.984  15.025  1.00  0.00     0.006 C 
BRANCH   4   5
ATOM      5  C   UNL     1      42.694  38.339  13.676  1.00  0.00     0.053 C 
BRANCH   5   6
ATOM      6  C   UNL     1      41.227  38.057  13.556  1.00  0.00     0.041 C 
ATOM      7  O   UNL     1      40.825  36.896  13.284  1.00  0.00    -0.550 OA
ATOM      8  O   UNL     1      40.306  39.085  13.709  1.00  0.00    -0.550 OA
ENDBRANCH   5   6
ENDBRANCH   4   5
ENDBRANCH   3   4
ENDBRANCH   2   3
ENDBRANCH   1   2
BRANCH   1   9
ATOM      9  C   UNL     1      40.995  41.266  18.009  1.00  0.00     0.000 C 
BRANCH   9  10
ATOM     10  C   UNL     1      41.502  40.155  18.943  1.00  0.00    -0.000 C 
BRANCH  10  11
ATOM     11  C   UNL     1      42.175  40.709  20.208  1.00  0.00    -0.000 C 
BRANCH  11  12
ATOM     12  C   UNL     1      42.161  42.247  20.264  1.00  0.00    -0.000 C 
BRANCH  12  13
ATOM     13  C   UNL     1      43.555  42.856  20.054  1.00  0.00    -0.003 C 
ATOM     14  C   UNL     1      44.059  43.615  21.282  1.00  0.00     0.004 C 
ENDBRANCH  12  13
ENDBRANCH  11  12
ENDBRANCH  10  11
ENDBRANCH   9  10
ENDBRANCH   1   9
TORSDOF 10
ENDMDL
MODEL 5
REMARK VINA RESULT:    -4.775      2.337      3.849
REMARK INTER + INTRA:          -8.449
REMARK INTER:                  -7.473
REMARK INTRA:                  -0.976
REMARK UNBOUND:                -0.882
REMARK SMILES CCCCCCCCCCCC(=O)[O-]
REMARK SMILES IDX 7 1 8 2 9 3 10 4 11 5 12 6 13 7 14 8 6 9 5 10 4 11 3 12 2 13
REMARK SMILES IDX 1 14
REMARK H PARENT
REMARK Flexibility Score: inf
ROOT
ATOM      1  C   UNL     1      41.456  40.511  18.009  1.00  0.00     0.000 C 
ENDROOT
BRANCH   1   2
ATOM      2  C   UNL     1      41.584  41.558  19.135  1.00  0.00     0.000 C 
BRANCH   2   3
ATOM      3  C   UNL     1      42.755  42.547  18.986  1.00  0.00     0.000 C 
BRANCH   3   4
ATOM      4  C   UNL     1      43.217  42.805  17.538  1.00  0.00     0.006 C 
BRANCH   4   5
ATOM      5  C   UNL     1      42.773  44.168  16.976  1.00  0.00     0.053 C 
BRANCH   5   6
ATOM      6  C   UNL     1      41.877  44.032  15.783  1.00  0.00     0.041 C 
ATOM      7  O   UNL     1      40.662  44.350  15.863  1.00  0.00    -0.550 OA
ATOM      8  O   UNL     1      42.376  43.519  14.592  1.00  0.00    -0.550 OA
ENDBRANCH   5   6
ENDBRANCH   4   5
ENDBRANCH   3   4
ENDBRANCH   2   3
ENDBRANCH   1   2
BRANCH   1   9
ATOM      9  C   UNL     1      40.436  40.855  16.908  1.00  0.00     0.000 C 
BRANCH   9  10
ATOM     10  C   UNL     1      40.914  40.450  15.503  1.00  0.00    -0.000 C 
BRANCH  10  11
ATOM     11  C   UNL     1      42.369  39.955  15.495  1.00  0.00    -0.000 C 
BRANCH  11  12
ATOM     12  C   UNL     1      42.724  39.173  14.218  1.00  0.00    -0.000 C 
BRANCH  12  13
ATOM     13  C   UNL     1      41.560  38.304  13.719  1.00  0.00    -0.003 C 
ATOM     14  C   UNL     1      41.984  36.866  13.420  1.00  0.00     0.004 C 
ENDBRANCH  12  13
ENDBRANCH  11  12
ENDBRANCH  10  11
ENDBRANCH   9  10
ENDBRANCH   1   9
TORSDOF 10
ENDMDL
MODEL 6
REMARK VINA RESULT:    -4.748      3.484      6.294
REMARK INTER + INTRA:          -8.406
REMARK INTER:                  -7.735
REMARK INTRA:                  -0.671
REMARK UNBOUND:                -0.882
REMARK SMILES CCCCCCCCCCCC(=O)[O-]
REMARK SMILES IDX 7 1 8 2 9 3 10 4 11 5 12 6 13 7 14 8 6 9 5 10 4 11 3 12 2 13
REMARK SMILES IDX 1 14
REMARK H PARENT
REMARK Flexibility Score: inf
ROOT
ATOM      1  C   UNL     1      42.932  41.312  15.849  1.00  0.00     0.000 C 
ENDROOT
BRANCH   1   2
ATOM      2  C   UNL     1      43.586  40.531  14.691  1.00  0.00     0.000 C 
BRANCH   2   3
ATOM      3  C   UNL     1      43.501  38.996  14.800  1.00  0.00     0.000 C 
BRANCH   3   4
ATOM      4  C   UNL     1      42.508  38.322  13.834  1.00  0.00     0.006 C 
BRANCH   4   5
ATOM      5  C   UNL     1      41.073  38.875  13.929  1.00  0.00     0.053 C 
BRANCH   5   6
ATOM      6  C   UNL     1      40.110  38.119  13.065  1.00  0.00     0.041 C 
ATOM      7  O   UNL     1      40.049  36.864  13.130  1.00  0.00    -0.550 OA
ATOM      8  O   UNL     1      39.304  38.800  12.160  1.00  0.00    -0.550 OA
ENDBRANCH   5   6
ENDBRANCH   4   5
ENDBRANCH   3   4
ENDBRANCH   2   3
ENDBRANCH   1   2
BRANCH   1   9
ATOM      9  C   UNL     1      41.620  42.036  15.493  1.00  0.00     0.000 C 
BRANCH   9  10
ATOM     10  C   UNL     1      40.650  42.136  16.683  1.00  0.00    -0.000 C 
BRANCH  10  11
ATOM     11  C   UNL     1      41.119  41.317  17.896  1.00  0.00    -0.000 C 
BRANCH  11  12
ATOM     12  C   UNL     1      41.434  42.195  19.120  1.00  0.00    -0.000 C 
BRANCH  12  13
ATOM     13  C   UNL     1      42.274  41.456  20.172  1.00  0.00    -0.003 C 
ATOM     14  C   UNL     1      42.048  39.943  20.152  1.00  0.00     0.004 C 
ENDBRANCH  12  13
ENDBRANCH  11  12
ENDBRANCH  10  11
ENDBRANCH   9  10
ENDBRANCH   1   9
TORSDOF 10
ENDMDL
MODEL 7
REMARK VINA RESULT:    -4.687      3.398      6.425
REMARK INTER + INTRA:          -8.308
REMARK INTER:                  -7.390
REMARK INTRA:                  -0.918
REMARK UNBOUND:                -0.882
REMARK SMILES CCCCCCCCCCCC(=O)[O-]
REMARK SMILES IDX 7 1 8 2 9 3 10 4 11 5 12 6 13 7 14 8 6 9 5 10 4 11 3 12 2 13
REMARK SMILES IDX 1 14
REMARK H PARENT
REMARK Flexibility Score: inf
ROOT
ATOM      1  C   UNL     1      40.998  41.919  16.639  1.00  0.00     0.000 C 
ENDROOT
BRANCH   1   2
ATOM      2  C   UNL     1      41.143  40.717  15.683  1.00  0.00     0.000 C 
BRANCH   2   3
ATOM      3  C   UNL     1      42.498  39.987  15.743  1.00  0.00     0.000 C 
BRANCH   3   4
ATOM      4  C   UNL     1      42.889  39.222  14.464  1.00  0.00     0.006 C 
BRANCH   4   5
ATOM      5  C   UNL     1      41.686  38.748  13.627  1.00  0.00     0.053 C 
BRANCH   5   6
ATOM      6  C   UNL     1      41.602  37.255  13.538  1.00  0.00     0.041 C 
ATOM      7  O   UNL     1      40.500  36.694  13.303  1.00  0.00    -0.550 OA
ATOM      8  O   UNL     1      42.735  36.480  13.749  1.00  0.00    -0.550 OA
ENDBRANCH   5   6
ENDBRANCH   4   5
ENDBRANCH   3   4
ENDBRANCH   2   3
ENDBRANCH   1   2
BRANCH   1   9
ATOM      9  C   UNL     1      41.896  43.127  16.314  1.00  0.00     0.000 C 
BRANCH   9  10
ATOM     10  C   UNL     1      42.851  43.490  17.464  1.00  0.00    -0.000 C 
BRANCH  10  11
ATOM     11  C   UNL     1      43.262  42.266  18.297  1.00  0.00    -0.000 C 
BRANCH  11  12
ATOM     12  C   UNL     1      42.952  42.435  19.795  1.00  0.00    -0.000 C 
BRANCH  12  13
ATOM     13  C   UNL     1      41.775  41.563  20.254  1.00  0.00    -0.003 C 
ATOM     14  C   UNL     1      41.891  40.115  19.778  1.00  0.00     0.004 C 
ENDBRANCH  12  13
ENDBRANCH  11  12
ENDBRANCH  10  11
ENDBRANCH   9  10
ENDBRANCH   1   9
TORSDOF 10
ENDMDL
MODEL 8
REMARK VINA RESULT:    -4.560      1.436      2.438
REMARK INTER + INTRA:          -8.107
REMARK INTER:                  -6.983
REMARK INTRA:                  -1.124
REMARK UNBOUND:                -0.882
REMARK SMILES CCCCCCCCCCCC(=O)[O-]
REMARK SMILES IDX 7 1 8 2 9 3 10 4 11 5 12 6 13 7 14 8 6 9 5 10 4 11 3 12 2 13
REMARK SMILES IDX 1 14
REMARK H PARENT
REMARK Flexibility Score: inf
ROOT
ATOM      1  C   UNL     1      41.551  42.436  15.368  1.00  0.00     0.000 C 
ENDROOT
BRANCH   1   2
ATOM      2  C   UNL     1      40.690  41.158  15.437  1.00  0.00     0.000 C 
BRANCH   2   3
ATOM      3  C   UNL     1      40.443  40.607  16.854  1.00  0.00     0.000 C 
BRANCH   3   4
ATOM      4  C   UNL     1      40.791  41.570  18.005  1.00  0.00     0.006 C 
BRANCH   4   5
ATOM      5  C   UNL     1      41.960  41.093  18.887  1.00  0.00     0.053 C 
BRANCH   5   6
ATOM      6  C   UNL     1      42.847  42.219  19.322  1.00  0.00     0.041 C 
ATOM      7  O   UNL     1      43.096  42.395  20.543  1.00  0.00    -0.550 OA
ATOM      8  O   UNL     1      43.370  43.097  18.381  1.00  0.00    -0.550 OA
ENDBRANCH   5   6
ENDBRANCH   4   5
ENDBRANCH   3   4
ENDBRANCH   2   3
ENDBRANCH   1   2
BRANCH   1   9
ATOM      9  C   UNL     1      43.007  42.222  14.914  1.00  0.00     0.000 C 
BRANCH   9  10
ATOM     10  C   UNL     1      43.654  40.978  15.545  1.00  0.00    -0.000 C 
BRANCH  10  11
ATOM     11  C   UNL     1      44.017  39.909  14.503  1.00  0.00    -0.000 C 
BRANCH  11  12
ATOM     12  C   UNL     1      43.331  38.558  14.773  1.00  0.00    -0.000 C 
BRANCH  12  13
ATOM     13  C   UNL     1      42.171  38.284  13.805  1.00  0.00    -0.003 C 
ATOM     14  C   UNL     1      42.072  36.812  13.403  1.00  0.00     0.004 C 
ENDBRANCH  12  13
ENDBRANCH  11  12
ENDBRANCH  10  11
ENDBRANCH   9  10
ENDBRANCH   1   9
TORSDOF 10
ENDMDL
MODEL 9
REMARK VINA RESULT:    -4.488      9.537     10.383
REMARK INTER + INTRA:          -7.993
REMARK INTER:                  -7.443
REMARK INTRA:                  -0.550
REMARK UNBOUND:                -0.882
REMARK SMILES CCCCCCCCCCCC(=O)[O-]
REMARK SMILES IDX 7 1 8 2 9 3 10 4 11 5 12 6 13 7 14 8 6 9 5 10 4 11 3 12 2 13
REMARK SMILES IDX 1 14
REMARK H PARENT
REMARK Flexibility Score: inf
ROOT
ATOM      1  C   UNL     1      40.501  28.856  14.098  1.00  0.00     0.000 C 
ENDROOT
BRANCH   1   2
ATOM      2  C   UNL     1      41.482  29.528  15.080  1.00  0.00     0.000 C 
BRANCH   2   3
ATOM      3  C   UNL     1      40.850  30.542  16.052  1.00  0.00     0.000 C 
BRANCH   3   4
ATOM      4  C   UNL     1      41.675  30.841  17.319  1.00  0.00     0.006 C 
BRANCH   4   5
ATOM      5  C   UNL     1      42.398  29.610  17.897  1.00  0.00     0.053 C 
BRANCH   5   6
ATOM      6  C   UNL     1      43.723  29.957  18.506  1.00  0.00     0.041 C 
ATOM      7  O   UNL     1      44.663  30.378  17.783  1.00  0.00    -0.550 OA
ATOM      8  O   UNL     1      43.930  29.779  19.868  1.00  0.00    -0.550 OA
ENDBRANCH   5   6
ENDBRANCH   4   5
ENDBRANCH   3   4
ENDBRANCH   2   3
ENDBRANCH   1   2
BRANCH   1   9
ATOM      9  C   UNL     1      39.360  29.757  13.591  1.00  0.00     0.000 C 
BRANCH   9  10
ATOM     10  C   UNL     1      38.009  29.442  14.256  1.00  0.00    -0.000 C 
BRANCH  10  11
ATOM     11  C   UNL     1      37.371  30.678  14.909  1.00  0.00    -0.000 C 
BRANCH  11  12
ATOM     12  C   UNL     1      36.933  31.736  13.881  1.00  0.00    -0.000 C 
BRANCH  12  13
ATOM     13  C   UNL     1      35.415  31.966  13.885  1.00  0.00    -0.003 C 
ATOM     14  C   UNL     1      34.648  30.867  13.147  1.00  0.00     0.004 C 
ENDBRANCH  12  13
ENDBRANCH  11  12
ENDBRANCH  10  11
ENDBRANCH   9  10
ENDBRANCH   1   9
TORSDOF 10
ENDMDL
