MODEL 1
REMARK VINA RESULT:    -4.196      0.000      0.000
REMARK INTER + INTRA:          -7.207
REMARK INTER:                  -6.649
REMARK INTRA:                  -0.558
REMARK UNBOUND:                -0.558
REMARK SMILES CCCCCCCCCCCC(=O)[O-]
REMARK SMILES IDX 7 1 8 2 9 3 10 4 11 5 12 6 13 7 14 8 6 9 5 10 4 11 3 12 2 13
REMARK SMILES IDX 1 14
REMARK H PARENT
REMARK Flexibility Score: inf
ROOT
ATOM      1  C   UNL     1      46.863   1.760  19.920  1.00  0.00     0.000 C 
ENDROOT
BRANCH   1   2
ATOM      2  C   UNL     1      48.017   1.151  20.727  1.00  0.00     0.000 C 
BRANCH   2   3
ATOM      3  C   UNL     1      49.001   2.234  21.185  1.00  0.00     0.000 C 
BRANCH   3   4
ATOM      4  C   UNL     1      50.273   2.222  20.325  1.00  0.00     0.006 C 
BRANCH   4   5
ATOM      5  C   UNL     1      50.942   3.601  20.257  1.00  0.00     0.053 C 
BRANCH   5   6
ATOM      6  C   UNL     1      51.957   3.671  19.158  1.00  0.00     0.041 C 
ATOM      7  O   UNL     1      51.864   4.553  18.263  1.00  0.00    -0.550 OA
ATOM      8  O   UNL     1      53.024   2.783  19.141  1.00  0.00    -0.550 OA
ENDBRANCH   5   6
ENDBRANCH   4   5
ENDBRANCH   3   4
ENDBRANCH   2   3
ENDBRANCH   1   2
BRANCH   1   9
ATOM      9  C   UNL     1      46.137   2.844  20.732  1.00  0.00     0.000 C 
BRANCH   9  10
ATOM     10  C   UNL     1      44.961   3.471  19.965  1.00  0.00    -0.000 C 
BRANCH  10  11
ATOM     11  C   UNL     1      43.599   2.918  20.419  1.00  0.00    -0.000 C 
BRANCH  11  12
ATOM     12  C   UNL     1      43.713   2.012  21.656  1.00  0.00    -0.000 C 
BRANCH  12  13
ATOM     13  C   UNL     1      43.197   0.589  21.399  1.00  0.00    -0.003 C 
ATOM     14  C   UNL     1      43.356  -0.286  22.640  1.00  0.00     0.004 C 
ENDBRANCH  12  13
ENDBRANCH  11  12
ENDBRANCH  10  11
ENDBRANCH   9  10
ENDBRANCH   1   9
TORSDOF 10
ENDMDL
MODEL 2
REMARK VINA RESULT:    -4.126      4.098      6.014
REMARK INTER + INTRA:          -7.095
REMARK INTER:                  -6.237
REMARK INTRA:                  -0.859
REMARK UNBOUND:                -0.558
REMARK SMILES CCCCCCCCCCCC(=O)[O-]
REMARK SMILES IDX 7 1 8 2 9 3 10 4 11 5 12 6 13 7 14 8 6 9 5 10 4 11 3 12 2 13
REMARK SMILES IDX 1 14
REMARK H PARENT
REMARK Flexibility Score: inf
ROOT
ATOM      1  C   UNL     1      48.810   4.784  21.389  1.00  0.00     0.000 C 
ENDROOT
BRANCH   1   2
ATOM      2  C   UNL     1      49.436   3.671  22.239  1.00  0.00     0.000 C 
BRANCH   2   3
ATOM      3  C   UNL     1      50.761   3.195  21.633  1.00  0.00     0.000 C 
BRANCH   3   4
ATOM      4  C   UNL     1      50.551   2.639  20.217  1.00  0.00     0.006 C 
BRANCH   4   5
ATOM      5  C   UNL     1      51.585   3.179  19.220  1.00  0.00     0.053 C 
BRANCH   5   6
ATOM      6  C   UNL     1      52.939   2.580  19.448  1.00  0.00     0.041 C 
ATOM      7  O   UNL     1      53.905   3.309  19.798  1.00  0.00    -0.550 OA
ATOM      8  O   UNL     1      53.126   1.212  19.303  1.00  0.00    -0.550 OA
ENDBRANCH   5   6
ENDBRANCH   4   5
ENDBRANCH   3   4
ENDBRANCH   2   3
ENDBRANCH   1   2
BRANCH   1   9
ATOM      9  C   UNL     1      49.633   6.078  21.486  1.00  0.00     0.000 C 
BRANCH   9  10
ATOM     10  C   UNL     1      48.755   7.341  21.493  1.00  0.00    -0.000 C 
BRANCH  10  11
ATOM     11  C   UNL     1      48.971   8.216  20.247  1.00  0.00    -0.000 C 
BRANCH  11  12
ATOM     12  C   UNL     1      50.459   8.456  19.945  1.00  0.00    -0.000 C 
BRANCH  12  13
ATOM     13  C   UNL     1      50.835   8.108  18.497  1.00  0.00    -0.003 C 
ATOM     14  C   UNL     1      51.630   6.807  18.433  1.00  0.00     0.004 C 
ENDBRANCH  12  13
ENDBRANCH  11  12
ENDBRANCH  10  11
ENDBRANCH   9  10
ENDBRANCH   1   9
TORSDOF 10
ENDMDL
MODEL 3
REMARK VINA RESULT:    -4.066      4.908      6.598
REMARK INTER + INTRA:          -7.001
REMARK INTER:                  -6.204
REMARK INTRA:                  -0.796
REMARK UNBOUND:                -0.558
REMARK SMILES CCCCCCCCCCCC(=O)[O-]
REMARK SMILES IDX 7 1 8 2 9 3 10 4 11 5 12 6 13 7 14 8 6 9 5 10 4 11 3 12 2 13
REMARK SMILES IDX 1 14
REMARK H PARENT
REMARK Flexibility Score: inf
ROOT
ATOM      1  C   UNL     1      49.041   5.984  23.015  1.00  0.00     0.000 C 
ENDROOT
BRANCH   1   2
ATOM      2  C   UNL     1      49.771   7.267  22.598  1.00  0.00     0.000 C 
BRANCH   2   3
ATOM      3  C   UNL     1      49.362   7.700  21.186  1.00  0.00     0.000 C 
BRANCH   3   4
ATOM      4  C   UNL     1      50.320   7.123  20.134  1.00  0.00     0.006 C 
BRANCH   4   5
ATOM      5  C   UNL     1      51.137   8.214  19.430  1.00  0.00     0.053 C 
BRANCH   5   6
ATOM      6  C   UNL     1      50.310   8.972  18.437  1.00  0.00     0.041 C 
ATOM      7  O   UNL     1      49.811   8.380  17.443  1.00  0.00    -0.550 OA
ATOM      8  O   UNL     1      50.064  10.325  18.626  1.00  0.00    -0.550 OA
ENDBRANCH   5   6
ENDBRANCH   4   5
ENDBRANCH   3   4
ENDBRANCH   2   3
ENDBRANCH   1   2
BRANCH   1   9
ATOM      9  C   UNL     1      49.945   5.095  23.884  1.00  0.00     0.000 C 
BRANCH   9  10
ATOM     10  C   UNL     1      50.227   3.727  23.240  1.00  0.00    -0.000 C 
BRANCH  10  11
ATOM     11  C   UNL     1      49.898   3.703  21.738  1.00  0.00    -0.000 C 
BRANCH  11  12
ATOM     12  C   UNL     1      50.779   2.715  20.957  1.00  0.00    -0.000 C 
BRANCH  12  13
ATOM     13  C   UNL     1      51.125   3.215  19.546  1.00  0.00    -0.003 C 
ATOM     14  C   UNL     1      52.548   2.822  19.157  1.00  0.00     0.004 C 
ENDBRANCH  12  13
ENDBRANCH  11  12
ENDBRANCH  10  11
ENDBRANCH   9  10
ENDBRANCH   1   9
TORSDOF 10
ENDMDL
MODEL 4
REMARK VINA RESULT:    -4.060      1.358      1.925
REMARK INTER + INTRA:          -6.991
REMARK INTER:                  -5.715
REMARK INTRA:                  -1.276
REMARK UNBOUND:                -0.558
REMARK SMILES CCCCCCCCCCCC(=O)[O-]
REMARK SMILES IDX 7 1 8 2 9 3 10 4 11 5 12 6 13 7 14 8 6 9 5 10 4 11 3 12 2 13
REMARK SMILES IDX 1 14
REMARK H PARENT
REMARK Flexibility Score: inf
ROOT
ATOM      1  C   UNL     1      46.567   2.900  20.545  1.00  0.00     0.000 C 
ENDROOT
BRANCH   1   2
ATOM      2  C   UNL     1      46.914   1.585  19.834  1.00  0.00     0.000 C 
BRANCH   2   3
ATOM      3  C   UNL     1      47.904   0.757  20.660  1.00  0.00     0.000 C 
BRANCH   3   4
ATOM      4  C   UNL     1      48.718   1.653  21.605  1.00  0.00     0.006 C 
BRANCH   4   5
ATOM      5  C   UNL     1      50.194   1.741  21.194  1.00  0.00     0.053 C 
BRANCH   5   6
ATOM      6  C   UNL     1      50.492   3.020  20.472  1.00  0.00     0.041 C 
ATOM      7  O   UNL     1      50.014   4.109  20.887  1.00  0.00    -0.550 OA
ATOM      8  O   UNL     1      51.323   3.012  19.360  1.00  0.00    -0.550 OA
ENDBRANCH   5   6
ENDBRANCH   4   5
ENDBRANCH   3   4
ENDBRANCH   2   3
ENDBRANCH   1   2
BRANCH   1   9
ATOM      9  C   UNL     1      45.145   3.359  20.185  1.00  0.00     0.000 C 
BRANCH   9  10
ATOM     10  C   UNL     1      44.106   2.955  21.244  1.00  0.00    -0.000 C 
BRANCH  10  11
ATOM     11  C   UNL     1      43.350   1.669  20.867  1.00  0.00    -0.000 C 
BRANCH  11  12
ATOM     12  C   UNL     1      43.432   0.594  21.963  1.00  0.00    -0.000 C 
BRANCH  12  13
ATOM     13  C   UNL     1      44.573   0.848  22.959  1.00  0.00    -0.003 C 
ATOM     14  C   UNL     1      45.432  -0.401  23.140  1.00  0.00     0.004 C 
ENDBRANCH  12  13
ENDBRANCH  11  12
ENDBRANCH  10  11
ENDBRANCH   9  10
ENDBRANCH   1   9
TORSDOF 10
ENDMDL
MODEL 5
REMARK VINA RESULT:    -4.048      3.990      6.282
REMARK INTER + INTRA:          -6.972
REMARK INTER:                  -6.186
REMARK INTRA:                  -0.786
REMARK UNBOUND:                -0.558
REMARK SMILES CCCCCCCCCCCC(=O)[O-]
REMARK SMILES IDX 7 1 8 2 9 3 10 4 11 5 12 6 13 7 14 8 6 9 5 10 4 11 3 12 2 13
REMARK SMILES IDX 1 14
REMARK H PARENT
REMARK Flexibility Score: inf
ROOT
ATOM      1  C   UNL     1      51.776   3.213  18.993  1.00  0.00     0.000 C 
ENDROOT
BRANCH   1   2
ATOM      2  C   UNL     1      52.366   4.607  18.742  1.00  0.00     0.000 C 
BRANCH   2   3
ATOM      3  C   UNL     1      51.404   5.704  19.212  1.00  0.00     0.000 C 
BRANCH   3   4
ATOM      4  C   UNL     1      51.884   7.090  18.754  1.00  0.00     0.006 C 
BRANCH   4   5
ATOM      5  C   UNL     1      51.067   8.225  19.384  1.00  0.00     0.053 C 
BRANCH   5   6
ATOM      6  C   UNL     1      50.234   8.940  18.364  1.00  0.00     0.041 C 
ATOM      7  O   UNL     1      49.876   8.349  17.310  1.00  0.00    -0.550 OA
ATOM      8  O   UNL     1      49.827  10.247  18.592  1.00  0.00    -0.550 OA
ENDBRANCH   5   6
ENDBRANCH   4   5
ENDBRANCH   3   4
ENDBRANCH   2   3
ENDBRANCH   1   2
BRANCH   1   9
ATOM      9  C   UNL     1      52.869   2.225  19.428  1.00  0.00     0.000 C 
BRANCH   9  10
ATOM     10  C   UNL     1      52.704   1.762  20.886  1.00  0.00    -0.000 C 
BRANCH  10  11
ATOM     11  C   UNL     1      51.589   2.522  21.623  1.00  0.00    -0.000 C 
BRANCH  11  12
ATOM     12  C   UNL     1      50.461   1.594  22.104  1.00  0.00    -0.000 C 
BRANCH  12  13
ATOM     13  C   UNL     1      49.291   1.520  21.111  1.00  0.00    -0.003 C 
ATOM     14  C   UNL     1      48.612   2.878  20.961  1.00  0.00     0.004 C 
ENDBRANCH  12  13
ENDBRANCH  11  12
ENDBRANCH  10  11
ENDBRANCH   9  10
ENDBRANCH   1   9
TORSDOF 10
ENDMDL
MODEL 6
REMARK VINA RESULT:    -4.034      3.383      4.022
REMARK INTER + INTRA:          -6.950
REMARK INTER:                  -5.277
REMARK INTRA:                  -1.673
REMARK UNBOUND:                -0.558
REMARK SMILES CCCCCCCCCCCC(=O)[O-]
REMARK SMILES IDX 7 1 8 2 9 3 10 4 11 5 12 6 13 7 14 8 6 9 5 10 4 11 3 12 2 13
REMARK SMILES IDX 1 14
REMARK H PARENT
REMARK Flexibility Score: inf
ROOT
ATOM      1  C   UNL     1      45.737   3.752  21.053  1.00  0.00     0.000 C 
ENDROOT
BRANCH   1   2
ATOM      2  C   UNL     1      47.035   2.935  21.025  1.00  0.00     0.000 C 
BRANCH   2   3
ATOM      3  C   UNL     1      47.028   1.929  19.868  1.00  0.00     0.000 C 
BRANCH   3   4
ATOM      4  C   UNL     1      47.446   0.532  20.350  1.00  0.00     0.006 C 
BRANCH   4   5
ATOM      5  C   UNL     1      48.206   0.581  21.682  1.00  0.00     0.053 C 
BRANCH   5   6
ATOM      6  C   UNL     1      48.349  -0.781  22.288  1.00  0.00     0.041 C 
ATOM      7  O   UNL     1      49.096  -1.641  21.750  1.00  0.00    -0.550 OA
ATOM      8  O   UNL     1      47.682  -1.091  23.466  1.00  0.00    -0.550 OA
ENDBRANCH   5   6
ENDBRANCH   4   5
ENDBRANCH   3   4
ENDBRANCH   2   3
ENDBRANCH   1   2
BRANCH   1   9
ATOM      9  C   UNL     1      44.828   3.381  19.871  1.00  0.00     0.000 C 
BRANCH   9  10
ATOM     10  C   UNL     1      43.404   3.005  20.312  1.00  0.00    -0.000 C 
BRANCH  10  11
ATOM     11  C   UNL     1      43.368   2.372  21.714  1.00  0.00    -0.000 C 
BRANCH  11  12
ATOM     12  C   UNL     1      43.327   0.836  21.665  1.00  0.00    -0.000 C 
BRANCH  12  13
ATOM     13  C   UNL     1      44.425   0.186  22.521  1.00  0.00    -0.003 C 
ATOM     14  C   UNL     1      44.916   1.142  23.604  1.00  0.00     0.004 C 
ENDBRANCH  12  13
ENDBRANCH  11  12
ENDBRANCH  10  11
ENDBRANCH   9  10
ENDBRANCH   1   9
TORSDOF 10
ENDMDL
MODEL 7
REMARK VINA RESULT:    -4.009      6.516      8.351
REMARK INTER + INTRA:          -6.910
REMARK INTER:                  -6.131
REMARK INTRA:                  -0.779
REMARK UNBOUND:                -0.558
REMARK SMILES CCCCCCCCCCCC(=O)[O-]
REMARK SMILES IDX 7 1 8 2 9 3 10 4 11 5 12 6 13 7 14 8 6 9 5 10 4 11 3 12 2 13
REMARK SMILES IDX 1 14
REMARK H PARENT
REMARK Flexibility Score: inf
ROOT
ATOM      1  C   UNL     1      48.387   7.277  21.526  1.00  0.00     0.000 C 
ENDROOT
BRANCH   1   2
ATOM      2  C   UNL     1      49.478   7.200  22.602  1.00  0.00     0.000 C 
BRANCH   2   3
ATOM      3  C   UNL     1      49.535   8.494  23.422  1.00  0.00     0.000 C 
BRANCH   3   4
ATOM      4  C   UNL     1      50.378   8.304  24.692  1.00  0.00     0.006 C 
BRANCH   4   5
ATOM      5  C   UNL     1      50.562   6.824  25.051  1.00  0.00     0.053 C 
BRANCH   5   6
ATOM      6  C   UNL     1      50.096   6.529  26.444  1.00  0.00     0.041 C 
ATOM      7  O   UNL     1      50.338   5.411  26.971  1.00  0.00    -0.550 OA
ATOM      8  O   UNL     1      49.421   7.501  27.171  1.00  0.00    -0.550 OA
ENDBRANCH   5   6
ENDBRANCH   4   5
ENDBRANCH   3   4
ENDBRANCH   2   3
ENDBRANCH   1   2
BRANCH   1   9
ATOM      9  C   UNL     1      48.393   8.649  20.835  1.00  0.00     0.000 C 
BRANCH   9  10
ATOM     10  C   UNL     1      48.893   8.579  19.382  1.00  0.00    -0.000 C 
BRANCH  10  11
ATOM     11  C   UNL     1      50.340   9.078  19.231  1.00  0.00    -0.000 C 
BRANCH  11  12
ATOM     12  C   UNL     1      51.374   7.959  19.435  1.00  0.00    -0.000 C 
BRANCH  12  13
ATOM     13  C   UNL     1      51.412   6.965  18.264  1.00  0.00    -0.003 C 
ATOM     14  C   UNL     1      52.486   5.902  18.481  1.00  0.00     0.004 C 
ENDBRANCH  12  13
ENDBRANCH  11  12
ENDBRANCH  10  11
ENDBRANCH   9  10
ENDBRANCH   1   9
TORSDOF 10
ENDMDL
MODEL 8
REMARK VINA RESULT:    -4.005      4.579      6.647
REMARK INTER + INTRA:          -6.904
REMARK INTER:                  -6.049
REMARK INTRA:                  -0.855
REMARK UNBOUND:                -0.558
REMARK SMILES CCCCCCCCCCCC(=O)[O-]
REMARK SMILES IDX 7 1 8 2 9 3 10 4 11 5 12 6 13 7 14 8 6 9 5 10 4 11 3 12 2 13
REMARK SMILES IDX 1 14
REMARK H PARENT
REMARK Flexibility Score: inf
ROOT
ATOM      1  C   UNL     1      49.891   4.057  22.512  1.00  0.00     0.000 C 
ENDROOT
BRANCH   1   2
ATOM      2  C   UNL     1      49.407   4.945  21.359  1.00  0.00     0.000 C 
BRANCH   2   3
ATOM      3  C   UNL     1      48.330   5.927  21.835  1.00  0.00     0.000 C 
BRANCH   3   4
ATOM      4  C   UNL     1      48.548   7.320  21.225  1.00  0.00     0.006 C 
BRANCH   4   5
ATOM      5  C   UNL     1      50.017   7.572  20.861  1.00  0.00     0.053 C 
BRANCH   5   6
ATOM      6  C   UNL     1      50.151   8.225  19.520  1.00  0.00     0.041 C 
ATOM      7  O   UNL     1      51.290   8.517  19.067  1.00  0.00    -0.550 OA
ATOM      8  O   UNL     1      49.020   8.483  18.756  1.00  0.00    -0.550 OA
ENDBRANCH   5   6
ENDBRANCH   4   5
ENDBRANCH   3   4
ENDBRANCH   2   3
ENDBRANCH   1   2
BRANCH   1   9
ATOM      9  C   UNL     1      49.995   2.589  22.069  1.00  0.00     0.000 C 
BRANCH   9  10
ATOM     10  C   UNL     1      51.289   1.913  22.552  1.00  0.00    -0.000 C 
BRANCH  10  11
ATOM     11  C   UNL     1      52.124   1.342  21.393  1.00  0.00    -0.000 C 
BRANCH  11  12
ATOM     12  C   UNL     1      52.948   2.422  20.673  1.00  0.00    -0.000 C 
BRANCH  12  13
ATOM     13  C   UNL     1      52.620   2.517  19.175  1.00  0.00    -0.003 C 
ATOM     14  C   UNL     1      51.887   3.816  18.854  1.00  0.00     0.004 C 
ENDBRANCH  12  13
ENDBRANCH  11  12
ENDBRANCH  10  11
ENDBRANCH   9  10
ENDBRANCH   1   9
TORSDOF 10
ENDMDL
MODEL 9
REMARK VINA RESULT:    -3.926      3.908      6.060
REMARK INTER + INTRA:          -6.779
REMARK INTER:                  -5.160
REMARK INTRA:                  -1.619
REMARK UNBOUND:                -0.558
REMARK SMILES CCCCCCCCCCCC(=O)[O-]
REMARK SMILES IDX 7 1 8 2 9 3 10 4 11 5 12 6 13 7 14 8 6 9 5 10 4 11 3 12 2 13
REMARK SMILES IDX 1 14
REMARK H PARENT
REMARK Flexibility Score: inf
ROOT
ATOM      1  C   UNL     1      44.537   3.347  20.240  1.00  0.00     0.000 C 
ENDROOT
BRANCH   1   2
ATOM      2  C   UNL     1      43.295   2.728  20.893  1.00  0.00     0.000 C 
BRANCH   2   3
ATOM      3  C   UNL     1      43.393   1.199  20.925  1.00  0.00     0.000 C 
BRANCH   3   4
ATOM      4  C   UNL     1      43.399   0.678  22.370  1.00  0.00     0.006 C 
BRANCH   4   5
ATOM      5  C   UNL     1      44.793   0.217  22.815  1.00  0.00     0.053 C 
BRANCH   5   6
ATOM      6  C   UNL     1      45.347   1.093  23.897  1.00  0.00     0.041 C 
ATOM      7  O   UNL     1      46.488   0.862  24.378  1.00  0.00    -0.550 OA
ATOM      8  O   UNL     1      44.617   2.183  24.351  1.00  0.00    -0.550 OA
ENDBRANCH   5   6
ENDBRANCH   4   5
ENDBRANCH   3   4
ENDBRANCH   2   3
ENDBRANCH   1   2
BRANCH   1   9
ATOM      9  C   UNL     1      45.570   3.755  21.302  1.00  0.00     0.000 C 
BRANCH   9  10
ATOM     10  C   UNL     1      46.931   3.069  21.101  1.00  0.00    -0.000 C 
BRANCH  10  11
ATOM     11  C   UNL     1      46.968   2.191  19.838  1.00  0.00    -0.000 C 
BRANCH  11  12
ATOM     12  C   UNL     1      47.320   0.727  20.148  1.00  0.00    -0.000 C 
BRANCH  12  13
ATOM     13  C   UNL     1      48.331   0.590  21.297  1.00  0.00    -0.003 C 
ATOM     14  C   UNL     1      48.349  -0.834  21.845  1.00  0.00     0.004 C 
ENDBRANCH  12  13
ENDBRANCH  11  12
ENDBRANCH  10  11
ENDBRANCH   9  10
ENDBRANCH   1   9
TORSDOF 10
ENDMDL
