MODEL 1
REMARK VINA RESULT:    -5.504      0.000      0.000
REMARK INTER + INTRA:          -6.904
REMARK INTER:                  -6.630
REMARK INTRA:                  -0.274
REMARK UNBOUND:                -0.274
REMARK SMILES Oc1cc(O)c2cc(O)c(-c3ccc(O)c(O)c3)[o+]c2c1.[Cl-]
REMARK SMILES IDX 10 1 19 2 20 3 21 4 2 5 3 6 4 7 6 8 7 9 8 10 11 11 12 12
REMARK SMILES IDX 13 13 14 14 18 15 16 16 15 17 17 19 9 21 1 23 5 25
REMARK H PARENT 15 18 17 20 9 22 1 24 5 26
REMARK Flexibility Score: inf
ROOT
ATOM      1  C   UNL     1      -4.487  91.251 -14.694  1.00  0.00     0.402 A 
ATOM      2  O   UNL     1      -4.167  92.349 -14.015  1.00  0.00    -0.202 OA
ATOM      3  C   UNL     1      -4.328  92.467 -12.702  1.00  0.00     0.368 A 
ATOM      4  C   UNL     1      -3.966  93.663 -12.076  1.00  0.00     0.162 A 
ATOM      5  C   UNL     1      -4.126  93.816 -10.699  1.00  0.00     0.128 A 
ATOM      6  C   UNL     1      -4.654  92.768  -9.938  1.00  0.00     0.093 A 
ATOM      7  C   UNL     1      -5.026  91.558 -10.541  1.00  0.00     0.136 A 
ATOM      8  C   UNL     1      -4.861  91.399 -11.941  1.00  0.00     0.125 A 
ATOM      9  C   UNL     1      -5.192  90.219 -12.628  1.00  0.00     0.078 A 
ATOM     10  C   UNL     1      -4.997  90.133 -14.009  1.00  0.00     0.223 A 
ENDROOT
BRANCH   1  11
ATOM     11  C   UNL     1      -4.270  91.246 -16.160  1.00  0.00     0.087 A 
ATOM     12  C   UNL     1      -2.960  91.295 -16.664  1.00  0.00     0.022 A 
ATOM     13  C   UNL     1      -2.732  91.310 -18.041  1.00  0.00     0.051 A 
ATOM     14  C   UNL     1      -3.806  91.294 -18.936  1.00  0.00     0.157 A 
ATOM     15  C   UNL     1      -5.349  91.250 -17.061  1.00  0.00     0.068 A 
ATOM     16  C   UNL     1      -5.122  91.268 -18.445  1.00  0.00     0.158 A 
BRANCH  14  17
ATOM     17  O   UNL     1      -3.548  91.308 -20.307  1.00  0.00    -0.504 OA
ATOM     18  H   UNL     1      -2.629  91.517 -20.680  1.00  0.00     0.293 HD
ENDBRANCH  14  17
BRANCH  16  19
ATOM     19  O   UNL     1      -6.199  91.267 -19.331  1.00  0.00    -0.504 OA
ATOM     20  H   UNL     1      -6.791  92.080 -19.448  1.00  0.00     0.293 HD
ENDBRANCH  16  19
ENDBRANCH   1  11
BRANCH  10  21
ATOM     21  O   UNL     1      -5.280  88.945 -14.684  1.00  0.00    -0.500 OA
ATOM     22  H   UNL     1      -5.603  88.942 -15.644  1.00  0.00     0.294 HD
ENDBRANCH  10  21
BRANCH   5  23
ATOM     23  O   UNL     1      -3.759  95.016 -10.094  1.00  0.00    -0.507 OA
ATOM     24  H   UNL     1      -3.761  95.891 -10.606  1.00  0.00     0.293 HD
ENDBRANCH   5  23
BRANCH   7  25
ATOM     25  O   UNL     1      -5.548  90.560  -9.713  1.00  0.00    -0.507 OA
ATOM     26  H   UNL     1      -6.369  90.670  -9.135  1.00  0.00     0.293 HD
ENDBRANCH   7  25
TORSDOF 6
ENDMDL
MODEL 2
REMARK VINA RESULT:    -5.495      4.522      6.610
REMARK INTER + INTRA:          -6.894
REMARK INTER:                  -6.693
REMARK INTRA:                  -0.200
REMARK UNBOUND:                -0.274
REMARK SMILES Oc1cc(O)c2cc(O)c(-c3ccc(O)c(O)c3)[o+]c2c1.[Cl-]
REMARK SMILES IDX 10 1 19 2 20 3 21 4 2 5 3 6 4 7 6 8 7 9 8 10 11 11 12 12
REMARK SMILES IDX 13 13 14 14 18 15 16 16 15 17 17 19 9 21 1 23 5 25
REMARK H PARENT 15 18 17 20 9 22 1 24 5 26
REMARK Flexibility Score: inf
ROOT
ATOM      1  C   UNL     1      -8.256  90.281 -13.872  1.00  0.00     0.402 A 
ATOM      2  O   UNL     1      -7.752  91.285 -14.586  1.00  0.00    -0.202 OA
ATOM      3  C   UNL     1      -6.453  91.435 -14.819  1.00  0.00     0.368 A 
ATOM      4  C   UNL     1      -6.019  92.525 -15.578  1.00  0.00     0.162 A 
ATOM      5  C   UNL     1      -4.661  92.708 -15.837  1.00  0.00     0.128 A 
ATOM      6  C   UNL     1      -3.726  91.797 -15.334  1.00  0.00     0.093 A 
ATOM      7  C   UNL     1      -4.135  90.696 -14.570  1.00  0.00     0.136 A 
ATOM      8  C   UNL     1      -5.516  90.505 -14.307  1.00  0.00     0.125 A 
ATOM      9  C   UNL     1      -6.019  89.424 -13.564  1.00  0.00     0.078 A 
ATOM     10  C   UNL     1      -7.395  89.299 -13.350  1.00  0.00     0.223 A 
ENDROOT
BRANCH   1  11
ATOM     11  C   UNL     1      -9.722  90.231 -13.673  1.00  0.00     0.087 A 
ATOM     12  C   UNL     1     -10.466  89.203 -14.276  1.00  0.00     0.022 A 
ATOM     13  C   UNL     1     -11.852  89.146 -14.117  1.00  0.00     0.051 A 
ATOM     14  C   UNL     1     -12.520  90.121 -13.370  1.00  0.00     0.157 A 
ATOM     15  C   UNL     1     -10.398  91.221 -12.938  1.00  0.00     0.068 A 
ATOM     16  C   UNL     1     -11.791  91.167 -12.780  1.00  0.00     0.158 A 
BRANCH  14  17
ATOM     17  O   UNL     1     -13.904  90.037 -13.227  1.00  0.00    -0.504 OA
ATOM     18  H   UNL     1     -14.518  89.869 -14.016  1.00  0.00     0.293 HD
ENDBRANCH  14  17
BRANCH  16  19
ATOM     19  O   UNL     1     -12.451  92.151 -12.046  1.00  0.00    -0.504 OA
ATOM     20  H   UNL     1     -13.229  92.671 -12.433  1.00  0.00     0.293 HD
ENDBRANCH  16  19
ENDBRANCH   1  11
BRANCH  10  21
ATOM     21  O   UNL     1      -7.897  88.200 -12.654  1.00  0.00    -0.500 OA
ATOM     22  H   UNL     1      -7.669  88.036 -11.680  1.00  0.00     0.294 HD
ENDBRANCH  10  21
BRANCH   5  23
ATOM     23  O   UNL     1      -4.248  93.801 -16.596  1.00  0.00    -0.507 OA
ATOM     24  H   UNL     1      -4.120  94.717 -16.181  1.00  0.00     0.293 HD
ENDBRANCH   5  23
BRANCH   7  25
ATOM     25  O   UNL     1      -3.140  89.833 -14.100  1.00  0.00    -0.507 OA
ATOM     26  H   UNL     1      -2.409  89.440 -14.675  1.00  0.00     0.293 HD
ENDBRANCH   7  25
TORSDOF 6
ENDMDL
MODEL 3
REMARK VINA RESULT:    -5.489      9.915     11.879
REMARK INTER + INTRA:          -6.886
REMARK INTER:                  -6.622
REMARK INTRA:                  -0.264
REMARK UNBOUND:                -0.274
REMARK SMILES Oc1cc(O)c2cc(O)c(-c3ccc(O)c(O)c3)[o+]c2c1.[Cl-]
REMARK SMILES IDX 10 1 19 2 20 3 21 4 2 5 3 6 4 7 6 8 7 9 8 10 11 11 12 12
REMARK SMILES IDX 13 13 14 14 18 15 16 16 15 17 17 19 9 21 1 23 5 25
REMARK H PARENT 15 18 17 20 9 22 1 24 5 26
REMARK Flexibility Score: inf
ROOT
ATOM      1  C   UNL     1      -7.649  83.618  -8.774  1.00  0.00     0.402 A 
ATOM      2  O   UNL     1      -8.531  82.652  -9.019  1.00  0.00    -0.202 OA
ATOM      3  C   UNL     1      -9.839  82.866  -9.111  1.00  0.00     0.368 A 
ATOM      4  C   UNL     1     -10.689  81.788  -9.369  1.00  0.00     0.162 A 
ATOM      5  C   UNL     1     -12.066  81.981  -9.468  1.00  0.00     0.128 A 
ATOM      6  C   UNL     1     -12.603  83.264  -9.308  1.00  0.00     0.093 A 
ATOM      7  C   UNL     1     -11.773  84.363  -9.048  1.00  0.00     0.136 A 
ATOM      8  C   UNL     1     -10.371  84.168  -8.950  1.00  0.00     0.125 A 
ATOM      9  C   UNL     1      -9.462  85.212  -8.706  1.00  0.00     0.078 A 
ATOM     10  C   UNL     1      -8.092  84.945  -8.627  1.00  0.00     0.223 A 
ENDROOT
BRANCH   1  11
ATOM     11  C   UNL     1      -6.217  83.250  -8.684  1.00  0.00     0.087 A 
ATOM     12  C   UNL     1      -5.568  83.301  -7.439  1.00  0.00     0.022 A 
ATOM     13  C   UNL     1      -4.214  82.977  -7.334  1.00  0.00     0.051 A 
ATOM     14  C   UNL     1      -3.482  82.615  -8.468  1.00  0.00     0.157 A 
ATOM     15  C   UNL     1      -5.474  82.906  -9.827  1.00  0.00     0.068 A 
ATOM     16  C   UNL     1      -4.113  82.583  -9.723  1.00  0.00     0.158 A 
BRANCH  14  17
ATOM     17  O   UNL     1      -2.131  82.296  -8.332  1.00  0.00    -0.504 OA
ATOM     18  H   UNL     1      -1.761  81.395  -8.610  1.00  0.00     0.293 HD
ENDBRANCH  14  17
BRANCH  16  19
ATOM     19  O   UNL     1      -3.387  82.238 -10.862  1.00  0.00    -0.504 OA
ATOM     20  H   UNL     1      -3.830  81.806 -11.664  1.00  0.00     0.293 HD
ENDBRANCH  16  19
ENDBRANCH   1  11
BRANCH  10  21
ATOM     21  O   UNL     1      -7.186  85.987  -8.434  1.00  0.00    -0.500 OA
ATOM     22  H   UNL     1      -6.668  86.090  -7.569  1.00  0.00     0.294 HD
ENDBRANCH  10  21
BRANCH   5  23
ATOM     23  O   UNL     1     -12.897  80.893  -9.726  1.00  0.00    -0.507 OA
ATOM     24  H   UNL     1     -13.662  80.955 -10.387  1.00  0.00     0.293 HD
ENDBRANCH   5  23
BRANCH   7  25
ATOM     25  O   UNL     1     -12.385  85.610  -8.898  1.00  0.00    -0.507 OA
ATOM     26  H   UNL     1     -12.834  85.927  -8.050  1.00  0.00     0.293 HD
ENDBRANCH   7  25
TORSDOF 6
ENDMDL
MODEL 4
REMARK VINA RESULT:    -5.425      5.259      6.238
REMARK INTER + INTRA:          -6.809
REMARK INTER:                  -6.472
REMARK INTRA:                  -0.336
REMARK UNBOUND:                -0.274
REMARK SMILES Oc1cc(O)c2cc(O)c(-c3ccc(O)c(O)c3)[o+]c2c1.[Cl-]
REMARK SMILES IDX 10 1 19 2 20 3 21 4 2 5 3 6 4 7 6 8 7 9 8 10 11 11 12 12
REMARK SMILES IDX 13 13 14 14 18 15 16 16 15 17 17 19 9 21 1 23 5 25
REMARK H PARENT 15 18 17 20 9 22 1 24 5 26
REMARK Flexibility Score: inf
ROOT
ATOM      1  C   UNL     1      -8.668  90.224 -13.804  1.00  0.00     0.402 A 
ATOM      2  O   UNL     1      -9.199  91.417 -13.548  1.00  0.00    -0.202 OA
ATOM      3  C   UNL     1     -10.504  91.617 -13.400  1.00  0.00     0.368 A 
ATOM      4  C   UNL     1     -10.969  92.908 -13.137  1.00  0.00     0.162 A 
ATOM      5  C   UNL     1     -12.334  93.149 -12.980  1.00  0.00     0.128 A 
ATOM      6  C   UNL     1     -13.245  92.092 -13.088  1.00  0.00     0.093 A 
ATOM      7  C   UNL     1     -12.805  90.788 -13.352  1.00  0.00     0.136 A 
ATOM      8  C   UNL     1     -11.417  90.540 -13.509  1.00  0.00     0.125 A 
ATOM      9  C   UNL     1     -10.884  89.265 -13.762  1.00  0.00     0.078 A 
ATOM     10  C   UNL     1      -9.503  89.097 -13.901  1.00  0.00     0.223 A 
ENDROOT
BRANCH   1  11
ATOM     11  C   UNL     1      -7.198  90.131 -13.958  1.00  0.00     0.087 A 
ATOM     12  C   UNL     1      -6.380  90.163 -12.817  1.00  0.00     0.022 A 
ATOM     13  C   UNL     1      -4.991  90.097 -12.940  1.00  0.00     0.051 A 
ATOM     14  C   UNL     1      -4.395  90.013 -14.201  1.00  0.00     0.157 A 
ATOM     15  C   UNL     1      -6.596  90.068 -15.228  1.00  0.00     0.068 A 
ATOM     16  C   UNL     1      -5.200  90.003 -15.353  1.00  0.00     0.158 A 
BRANCH  14  17
ATOM     17  O   UNL     1      -3.005  89.946 -14.293  1.00  0.00    -0.504 OA
ATOM     18  H   UNL     1      -2.472  90.580 -14.877  1.00  0.00     0.293 HD
ENDBRANCH  14  17
BRANCH  16  19
ATOM     19  O   UNL     1      -4.613  89.936 -16.615  1.00  0.00    -0.504 OA
ATOM     20  H   UNL     1      -4.617  89.080 -17.158  1.00  0.00     0.293 HD
ENDBRANCH  16  19
ENDBRANCH   1  11
BRANCH  10  21
ATOM     21  O   UNL     1      -8.971  87.823 -14.103  1.00  0.00    -0.500 OA
ATOM     22  H   UNL     1      -9.361  87.185 -14.786  1.00  0.00     0.294 HD
ENDBRANCH  10  21
BRANCH   5  23
ATOM     23  O   UNL     1     -12.777  94.443 -12.717  1.00  0.00    -0.507 OA
ATOM     24  H   UNL     1     -12.175  95.248 -12.851  1.00  0.00     0.293 HD
ENDBRANCH   5  23
BRANCH   7  25
ATOM     25  O   UNL     1     -13.777  89.788 -13.448  1.00  0.00    -0.507 OA
ATOM     26  H   UNL     1     -13.622  88.818 -13.215  1.00  0.00     0.293 HD
ENDBRANCH   7  25
TORSDOF 6
ENDMDL
MODEL 5
REMARK VINA RESULT:    -5.359     10.507     12.019
REMARK INTER + INTRA:          -6.729
REMARK INTER:                  -6.542
REMARK INTRA:                  -0.187
REMARK UNBOUND:                -0.274
REMARK SMILES Oc1cc(O)c2cc(O)c(-c3ccc(O)c(O)c3)[o+]c2c1.[Cl-]
REMARK SMILES IDX 10 1 19 2 20 3 21 4 2 5 3 6 4 7 6 8 7 9 8 10 11 11 12 12
REMARK SMILES IDX 13 13 14 14 18 15 16 16 15 17 17 19 9 21 1 23 5 25
REMARK H PARENT 15 18 17 20 9 22 1 24 5 26
REMARK Flexibility Score: inf
ROOT
ATOM      1  C   UNL     1      -8.779  83.439  -8.398  1.00  0.00     0.402 A 
ATOM      2  O   UNL     1      -7.830  83.095  -9.265  1.00  0.00    -0.202 OA
ATOM      3  C   UNL     1      -6.533  83.134  -8.980  1.00  0.00     0.368 A 
ATOM      4  C   UNL     1      -5.609  82.756  -9.958  1.00  0.00     0.162 A 
ATOM      5  C   UNL     1      -4.241  82.789  -9.688  1.00  0.00     0.128 A 
ATOM      6  C   UNL     1      -3.789  83.206  -8.431  1.00  0.00     0.093 A 
ATOM      7  C   UNL     1      -4.694  83.590  -7.433  1.00  0.00     0.136 A 
ATOM      8  C   UNL     1      -6.086  83.554  -7.704  1.00  0.00     0.125 A 
ATOM      9  C   UNL     1      -7.066  83.909  -6.761  1.00  0.00     0.078 A 
ATOM     10  C   UNL     1      -8.421  83.843  -7.099  1.00  0.00     0.223 A 
ENDROOT
BRANCH   1  11
ATOM     11  C   UNL     1     -10.191  83.363  -8.839  1.00  0.00     0.087 A 
ATOM     12  C   UNL     1     -10.966  84.533  -8.880  1.00  0.00     0.022 A 
ATOM     13  C   UNL     1     -12.304  84.482  -9.274  1.00  0.00     0.051 A 
ATOM     14  C   UNL     1     -12.895  83.263  -9.617  1.00  0.00     0.157 A 
ATOM     15  C   UNL     1     -10.792  82.134  -9.165  1.00  0.00     0.068 A 
ATOM     16  C   UNL     1     -12.138  82.081  -9.559  1.00  0.00     0.158 A 
BRANCH  14  17
ATOM     17  O   UNL     1     -14.233  83.243 -10.009  1.00  0.00    -0.504 OA
ATOM     18  H   UNL     1     -14.970  83.628  -9.429  1.00  0.00     0.293 HD
ENDBRANCH  14  17
BRANCH  16  19
ATOM     19  O   UNL     1     -12.724  80.859  -9.885  1.00  0.00    -0.504 OA
ATOM     20  H   UNL     1     -12.188  79.999  -9.896  1.00  0.00     0.293 HD
ENDBRANCH  16  19
ENDBRANCH   1  11
BRANCH  10  21
ATOM     21  O   UNL     1      -9.395  84.148  -6.148  1.00  0.00    -0.500 OA
ATOM     22  H   UNL     1      -9.593  83.528  -5.371  1.00  0.00     0.294 HD
ENDBRANCH  10  21
BRANCH   5  23
ATOM     23  O   UNL     1      -3.337  82.408 -10.676  1.00  0.00    -0.507 OA
ATOM     24  H   UNL     1      -2.835  81.529 -10.626  1.00  0.00     0.293 HD
ENDBRANCH   5  23
BRANCH   7  25
ATOM     25  O   UNL     1      -4.164  83.996  -6.205  1.00  0.00    -0.507 OA
ATOM     26  H   UNL     1      -4.509  83.693  -5.306  1.00  0.00     0.293 HD
ENDBRANCH   7  25
TORSDOF 6
ENDMDL
MODEL 6
REMARK VINA RESULT:    -5.265     10.426     11.804
REMARK INTER + INTRA:          -6.616
REMARK INTER:                  -6.264
REMARK INTRA:                  -0.352
REMARK UNBOUND:                -0.274
REMARK SMILES Oc1cc(O)c2cc(O)c(-c3ccc(O)c(O)c3)[o+]c2c1.[Cl-]
REMARK SMILES IDX 10 1 19 2 20 3 21 4 2 5 3 6 4 7 6 8 7 9 8 10 11 11 12 12
REMARK SMILES IDX 13 13 14 14 18 15 16 16 15 17 17 19 9 21 1 23 5 25
REMARK H PARENT 15 18 17 20 9 22 1 24 5 26
REMARK Flexibility Score: inf
ROOT
ATOM      1  C   UNL     1      -9.518  83.601  -8.825  1.00  0.00     0.402 A 
ATOM      2  O   UNL     1      -9.994  84.833  -8.983  1.00  0.00    -0.202 OA
ATOM      3  C   UNL     1     -11.274  85.096  -9.221  1.00  0.00     0.368 A 
ATOM      4  C   UNL     1     -11.679  86.424  -9.377  1.00  0.00     0.162 A 
ATOM      5  C   UNL     1     -13.016  86.730  -9.630  1.00  0.00     0.128 A 
ATOM      6  C   UNL     1     -13.959  85.701  -9.732  1.00  0.00     0.093 A 
ATOM      7  C   UNL     1     -13.579  84.361  -9.581  1.00  0.00     0.136 A 
ATOM      8  C   UNL     1     -12.220  84.047  -9.320  1.00  0.00     0.125 A 
ATOM      9  C   UNL     1     -11.751  82.735  -9.141  1.00  0.00     0.078 A 
ATOM     10  C   UNL     1     -10.397  82.504  -8.882  1.00  0.00     0.223 A 
ENDROOT
BRANCH   1  11
ATOM     11  C   UNL     1      -8.068  83.437  -8.575  1.00  0.00     0.087 A 
ATOM     12  C   UNL     1      -7.585  83.483  -7.257  1.00  0.00     0.022 A 
ATOM     13  C   UNL     1      -6.220  83.350  -6.998  1.00  0.00     0.051 A 
ATOM     14  C   UNL     1      -5.313  83.186  -8.049  1.00  0.00     0.157 A 
ATOM     15  C   UNL     1      -7.152  83.292  -9.632  1.00  0.00     0.068 A 
ATOM     16  C   UNL     1      -5.780  83.161  -9.374  1.00  0.00     0.158 A 
BRANCH  14  17
ATOM     17  O   UNL     1      -3.955  83.053  -7.761  1.00  0.00    -0.504 OA
ATOM     18  H   UNL     1      -3.470  83.696  -7.145  1.00  0.00     0.293 HD
ENDBRANCH  14  17
BRANCH  16  19
ATOM     19  O   UNL     1      -4.880  83.013 -10.429  1.00  0.00    -0.504 OA
ATOM     20  H   UNL     1      -4.276  82.203 -10.502  1.00  0.00     0.293 HD
ENDBRANCH  16  19
ENDBRANCH   1  11
BRANCH  10  21
ATOM     21  O   UNL     1      -9.940  81.205  -8.656  1.00  0.00    -0.500 OA
ATOM     22  H   UNL     1      -9.758  80.860  -7.720  1.00  0.00     0.294 HD
ENDBRANCH  10  21
BRANCH   5  23
ATOM     23  O   UNL     1     -13.400  88.060  -9.781  1.00  0.00    -0.507 OA
ATOM     24  H   UNL     1     -14.367  88.319  -9.940  1.00  0.00     0.293 HD
ENDBRANCH   5  23
BRANCH   7  25
ATOM     25  O   UNL     1     -14.579  83.391  -9.699  1.00  0.00    -0.507 OA
ATOM     26  H   UNL     1     -15.549  83.540  -9.461  1.00  0.00     0.293 HD
ENDBRANCH   7  25
TORSDOF 6
ENDMDL
MODEL 7
REMARK VINA RESULT:    -5.235      2.628      6.943
REMARK INTER + INTRA:          -6.580
REMARK INTER:                  -6.673
REMARK INTRA:                   0.093
REMARK UNBOUND:                -0.274
REMARK SMILES Oc1cc(O)c2cc(O)c(-c3ccc(O)c(O)c3)[o+]c2c1.[Cl-]
REMARK SMILES IDX 10 1 19 2 20 3 21 4 2 5 3 6 4 7 6 8 7 9 8 10 11 11 12 12
REMARK SMILES IDX 13 13 14 14 18 15 16 16 15 17 17 19 9 21 1 23 5 25
REMARK H PARENT 15 18 17 20 9 22 1 24 5 26
REMARK Flexibility Score: inf
ROOT
ATOM      1  C   UNL     1      -5.235  90.464 -15.164  1.00  0.00     0.402 A 
ATOM      2  O   UNL     1      -5.892  90.996 -16.192  1.00  0.00    -0.202 OA
ATOM      3  C   UNL     1      -5.287  91.582 -17.219  1.00  0.00     0.368 A 
ATOM      4  C   UNL     1      -6.063  92.116 -18.251  1.00  0.00     0.162 A 
ATOM      5  C   UNL     1      -5.456  92.739 -19.342  1.00  0.00     0.128 A 
ATOM      6  C   UNL     1      -4.061  92.833 -19.403  1.00  0.00     0.093 A 
ATOM      7  C   UNL     1      -3.260  92.306 -18.381  1.00  0.00     0.136 A 
ATOM      8  C   UNL     1      -3.875  91.669 -17.272  1.00  0.00     0.125 A 
ATOM      9  C   UNL     1      -3.153  91.101 -16.209  1.00  0.00     0.078 A 
ATOM     10  C   UNL     1      -3.828  90.485 -15.152  1.00  0.00     0.223 A 
ENDROOT
BRANCH   1  11
ATOM     11  C   UNL     1      -6.023  89.848 -14.072  1.00  0.00     0.087 A 
ATOM     12  C   UNL     1      -7.218  89.176 -14.378  1.00  0.00     0.022 A 
ATOM     13  C   UNL     1      -7.987  88.604 -13.363  1.00  0.00     0.051 A 
ATOM     14  C   UNL     1      -7.587  88.707 -12.027  1.00  0.00     0.157 A 
ATOM     15  C   UNL     1      -5.633  89.968 -12.727  1.00  0.00     0.068 A 
ATOM     16  C   UNL     1      -6.406  89.396 -11.706  1.00  0.00     0.158 A 
BRANCH  14  17
ATOM     17  O   UNL     1      -8.374  88.124 -11.035  1.00  0.00    -0.504 OA
ATOM     18  H   UNL     1      -9.239  88.546 -10.717  1.00  0.00     0.293 HD
ENDBRANCH  14  17
BRANCH  16  19
ATOM     19  O   UNL     1      -6.007  89.516 -10.375  1.00  0.00    -0.504 OA
ATOM     20  H   UNL     1      -6.653  89.810  -9.652  1.00  0.00     0.293 HD
ENDBRANCH  16  19
ENDBRANCH   1  11
BRANCH  10  21
ATOM     21  O   UNL     1      -3.110  89.878 -14.122  1.00  0.00    -0.500 OA
ATOM     22  H   UNL     1      -2.170  90.172 -13.883  1.00  0.00     0.294 HD
ENDBRANCH  10  21
BRANCH   5  23
ATOM     23  O   UNL     1      -6.247  93.264 -20.361  1.00  0.00    -0.507 OA
ATOM     24  H   UNL     1      -7.163  92.885 -20.570  1.00  0.00     0.293 HD
ENDBRANCH   5  23
BRANCH   7  25
ATOM     25  O   UNL     1      -1.875  92.442 -18.514  1.00  0.00    -0.507 OA
ATOM     26  H   UNL     1      -1.274  91.759 -18.951  1.00  0.00     0.293 HD
ENDBRANCH   7  25
TORSDOF 6
ENDMDL
MODEL 8
REMARK VINA RESULT:    -5.213      4.766      6.757
REMARK INTER + INTRA:          -6.554
REMARK INTER:                  -6.331
REMARK INTRA:                  -0.222
REMARK UNBOUND:                -0.274
REMARK SMILES Oc1cc(O)c2cc(O)c(-c3ccc(O)c(O)c3)[o+]c2c1.[Cl-]
REMARK SMILES IDX 10 1 19 2 20 3 21 4 2 5 3 6 4 7 6 8 7 9 8 10 11 11 12 12
REMARK SMILES IDX 13 13 14 14 18 15 16 16 15 17 17 19 9 21 1 23 5 25
REMARK H PARENT 15 18 17 20 9 22 1 24 5 26
REMARK Flexibility Score: inf
ROOT
ATOM      1  C   UNL     1      -8.720  90.035 -13.311  1.00  0.00     0.402 A 
ATOM      2  O   UNL     1      -8.098  91.166 -12.985  1.00  0.00    -0.202 OA
ATOM      3  C   UNL     1      -6.787  91.340 -13.112  1.00  0.00     0.368 A 
ATOM      4  C   UNL     1      -6.223  92.563 -12.740  1.00  0.00     0.162 A 
ATOM      5  C   UNL     1      -4.850  92.773 -12.860  1.00  0.00     0.128 A 
ATOM      6  C   UNL     1      -4.029  91.753 -13.354  1.00  0.00     0.093 A 
ATOM      7  C   UNL     1      -4.569  90.517 -13.734  1.00  0.00     0.136 A 
ATOM      8  C   UNL     1      -5.966  90.302 -13.616  1.00  0.00     0.125 A 
ATOM      9  C   UNL     1      -6.597  89.101 -13.984  1.00  0.00     0.078 A 
ATOM     10  C   UNL     1      -7.980  88.963 -13.844  1.00  0.00     0.223 A 
ENDROOT
BRANCH   1  11
ATOM     11  C   UNL     1     -10.185  89.960 -13.113  1.00  0.00     0.087 A 
ATOM     12  C   UNL     1     -11.023  90.843 -13.814  1.00  0.00     0.022 A 
ATOM     13  C   UNL     1     -12.406  90.804 -13.628  1.00  0.00     0.051 A 
ATOM     14  C   UNL     1     -12.975  89.895 -12.731  1.00  0.00     0.157 A 
ATOM     15  C   UNL     1     -10.757  89.061 -12.195  1.00  0.00     0.068 A 
ATOM     16  C   UNL     1     -12.146  89.022 -12.006  1.00  0.00     0.158 A 
BRANCH  14  17
ATOM     17  O   UNL     1     -14.359  89.878 -12.568  1.00  0.00    -0.504 OA
ATOM     18  H   UNL     1     -14.916  90.723 -12.599  1.00  0.00     0.293 HD
ENDBRANCH  14  17
BRANCH  16  19
ATOM     19  O   UNL     1     -12.704  88.123 -11.097  1.00  0.00    -0.504 OA
ATOM     20  H   UNL     1     -13.662  87.806 -11.184  1.00  0.00     0.293 HD
ENDBRANCH  16  19
ENDBRANCH   1  11
BRANCH  10  21
ATOM     21  O   UNL     1      -8.612  87.790 -14.255  1.00  0.00    -0.500 OA
ATOM     22  H   UNL     1      -8.365  86.887 -13.867  1.00  0.00     0.294 HD
ENDBRANCH  10  21
BRANCH   5  23
ATOM     23  O   UNL     1      -4.307  94.000 -12.484  1.00  0.00    -0.507 OA
ATOM     24  H   UNL     1      -4.140  94.230 -11.511  1.00  0.00     0.293 HD
ENDBRANCH   5  23
BRANCH   7  25
ATOM     25  O   UNL     1      -3.683  89.549 -14.215  1.00  0.00    -0.507 OA
ATOM     26  H   UNL     1      -2.715  89.724 -14.443  1.00  0.00     0.293 HD
ENDBRANCH   7  25
TORSDOF 6
ENDMDL
MODEL 9
REMARK VINA RESULT:    -5.136      1.774      3.583
REMARK INTER + INTRA:          -6.460
REMARK INTER:                  -6.112
REMARK INTRA:                  -0.349
REMARK UNBOUND:                -0.274
REMARK SMILES Oc1cc(O)c2cc(O)c(-c3ccc(O)c(O)c3)[o+]c2c1.[Cl-]
REMARK SMILES IDX 10 1 19 2 20 3 21 4 2 5 3 6 4 7 6 8 7 9 8 10 11 11 12 12
REMARK SMILES IDX 13 13 14 14 18 15 16 16 15 17 17 19 9 21 1 23 5 25
REMARK H PARENT 15 18 17 20 9 22 1 24 5 26
REMARK Flexibility Score: inf
ROOT
ATOM      1  C   UNL     1      -5.561  91.305 -14.523  1.00  0.00     0.402 A 
ATOM      2  O   UNL     1      -6.251  90.260 -14.073  1.00  0.00    -0.202 OA
ATOM      3  C   UNL     1      -6.278  89.901 -12.794  1.00  0.00     0.368 A 
ATOM      4  C   UNL     1      -7.029  88.785 -12.417  1.00  0.00     0.162 A 
ATOM      5  C   UNL     1      -7.075  88.382 -11.082  1.00  0.00     0.128 A 
ATOM      6  C   UNL     1      -6.362  89.098 -10.114  1.00  0.00     0.093 A 
ATOM      7  C   UNL     1      -5.601  90.221 -10.466  1.00  0.00     0.136 A 
ATOM      8  C   UNL     1      -5.556  90.634 -11.823  1.00  0.00     0.125 A 
ATOM      9  C   UNL     1      -4.831  91.753 -12.265  1.00  0.00     0.078 A 
ATOM     10  C   UNL     1      -4.837  92.103 -13.618  1.00  0.00     0.223 A 
ENDROOT
BRANCH   1  11
ATOM     11  C   UNL     1      -5.601  91.598 -15.975  1.00  0.00     0.087 A 
ATOM     12  C   UNL     1      -6.705  92.281 -16.510  1.00  0.00     0.022 A 
ATOM     13  C   UNL     1      -6.774  92.551 -17.879  1.00  0.00     0.051 A 
ATOM     14  C   UNL     1      -5.752  92.131 -18.735  1.00  0.00     0.157 A 
ATOM     15  C   UNL     1      -4.585  91.158 -16.841  1.00  0.00     0.068 A 
ATOM     16  C   UNL     1      -4.653  91.427 -18.216  1.00  0.00     0.158 A 
BRANCH  14  17
ATOM     17  O   UNL     1      -5.847  92.416 -20.097  1.00  0.00    -0.504 OA
ATOM     18  H   UNL     1      -5.507  91.778 -20.806  1.00  0.00     0.293 HD
ENDBRANCH  14  17
BRANCH  16  19
ATOM     19  O   UNL     1      -3.637  90.991 -19.065  1.00  0.00    -0.504 OA
ATOM     20  H   UNL     1      -3.096  90.159 -18.863  1.00  0.00     0.293 HD
ENDBRANCH  16  19
ENDBRANCH   1  11
BRANCH  10  21
ATOM     21  O   UNL     1      -4.157  93.242 -14.050  1.00  0.00    -0.500 OA
ATOM     22  H   UNL     1      -4.535  94.172 -13.911  1.00  0.00     0.294 HD
ENDBRANCH  10  21
BRANCH   5  23
ATOM     23  O   UNL     1      -7.830  87.267 -10.726  1.00  0.00    -0.507 OA
ATOM     24  H   UNL     1      -8.534  86.883 -11.346  1.00  0.00     0.293 HD
ENDBRANCH   5  23
BRANCH   7  25
ATOM     25  O   UNL     1      -4.915  90.880  -9.442  1.00  0.00    -0.507 OA
ATOM     26  H   UNL     1      -4.150  90.481  -8.917  1.00  0.00     0.293 HD
ENDBRANCH   7  25
TORSDOF 6
ENDMDL
