MODEL 1
REMARK VINA RESULT:    -3.708      0.000      0.000
REMARK INTER + INTRA:          -4.759
REMARK INTER:                  -4.467
REMARK INTRA:                  -0.291
REMARK UNBOUND:                -0.291
REMARK SMILES O=c1c(O)c(-c2ccc(O)c(O)c2)oc2cc(O)cc(O)c12
REMARK SMILES IDX 5 1 3 2 2 3 1 4 22 5 20 6 19 7 17 8 16 9 15 10 14 11 6 12
REMARK SMILES IDX 7 13 8 14 9 15 13 16 11 17 10 18 12 20 4 22 21 24 18 26
REMARK H PARENT 10 19 12 21 4 23 21 25 18 27
REMARK Flexibility Score: inf
ROOT
ATOM      1  C   UNL     1       0.896  -1.249  14.945  1.00  0.00     0.180 A 
ATOM      2  C   UNL     1       2.043  -1.558  14.188  1.00  0.00     0.208 A 
ATOM      3  C   UNL     1       3.208  -1.966  14.855  1.00  0.00     0.238 A 
ATOM      4  O   UNL     1       4.237  -2.256  14.187  1.00  0.00    -0.285 OA
ATOM      5  C   UNL     1       3.214  -2.039  16.263  1.00  0.00     0.111 A 
ATOM      6  C   UNL     1       4.348  -2.439  17.013  1.00  0.00     0.134 A 
ATOM      7  C   UNL     1       4.278  -2.477  18.412  1.00  0.00     0.093 A 
ATOM      8  C   UNL     1       3.100  -2.125  19.077  1.00  0.00     0.123 A 
ATOM      9  C   UNL     1       1.977  -1.731  18.343  1.00  0.00     0.094 A 
ATOM     10  C   UNL     1       2.027  -1.687  16.946  1.00  0.00     0.146 A 
ATOM     11  O   UNL     1       0.945  -1.315  16.272  1.00  0.00    -0.452 OA
ENDROOT
BRANCH   1  12
ATOM     12  C   UNL     1      -0.375  -0.828  14.314  1.00  0.00     0.025 A 
ATOM     13  C   UNL     1      -1.393  -1.773  14.113  1.00  0.00     0.016 A 
ATOM     14  C   UNL     1      -2.593  -1.404  13.500  1.00  0.00     0.051 A 
ATOM     15  C   UNL     1      -2.785  -0.087  13.063  1.00  0.00     0.157 A 
ATOM     16  C   UNL     1      -0.564   0.488  13.855  1.00  0.00     0.062 A 
ATOM     17  C   UNL     1      -1.768   0.861  13.237  1.00  0.00     0.158 A 
BRANCH  15  18
ATOM     18  O   UNL     1      -3.981   0.288  12.453  1.00  0.00    -0.504 OA
ATOM     19  H   UNL     1      -4.746  -0.368  12.342  1.00  0.00     0.293 HD
ENDBRANCH  15  18
BRANCH  17  20
ATOM     20  O   UNL     1      -1.957   2.166  12.790  1.00  0.00    -0.504 OA
ATOM     21  H   UNL     1      -1.502   2.511  11.952  1.00  0.00     0.293 HD
ENDBRANCH  17  20
ENDBRANCH   1  12
BRANCH   2  22
ATOM     22  O   UNL     1       2.025  -1.429  12.796  1.00  0.00    -0.502 OA
ATOM     23  H   UNL     1       2.861  -1.518  12.233  1.00  0.00     0.293 HD
ENDBRANCH   2  22
BRANCH   6  24
ATOM     24  O   UNL     1       5.539  -2.795  16.378  1.00  0.00    -0.507 OA
ATOM     25  H   UNL     1       6.145  -2.103  15.956  1.00  0.00     0.293 HD
ENDBRANCH   6  24
BRANCH   8  26
ATOM     26  O   UNL     1       3.057  -2.172  20.470  1.00  0.00    -0.508 OA
ATOM     27  H   UNL     1       2.181  -2.270  20.969  1.00  0.00     0.293 HD
ENDBRANCH   8  26
TORSDOF 6
ENDMDL
MODEL 2
REMARK VINA RESULT:    -3.670      3.238      8.063
REMARK INTER + INTRA:          -4.712
REMARK INTER:                  -4.737
REMARK INTRA:                   0.025
REMARK UNBOUND:                -0.291
REMARK SMILES O=c1c(O)c(-c2ccc(O)c(O)c2)oc2cc(O)cc(O)c12
REMARK SMILES IDX 5 1 3 2 2 3 1 4 22 5 20 6 19 7 17 8 16 9 15 10 14 11 6 12
REMARK SMILES IDX 7 13 8 14 9 15 13 16 11 17 10 18 12 20 4 22 21 24 18 26
REMARK H PARENT 10 19 12 21 4 23 21 25 18 27
REMARK Flexibility Score: inf
ROOT
ATOM      1  C   UNL     1       4.906  -2.169  18.517  1.00  0.00     0.180 A 
ATOM      2  C   UNL     1       4.579  -2.552  17.202  1.00  0.00     0.208 A 
ATOM      3  C   UNL     1       3.297  -2.263  16.710  1.00  0.00     0.238 A 
ATOM      4  O   UNL     1       2.996  -2.592  15.529  1.00  0.00    -0.285 OA
ATOM      5  C   UNL     1       2.360  -1.617  17.542  1.00  0.00     0.111 A 
ATOM      6  C   UNL     1       1.047  -1.292  17.124  1.00  0.00     0.134 A 
ATOM      7  C   UNL     1       0.170  -0.657  18.015  1.00  0.00     0.093 A 
ATOM      8  C   UNL     1       0.579  -0.340  19.312  1.00  0.00     0.123 A 
ATOM      9  C   UNL     1       1.875  -0.656  19.732  1.00  0.00     0.094 A 
ATOM     10  C   UNL     1       2.764  -1.289  18.857  1.00  0.00     0.146 A 
ATOM     11  O   UNL     1       3.991  -1.574  19.278  1.00  0.00    -0.452 OA
ENDROOT
BRANCH   1  12
ATOM     12  C   UNL     1       6.242  -2.422  19.102  1.00  0.00     0.025 A 
ATOM     13  C   UNL     1       6.341  -2.911  20.414  1.00  0.00     0.016 A 
ATOM     14  C   UNL     1       7.592  -3.137  20.994  1.00  0.00     0.051 A 
ATOM     15  C   UNL     1       8.763  -2.863  20.275  1.00  0.00     0.157 A 
ATOM     16  C   UNL     1       7.420  -2.129  18.391  1.00  0.00     0.062 A 
ATOM     17  C   UNL     1       8.677  -2.354  18.972  1.00  0.00     0.158 A 
BRANCH  15  18
ATOM     18  O   UNL     1      10.013  -3.089  20.847  1.00  0.00    -0.504 OA
ATOM     19  H   UNL     1      10.733  -2.375  20.845  1.00  0.00     0.293 HD
ENDBRANCH  15  18
BRANCH  17  20
ATOM     20  O   UNL     1       9.843  -2.069  18.265  1.00  0.00    -0.504 OA
ATOM     21  H   UNL     1      10.724  -1.905  18.738  1.00  0.00     0.293 HD
ENDBRANCH  17  20
ENDBRANCH   1  12
BRANCH   2  22
ATOM     22  O   UNL     1       5.509  -3.236  16.414  1.00  0.00    -0.502 OA
ATOM     23  H   UNL     1       5.232  -3.887  15.691  1.00  0.00     0.293 HD
ENDBRANCH   2  22
BRANCH   6  24
ATOM     24  O   UNL     1       0.608  -1.596  15.834  1.00  0.00    -0.507 OA
ATOM     25  H   UNL     1       0.618  -0.908  15.091  1.00  0.00     0.293 HD
ENDBRANCH   6  24
BRANCH   8  26
ATOM     26  O   UNL     1      -0.313   0.291  20.178  1.00  0.00    -0.508 OA
ATOM     27  H   UNL     1      -1.289   0.025  20.218  1.00  0.00     0.293 HD
ENDBRANCH   8  26
TORSDOF 6
ENDMDL
MODEL 3
REMARK VINA RESULT:    -3.566      6.509      9.810
REMARK INTER + INTRA:          -4.587
REMARK INTER:                  -4.346
REMARK INTRA:                  -0.241
REMARK UNBOUND:                -0.291
REMARK SMILES O=c1c(O)c(-c2ccc(O)c(O)c2)oc2cc(O)cc(O)c12
REMARK SMILES IDX 5 1 3 2 2 3 1 4 22 5 20 6 19 7 17 8 16 9 15 10 14 11 6 12
REMARK SMILES IDX 7 13 8 14 9 15 13 16 11 17 10 18 12 20 4 22 21 24 18 26
REMARK H PARENT 10 19 12 21 4 23 21 25 18 27
REMARK Flexibility Score: inf
ROOT
ATOM      1  C   UNL     1       3.137   5.699  14.695  1.00  0.00     0.180 A 
ATOM      2  C   UNL     1       3.174   6.852  13.888  1.00  0.00     0.208 A 
ATOM      3  C   UNL     1       2.187   7.026  12.906  1.00  0.00     0.238 A 
ATOM      4  O   UNL     1       2.203   8.060  12.185  1.00  0.00    -0.285 OA
ATOM      5  C   UNL     1       1.195   6.039  12.734  1.00  0.00     0.111 A 
ATOM      6  C   UNL     1       0.166   6.136  11.766  1.00  0.00     0.134 A 
ATOM      7  C   UNL     1      -0.779   5.107  11.650  1.00  0.00     0.093 A 
ATOM      8  C   UNL     1      -0.718   3.985  12.480  1.00  0.00     0.123 A 
ATOM      9  C   UNL     1       0.295   3.884  13.440  1.00  0.00     0.094 A 
ATOM     10  C   UNL     1       1.246   4.900  13.571  1.00  0.00     0.146 A 
ATOM     11  O   UNL     1       2.195   4.782  14.494  1.00  0.00    -0.452 OA
ENDROOT
BRANCH   1  12
ATOM     12  C   UNL     1       4.132   5.453  15.764  1.00  0.00     0.025 A 
ATOM     13  C   UNL     1       3.762   5.629  17.106  1.00  0.00     0.016 A 
ATOM     14  C   UNL     1       4.691   5.423  18.130  1.00  0.00     0.051 A 
ATOM     15  C   UNL     1       6.007   5.054  17.824  1.00  0.00     0.157 A 
ATOM     16  C   UNL     1       5.460   5.102  15.460  1.00  0.00     0.062 A 
ATOM     17  C   UNL     1       6.394   4.897  16.487  1.00  0.00     0.158 A 
BRANCH  15  18
ATOM     18  O   UNL     1       6.937   4.845  18.842  1.00  0.00    -0.504 OA
ATOM     19  H   UNL     1       7.914   5.086  18.723  1.00  0.00     0.293 HD
ENDBRANCH  15  18
BRANCH  17  20
ATOM     20  O   UNL     1       7.707   4.542  16.186  1.00  0.00    -0.504 OA
ATOM     21  H   UNL     1       8.128   3.699  16.559  1.00  0.00     0.293 HD
ENDBRANCH  17  20
ENDBRANCH   1  12
BRANCH   2  22
ATOM     22  O   UNL     1       4.197   7.791  14.046  1.00  0.00    -0.502 OA
ATOM     23  H   UNL     1       4.131   8.560  14.701  1.00  0.00     0.293 HD
ENDBRANCH   2  22
BRANCH   6  24
ATOM     24  O   UNL     1       0.077   7.242  10.920  1.00  0.00    -0.507 OA
ATOM     25  H   UNL     1       0.575   7.281  10.038  1.00  0.00     0.293 HD
ENDBRANCH   6  24
BRANCH   8  26
ATOM     26  O   UNL     1      -1.670   2.976  12.344  1.00  0.00    -0.508 OA
ATOM     27  H   UNL     1      -1.498   2.161  11.767  1.00  0.00     0.293 HD
ENDBRANCH   8  26
TORSDOF 6
ENDMDL
MODEL 4
REMARK VINA RESULT:    -3.550      3.337      5.980
REMARK INTER + INTRA:          -4.567
REMARK INTER:                  -4.345
REMARK INTRA:                  -0.222
REMARK UNBOUND:                -0.291
REMARK SMILES O=c1c(O)c(-c2ccc(O)c(O)c2)oc2cc(O)cc(O)c12
REMARK SMILES IDX 5 1 3 2 2 3 1 4 22 5 20 6 19 7 17 8 16 9 15 10 14 11 6 12
REMARK SMILES IDX 7 13 8 14 9 15 13 16 11 17 10 18 12 20 4 22 21 24 18 26
REMARK H PARENT 10 19 12 21 4 23 21 25 18 27
REMARK Flexibility Score: inf
ROOT
ATOM      1  C   UNL     1       3.911  -1.956  19.349  1.00  0.00     0.180 A 
ATOM      2  C   UNL     1       3.849  -2.554  20.622  1.00  0.00     0.208 A 
ATOM      3  C   UNL     1       5.041  -2.969  21.236  1.00  0.00     0.238 A 
ATOM      4  O   UNL     1       4.999  -3.495  22.381  1.00  0.00    -0.285 OA
ATOM      5  C   UNL     1       6.267  -2.798  20.562  1.00  0.00     0.111 A 
ATOM      6  C   UNL     1       7.513  -3.191  21.109  1.00  0.00     0.134 A 
ATOM      7  C   UNL     1       8.689  -2.997  20.372  1.00  0.00     0.093 A 
ATOM      8  C   UNL     1       8.646  -2.418  19.101  1.00  0.00     0.123 A 
ATOM      9  C   UNL     1       7.420  -2.026  18.555  1.00  0.00     0.094 A 
ATOM     10  C   UNL     1       6.235  -2.211  19.275  1.00  0.00     0.146 A 
ATOM     11  O   UNL     1       5.084  -1.825  18.737  1.00  0.00    -0.452 OA
ENDROOT
BRANCH   1  12
ATOM     12  C   UNL     1       2.700  -1.477  18.644  1.00  0.00     0.025 A 
ATOM     13  C   UNL     1       2.310  -2.091  17.444  1.00  0.00     0.016 A 
ATOM     14  C   UNL     1       1.183  -1.641  16.751  1.00  0.00     0.051 A 
ATOM     15  C   UNL     1       0.439  -0.559  17.241  1.00  0.00     0.157 A 
ATOM     16  C   UNL     1       1.962  -0.378  19.122  1.00  0.00     0.062 A 
ATOM     17  C   UNL     1       0.831   0.076  18.426  1.00  0.00     0.158 A 
BRANCH  15  18
ATOM     18  O   UNL     1      -0.687  -0.108  16.555  1.00  0.00    -0.504 OA
ATOM     19  H   UNL     1      -0.989  -0.542  15.690  1.00  0.00     0.293 HD
ENDBRANCH  15  18
BRANCH  17  20
ATOM     20  O   UNL     1       0.097   1.160  18.903  1.00  0.00    -0.504 OA
ATOM     21  H   UNL     1      -0.230   1.893  18.284  1.00  0.00     0.293 HD
ENDBRANCH  17  20
ENDBRANCH   1  12
BRANCH   2  22
ATOM     22  O   UNL     1       2.616  -2.756  21.247  1.00  0.00    -0.502 OA
ATOM     23  H   UNL     1       2.523  -2.830  22.253  1.00  0.00     0.293 HD
ENDBRANCH   2  22
BRANCH   6  24
ATOM     24  O   UNL     1       7.589  -3.773  22.376  1.00  0.00    -0.507 OA
ATOM     25  H   UNL     1       7.842  -4.747  22.500  1.00  0.00     0.293 HD
ENDBRANCH   6  24
BRANCH   8  26
ATOM     26  O   UNL     1       9.830  -2.236  18.389  1.00  0.00    -0.508 OA
ATOM     27  H   UNL     1      10.654  -2.794  18.580  1.00  0.00     0.293 HD
ENDBRANCH   8  26
TORSDOF 6
ENDMDL
MODEL 5
REMARK VINA RESULT:    -3.477      3.058      4.947
REMARK INTER + INTRA:          -4.480
REMARK INTER:                  -4.148
REMARK INTRA:                  -0.331
REMARK UNBOUND:                -0.291
REMARK SMILES O=c1c(O)c(-c2ccc(O)c(O)c2)oc2cc(O)cc(O)c12
REMARK SMILES IDX 5 1 3 2 2 3 1 4 22 5 20 6 19 7 17 8 16 9 15 10 14 11 6 12
REMARK SMILES IDX 7 13 8 14 9 15 13 16 11 17 10 18 12 20 4 22 21 24 18 26
REMARK H PARENT 10 19 12 21 4 23 21 25 18 27
REMARK Flexibility Score: inf
ROOT
ATOM      1  C   UNL     1       3.866  -2.919  16.738  1.00  0.00     0.180 A 
ATOM      2  C   UNL     1       3.045  -3.133  17.862  1.00  0.00     0.208 A 
ATOM      3  C   UNL     1       3.627  -3.126  19.139  1.00  0.00     0.238 A 
ATOM      4  O   UNL     1       2.900  -3.306  20.154  1.00  0.00    -0.285 OA
ATOM      5  C   UNL     1       5.017  -2.925  19.270  1.00  0.00     0.111 A 
ATOM      6  C   UNL     1       5.682  -2.906  20.520  1.00  0.00     0.134 A 
ATOM      7  C   UNL     1       7.070  -2.710  20.567  1.00  0.00     0.093 A 
ATOM      8  C   UNL     1       7.804  -2.533  19.392  1.00  0.00     0.123 A 
ATOM      9  C   UNL     1       7.154  -2.549  18.154  1.00  0.00     0.094 A 
ATOM     10  C   UNL     1       5.770  -2.742  18.087  1.00  0.00     0.146 A 
ATOM     11  O   UNL     1       5.175  -2.748  16.900  1.00  0.00    -0.452 OA
ENDROOT
BRANCH   1  12
ATOM     12  C   UNL     1       3.324  -2.895  15.361  1.00  0.00     0.025 A 
ATOM     13  C   UNL     1       3.346  -4.067  14.588  1.00  0.00     0.016 A 
ATOM     14  C   UNL     1       2.860  -4.062  13.279  1.00  0.00     0.051 A 
ATOM     15  C   UNL     1       2.358  -2.880  12.717  1.00  0.00     0.157 A 
ATOM     16  C   UNL     1       2.839  -1.706  14.786  1.00  0.00     0.062 A 
ATOM     17  C   UNL     1       2.352  -1.699  13.470  1.00  0.00     0.158 A 
BRANCH  15  18
ATOM     18  O   UNL     1       1.870  -2.871  11.412  1.00  0.00    -0.504 OA
ATOM     19  H   UNL     1       2.406  -3.257  10.643  1.00  0.00     0.293 HD
ENDBRANCH  15  18
BRANCH  17  20
ATOM     20  O   UNL     1       1.865  -0.523  12.904  1.00  0.00    -0.504 OA
ATOM     21  H   UNL     1       1.415  -0.518  11.995  1.00  0.00     0.293 HD
ENDBRANCH  17  20
ENDBRANCH   1  12
BRANCH   2  22
ATOM     22  O   UNL     1       1.679  -3.379  17.702  1.00  0.00    -0.502 OA
ATOM     23  H   UNL     1       1.039  -3.417  18.486  1.00  0.00     0.293 HD
ENDBRANCH   2  22
BRANCH   6  24
ATOM     24  O   UNL     1       4.977  -3.081  21.712  1.00  0.00    -0.507 OA
ATOM     25  H   UNL     1       4.089  -2.623  21.878  1.00  0.00     0.293 HD
ENDBRANCH   6  24
BRANCH   8  26
ATOM     26  O   UNL     1       9.183  -2.339  19.466  1.00  0.00    -0.508 OA
ATOM     27  H   UNL     1       9.657  -2.248  20.357  1.00  0.00     0.293 HD
ENDBRANCH   8  26
TORSDOF 6
ENDMDL
MODEL 6
REMARK VINA RESULT:    -3.413      2.082      7.319
REMARK INTER + INTRA:          -4.403
REMARK INTER:                  -4.078
REMARK INTRA:                  -0.325
REMARK UNBOUND:                -0.291
REMARK SMILES O=c1c(O)c(-c2ccc(O)c(O)c2)oc2cc(O)cc(O)c12
REMARK SMILES IDX 5 1 3 2 2 3 1 4 22 5 20 6 19 7 17 8 16 9 15 10 14 11 6 12
REMARK SMILES IDX 7 13 8 14 9 15 13 16 11 17 10 18 12 20 4 22 21 24 18 26
REMARK H PARENT 10 19 12 21 4 23 21 25 18 27
REMARK Flexibility Score: inf
ROOT
ATOM      1  C   UNL     1       3.754  -2.451  16.820  1.00  0.00     0.180 A 
ATOM      2  C   UNL     1       4.166  -2.448  15.474  1.00  0.00     0.208 A 
ATOM      3  C   UNL     1       3.270  -1.999  14.491  1.00  0.00     0.238 A 
ATOM      4  O   UNL     1       3.632  -1.982  13.283  1.00  0.00    -0.285 OA
ATOM      5  C   UNL     1       1.977  -1.582  14.866  1.00  0.00     0.111 A 
ATOM      6  C   UNL     1       1.013  -1.118  13.937  1.00  0.00     0.134 A 
ATOM      7  C   UNL     1      -0.256  -0.729  14.388  1.00  0.00     0.093 A 
ATOM      8  C   UNL     1      -0.581  -0.793  15.745  1.00  0.00     0.123 A 
ATOM      9  C   UNL     1       0.366  -1.248  16.668  1.00  0.00     0.094 A 
ATOM     10  C   UNL     1       1.638  -1.640  16.238  1.00  0.00     0.146 A 
ATOM     11  O   UNL     1       2.521  -2.064  17.134  1.00  0.00    -0.452 OA
ENDROOT
BRANCH   1  12
ATOM     12  C   UNL     1       4.647  -2.892  17.915  1.00  0.00     0.025 A 
ATOM     13  C   UNL     1       5.492  -1.960  18.537  1.00  0.00     0.016 A 
ATOM     14  C   UNL     1       6.358  -2.359  19.558  1.00  0.00     0.051 A 
ATOM     15  C   UNL     1       6.403  -3.700  19.962  1.00  0.00     0.157 A 
ATOM     16  C   UNL     1       4.709  -4.241  18.310  1.00  0.00     0.062 A 
ATOM     17  C   UNL     1       5.580  -4.644  19.335  1.00  0.00     0.158 A 
BRANCH  15  18
ATOM     18  O   UNL     1       7.263  -4.102  20.982  1.00  0.00    -0.504 OA
ATOM     19  H   UNL     1       6.910  -4.452  21.865  1.00  0.00     0.293 HD
ENDBRANCH  15  18
BRANCH  17  20
ATOM     20  O   UNL     1       5.636  -5.979  19.730  1.00  0.00    -0.504 OA
ATOM     21  H   UNL     1       5.671  -6.242  20.708  1.00  0.00     0.293 HD
ENDBRANCH  17  20
ENDBRANCH   1  12
BRANCH   2  22
ATOM     22  O   UNL     1       5.435  -2.914  15.123  1.00  0.00    -0.502 OA
ATOM     23  H   UNL     1       6.186  -3.003  15.797  1.00  0.00     0.293 HD
ENDBRANCH   2  22
BRANCH   6  24
ATOM     24  O   UNL     1       1.306  -1.043  12.575  1.00  0.00    -0.507 OA
ATOM     25  H   UNL     1       0.580  -1.093  11.870  1.00  0.00     0.293 HD
ENDBRANCH   6  24
BRANCH   8  26
ATOM     26  O   UNL     1      -1.850  -0.400  16.167  1.00  0.00    -0.508 OA
ATOM     27  H   UNL     1      -2.669  -0.549  15.590  1.00  0.00     0.293 HD
ENDBRANCH   8  26
TORSDOF 6
ENDMDL
MODEL 7
REMARK VINA RESULT:    -3.367      6.775      9.922
REMARK INTER + INTRA:          -4.347
REMARK INTER:                  -4.018
REMARK INTRA:                  -0.329
REMARK UNBOUND:                -0.291
REMARK SMILES O=c1c(O)c(-c2ccc(O)c(O)c2)oc2cc(O)cc(O)c12
REMARK SMILES IDX 5 1 3 2 2 3 1 4 22 5 20 6 19 7 17 8 16 9 15 10 14 11 6 12
REMARK SMILES IDX 7 13 8 14 9 15 13 16 11 17 10 18 12 20 4 22 21 24 18 26
REMARK H PARENT 10 19 12 21 4 23 21 25 18 27
REMARK Flexibility Score: inf
ROOT
ATOM      1  C   UNL     1       8.351  -3.825  14.011  1.00  0.00     0.180 A 
ATOM      2  C   UNL     1       8.940  -4.963  13.426  1.00  0.00     0.208 A 
ATOM      3  C   UNL     1       8.666  -5.254  12.081  1.00  0.00     0.238 A 
ATOM      4  O   UNL     1       9.198  -6.264  11.543  1.00  0.00    -0.285 OA
ATOM      5  C   UNL     1       7.796  -4.418  11.351  1.00  0.00     0.111 A 
ATOM      6  C   UNL     1       7.466  -4.643   9.992  1.00  0.00     0.134 A 
ATOM      7  C   UNL     1       6.584  -3.771   9.338  1.00  0.00     0.093 A 
ATOM      8  C   UNL     1       6.027  -2.682  10.012  1.00  0.00     0.123 A 
ATOM      9  C   UNL     1       6.350  -2.453  11.353  1.00  0.00     0.094 A 
ATOM     10  C   UNL     1       7.228  -3.311  12.023  1.00  0.00     0.146 A 
ATOM     11  O   UNL     1       7.523  -3.069  13.295  1.00  0.00    -0.452 OA
ENDROOT
BRANCH   1  12
ATOM     12  C   UNL     1       8.605  -3.442  15.418  1.00  0.00     0.025 A 
ATOM     13  C   UNL     1       7.681  -3.805  16.411  1.00  0.00     0.016 A 
ATOM     14  C   UNL     1       7.890  -3.436  17.742  1.00  0.00     0.051 A 
ATOM     15  C   UNL     1       9.018  -2.684  18.097  1.00  0.00     0.157 A 
ATOM     16  C   UNL     1       9.726  -2.671  15.776  1.00  0.00     0.062 A 
ATOM     17  C   UNL     1       9.935  -2.298  17.112  1.00  0.00     0.158 A 
BRANCH  15  18
ATOM     18  O   UNL     1       9.231  -2.316  19.424  1.00  0.00    -0.504 OA
ATOM     19  H   UNL     1      10.159  -2.094  19.769  1.00  0.00     0.293 HD
ENDBRANCH  15  18
BRANCH  17  20
ATOM     20  O   UNL     1      11.049  -1.539  17.467  1.00  0.00    -0.504 OA
ATOM     21  H   UNL     1      11.940  -1.973  17.682  1.00  0.00     0.293 HD
ENDBRANCH  17  20
ENDBRANCH   1  12
BRANCH   2  22
ATOM     22  O   UNL     1       9.760  -5.802  14.185  1.00  0.00    -0.502 OA
ATOM     23  H   UNL     1       9.795  -5.756  15.196  1.00  0.00     0.293 HD
ENDBRANCH   2  22
BRANCH   6  24
ATOM     24  O   UNL     1       8.005  -5.723   9.291  1.00  0.00    -0.507 OA
ATOM     25  H   UNL     1       8.538  -6.448   9.756  1.00  0.00     0.293 HD
ENDBRANCH   6  24
BRANCH   8  26
ATOM     26  O   UNL     1       5.153  -1.830   9.338  1.00  0.00    -0.508 OA
ATOM     27  H   UNL     1       4.609  -2.151   8.545  1.00  0.00     0.293 HD
ENDBRANCH   8  26
TORSDOF 6
ENDMDL
MODEL 8
REMARK VINA RESULT:    -3.324      2.674      8.390
REMARK INTER + INTRA:          -4.296
REMARK INTER:                  -4.045
REMARK INTRA:                  -0.251
REMARK UNBOUND:                -0.291
REMARK SMILES O=c1c(O)c(-c2ccc(O)c(O)c2)oc2cc(O)cc(O)c12
REMARK SMILES IDX 5 1 3 2 2 3 1 4 22 5 20 6 19 7 17 8 16 9 15 10 14 11 6 12
REMARK SMILES IDX 7 13 8 14 9 15 13 16 11 17 10 18 12 20 4 22 21 24 18 26
REMARK H PARENT 10 19 12 21 4 23 21 25 18 27
REMARK Flexibility Score: inf
ROOT
ATOM      1  C   UNL     1       4.967  -2.713  17.840  1.00  0.00     0.180 A 
ATOM      2  C   UNL     1       3.945  -2.288  18.711  1.00  0.00     0.208 A 
ATOM      3  C   UNL     1       2.723  -1.863  18.167  1.00  0.00     0.238 A 
ATOM      4  O   UNL     1       1.797  -1.491  18.938  1.00  0.00    -0.285 OA
ATOM      5  C   UNL     1       2.550  -1.850  16.768  1.00  0.00     0.111 A 
ATOM      6  C   UNL     1       1.351  -1.434  16.139  1.00  0.00     0.134 A 
ATOM      7  C   UNL     1       1.260  -1.441  14.740  1.00  0.00     0.093 A 
ATOM      8  C   UNL     1       2.341  -1.856  13.958  1.00  0.00     0.123 A 
ATOM      9  C   UNL     1       3.527  -2.270  14.572  1.00  0.00     0.094 A 
ATOM     10  C   UNL     1       3.637  -2.270  15.966  1.00  0.00     0.146 A 
ATOM     11  O   UNL     1       4.773  -2.673  16.525  1.00  0.00    -0.452 OA
ENDROOT
BRANCH   1  12
ATOM     12  C   UNL     1       6.276  -3.192  18.337  1.00  0.00     0.025 A 
ATOM     13  C   UNL     1       6.365  -4.451  18.950  1.00  0.00     0.016 A 
ATOM     14  C   UNL     1       7.586  -4.915  19.446  1.00  0.00     0.051 A 
ATOM     15  C   UNL     1       8.734  -4.118  19.350  1.00  0.00     0.157 A 
ATOM     16  C   UNL     1       7.428  -2.387  18.260  1.00  0.00     0.062 A 
ATOM     17  C   UNL     1       8.655  -2.850  18.760  1.00  0.00     0.158 A 
BRANCH  15  18
ATOM     18  O   UNL     1       9.955  -4.576  19.841  1.00  0.00    -0.504 OA
ATOM     19  H   UNL     1      10.075  -5.534  20.150  1.00  0.00     0.293 HD
ENDBRANCH  15  18
BRANCH  17  20
ATOM     20  O   UNL     1       9.796  -2.055  18.677  1.00  0.00    -0.504 OA
ATOM     21  H   UNL     1       9.920  -1.242  19.270  1.00  0.00     0.293 HD
ENDBRANCH  17  20
ENDBRANCH   1  12
BRANCH   2  22
ATOM     22  O   UNL     1       4.159  -2.263  20.091  1.00  0.00    -0.502 OA
ATOM     23  H   UNL     1       4.952  -1.792  20.509  1.00  0.00     0.293 HD
ENDBRANCH   2  22
BRANCH   6  24
ATOM     24  O   UNL     1       0.254  -1.013  16.893  1.00  0.00    -0.507 OA
ATOM     25  H   UNL     1      -0.186  -1.617  17.577  1.00  0.00     0.293 HD
ENDBRANCH   6  24
BRANCH   8  26
ATOM     26  O   UNL     1       2.224  -1.853  12.569  1.00  0.00    -0.508 OA
ATOM     27  H   UNL     1       2.162  -2.717  12.042  1.00  0.00     0.293 HD
ENDBRANCH   8  26
TORSDOF 6
ENDMDL
MODEL 9
REMARK VINA RESULT:    -3.273      9.376     11.748
REMARK INTER + INTRA:          -4.234
REMARK INTER:                  -3.903
REMARK INTRA:                  -0.332
REMARK UNBOUND:                -0.291
REMARK SMILES O=c1c(O)c(-c2ccc(O)c(O)c2)oc2cc(O)cc(O)c12
REMARK SMILES IDX 5 1 3 2 2 3 1 4 22 5 20 6 19 7 17 8 16 9 15 10 14 11 6 12
REMARK SMILES IDX 7 13 8 14 9 15 13 16 11 17 10 18 12 20 4 22 21 24 18 26
REMARK H PARENT 10 19 12 21 4 23 21 25 18 27
REMARK Flexibility Score: inf
ROOT
ATOM      1  C   UNL     1       6.791   5.283  11.029  1.00  0.00     0.180 A 
ATOM      2  C   UNL     1       5.434   5.108  10.696  1.00  0.00     0.208 A 
ATOM      3  C   UNL     1       5.105   4.626   9.420  1.00  0.00     0.238 A 
ATOM      4  O   UNL     1       3.893   4.455   9.114  1.00  0.00    -0.285 OA
ATOM      5  C   UNL     1       6.131   4.347   8.495  1.00  0.00     0.111 A 
ATOM      6  C   UNL     1       5.885   3.861   7.187  1.00  0.00     0.134 A 
ATOM      7  C   UNL     1       6.960   3.616   6.322  1.00  0.00     0.093 A 
ATOM      8  C   UNL     1       8.274   3.846   6.735  1.00  0.00     0.123 A 
ATOM      9  C   UNL     1       8.525   4.324   8.025  1.00  0.00     0.094 A 
ATOM     10  C   UNL     1       7.466   4.574   8.903  1.00  0.00     0.146 A 
ATOM     11  O   UNL     1       7.731   5.023  10.125  1.00  0.00    -0.452 OA
ENDROOT
BRANCH   1  12
ATOM     12  C   UNL     1       7.219   5.770  12.360  1.00  0.00     0.025 A 
ATOM     13  C   UNL     1       7.457   7.140  12.551  1.00  0.00     0.016 A 
ATOM     14  C   UNL     1       7.881   7.619  13.793  1.00  0.00     0.051 A 
ATOM     15  C   UNL     1       8.090   6.732  14.857  1.00  0.00     0.157 A 
ATOM     16  C   UNL     1       7.449   4.880  13.425  1.00  0.00     0.062 A 
ATOM     17  C   UNL     1       7.878   5.360  14.673  1.00  0.00     0.158 A 
BRANCH  15  18
ATOM     18  O   UNL     1       8.512   7.205  16.099  1.00  0.00    -0.504 OA
ATOM     19  H   UNL     1       8.500   6.614  16.922  1.00  0.00     0.293 HD
ENDBRANCH  15  18
BRANCH  17  20
ATOM     20  O   UNL     1       8.099   4.479  15.729  1.00  0.00    -0.504 OA
ATOM     21  H   UNL     1       8.892   4.586  16.352  1.00  0.00     0.293 HD
ENDBRANCH  17  20
ENDBRANCH   1  12
BRANCH   2  22
ATOM     22  O   UNL     1       4.434   5.439  11.614  1.00  0.00    -0.502 OA
ATOM     23  H   UNL     1       3.512   5.022  11.585  1.00  0.00     0.293 HD
ENDBRANCH   2  22
BRANCH   6  24
ATOM     24  O   UNL     1       4.583   3.622   6.744  1.00  0.00    -0.507 OA
ATOM     25  H   UNL     1       4.273   2.696   6.474  1.00  0.00     0.293 HD
ENDBRANCH   6  24
BRANCH   8  26
ATOM     26  O   UNL     1       9.325   3.594   5.855  1.00  0.00    -0.508 OA
ATOM     27  H   UNL     1       9.924   2.784   5.964  1.00  0.00     0.293 HD
ENDBRANCH   8  26
TORSDOF 6
ENDMDL
