MODEL 1
REMARK VINA RESULT:    30.154      0.000      0.000
REMARK INTER + INTRA:          36.549
REMARK INTER:                  36.324
REMARK INTRA:                   0.225
REMARK UNBOUND:                 0.225
REMARK SMILES O=c1c(O)c(-c2ccc(O)c(O)c2)oc2cc(O)cc(O)c12
REMARK SMILES IDX 5 1 3 2 2 3 1 4 22 5 20 6 19 7 17 8 16 9 15 10 14 11 6 12
REMARK SMILES IDX 7 13 8 14 9 15 13 16 11 17 10 18 12 20 4 22 21 24 18 26
REMARK H PARENT 10 19 12 21 4 23 21 25 18 27
REMARK Flexibility Score: inf
ROOT
ATOM      1  C   UNL     1     -36.669  24.595   6.994  1.00  0.00     0.180 A 
ATOM      2  C   UNL     1     -36.867  24.338   5.626  1.00  0.00     0.208 A 
ATOM      3  C   UNL     1     -38.143  23.955   5.183  1.00  0.00     0.238 A 
ATOM      4  O   UNL     1     -38.300  23.673   3.966  1.00  0.00    -0.285 OA
ATOM      5  C   UNL     1     -39.208  23.849   6.109  1.00  0.00     0.111 A 
ATOM      6  C   UNL     1     -40.551  23.508   5.765  1.00  0.00     0.134 A 
ATOM      7  C   UNL     1     -41.494  23.304   6.779  1.00  0.00     0.093 A 
ATOM      8  C   UNL     1     -41.159  23.494   8.123  1.00  0.00     0.123 A 
ATOM      9  C   UNL     1     -39.868  23.886   8.464  1.00  0.00     0.094 A 
ATOM     10  C   UNL     1     -38.895  24.060   7.476  1.00  0.00     0.146 A 
ATOM     11  O   UNL     1     -37.672  24.423   7.847  1.00  0.00    -0.452 OA
ENDROOT
BRANCH   1  12
ATOM     12  C   UNL     1     -35.360  25.028   7.533  1.00  0.00     0.025 A 
ATOM     13  C   UNL     1     -35.272  25.945   8.592  1.00  0.00     0.016 A 
ATOM     14  C   UNL     1     -34.025  26.319   9.099  1.00  0.00     0.051 A 
ATOM     15  C   UNL     1     -32.848  25.779   8.573  1.00  0.00     0.157 A 
ATOM     16  C   UNL     1     -34.180  24.467   7.018  1.00  0.00     0.062 A 
ATOM     17  C   UNL     1     -32.926  24.836   7.520  1.00  0.00     0.158 A 
BRANCH  15  18
ATOM     18  O   UNL     1     -31.635  26.197   9.122  1.00  0.00    -0.504 OA
ATOM     19  H   UNL     1     -31.472  26.309  10.112  1.00  0.00     0.293 HD
ENDBRANCH  15  18
BRANCH  17  20
ATOM     20  O   UNL     1     -31.796  24.247   6.950  1.00  0.00    -0.504 OA
ATOM     21  H   UNL     1     -31.504  23.297   7.129  1.00  0.00     0.293 HD
ENDBRANCH  17  20
ENDBRANCH   1  12
BRANCH   2  22
ATOM     22  O   UNL     1     -35.796  24.428   4.733  1.00  0.00    -0.502 OA
ATOM     23  H   UNL     1     -35.780  25.091   3.967  1.00  0.00     0.293 HD
ENDBRANCH   2  22
BRANCH   6  24
ATOM     24  O   UNL     1     -41.012  23.384   4.450  1.00  0.00    -0.507 OA
ATOM     25  H   UNL     1     -40.698  22.685   3.795  1.00  0.00     0.293 HD
ENDBRANCH   6  24
BRANCH   8  26
ATOM     26  O   UNL     1     -42.108  23.305   9.124  1.00  0.00    -0.508 OA
ATOM     27  H   UNL     1     -41.849  23.292  10.104  1.00  0.00     0.293 HD
ENDBRANCH   8  26
TORSDOF 6
ENDMDL
MODEL 2
REMARK VINA RESULT:    33.095      1.536      1.682
REMARK INTER + INTRA:          40.093
REMARK INTER:                  39.608
REMARK INTRA:                   0.485
REMARK UNBOUND:                 0.225
REMARK SMILES O=c1c(O)c(-c2ccc(O)c(O)c2)oc2cc(O)cc(O)c12
REMARK SMILES IDX 5 1 3 2 2 3 1 4 22 5 20 6 19 7 17 8 16 9 15 10 14 11 6 12
REMARK SMILES IDX 7 13 8 14 9 15 13 16 11 17 10 18 12 20 4 22 21 24 18 26
REMARK H PARENT 10 19 12 21 4 23 21 25 18 27
REMARK Flexibility Score: inf
ROOT
ATOM      1  C   UNL     1     -37.620  24.061   6.833  1.00  0.00     0.180 A 
ATOM      2  C   UNL     1     -38.052  24.189   5.502  1.00  0.00     0.208 A 
ATOM      3  C   UNL     1     -39.295  23.648   5.135  1.00  0.00     0.238 A 
ATOM      4  O   UNL     1     -39.652  23.718   3.930  1.00  0.00    -0.285 OA
ATOM      5  C   UNL     1     -40.096  23.001   6.106  1.00  0.00     0.111 A 
ATOM      6  C   UNL     1     -41.390  22.452   5.855  1.00  0.00     0.134 A 
ATOM      7  C   UNL     1     -42.037  21.720   6.858  1.00  0.00     0.093 A 
ATOM      8  C   UNL     1     -41.465  21.572   8.125  1.00  0.00     0.123 A 
ATOM      9  C   UNL     1     -40.230  22.155   8.397  1.00  0.00     0.094 A 
ATOM     10  C   UNL     1     -39.544  22.861   7.405  1.00  0.00     0.146 A 
ATOM     11  O   UNL     1     -38.364  23.391   7.705  1.00  0.00    -0.452 OA
ENDROOT
BRANCH   1  12
ATOM     12  C   UNL     1     -36.333  24.626   7.301  1.00  0.00     0.025 A 
ATOM     13  C   UNL     1     -35.752  24.217   8.512  1.00  0.00     0.016 A 
ATOM     14  C   UNL     1     -34.526  24.747   8.920  1.00  0.00     0.051 A 
ATOM     15  C   UNL     1     -33.851  25.680   8.127  1.00  0.00     0.157 A 
ATOM     16  C   UNL     1     -35.647  25.547   6.492  1.00  0.00     0.062 A 
ATOM     17  C   UNL     1     -34.418  26.083   6.894  1.00  0.00     0.158 A 
BRANCH  15  18
ATOM     18  O   UNL     1     -32.632  26.174   8.594  1.00  0.00    -0.504 OA
ATOM     19  H   UNL     1     -31.733  25.900   8.225  1.00  0.00     0.293 HD
ENDBRANCH  15  18
BRANCH  17  20
ATOM     20  O   UNL     1     -33.799  27.003   6.045  1.00  0.00    -0.504 OA
ATOM     21  H   UNL     1     -32.855  26.908   5.701  1.00  0.00     0.293 HD
ENDBRANCH  17  20
ENDBRANCH   1  12
BRANCH   2  22
ATOM     22  O   UNL     1     -37.236  24.812   4.554  1.00  0.00    -0.502 OA
ATOM     23  H   UNL     1     -37.610  25.284   3.739  1.00  0.00     0.293 HD
ENDBRANCH   2  22
BRANCH   6  24
ATOM     24  O   UNL     1     -42.090  22.620   4.656  1.00  0.00    -0.507 OA
ATOM     25  H   UNL     1     -41.677  22.559   3.737  1.00  0.00     0.293 HD
ENDBRANCH   6  24
BRANCH   8  26
ATOM     26  O   UNL     1     -42.122  20.856   9.121  1.00  0.00    -0.508 OA
ATOM     27  H   UNL     1     -43.117  20.959   9.281  1.00  0.00     0.293 HD
ENDBRANCH   8  26
TORSDOF 6
ENDMDL
