MODEL 1
REMARK VINA RESULT:    -3.092      0.000      0.000
REMARK INTER + INTRA:          -7.201
REMARK INTER:                  -5.623
REMARK INTRA:                  -1.578
REMARK UNBOUND:                -1.578
REMARK SMILES CCCCCCCCCCCCCCCC(=O)[O-]
REMARK SMILES IDX 9 1 10 2 11 3 12 4 13 5 14 6 15 7 16 8 17 9 18 10 8 11 7 12
REMARK SMILES IDX 6 13 5 14 4 15 3 16 2 17 1 18
REMARK H PARENT
REMARK Flexibility Score: inf
ROOT
ATOM      1  C   UNL     1       6.133 -19.637   3.543  1.00  0.00     0.000 C 
ENDROOT
BRANCH   1   2
ATOM      2  C   UNL     1       6.859 -19.963   4.860  1.00  0.00     0.000 C 
BRANCH   2   3
ATOM      3  C   UNL     1       8.119 -19.105   5.100  1.00  0.00     0.000 C 
BRANCH   3   4
ATOM      4  C   UNL     1       8.617 -18.435   3.807  1.00  0.00     0.000 C 
BRANCH   4   5
ATOM      5  C   UNL     1       9.532 -17.230   4.081  1.00  0.00     0.000 C 
BRANCH   5   6
ATOM      6  C   UNL     1       9.771 -17.004   5.581  1.00  0.00     0.006 C 
BRANCH   6   7
ATOM      7  C   UNL     1       9.598 -15.525   5.946  1.00  0.00     0.053 C 
BRANCH   7   8
ATOM      8  C   UNL     1       8.471 -15.352   6.914  1.00  0.00     0.041 C 
ATOM      9  O   UNL     1       8.196 -16.267   7.735  1.00  0.00    -0.550 OA
ATOM     10  O   UNL     1       7.695 -14.202   6.878  1.00  0.00    -0.550 OA
ENDBRANCH   7   8
ENDBRANCH   6   7
ENDBRANCH   5   6
ENDBRANCH   4   5
ENDBRANCH   3   4
ENDBRANCH   2   3
ENDBRANCH   1   2
BRANCH   1  11
ATOM     11  C   UNL     1       4.932 -20.561   3.279  1.00  0.00     0.000 C 
BRANCH  11  12
ATOM     12  C   UNL     1       3.931 -19.954   2.282  1.00  0.00    -0.000 C 
BRANCH  12  13
ATOM     13  C   UNL     1       3.953 -18.415   2.288  1.00  0.00    -0.000 C 
BRANCH  13  14
ATOM     14  C   UNL     1       2.782 -17.811   3.080  1.00  0.00    -0.000 C 
BRANCH  14  15
ATOM     15  C   UNL     1       2.312 -18.716   4.229  1.00  0.00    -0.000 C 
BRANCH  15  16
ATOM     16  C   UNL     1       2.755 -18.150   5.587  1.00  0.00    -0.000 C 
BRANCH  16  17
ATOM     17  C   UNL     1       3.505 -19.184   6.441  1.00  0.00    -0.003 C 
ATOM     18  C   UNL     1       2.912 -20.588   6.325  1.00  0.00     0.004 C 
ENDBRANCH  16  17
ENDBRANCH  15  16
ENDBRANCH  14  15
ENDBRANCH  13  14
ENDBRANCH  12  13
ENDBRANCH  11  12
ENDBRANCH   1  11
TORSDOF 14
ENDMDL
MODEL 2
REMARK VINA RESULT:    -3.054      3.383      6.931
REMARK INTER + INTRA:          -7.132
REMARK INTER:                  -5.933
REMARK INTRA:                  -1.199
REMARK UNBOUND:                -1.578
REMARK SMILES CCCCCCCCCCCCCCCC(=O)[O-]
REMARK SMILES IDX 9 1 10 2 11 3 12 4 13 5 14 6 15 7 16 8 17 9 18 10 8 11 7 12
REMARK SMILES IDX 6 13 5 14 4 15 3 16 2 17 1 18
REMARK H PARENT
REMARK Flexibility Score: inf
ROOT
ATOM      1  C   UNL     1       6.791 -19.400   3.513  1.00  0.00     0.000 C 
ENDROOT
BRANCH   1   2
ATOM      2  C   UNL     1       6.027 -20.439   4.353  1.00  0.00     0.000 C 
BRANCH   2   3
ATOM      3  C   UNL     1       5.043 -19.813   5.363  1.00  0.00     0.000 C 
BRANCH   3   4
ATOM      4  C   UNL     1       3.594 -19.831   4.846  1.00  0.00     0.000 C 
BRANCH   4   5
ATOM      5  C   UNL     1       3.041 -18.420   4.589  1.00  0.00     0.000 C 
BRANCH   5   6
ATOM      6  C   UNL     1       2.471 -18.262   3.170  1.00  0.00     0.006 C 
BRANCH   6   7
ATOM      7  C   UNL     1       3.559 -18.489   2.116  1.00  0.00     0.053 C 
BRANCH   7   8
ATOM      8  C   UNL     1       3.189 -19.626   1.217  1.00  0.00     0.041 C 
ATOM      9  O   UNL     1       3.783 -19.783   0.117  1.00  0.00    -0.550 OA
ATOM     10  O   UNL     1       2.155 -20.483   1.570  1.00  0.00    -0.550 OA
ENDBRANCH   7   8
ENDBRANCH   6   7
ENDBRANCH   5   6
ENDBRANCH   4   5
ENDBRANCH   3   4
ENDBRANCH   2   3
ENDBRANCH   1   2
BRANCH   1  11
ATOM     11  C   UNL     1       8.232 -19.179   4.002  1.00  0.00     0.000 C 
BRANCH  11  12
ATOM     12  C   UNL     1       8.899 -17.963   3.340  1.00  0.00    -0.000 C 
BRANCH  12  13
ATOM     13  C   UNL     1       9.577 -17.034   4.363  1.00  0.00    -0.000 C 
BRANCH  13  14
ATOM     14  C   UNL     1       9.522 -17.592   5.794  1.00  0.00    -0.000 C 
BRANCH  14  15
ATOM     15  C   UNL     1       8.609 -16.770   6.717  1.00  0.00    -0.000 C 
BRANCH  15  16
ATOM     16  C   UNL     1       8.896 -15.267   6.573  1.00  0.00    -0.000 C 
BRANCH  16  17
ATOM     17  C   UNL     1       9.646 -14.690   7.783  1.00  0.00    -0.003 C 
ATOM     18  C   UNL     1      11.164 -14.802   7.645  1.00  0.00     0.004 C 
ENDBRANCH  16  17
ENDBRANCH  15  16
ENDBRANCH  14  15
ENDBRANCH  13  14
ENDBRANCH  12  13
ENDBRANCH  11  12
ENDBRANCH   1  11
TORSDOF 14
ENDMDL
MODEL 3
REMARK VINA RESULT:    -3.034      4.248      6.257
REMARK INTER + INTRA:          -7.096
REMARK INTER:                  -5.524
REMARK INTRA:                  -1.571
REMARK UNBOUND:                -1.578
REMARK SMILES CCCCCCCCCCCCCCCC(=O)[O-]
REMARK SMILES IDX 9 1 10 2 11 3 12 4 13 5 14 6 15 7 16 8 17 9 18 10 8 11 7 12
REMARK SMILES IDX 6 13 5 14 4 15 3 16 2 17 1 18
REMARK H PARENT
REMARK Flexibility Score: inf
ROOT
ATOM      1  C   UNL     1       8.435 -16.851  10.562  1.00  0.00     0.000 C 
ENDROOT
BRANCH   1   2
ATOM      2  C   UNL     1       9.622 -16.143  11.238  1.00  0.00     0.000 C 
BRANCH   2   3
ATOM      3  C   UNL     1      10.553 -15.414  10.246  1.00  0.00     0.000 C 
BRANCH   3   4
ATOM      4  C   UNL     1       9.779 -14.816   9.058  1.00  0.00     0.000 C 
BRANCH   4   5
ATOM      5  C   UNL     1      10.367 -15.229   7.700  1.00  0.00     0.000 C 
BRANCH   5   6
ATOM      6  C   UNL     1       9.323 -15.197   6.574  1.00  0.00     0.006 C 
BRANCH   6   7
ATOM      7  C   UNL     1       9.078 -16.603   6.015  1.00  0.00     0.053 C 
BRANCH   7   8
ATOM      8  C   UNL     1      10.112 -16.946   4.990  1.00  0.00     0.041 C 
ATOM      9  O   UNL     1      10.423 -16.111   4.099  1.00  0.00    -0.550 OA
ATOM     10  O   UNL     1      10.698 -18.205   4.988  1.00  0.00    -0.550 OA
ENDBRANCH   7   8
ENDBRANCH   6   7
ENDBRANCH   5   6
ENDBRANCH   4   5
ENDBRANCH   3   4
ENDBRANCH   2   3
ENDBRANCH   1   2
BRANCH   1  11
ATOM     11  C   UNL     1       7.177 -16.886  11.446  1.00  0.00     0.000 C 
BRANCH  11  12
ATOM     12  C   UNL     1       5.891 -16.602  10.653  1.00  0.00    -0.000 C 
BRANCH  12  13
ATOM     13  C   UNL     1       5.541 -17.736   9.673  1.00  0.00    -0.000 C 
BRANCH  13  14
ATOM     14  C   UNL     1       5.714 -17.320   8.203  1.00  0.00    -0.000 C 
BRANCH  14  15
ATOM     15  C   UNL     1       5.924 -15.808   8.035  1.00  0.00    -0.000 C 
BRANCH  15  16
ATOM     16  C   UNL     1       4.623 -15.120   7.593  1.00  0.00    -0.000 C 
BRANCH  16  17
ATOM     17  C   UNL     1       4.848 -13.675   7.121  1.00  0.00    -0.003 C 
ATOM     18  C   UNL     1       6.309 -13.387   6.778  1.00  0.00     0.004 C 
ENDBRANCH  16  17
ENDBRANCH  15  16
ENDBRANCH  14  15
ENDBRANCH  13  14
ENDBRANCH  12  13
ENDBRANCH  11  12
ENDBRANCH   1  11
TORSDOF 14
ENDMDL
MODEL 4
REMARK VINA RESULT:    -3.023      1.711      3.757
REMARK INTER + INTRA:          -7.075
REMARK INTER:                  -5.524
REMARK INTRA:                  -1.551
REMARK UNBOUND:                -1.578
REMARK SMILES CCCCCCCCCCCCCCCC(=O)[O-]
REMARK SMILES IDX 9 1 10 2 11 3 12 4 13 5 14 6 15 7 16 8 17 9 18 10 8 11 7 12
REMARK SMILES IDX 6 13 5 14 4 15 3 16 2 17 1 18
REMARK H PARENT
REMARK Flexibility Score: inf
ROOT
ATOM      1  C   UNL     1       9.000 -17.631   3.434  1.00  0.00     0.000 C 
ENDROOT
BRANCH   1   2
ATOM      2  C   UNL     1       9.518 -17.346   4.855  1.00  0.00     0.000 C 
BRANCH   2   3
ATOM      3  C   UNL     1      10.236 -15.987   4.990  1.00  0.00     0.000 C 
BRANCH   3   4
ATOM      4  C   UNL     1       9.966 -15.323   6.351  1.00  0.00     0.000 C 
BRANCH   4   5
ATOM      5  C   UNL     1       8.471 -15.295   6.709  1.00  0.00     0.000 C 
BRANCH   5   6
ATOM      6  C   UNL     1       8.172 -16.005   8.038  1.00  0.00     0.006 C 
BRANCH   6   7
ATOM      7  C   UNL     1       7.175 -17.150   7.834  1.00  0.00     0.053 C 
BRANCH   7   8
ATOM      8  C   UNL     1       5.852 -16.808   8.443  1.00  0.00     0.041 C 
ATOM      9  O   UNL     1       5.257 -15.749   8.109  1.00  0.00    -0.550 OA
ATOM     10  O   UNL     1       5.300 -17.632   9.414  1.00  0.00    -0.550 OA
ENDBRANCH   7   8
ENDBRANCH   6   7
ENDBRANCH   5   6
ENDBRANCH   4   5
ENDBRANCH   3   4
ENDBRANCH   2   3
ENDBRANCH   1   2
BRANCH   1  11
ATOM     11  C   UNL     1       7.959 -18.762   3.393  1.00  0.00     0.000 C 
BRANCH  11  12
ATOM     12  C   UNL     1       7.860 -19.521   4.726  1.00  0.00    -0.000 C 
BRANCH  12  13
ATOM     13  C   UNL     1       6.585 -20.378   4.824  1.00  0.00    -0.000 C 
BRANCH  13  14
ATOM     14  C   UNL     1       5.435 -19.646   5.534  1.00  0.00    -0.000 C 
BRANCH  14  15
ATOM     15  C   UNL     1       4.119 -19.700   4.742  1.00  0.00    -0.000 C 
BRANCH  15  16
ATOM     16  C   UNL     1       4.392 -19.822   3.235  1.00  0.00    -0.000 C 
BRANCH  16  17
ATOM     17  C   UNL     1       4.028 -18.544   2.463  1.00  0.00    -0.003 C 
ATOM     18  C   UNL     1       2.818 -17.821   3.055  1.00  0.00     0.004 C 
ENDBRANCH  16  17
ENDBRANCH  15  16
ENDBRANCH  14  15
ENDBRANCH  13  14
ENDBRANCH  12  13
ENDBRANCH  11  12
ENDBRANCH   1  11
TORSDOF 14
ENDMDL
MODEL 5
REMARK VINA RESULT:    -2.990      4.566      8.125
REMARK INTER + INTRA:          -7.016
REMARK INTER:                  -4.474
REMARK INTRA:                  -2.542
REMARK UNBOUND:                -1.578
REMARK SMILES CCCCCCCCCCCCCCCC(=O)[O-]
REMARK SMILES IDX 9 1 10 2 11 3 12 4 13 5 14 6 15 7 16 8 17 9 18 10 8 11 7 12
REMARK SMILES IDX 6 13 5 14 4 15 3 16 2 17 1 18
REMARK H PARENT
REMARK Flexibility Score: inf
ROOT
ATOM      1  C   UNL     1       9.471 -17.323   8.640  1.00  0.00     0.000 C 
ENDROOT
BRANCH   1   2
ATOM      2  C   UNL     1       9.080 -15.860   8.914  1.00  0.00     0.000 C 
BRANCH   2   3
ATOM      3  C   UNL     1       9.079 -14.973   7.651  1.00  0.00     0.000 C 
BRANCH   3   4
ATOM      4  C   UNL     1       8.953 -15.803   6.362  1.00  0.00     0.000 C 
BRANCH   4   5
ATOM      5  C   UNL     1      10.087 -15.521   5.364  1.00  0.00     0.000 C 
BRANCH   5   6
ATOM      6  C   UNL     1      10.345 -16.705   4.419  1.00  0.00     0.006 C 
BRANCH   6   7
ATOM      7  C   UNL     1       9.222 -17.742   4.521  1.00  0.00     0.053 C 
BRANCH   7   8
ATOM      8  C   UNL     1       8.791 -18.185   3.159  1.00  0.00     0.041 C 
ATOM      9  O   UNL     1       9.532 -17.974   2.162  1.00  0.00    -0.550 OA
ATOM     10  O   UNL     1       7.552 -18.785   2.982  1.00  0.00    -0.550 OA
ENDBRANCH   7   8
ENDBRANCH   6   7
ENDBRANCH   5   6
ENDBRANCH   4   5
ENDBRANCH   3   4
ENDBRANCH   2   3
ENDBRANCH   1   2
BRANCH   1  11
ATOM     11  C   UNL     1      10.930 -17.631   9.015  1.00  0.00     0.000 C 
BRANCH  11  12
ATOM     12  C   UNL     1      11.810 -17.900   7.784  1.00  0.00    -0.000 C 
BRANCH  12  13
ATOM     13  C   UNL     1      13.047 -16.986   7.733  1.00  0.00    -0.000 C 
BRANCH  13  14
ATOM     14  C   UNL     1      12.685 -15.496   7.833  1.00  0.00    -0.000 C 
BRANCH  14  15
ATOM     15  C   UNL     1      13.401 -14.788   8.995  1.00  0.00    -0.000 C 
BRANCH  15  16
ATOM     16  C   UNL     1      12.482 -13.744   9.648  1.00  0.00    -0.000 C 
BRANCH  16  17
ATOM     17  C   UNL     1      11.679 -14.319  10.826  1.00  0.00    -0.003 C 
ATOM     18  C   UNL     1      12.451 -15.385  11.603  1.00  0.00     0.004 C 
ENDBRANCH  16  17
ENDBRANCH  15  16
ENDBRANCH  14  15
ENDBRANCH  13  14
ENDBRANCH  12  13
ENDBRANCH  11  12
ENDBRANCH   1  11
TORSDOF 14
ENDMDL
MODEL 6
REMARK VINA RESULT:    -2.950      1.753      2.720
REMARK INTER + INTRA:          -6.942
REMARK INTER:                  -5.410
REMARK INTRA:                  -1.532
REMARK UNBOUND:                -1.578
REMARK SMILES CCCCCCCCCCCCCCCC(=O)[O-]
REMARK SMILES IDX 9 1 10 2 11 3 12 4 13 5 14 6 15 7 16 8 17 9 18 10 8 11 7 12
REMARK SMILES IDX 6 13 5 14 4 15 3 16 2 17 1 18
REMARK H PARENT
REMARK Flexibility Score: inf
ROOT
ATOM      1  C   UNL     1       7.464 -19.663   5.471  1.00  0.00     0.000 C 
ENDROOT
BRANCH   1   2
ATOM      2  C   UNL     1       7.575 -19.236   6.946  1.00  0.00     0.000 C 
BRANCH   2   3
ATOM      3  C   UNL     1       6.340 -18.468   7.462  1.00  0.00     0.000 C 
BRANCH   3   4
ATOM      4  C   UNL     1       6.714 -17.090   8.035  1.00  0.00     0.000 C 
BRANCH   4   5
ATOM      5  C   UNL     1       8.208 -16.767   7.870  1.00  0.00     0.000 C 
BRANCH   5   6
ATOM      6  C   UNL     1       8.447 -15.525   6.997  1.00  0.00     0.006 C 
BRANCH   6   7
ATOM      7  C   UNL     1       9.923 -15.410   6.602  1.00  0.00     0.053 C 
BRANCH   7   8
ATOM      8  C   UNL     1      10.135 -15.924   5.213  1.00  0.00     0.041 C 
ATOM      9  O   UNL     1      10.439 -15.130   4.284  1.00  0.00    -0.550 OA
ATOM     10  O   UNL     1       9.950 -17.272   4.935  1.00  0.00    -0.550 OA
ENDBRANCH   7   8
ENDBRANCH   6   7
ENDBRANCH   5   6
ENDBRANCH   4   5
ENDBRANCH   3   4
ENDBRANCH   2   3
ENDBRANCH   1   2
BRANCH   1  11
ATOM     11  C   UNL     1       6.008 -19.840   5.008  1.00  0.00     0.000 C 
BRANCH  11  12
ATOM     12  C   UNL     1       5.858 -19.731   3.482  1.00  0.00    -0.000 C 
BRANCH  12  13
ATOM     13  C   UNL     1       4.391 -19.831   3.026  1.00  0.00    -0.000 C 
BRANCH  13  14
ATOM     14  C   UNL     1       3.896 -18.545   2.345  1.00  0.00    -0.000 C 
BRANCH  14  15
ATOM     15  C   UNL     1       2.846 -17.796   3.181  1.00  0.00    -0.000 C 
BRANCH  15  16
ATOM     16  C   UNL     1       2.425 -18.629   4.402  1.00  0.00    -0.000 C 
BRANCH  16  17
ATOM     17  C   UNL     1       2.804 -17.960   5.733  1.00  0.00    -0.003 C 
ATOM     18  C   UNL     1       2.745 -18.925   6.917  1.00  0.00     0.004 C 
ENDBRANCH  16  17
ENDBRANCH  15  16
ENDBRANCH  14  15
ENDBRANCH  13  14
ENDBRANCH  12  13
ENDBRANCH  11  12
ENDBRANCH   1  11
TORSDOF 14
ENDMDL
MODEL 7
REMARK VINA RESULT:    -2.944      4.424      6.756
REMARK INTER + INTRA:          -6.931
REMARK INTER:                  -4.227
REMARK INTRA:                  -2.704
REMARK UNBOUND:                -1.578
REMARK SMILES CCCCCCCCCCCCCCCC(=O)[O-]
REMARK SMILES IDX 9 1 10 2 11 3 12 4 13 5 14 6 15 7 16 8 17 9 18 10 8 11 7 12
REMARK SMILES IDX 6 13 5 14 4 15 3 16 2 17 1 18
REMARK H PARENT
REMARK Flexibility Score: inf
ROOT
ATOM      1  C   UNL     1      11.059 -15.049   7.353  1.00  0.00     0.000 C 
ENDROOT
BRANCH   1   2
ATOM      2  C   UNL     1      11.943 -16.260   7.005  1.00  0.00     0.000 C 
BRANCH   2   3
ATOM      3  C   UNL     1      11.754 -17.458   7.960  1.00  0.00     0.000 C 
BRANCH   3   4
ATOM      4  C   UNL     1      11.151 -18.679   7.244  1.00  0.00     0.000 C 
BRANCH   4   5
ATOM      5  C   UNL     1      11.081 -18.495   5.719  1.00  0.00     0.000 C 
BRANCH   5   6
ATOM      6  C   UNL     1       9.674 -18.759   5.161  1.00  0.00     0.006 C 
BRANCH   6   7
ATOM      7  C   UNL     1       9.256 -17.654   4.186  1.00  0.00     0.053 C 
BRANCH   7   8
ATOM      8  C   UNL     1       8.771 -18.245   2.900  1.00  0.00     0.041 C 
ATOM      9  O   UNL     1       7.653 -18.824   2.851  1.00  0.00    -0.550 OA
ATOM     10  O   UNL     1       9.573 -18.199   1.768  1.00  0.00    -0.550 OA
ENDBRANCH   7   8
ENDBRANCH   6   7
ENDBRANCH   5   6
ENDBRANCH   4   5
ENDBRANCH   3   4
ENDBRANCH   2   3
ENDBRANCH   1   2
BRANCH   1  11
ATOM     11  C   UNL     1       9.760 -15.002   6.532  1.00  0.00     0.000 C 
BRANCH  11  12
ATOM     12  C   UNL     1       8.503 -15.108   7.411  1.00  0.00    -0.000 C 
BRANCH  12  13
ATOM     13  C   UNL     1       8.047 -16.565   7.612  1.00  0.00    -0.000 C 
BRANCH  13  14
ATOM     14  C   UNL     1       7.686 -16.874   9.074  1.00  0.00    -0.000 C 
BRANCH  14  15
ATOM     15  C   UNL     1       8.453 -18.084   9.631  1.00  0.00    -0.000 C 
BRANCH  15  16
ATOM     16  C   UNL     1       9.334 -17.672  10.821  1.00  0.00    -0.000 C 
BRANCH  16  17
ATOM     17  C   UNL     1       9.370 -16.150  11.031  1.00  0.00    -0.003 C 
ATOM     18  C   UNL     1      10.789 -15.584  11.001  1.00  0.00     0.004 C 
ENDBRANCH  16  17
ENDBRANCH  15  16
ENDBRANCH  14  15
ENDBRANCH  13  14
ENDBRANCH  12  13
ENDBRANCH  11  12
ENDBRANCH   1  11
TORSDOF 14
ENDMDL
MODEL 8
REMARK VINA RESULT:    -2.936      2.448      3.314
REMARK INTER + INTRA:          -6.917
REMARK INTER:                  -4.868
REMARK INTRA:                  -2.049
REMARK UNBOUND:                -1.578
REMARK SMILES CCCCCCCCCCCCCCCC(=O)[O-]
REMARK SMILES IDX 9 1 10 2 11 3 12 4 13 5 14 6 15 7 16 8 17 9 18 10 8 11 7 12
REMARK SMILES IDX 6 13 5 14 4 15 3 16 2 17 1 18
REMARK H PARENT
REMARK Flexibility Score: inf
ROOT
ATOM      1  C   UNL     1       5.676 -20.333   5.743  1.00  0.00     0.000 C 
ENDROOT
BRANCH   1   2
ATOM      2  C   UNL     1       6.035 -19.151   6.661  1.00  0.00     0.000 C 
BRANCH   2   3
ATOM      3  C   UNL     1       7.475 -19.211   7.212  1.00  0.00     0.000 C 
BRANCH   3   4
ATOM      4  C   UNL     1       8.139 -17.823   7.249  1.00  0.00     0.000 C 
BRANCH   4   5
ATOM      5  C   UNL     1       9.444 -17.771   6.439  1.00  0.00     0.000 C 
BRANCH   5   6
ATOM      6  C   UNL     1       9.196 -17.564   4.937  1.00  0.00     0.006 C 
BRANCH   6   7
ATOM      7  C   UNL     1       9.788 -18.717   4.120  1.00  0.00     0.053 C 
BRANCH   7   8
ATOM      8  C   UNL     1       9.412 -18.585   2.678  1.00  0.00     0.041 C 
ATOM      9  O   UNL     1       8.886 -17.521   2.256  1.00  0.00    -0.550 OA
ATOM     10  O   UNL     1       9.597 -19.653   1.811  1.00  0.00    -0.550 OA
ENDBRANCH   7   8
ENDBRANCH   6   7
ENDBRANCH   5   6
ENDBRANCH   4   5
ENDBRANCH   3   4
ENDBRANCH   2   3
ENDBRANCH   1   2
BRANCH   1  11
ATOM     11  C   UNL     1       6.468 -20.328   4.425  1.00  0.00     0.000 C 
BRANCH  11  12
ATOM     12  C   UNL     1       5.926 -19.302   3.416  1.00  0.00    -0.000 C 
BRANCH  12  13
ATOM     13  C   UNL     1       4.552 -19.704   2.849  1.00  0.00    -0.000 C 
BRANCH  13  14
ATOM     14  C   UNL     1       3.733 -18.494   2.372  1.00  0.00    -0.000 C 
BRANCH  14  15
ATOM     15  C   UNL     1       2.784 -17.955   3.454  1.00  0.00    -0.000 C 
BRANCH  15  16
ATOM     16  C   UNL     1       2.069 -19.107   4.177  1.00  0.00    -0.000 C 
BRANCH  16  17
ATOM     17  C   UNL     1       2.128 -18.972   5.706  1.00  0.00    -0.003 C 
ATOM     18  C   UNL     1       2.792 -17.672   6.159  1.00  0.00     0.004 C 
ENDBRANCH  16  17
ENDBRANCH  15  16
ENDBRANCH  14  15
ENDBRANCH  13  14
ENDBRANCH  12  13
ENDBRANCH  11  12
ENDBRANCH   1  11
TORSDOF 14
ENDMDL
MODEL 9
REMARK VINA RESULT:    -2.909      4.930      7.401
REMARK INTER + INTRA:          -6.869
REMARK INTER:                  -4.213
REMARK INTRA:                  -2.656
REMARK UNBOUND:                -1.578
REMARK SMILES CCCCCCCCCCCCCCCC(=O)[O-]
REMARK SMILES IDX 9 1 10 2 11 3 12 4 13 5 14 6 15 7 16 8 17 9 18 10 8 11 7 12
REMARK SMILES IDX 6 13 5 14 4 15 3 16 2 17 1 18
REMARK H PARENT
REMARK Flexibility Score: inf
ROOT
ATOM      1  C   UNL     1       9.524 -17.840  10.038  1.00  0.00     0.000 C 
ENDROOT
BRANCH   1   2
ATOM      2  C   UNL     1      11.023 -17.633  10.320  1.00  0.00     0.000 C 
BRANCH   2   3
ATOM      3  C   UNL     1      11.937 -18.075   9.158  1.00  0.00     0.000 C 
BRANCH   3   4
ATOM      4  C   UNL     1      11.135 -18.421   7.890  1.00  0.00     0.000 C 
BRANCH   4   5
ATOM      5  C   UNL     1      12.030 -18.905   6.738  1.00  0.00     0.000 C 
BRANCH   5   6
ATOM      6  C   UNL     1      11.702 -18.210   5.409  1.00  0.00     0.006 C 
BRANCH   6   7
ATOM      7  C   UNL     1      10.203 -17.910   5.303  1.00  0.00     0.053 C 
BRANCH   7   8
ATOM      8  C   UNL     1       9.932 -16.994   4.152  1.00  0.00     0.041 C 
ATOM      9  O   UNL     1      10.298 -15.789   4.202  1.00  0.00    -0.550 OA
ATOM     10  O   UNL     1       9.233 -17.456   3.045  1.00  0.00    -0.550 OA
ENDBRANCH   7   8
ENDBRANCH   6   7
ENDBRANCH   5   6
ENDBRANCH   4   5
ENDBRANCH   3   4
ENDBRANCH   2   3
ENDBRANCH   1   2
BRANCH   1  11
ATOM     11  C   UNL     1       8.768 -16.517   9.828  1.00  0.00     0.000 C 
BRANCH  11  12
ATOM     12  C   UNL     1       7.926 -16.518   8.542  1.00  0.00    -0.000 C 
BRANCH  12  13
ATOM     13  C   UNL     1       8.543 -15.647   7.433  1.00  0.00    -0.000 C 
BRANCH  13  14
ATOM     14  C   UNL     1       9.537 -14.610   7.981  1.00  0.00    -0.000 C 
BRANCH  14  15
ATOM     15  C   UNL     1      10.951 -14.781   7.404  1.00  0.00    -0.000 C 
BRANCH  15  16
ATOM     16  C   UNL     1      12.016 -14.483   8.471  1.00  0.00    -0.000 C 
BRANCH  16  17
ATOM     17  C   UNL     1      11.419 -13.870   9.748  1.00  0.00    -0.003 C 
ATOM     18  C   UNL     1      12.265 -14.152  10.989  1.00  0.00     0.004 C 
ENDBRANCH  16  17
ENDBRANCH  15  16
ENDBRANCH  14  15
ENDBRANCH  13  14
ENDBRANCH  12  13
ENDBRANCH  11  12
ENDBRANCH   1  11
TORSDOF 14
ENDMDL
