MODEL 1
REMARK VINA RESULT:    -3.930      0.000      0.000
REMARK INTER + INTRA:         -10.414
REMARK INTER:                  -7.607
REMARK INTRA:                  -2.808
REMARK UNBOUND:                -2.808
REMARK SMILES CCCCCCCCCCCCCCCCCC(=O)[O-]
REMARK SMILES IDX 10 1 11 2 12 3 13 4 14 5 15 6 16 7 17 8 18 9 19 10 20 11
REMARK SMILES IDX 9 12 8 13 7 14 6 15 5 16 4 17 3 18 2 19 1 20
REMARK H PARENT
REMARK Flexibility Score: inf
ROOT
ATOM      1  C   UNL     1     174.622 173.321 149.855  1.00  0.00     0.000 C 
ENDROOT
BRANCH   1   2
ATOM      2  C   UNL     1     173.297 172.595 150.137  1.00  0.00     0.000 C 
BRANCH   2   3
ATOM      3  C   UNL     1     173.516 171.079 150.239  1.00  0.00     0.000 C 
BRANCH   3   4
ATOM      4  C   UNL     1     174.999 170.683 150.146  1.00  0.00     0.000 C 
BRANCH   4   5
ATOM      5  C   UNL     1     175.365 169.370 150.868  1.00  0.00     0.000 C 
BRANCH   5   6
ATOM      6  C   UNL     1     174.208 168.349 150.923  1.00  0.00     0.000 C 
BRANCH   6   7
ATOM      7  C   UNL     1     174.422 167.172 149.955  1.00  0.00     0.006 C 
BRANCH   7   8
ATOM      8  C   UNL     1     173.850 167.458 148.561  1.00  0.00     0.053 C 
BRANCH   8   9
ATOM      9  C   UNL     1     172.368 167.671 148.605  1.00  0.00     0.041 C 
ATOM     10  O   UNL     1     171.873 168.765 148.227  1.00  0.00    -0.550 OA
ATOM     11  O   UNL     1     171.536 166.671 149.093  1.00  0.00    -0.550 OA
ENDBRANCH   8   9
ENDBRANCH   7   8
ENDBRANCH   6   7
ENDBRANCH   5   6
ENDBRANCH   4   5
ENDBRANCH   3   4
ENDBRANCH   2   3
ENDBRANCH   1   2
BRANCH   1  12
ATOM     12  C   UNL     1     175.058 174.231 151.013  1.00  0.00     0.000 C 
BRANCH  12  13
ATOM     13  C   UNL     1     174.058 174.227 152.179  1.00  0.00    -0.000 C 
BRANCH  13  14
ATOM     14  C   UNL     1     174.789 174.174 153.529  1.00  0.00    -0.000 C 
BRANCH  14  15
ATOM     15  C   UNL     1     175.446 172.808 153.804  1.00  0.00    -0.000 C 
BRANCH  15  16
ATOM     16  C   UNL     1     174.638 171.876 154.725  1.00  0.00    -0.000 C 
BRANCH  16  17
ATOM     17  C   UNL     1     174.221 170.568 154.033  1.00  0.00    -0.000 C 
BRANCH  17  18
ATOM     18  C   UNL     1     172.693 170.401 153.942  1.00  0.00    -0.000 C 
BRANCH  18  19
ATOM     19  C   UNL     1     171.931 171.674 153.534  1.00  0.00    -0.003 C 
ATOM     20  C   UNL     1     170.681 171.383 152.703  1.00  0.00     0.004 C 
ENDBRANCH  18  19
ENDBRANCH  17  18
ENDBRANCH  16  17
ENDBRANCH  15  16
ENDBRANCH  14  15
ENDBRANCH  13  14
ENDBRANCH  12  13
ENDBRANCH   1  12
TORSDOF 16
ENDMDL
MODEL 2
REMARK VINA RESULT:    -3.881      2.203      3.878
REMARK INTER + INTRA:         -10.319
REMARK INTER:                  -7.494
REMARK INTRA:                  -2.825
REMARK UNBOUND:                -2.808
REMARK SMILES CCCCCCCCCCCCCCCCCC(=O)[O-]
REMARK SMILES IDX 10 1 11 2 12 3 13 4 14 5 15 6 16 7 17 8 18 9 19 10 20 11
REMARK SMILES IDX 9 12 8 13 7 14 6 15 5 16 4 17 3 18 2 19 1 20
REMARK H PARENT
REMARK Flexibility Score: inf
ROOT
ATOM      1  C   UNL     1     171.658 170.490 151.775  1.00  0.00     0.000 C 
ENDROOT
BRANCH   1   2
ATOM      2  C   UNL     1     173.171 170.225 151.735  1.00  0.00     0.000 C 
BRANCH   2   3
ATOM      3  C   UNL     1     173.654 170.032 150.291  1.00  0.00     0.000 C 
BRANCH   3   4
ATOM      4  C   UNL     1     172.607 169.344 149.399  1.00  0.00     0.000 C 
BRANCH   4   5
ATOM      5  C   UNL     1     172.986 167.924 148.933  1.00  0.00     0.000 C 
BRANCH   5   6
ATOM      6  C   UNL     1     174.460 167.555 149.204  1.00  0.00     0.000 C 
BRANCH   6   7
ATOM      7  C   UNL     1     174.596 166.308 150.095  1.00  0.00     0.006 C 
BRANCH   7   8
ATOM      8  C   UNL     1     173.697 166.380 151.335  1.00  0.00     0.053 C 
BRANCH   8   9
ATOM      9  C   UNL     1     174.500 166.450 152.597  1.00  0.00     0.041 C 
ATOM     10  O   UNL     1     174.321 165.602 153.510  1.00  0.00    -0.550 OA
ATOM     11  O   UNL     1     175.426 167.470 152.777  1.00  0.00    -0.550 OA
ENDBRANCH   8   9
ENDBRANCH   7   8
ENDBRANCH   6   7
ENDBRANCH   5   6
ENDBRANCH   4   5
ENDBRANCH   3   4
ENDBRANCH   2   3
ENDBRANCH   1   2
BRANCH   1  12
ATOM     12  C   UNL     1     171.320 171.942 152.150  1.00  0.00     0.000 C 
BRANCH  12  13
ATOM     13  C   UNL     1     171.141 172.845 150.920  1.00  0.00    -0.000 C 
BRANCH  13  14
ATOM     14  C   UNL     1     172.207 173.951 150.892  1.00  0.00    -0.000 C 
BRANCH  14  15
ATOM     15  C   UNL     1     173.385 173.627 149.954  1.00  0.00    -0.000 C 
BRANCH  15  16
ATOM     16  C   UNL     1     174.769 173.630 150.629  1.00  0.00    -0.000 C 
BRANCH  16  17
ATOM     17  C   UNL     1     174.741 174.221 152.048  1.00  0.00    -0.000 C 
BRANCH  17  18
ATOM     18  C   UNL     1     175.357 173.280 153.099  1.00  0.00    -0.000 C 
BRANCH  18  19
ATOM     19  C   UNL     1     174.358 172.723 154.128  1.00  0.00    -0.003 C 
ATOM     20  C   UNL     1     173.316 173.751 154.569  1.00  0.00     0.004 C 
ENDBRANCH  18  19
ENDBRANCH  17  18
ENDBRANCH  16  17
ENDBRANCH  15  16
ENDBRANCH  14  15
ENDBRANCH  13  14
ENDBRANCH  12  13
ENDBRANCH   1  12
TORSDOF 16
ENDMDL
MODEL 3
REMARK VINA RESULT:    -3.880      2.145      3.909
REMARK INTER + INTRA:         -10.317
REMARK INTER:                  -7.542
REMARK INTRA:                  -2.776
REMARK UNBOUND:                -2.808
REMARK SMILES CCCCCCCCCCCCCCCCCC(=O)[O-]
REMARK SMILES IDX 10 1 11 2 12 3 13 4 14 5 15 6 16 7 17 8 18 9 19 10 20 11
REMARK SMILES IDX 9 12 8 13 7 14 6 15 5 16 4 17 3 18 2 19 1 20
REMARK H PARENT
REMARK Flexibility Score: inf
ROOT
ATOM      1  C   UNL     1     175.322 169.373 150.476  1.00  0.00     0.000 C 
ENDROOT
BRANCH   1   2
ATOM      2  C   UNL     1     175.473 168.722 149.092  1.00  0.00     0.000 C 
BRANCH   2   3
ATOM      3  C   UNL     1     174.701 167.397 149.024  1.00  0.00     0.000 C 
BRANCH   3   4
ATOM      4  C   UNL     1     173.206 167.593 148.717  1.00  0.00     0.000 C 
BRANCH   4   5
ATOM      5  C   UNL     1     172.246 167.001 149.768  1.00  0.00     0.000 C 
BRANCH   5   6
ATOM      6  C   UNL     1     171.967 167.947 150.956  1.00  0.00     0.000 C 
BRANCH   6   7
ATOM      7  C   UNL     1     172.659 167.481 152.249  1.00  0.00     0.006 C 
BRANCH   7   8
ATOM      8  C   UNL     1     173.206 166.053 152.131  1.00  0.00     0.053 C 
BRANCH   8   9
ATOM      9  C   UNL     1     174.675 165.999 152.418  1.00  0.00     0.041 C 
ATOM     10  O   UNL     1     175.246 166.967 152.985  1.00  0.00    -0.550 OA
ATOM     11  O   UNL     1     175.419 164.892 152.029  1.00  0.00    -0.550 OA
ENDBRANCH   8   9
ENDBRANCH   7   8
ENDBRANCH   6   7
ENDBRANCH   5   6
ENDBRANCH   4   5
ENDBRANCH   3   4
ENDBRANCH   2   3
ENDBRANCH   1   2
BRANCH   1  12
ATOM     12  C   UNL     1     175.028 170.879 150.394  1.00  0.00     0.000 C 
BRANCH  12  13
ATOM     13  C   UNL     1     173.547 171.179 150.115  1.00  0.00    -0.000 C 
BRANCH  13  14
ATOM     14  C   UNL     1     173.311 172.690 149.970  1.00  0.00    -0.000 C 
BRANCH  14  15
ATOM     15  C   UNL     1     174.488 173.535 150.492  1.00  0.00    -0.000 C 
BRANCH  15  16
ATOM     16  C   UNL     1     174.234 174.236 151.839  1.00  0.00    -0.000 C 
BRANCH  16  17
ATOM     17  C   UNL     1     175.331 173.951 152.877  1.00  0.00    -0.000 C 
BRANCH  17  18
ATOM     18  C   UNL     1     175.080 172.655 153.670  1.00  0.00    -0.000 C 
BRANCH  18  19
ATOM     19  C   UNL     1     173.602 172.370 153.985  1.00  0.00    -0.003 C 
ATOM     20  C   UNL     1     173.206 170.914 153.737  1.00  0.00     0.004 C 
ENDBRANCH  18  19
ENDBRANCH  17  18
ENDBRANCH  16  17
ENDBRANCH  15  16
ENDBRANCH  14  15
ENDBRANCH  13  14
ENDBRANCH  12  13
ENDBRANCH   1  12
TORSDOF 16
ENDMDL
MODEL 4
REMARK VINA RESULT:    -3.845      2.786      5.575
REMARK INTER + INTRA:         -10.250
REMARK INTER:                  -7.731
REMARK INTRA:                  -2.518
REMARK UNBOUND:                -2.808
REMARK SMILES CCCCCCCCCCCCCCCCCC(=O)[O-]
REMARK SMILES IDX 10 1 11 2 12 3 13 4 14 5 15 6 16 7 17 8 18 9 19 10 20 11
REMARK SMILES IDX 9 12 8 13 7 14 6 15 5 16 4 17 3 18 2 19 1 20
REMARK H PARENT
REMARK Flexibility Score: inf
ROOT
ATOM      1  C   UNL     1     174.825 173.326 154.115  1.00  0.00     0.000 C 
ENDROOT
BRANCH   1   2
ATOM      2  C   UNL     1     174.689 171.797 154.059  1.00  0.00     0.000 C 
BRANCH   2   3
ATOM      3  C   UNL     1     173.216 171.384 153.936  1.00  0.00     0.000 C 
BRANCH   3   4
ATOM      4  C   UNL     1     172.247 172.474 154.426  1.00  0.00     0.000 C 
BRANCH   4   5
ATOM      5  C   UNL     1     171.178 172.899 153.400  1.00  0.00     0.000 C 
BRANCH   5   6
ATOM      6  C   UNL     1     170.854 171.811 152.355  1.00  0.00     0.000 C 
BRANCH   6   7
ATOM      7  C   UNL     1     169.713 172.229 151.410  1.00  0.00     0.006 C 
BRANCH   7   8
ATOM      8  C   UNL     1     169.759 173.724 151.073  1.00  0.00     0.053 C 
BRANCH   8   9
ATOM      9  C   UNL     1     168.393 174.269 150.788  1.00  0.00     0.041 C 
ATOM     10  O   UNL     1     167.921 174.217 149.622  1.00  0.00    -0.550 OA
ATOM     11  O   UNL     1     167.655 174.861 151.804  1.00  0.00    -0.550 OA
ENDBRANCH   8   9
ENDBRANCH   7   8
ENDBRANCH   6   7
ENDBRANCH   5   6
ENDBRANCH   4   5
ENDBRANCH   3   4
ENDBRANCH   2   3
ENDBRANCH   1   2
BRANCH   1  12
ATOM     12  C   UNL     1     175.377 173.921 152.809  1.00  0.00     0.000 C 
BRANCH  12  13
ATOM     13  C   UNL     1     174.270 174.272 151.804  1.00  0.00    -0.000 C 
BRANCH  13  14
ATOM     14  C   UNL     1     174.539 173.617 150.441  1.00  0.00    -0.000 C 
BRANCH  14  15
ATOM     15  C   UNL     1     173.363 172.755 149.945  1.00  0.00    -0.000 C 
BRANCH  15  16
ATOM     16  C   UNL     1     173.563 171.236 150.102  1.00  0.00    -0.000 C 
BRANCH  16  17
ATOM     17  C   UNL     1     174.977 170.866 150.579  1.00  0.00    -0.000 C 
BRANCH  17  18
ATOM     18  C   UNL     1     175.522 169.596 149.902  1.00  0.00    -0.000 C 
BRANCH  18  19
ATOM     19  C   UNL     1     174.714 168.318 150.186  1.00  0.00    -0.003 C 
ATOM     20  C   UNL     1     174.516 167.446 148.946  1.00  0.00     0.004 C 
ENDBRANCH  18  19
ENDBRANCH  17  18
ENDBRANCH  16  17
ENDBRANCH  15  16
ENDBRANCH  14  15
ENDBRANCH  13  14
ENDBRANCH  12  13
ENDBRANCH   1  12
TORSDOF 16
ENDMDL
MODEL 5
REMARK VINA RESULT:    -3.835      2.000      2.480
REMARK INTER + INTRA:         -10.230
REMARK INTER:                  -7.506
REMARK INTRA:                  -2.724
REMARK UNBOUND:                -2.808
REMARK SMILES CCCCCCCCCCCCCCCCCC(=O)[O-]
REMARK SMILES IDX 10 1 11 2 12 3 13 4 14 5 15 6 16 7 17 8 18 9 19 10 20 11
REMARK SMILES IDX 9 12 8 13 7 14 6 15 5 16 4 17 3 18 2 19 1 20
REMARK H PARENT
REMARK Flexibility Score: inf
ROOT
ATOM      1  C   UNL     1     174.172 173.112 149.930  1.00  0.00     0.000 C 
ENDROOT
BRANCH   1   2
ATOM      2  C   UNL     1     174.040 171.590 150.084  1.00  0.00     0.000 C 
BRANCH   2   3
ATOM      3  C   UNL     1     175.410 170.944 150.334  1.00  0.00     0.000 C 
BRANCH   3   4
ATOM      4  C   UNL     1     175.355 169.407 150.327  1.00  0.00     0.000 C 
BRANCH   4   5
ATOM      5  C   UNL     1     173.958 168.810 150.065  1.00  0.00     0.000 C 
BRANCH   5   6
ATOM      6  C   UNL     1     173.994 167.408 149.421  1.00  0.00     0.000 C 
BRANCH   6   7
ATOM      7  C   UNL     1     173.444 166.320 150.360  1.00  0.00     0.006 C 
BRANCH   7   8
ATOM      8  C   UNL     1     174.560 165.593 151.121  1.00  0.00     0.053 C 
BRANCH   8   9
ATOM      9  C   UNL     1     174.617 166.016 152.556  1.00  0.00     0.041 C 
ATOM     10  O   UNL     1     175.333 166.992 152.902  1.00  0.00    -0.550 OA
ATOM     11  O   UNL     1     173.902 165.312 153.517  1.00  0.00    -0.550 OA
ENDBRANCH   8   9
ENDBRANCH   7   8
ENDBRANCH   6   7
ENDBRANCH   5   6
ENDBRANCH   4   5
ENDBRANCH   3   4
ENDBRANCH   2   3
ENDBRANCH   1   2
BRANCH   1  12
ATOM     12  C   UNL     1     173.080 173.883 150.688  1.00  0.00     0.000 C 
BRANCH  12  13
ATOM     13  C   UNL     1     173.445 174.137 152.158  1.00  0.00    -0.000 C 
BRANCH  13  14
ATOM     14  C   UNL     1     174.967 174.237 152.336  1.00  0.00    -0.000 C 
BRANCH  14  15
ATOM     15  C   UNL     1     175.503 173.326 153.456  1.00  0.00    -0.000 C 
BRANCH  15  16
ATOM     16  C   UNL     1     174.445 172.428 154.122  1.00  0.00    -0.000 C 
BRANCH  16  17
ATOM     17  C   UNL     1     174.600 170.945 153.749  1.00  0.00    -0.000 C 
BRANCH  17  18
ATOM     18  C   UNL     1     173.280 170.161 153.855  1.00  0.00    -0.000 C 
BRANCH  18  19
ATOM     19  C   UNL     1     172.023 170.966 153.483  1.00  0.00    -0.003 C 
ATOM     20  C   UNL     1     171.371 170.494 152.183  1.00  0.00     0.004 C 
ENDBRANCH  18  19
ENDBRANCH  17  18
ENDBRANCH  16  17
ENDBRANCH  15  16
ENDBRANCH  14  15
ENDBRANCH  13  14
ENDBRANCH  12  13
ENDBRANCH   1  12
TORSDOF 16
ENDMDL
MODEL 6
REMARK VINA RESULT:    -3.831      2.791      5.729
REMARK INTER + INTRA:         -10.221
REMARK INTER:                  -7.543
REMARK INTRA:                  -2.678
REMARK UNBOUND:                -2.808
REMARK SMILES CCCCCCCCCCCCCCCCCC(=O)[O-]
REMARK SMILES IDX 10 1 11 2 12 3 13 4 14 5 15 6 16 7 17 8 18 9 19 10 20 11
REMARK SMILES IDX 9 12 8 13 7 14 6 15 5 16 4 17 3 18 2 19 1 20
REMARK H PARENT
REMARK Flexibility Score: inf
ROOT
ATOM      1  C   UNL     1     173.145 171.246 150.142  1.00  0.00     0.000 C 
ENDROOT
BRANCH   1   2
ATOM      2  C   UNL     1     173.007 172.766 150.318  1.00  0.00     0.000 C 
BRANCH   2   3
ATOM      3  C   UNL     1     174.247 173.493 149.781  1.00  0.00     0.000 C 
BRANCH   3   4
ATOM      4  C   UNL     1     175.037 174.219 150.884  1.00  0.00     0.000 C 
BRANCH   4   5
ATOM      5  C   UNL     1     174.420 174.121 152.293  1.00  0.00     0.000 C 
BRANCH   5   6
ATOM      6  C   UNL     1     175.307 173.369 153.309  1.00  0.00     0.000 C 
BRANCH   6   7
ATOM      7  C   UNL     1     174.501 172.377 154.165  1.00  0.00     0.006 C 
BRANCH   7   8
ATOM      8  C   UNL     1     175.407 171.436 154.968  1.00  0.00     0.053 C 
BRANCH   8   9
ATOM      9  C   UNL     1     174.616 170.379 155.676  1.00  0.00     0.041 C 
ATOM     10  O   UNL     1     173.382 170.257 155.458  1.00  0.00    -0.550 OA
ATOM     11  O   UNL     1     175.237 169.550 156.602  1.00  0.00    -0.550 OA
ENDBRANCH   8   9
ENDBRANCH   7   8
ENDBRANCH   6   7
ENDBRANCH   5   6
ENDBRANCH   4   5
ENDBRANCH   3   4
ENDBRANCH   2   3
ENDBRANCH   1   2
BRANCH   1  12
ATOM     12  C   UNL     1     174.609 170.779 150.140  1.00  0.00     0.000 C 
BRANCH  12  13
ATOM     13  C   UNL     1     175.006 170.071 151.444  1.00  0.00    -0.000 C 
BRANCH  13  14
ATOM     14  C   UNL     1     173.799 169.356 152.070  1.00  0.00    -0.000 C 
BRANCH  14  15
ATOM     15  C   UNL     1     174.074 167.875 152.387  1.00  0.00    -0.000 C 
BRANCH  15  16
ATOM     16  C   UNL     1     172.926 166.913 152.028  1.00  0.00    -0.000 C 
BRANCH  16  17
ATOM     17  C   UNL     1     173.171 166.155 150.713  1.00  0.00    -0.000 C 
BRANCH  17  18
ATOM     18  C   UNL     1     174.493 166.552 150.031  1.00  0.00    -0.000 C 
BRANCH  18  19
ATOM     19  C   UNL     1     174.328 167.340 148.720  1.00  0.00    -0.003 C 
ATOM     20  C   UNL     1     172.871 167.667 148.396  1.00  0.00     0.004 C 
ENDBRANCH  18  19
ENDBRANCH  17  18
ENDBRANCH  16  17
ENDBRANCH  15  16
ENDBRANCH  14  15
ENDBRANCH  13  14
ENDBRANCH  12  13
ENDBRANCH   1  12
TORSDOF 16
ENDMDL
MODEL 7
REMARK VINA RESULT:    -3.826      1.922      3.045
REMARK INTER + INTRA:         -10.212
REMARK INTER:                  -7.288
REMARK INTRA:                  -2.925
REMARK UNBOUND:                -2.808
REMARK SMILES CCCCCCCCCCCCCCCCCC(=O)[O-]
REMARK SMILES IDX 10 1 11 2 12 3 13 4 14 5 15 6 16 7 17 8 18 9 19 10 20 11
REMARK SMILES IDX 9 12 8 13 7 14 6 15 5 16 4 17 3 18 2 19 1 20
REMARK H PARENT
REMARK Flexibility Score: inf
ROOT
ATOM      1  C   UNL     1     174.241 174.198 152.183  1.00  0.00     0.000 C 
ENDROOT
BRANCH   1   2
ATOM      2  C   UNL     1     174.540 174.021 150.686  1.00  0.00     0.000 C 
BRANCH   2   3
ATOM      3  C   UNL     1     173.430 173.214 149.999  1.00  0.00     0.000 C 
BRANCH   3   4
ATOM      4  C   UNL     1     173.652 171.695 150.093  1.00  0.00     0.000 C 
BRANCH   4   5
ATOM      5  C   UNL     1     175.130 171.254 150.084  1.00  0.00     0.000 C 
BRANCH   5   6
ATOM      6  C   UNL     1     175.332 169.754 150.390  1.00  0.00     0.000 C 
BRANCH   6   7
ATOM      7  C   UNL     1     174.036 168.944 150.216  1.00  0.00     0.006 C 
BRANCH   7   8
ATOM      8  C   UNL     1     173.620 168.232 151.509  1.00  0.00     0.053 C 
BRANCH   8   9
ATOM      9  C   UNL     1     174.660 167.253 151.960  1.00  0.00     0.041 C 
ATOM     10  O   UNL     1     175.347 167.486 152.989  1.00  0.00    -0.550 OA
ATOM     11  O   UNL     1     174.893 166.098 151.225  1.00  0.00    -0.550 OA
ENDBRANCH   8   9
ENDBRANCH   7   8
ENDBRANCH   6   7
ENDBRANCH   5   6
ENDBRANCH   4   5
ENDBRANCH   3   4
ENDBRANCH   2   3
ENDBRANCH   1   2
BRANCH   1  12
ATOM     12  C   UNL     1     175.379 173.689 153.080  1.00  0.00     0.000 C 
BRANCH  12  13
ATOM     13  C   UNL     1     174.876 172.802 154.230  1.00  0.00    -0.000 C 
BRANCH  13  14
ATOM     14  C   UNL     1     174.565 171.383 153.732  1.00  0.00    -0.000 C 
BRANCH  14  15
ATOM     15  C   UNL     1     173.060 171.057 153.745  1.00  0.00    -0.000 C 
BRANCH  15  16
ATOM     16  C   UNL     1     172.193 172.040 154.554  1.00  0.00    -0.000 C 
BRANCH  16  17
ATOM     17  C   UNL     1     171.243 172.865 153.670  1.00  0.00    -0.000 C 
BRANCH  17  18
ATOM     18  C   UNL     1     170.840 172.132 152.378  1.00  0.00    -0.000 C 
BRANCH  18  19
ATOM     19  C   UNL     1     169.607 172.714 151.666  1.00  0.00    -0.003 C 
ATOM     20  C   UNL     1     169.879 174.066 151.006  1.00  0.00     0.004 C 
ENDBRANCH  18  19
ENDBRANCH  17  18
ENDBRANCH  16  17
ENDBRANCH  15  16
ENDBRANCH  14  15
ENDBRANCH  13  14
ENDBRANCH  12  13
ENDBRANCH   1  12
TORSDOF 16
ENDMDL
MODEL 8
REMARK VINA RESULT:    -3.797      2.772      4.794
REMARK INTER + INTRA:         -10.157
REMARK INTER:                  -7.526
REMARK INTRA:                  -2.630
REMARK UNBOUND:                -2.808
REMARK SMILES CCCCCCCCCCCCCCCCCC(=O)[O-]
REMARK SMILES IDX 10 1 11 2 12 3 13 4 14 5 15 6 16 7 17 8 18 9 19 10 20 11
REMARK SMILES IDX 9 12 8 13 7 14 6 15 5 16 4 17 3 18 2 19 1 20
REMARK H PARENT
REMARK Flexibility Score: inf
ROOT
ATOM      1  C   UNL     1     174.997 173.215 152.434  1.00  0.00     0.000 C 
ENDROOT
BRANCH   1   2
ATOM      2  C   UNL     1     174.786 173.864 153.811  1.00  0.00     0.000 C 
BRANCH   2   3
ATOM      3  C   UNL     1     173.328 173.717 154.267  1.00  0.00     0.000 C 
BRANCH   3   4
ATOM      4  C   UNL     1     173.064 172.392 155.003  1.00  0.00     0.000 C 
BRANCH   4   5
ATOM      5  C   UNL     1     173.796 172.243 156.352  1.00  0.00     0.000 C 
BRANCH   5   6
ATOM      6  C   UNL     1     174.718 171.007 156.424  1.00  0.00     0.000 C 
BRANCH   6   7
ATOM      7  C   UNL     1     174.391 169.971 155.334  1.00  0.00     0.006 C 
BRANCH   7   8
ATOM      8  C   UNL     1     175.647 169.257 154.818  1.00  0.00     0.053 C 
BRANCH   8   9
ATOM      9  C   UNL     1     175.489 168.821 153.394  1.00  0.00     0.041 C 
ATOM     10  O   UNL     1     175.339 169.676 152.482  1.00  0.00    -0.550 OA
ATOM     11  O   UNL     1     175.476 167.468 153.079  1.00  0.00    -0.550 OA
ENDBRANCH   8   9
ENDBRANCH   7   8
ENDBRANCH   6   7
ENDBRANCH   5   6
ENDBRANCH   4   5
ENDBRANCH   3   4
ENDBRANCH   2   3
ENDBRANCH   1   2
BRANCH   1  12
ATOM     12  C   UNL     1     174.938 174.233 151.284  1.00  0.00     0.000 C 
BRANCH  12  13
ATOM     13  C   UNL     1     174.671 173.573 149.922  1.00  0.00    -0.000 C 
BRANCH  13  14
ATOM     14  C   UNL     1     174.342 172.082 150.090  1.00  0.00    -0.000 C 
BRANCH  14  15
ATOM     15  C   UNL     1     172.833 171.787 150.021  1.00  0.00    -0.000 C 
BRANCH  15  16
ATOM     16  C   UNL     1     172.285 170.938 151.182  1.00  0.00    -0.000 C 
BRANCH  16  17
ATOM     17  C   UNL     1     171.167 171.645 151.964  1.00  0.00    -0.000 C 
BRANCH  17  18
ATOM     18  C   UNL     1     170.463 172.740 151.142  1.00  0.00    -0.000 C 
BRANCH  18  19
ATOM     19  C   UNL     1     170.420 174.122 151.814  1.00  0.00    -0.003 C 
ATOM     20  C   UNL     1     171.452 175.097 151.247  1.00  0.00     0.004 C 
ENDBRANCH  18  19
ENDBRANCH  17  18
ENDBRANCH  16  17
ENDBRANCH  15  16
ENDBRANCH  14  15
ENDBRANCH  13  14
ENDBRANCH  12  13
ENDBRANCH   1  12
TORSDOF 16
ENDMDL
MODEL 9
REMARK VINA RESULT:    -3.766      1.526      3.316
REMARK INTER + INTRA:         -10.097
REMARK INTER:                  -6.936
REMARK INTRA:                  -3.161
REMARK UNBOUND:                -2.808
REMARK SMILES CCCCCCCCCCCCCCCCCC(=O)[O-]
REMARK SMILES IDX 10 1 11 2 12 3 13 4 14 5 15 6 16 7 17 8 18 9 19 10 20 11
REMARK SMILES IDX 9 12 8 13 7 14 6 15 5 16 4 17 3 18 2 19 1 20
REMARK H PARENT
REMARK Flexibility Score: inf
ROOT
ATOM      1  C   UNL     1     173.741 172.287 154.825  1.00  0.00     0.000 C 
ENDROOT
BRANCH   1   2
ATOM      2  C   UNL     1     174.522 171.125 154.192  1.00  0.00     0.000 C 
BRANCH   2   3
ATOM      3  C   UNL     1     173.594 169.939 153.897  1.00  0.00     0.000 C 
BRANCH   3   4
ATOM      4  C   UNL     1     173.825 169.334 152.501  1.00  0.00     0.000 C 
BRANCH   4   5
ATOM      5  C   UNL     1     174.917 170.032 151.666  1.00  0.00     0.000 C 
BRANCH   5   6
ATOM      6  C   UNL     1     174.943 169.589 150.187  1.00  0.00     0.000 C 
BRANCH   6   7
ATOM      7  C   UNL     1     173.776 168.649 149.838  1.00  0.00     0.006 C 
BRANCH   7   8
ATOM      8  C   UNL     1     174.260 167.256 149.418  1.00  0.00     0.053 C 
BRANCH   8   9
ATOM      9  C   UNL     1     174.051 166.248 150.506  1.00  0.00     0.041 C 
ATOM     10  O   UNL     1     172.975 165.598 150.572  1.00  0.00    -0.550 OA
ATOM     11  O   UNL     1     175.035 166.048 151.467  1.00  0.00    -0.550 OA
ENDBRANCH   8   9
ENDBRANCH   7   8
ENDBRANCH   6   7
ENDBRANCH   5   6
ENDBRANCH   4   5
ENDBRANCH   3   4
ENDBRANCH   2   3
ENDBRANCH   1   2
BRANCH   1  12
ATOM     12  C   UNL     1     174.277 173.663 154.400  1.00  0.00     0.000 C 
BRANCH  12  13
ATOM     13  C   UNL     1     175.185 173.590 153.163  1.00  0.00    -0.000 C 
BRANCH  13  14
ATOM     14  C   UNL     1     174.521 174.266 151.954  1.00  0.00    -0.000 C 
BRANCH  14  15
ATOM     15  C   UNL     1     174.851 173.571 150.620  1.00  0.00    -0.000 C 
BRANCH  15  16
ATOM     16  C   UNL     1     173.632 173.269 149.730  1.00  0.00    -0.000 C 
BRANCH  16  17
ATOM     17  C   UNL     1     172.305 173.291 150.505  1.00  0.00    -0.000 C 
BRANCH  17  18
ATOM     18  C   UNL     1     171.772 171.881 150.818  1.00  0.00    -0.000 C 
BRANCH  18  19
ATOM     19  C   UNL     1     170.968 171.772 152.125  1.00  0.00    -0.003 C 
ATOM     20  C   UNL     1     170.811 173.111 152.845  1.00  0.00     0.004 C 
ENDBRANCH  18  19
ENDBRANCH  17  18
ENDBRANCH  16  17
ENDBRANCH  15  16
ENDBRANCH  14  15
ENDBRANCH  13  14
ENDBRANCH  12  13
ENDBRANCH   1  12
TORSDOF 16
ENDMDL
