MODEL 1
REMARK VINA RESULT:    13.742      0.000      0.000
REMARK INTER + INTRA:          15.888
REMARK INTER:                  16.152
REMARK INTRA:                  -0.263
REMARK UNBOUND:                -0.263
REMARK SMILES O=c1cc(-c2ccc(O)c(O)c2)oc2cc(O)cc(O)c12
REMARK SMILES IDX 4 1 3 2 2 3 1 4 21 5 19 6 18 7 16 8 15 9 14 10 13 11 5 12
REMARK SMILES IDX 6 13 7 14 8 15 12 16 10 17 9 18 11 20 20 22 17 24
REMARK H PARENT 9 19 11 21 20 23 17 25
REMARK Flexibility Score: inf
ROOT
ATOM      1  C   UNL     1     -13.980  12.760   6.169  1.00  0.00     0.138 A 
ATOM      2  C   UNL     1     -13.724  13.971   6.827  1.00  0.00     0.100 A 
ATOM      3  C   UNL     1     -13.379  15.101   6.083  1.00  0.00     0.197 A 
ATOM      4  O   UNL     1     -13.094  16.157   6.705  1.00  0.00    -0.289 OA
ATOM      5  C   UNL     1     -13.320  15.023   4.671  1.00  0.00     0.107 A 
ATOM      6  C   UNL     1     -13.019  16.119   3.809  1.00  0.00     0.134 A 
ATOM      7  C   UNL     1     -12.876  15.896   2.434  1.00  0.00     0.093 A 
ATOM      8  C   UNL     1     -13.081  14.628   1.884  1.00  0.00     0.123 A 
ATOM      9  C   UNL     1     -13.428  13.563   2.712  1.00  0.00     0.094 A 
ATOM     10  C   UNL     1     -13.545  13.746   4.091  1.00  0.00     0.146 A 
ATOM     11  O   UNL     1     -13.864  12.700   4.846  1.00  0.00    -0.456 OA
ENDROOT
BRANCH   1  12
ATOM     12  C   UNL     1     -14.351  11.529   6.910  1.00  0.00     0.021 A 
ATOM     13  C   UNL     1     -13.397  10.511   7.084  1.00  0.00     0.016 A 
ATOM     14  C   UNL     1     -13.724   9.340   7.771  1.00  0.00     0.051 A 
ATOM     15  C   UNL     1     -15.010   9.159   8.289  1.00  0.00     0.157 A 
ATOM     16  C   UNL     1     -15.650  11.336   7.423  1.00  0.00     0.062 A 
ATOM     17  C   UNL     1     -15.979  10.159   8.111  1.00  0.00     0.158 A 
BRANCH  15  18
ATOM     18  O   UNL     1     -15.306   7.980   8.971  1.00  0.00    -0.504 OA
ATOM     19  H   UNL     1     -15.984   7.948   9.723  1.00  0.00     0.293 HD
ENDBRANCH  15  18
BRANCH  17  20
ATOM     20  O   UNL     1     -17.266   9.979   8.614  1.00  0.00    -0.504 OA
ATOM     21  H   UNL     1     -18.017   9.616   8.037  1.00  0.00     0.293 HD
ENDBRANCH  17  20
ENDBRANCH   1  12
BRANCH   6  22
ATOM     22  O   UNL     1     -12.878  17.440   4.244  1.00  0.00    -0.507 OA
ATOM     23  H   UNL     1     -13.247  17.804   5.110  1.00  0.00     0.293 HD
ENDBRANCH   6  22
BRANCH   8  24
ATOM     24  O   UNL     1     -12.951  14.418   0.513  1.00  0.00    -0.508 OA
ATOM     25  H   UNL     1     -12.467  15.082  -0.082  1.00  0.00     0.293 HD
ENDBRANCH   8  24
TORSDOF 5
ENDMDL
MODEL 2
REMARK VINA RESULT:    14.904      2.321      3.503
REMARK INTER + INTRA:          17.254
REMARK INTER:                  17.549
REMARK INTRA:                  -0.295
REMARK UNBOUND:                -0.263
REMARK SMILES O=c1cc(-c2ccc(O)c(O)c2)oc2cc(O)cc(O)c12
REMARK SMILES IDX 4 1 3 2 2 3 1 4 21 5 19 6 18 7 16 8 15 9 14 10 13 11 5 12
REMARK SMILES IDX 6 13 7 14 8 15 12 16 10 17 9 18 11 20 20 22 17 24
REMARK H PARENT 9 19 11 21 20 23 17 25
REMARK Flexibility Score: inf
ROOT
ATOM      1  C   UNL     1     -13.578  14.216   5.012  1.00  0.00     0.138 A 
ATOM      2  C   UNL     1     -13.362  15.508   4.514  1.00  0.00     0.100 A 
ATOM      3  C   UNL     1     -13.128  15.693   3.150  1.00  0.00     0.197 A 
ATOM      4  O   UNL     1     -12.876  16.856   2.743  1.00  0.00    -0.289 OA
ATOM      5  C   UNL     1     -13.143  14.579   2.278  1.00  0.00     0.107 A 
ATOM      6  C   UNL     1     -12.958  14.652   0.865  1.00  0.00     0.134 A 
ATOM      7  C   UNL     1     -12.878  13.469   0.118  1.00  0.00     0.093 A 
ATOM      8  C   UNL     1     -13.034  12.221   0.725  1.00  0.00     0.123 A 
ATOM      9  C   UNL     1     -13.269  12.142   2.096  1.00  0.00     0.094 A 
ATOM     10  C   UNL     1     -13.321  13.302   2.873  1.00  0.00     0.146 A 
ATOM     11  O   UNL     1     -13.532  13.181   4.179  1.00  0.00    -0.456 OA
ENDROOT
BRANCH   1  12
ATOM     12  C   UNL     1     -13.831  13.964   6.453  1.00  0.00     0.021 A 
ATOM     13  C   UNL     1     -13.759  12.650   6.949  1.00  0.00     0.016 A 
ATOM     14  C   UNL     1     -14.001  12.385   8.298  1.00  0.00     0.051 A 
ATOM     15  C   UNL     1     -14.327  13.424   9.176  1.00  0.00     0.157 A 
ATOM     16  C   UNL     1     -14.173  15.005   7.339  1.00  0.00     0.062 A 
ATOM     17  C   UNL     1     -14.418  14.739   8.694  1.00  0.00     0.158 A 
BRANCH  15  18
ATOM     18  O   UNL     1     -14.562  13.128  10.518  1.00  0.00    -0.504 OA
ATOM     19  H   UNL     1     -14.210  12.284  10.953  1.00  0.00     0.293 HD
ENDBRANCH  15  18
BRANCH  17  20
ATOM     20  O   UNL     1     -14.755  15.777   9.561  1.00  0.00    -0.504 OA
ATOM     21  H   UNL     1     -14.222  15.960  10.404  1.00  0.00     0.293 HD
ENDBRANCH  17  20
ENDBRANCH   1  12
BRANCH   6  22
ATOM     22  O   UNL     1     -12.876  15.849   0.148  1.00  0.00    -0.507 OA
ATOM     23  H   UNL     1     -12.017  16.327  -0.078  1.00  0.00     0.293 HD
ENDBRANCH   6  22
BRANCH   8  24
ATOM     24  O   UNL     1     -12.967  11.051  -0.028  1.00  0.00    -0.508 OA
ATOM     25  H   UNL     1     -13.080  11.062  -1.036  1.00  0.00     0.293 HD
ENDBRANCH   8  24
TORSDOF 5
ENDMDL
MODEL 3
REMARK VINA RESULT:    15.577      2.322      6.673
REMARK INTER + INTRA:          18.046
REMARK INTER:                  18.342
REMARK INTRA:                  -0.296
REMARK UNBOUND:                -0.263
REMARK SMILES O=c1cc(-c2ccc(O)c(O)c2)oc2cc(O)cc(O)c12
REMARK SMILES IDX 4 1 3 2 2 3 1 4 21 5 19 6 18 7 16 8 15 9 14 10 13 11 5 12
REMARK SMILES IDX 6 13 7 14 8 15 12 16 10 17 9 18 11 20 20 22 17 24
REMARK H PARENT 9 19 11 21 20 23 17 25
REMARK Flexibility Score: inf
ROOT
ATOM      1  C   UNL     1     -13.754  14.113   5.497  1.00  0.00     0.138 A 
ATOM      2  C   UNL     1     -13.864  12.900   6.189  1.00  0.00     0.100 A 
ATOM      3  C   UNL     1     -14.091  12.909   7.567  1.00  0.00     0.197 A 
ATOM      4  O   UNL     1     -14.122  11.806   8.171  1.00  0.00    -0.289 OA
ATOM      5  C   UNL     1     -14.238  14.141   8.247  1.00  0.00     0.107 A 
ATOM      6  C   UNL     1     -14.512  14.271   9.641  1.00  0.00     0.134 A 
ATOM      7  C   UNL     1     -14.522  15.544  10.226  1.00  0.00     0.093 A 
ATOM      8  C   UNL     1     -14.326  16.693   9.455  1.00  0.00     0.123 A 
ATOM      9  C   UNL     1     -14.112  16.579   8.084  1.00  0.00     0.094 A 
ATOM     10  C   UNL     1     -14.063  15.322   7.477  1.00  0.00     0.146 A 
ATOM     11  O   UNL     1     -13.841  15.257   6.169  1.00  0.00    -0.456 OA
ENDROOT
BRANCH   1  12
ATOM     12  C   UNL     1     -13.514  14.161   4.033  1.00  0.00     0.021 A 
ATOM     13  C   UNL     1     -13.528  15.401   3.369  1.00  0.00     0.016 A 
ATOM     14  C   UNL     1     -13.313  15.472   1.991  1.00  0.00     0.051 A 
ATOM     15  C   UNL     1     -13.090  14.308   1.249  1.00  0.00     0.157 A 
ATOM     16  C   UNL     1     -13.302  12.990   3.278  1.00  0.00     0.062 A 
ATOM     17  C   UNL     1     -13.088  13.061   1.893  1.00  0.00     0.158 A 
BRANCH  15  18
ATOM     18  O   UNL     1     -12.877  14.411  -0.125  1.00  0.00    -0.504 OA
ATOM     19  H   UNL     1     -12.719  13.598  -0.708  1.00  0.00     0.293 HD
ENDBRANCH  15  18
BRANCH  17  20
ATOM     20  O   UNL     1     -12.878  11.896   1.157  1.00  0.00    -0.504 OA
ATOM     21  H   UNL     1     -12.498  11.922   0.217  1.00  0.00     0.293 HD
ENDBRANCH  17  20
ENDBRANCH   1  12
BRANCH   6  22
ATOM     22  O   UNL     1     -14.804  13.195  10.484  1.00  0.00    -0.507 OA
ATOM     23  H   UNL     1     -15.695  12.726  10.531  1.00  0.00     0.293 HD
ENDBRANCH   6  22
BRANCH   8  24
ATOM     24  O   UNL     1     -14.353  17.956  10.044  1.00  0.00    -0.508 OA
ATOM     25  H   UNL     1     -14.050  18.102  11.001  1.00  0.00     0.293 HD
ENDBRANCH   8  24
TORSDOF 5
ENDMDL
MODEL 4
REMARK VINA RESULT:    16.151      2.730      5.081
REMARK INTER + INTRA:          18.720
REMARK INTER:                  18.995
REMARK INTRA:                  -0.275
REMARK UNBOUND:                -0.263
REMARK SMILES O=c1cc(-c2ccc(O)c(O)c2)oc2cc(O)cc(O)c12
REMARK SMILES IDX 4 1 3 2 2 3 1 4 21 5 19 6 18 7 16 8 15 9 14 10 13 11 5 12
REMARK SMILES IDX 6 13 7 14 8 15 12 16 10 17 9 18 11 20 20 22 17 24
REMARK H PARENT 9 19 11 21 20 23 17 25
REMARK Flexibility Score: inf
ROOT
ATOM      1  C   UNL     1     -13.608  14.846   6.153  1.00  0.00     0.138 A 
ATOM      2  C   UNL     1     -13.607  13.454   6.321  1.00  0.00     0.100 A 
ATOM      3  C   UNL     1     -13.453  12.625   5.209  1.00  0.00     0.197 A 
ATOM      4  O   UNL     1     -13.519  11.381   5.382  1.00  0.00    -0.289 OA
ATOM      5  C   UNL     1     -13.268  13.195   3.927  1.00  0.00     0.107 A 
ATOM      6  C   UNL     1     -13.060  12.449   2.728  1.00  0.00     0.134 A 
ATOM      7  C   UNL     1     -13.004  13.119   1.500  1.00  0.00     0.093 A 
ATOM      8  C   UNL     1     -13.090  14.512   1.434  1.00  0.00     0.123 A 
ATOM      9  C   UNL     1     -13.239  15.253   2.604  1.00  0.00     0.094 A 
ATOM     10  C   UNL     1     -13.332  14.611   3.841  1.00  0.00     0.146 A 
ATOM     11  O   UNL     1     -13.488  15.355   4.931  1.00  0.00    -0.456 OA
ENDROOT
BRANCH   1  12
ATOM     12  C   UNL     1     -13.768  15.774   7.301  1.00  0.00     0.021 A 
ATOM     13  C   UNL     1     -12.877  16.851   7.450  1.00  0.00     0.016 A 
ATOM     14  C   UNL     1     -13.000  17.733   8.526  1.00  0.00     0.051 A 
ATOM     15  C   UNL     1     -14.009  17.552   9.477  1.00  0.00     0.157 A 
ATOM     16  C   UNL     1     -14.774  15.587   8.270  1.00  0.00     0.062 A 
ATOM     17  C   UNL     1     -14.897  16.472   9.351  1.00  0.00     0.158 A 
BRANCH  15  18
ATOM     18  O   UNL     1     -14.108  18.449  10.539  1.00  0.00    -0.504 OA
ATOM     19  H   UNL     1     -13.357  18.579  11.206  1.00  0.00     0.293 HD
ENDBRANCH  15  18
BRANCH  17  20
ATOM     20  O   UNL     1     -15.897  16.279  10.303  1.00  0.00    -0.504 OA
ATOM     21  H   UNL     1     -16.653  16.945  10.424  1.00  0.00     0.293 HD
ENDBRANCH  17  20
ENDBRANCH   1  12
BRANCH   6  22
ATOM     22  O   UNL     1     -12.878  11.064   2.692  1.00  0.00    -0.507 OA
ATOM     23  H   UNL     1     -13.278  10.412   3.349  1.00  0.00     0.293 HD
ENDBRANCH   6  22
BRANCH   8  24
ATOM     24  O   UNL     1     -13.019  15.171   0.208  1.00  0.00    -0.508 OA
ATOM     25  H   UNL     1     -12.308  14.941  -0.477  1.00  0.00     0.293 HD
ENDBRANCH   8  24
TORSDOF 5
ENDMDL
MODEL 5
REMARK VINA RESULT:    16.161      1.590      6.752
REMARK INTER + INTRA:          18.732
REMARK INTER:                  19.044
REMARK INTRA:                  -0.312
REMARK UNBOUND:                -0.263
REMARK SMILES O=c1cc(-c2ccc(O)c(O)c2)oc2cc(O)cc(O)c12
REMARK SMILES IDX 4 1 3 2 2 3 1 4 21 5 19 6 18 7 16 8 15 9 14 10 13 11 5 12
REMARK SMILES IDX 6 13 7 14 8 15 12 16 10 17 9 18 11 20 20 22 17 24
REMARK H PARENT 9 19 11 21 20 23 17 25
REMARK Flexibility Score: inf
ROOT
ATOM      1  C   UNL     1     -13.913  14.108   5.228  1.00  0.00     0.138 A 
ATOM      2  C   UNL     1     -14.078  15.004   6.292  1.00  0.00     0.100 A 
ATOM      3  C   UNL     1     -14.328  14.514   7.575  1.00  0.00     0.197 A 
ATOM      4  O   UNL     1     -14.533  15.344   8.498  1.00  0.00    -0.289 OA
ATOM      5  C   UNL     1     -14.381  13.118   7.796  1.00  0.00     0.107 A 
ATOM      6  C   UNL     1     -14.588  12.504   9.068  1.00  0.00     0.134 A 
ATOM      7  C   UNL     1     -14.737  11.113   9.146  1.00  0.00     0.093 A 
ATOM      8  C   UNL     1     -14.628  10.311   8.007  1.00  0.00     0.123 A 
ATOM      9  C   UNL     1     -14.372  10.897   6.770  1.00  0.00     0.094 A 
ATOM     10  C   UNL     1     -14.252  12.284   6.654  1.00  0.00     0.146 A 
ATOM     11  O   UNL     1     -14.023  12.802   5.452  1.00  0.00    -0.456 OA
ENDROOT
BRANCH   1  12
ATOM     12  C   UNL     1     -13.646  14.575   3.844  1.00  0.00     0.021 A 
ATOM     13  C   UNL     1     -13.145  15.872   3.636  1.00  0.00     0.016 A 
ATOM     14  C   UNL     1     -12.893  16.338   2.344  1.00  0.00     0.051 A 
ATOM     15  C   UNL     1     -13.142  15.523   1.236  1.00  0.00     0.157 A 
ATOM     16  C   UNL     1     -13.908  13.761   2.723  1.00  0.00     0.062 A 
ATOM     17  C   UNL     1     -13.656  14.230   1.426  1.00  0.00     0.158 A 
BRANCH  15  18
ATOM     18  O   UNL     1     -12.879  16.016  -0.040  1.00  0.00    -0.504 OA
ATOM     19  H   UNL     1     -13.463  15.788  -0.837  1.00  0.00     0.293 HD
ENDBRANCH  15  18
BRANCH  17  20
ATOM     20  O   UNL     1     -13.919  13.417   0.324  1.00  0.00    -0.504 OA
ATOM     21  H   UNL     1     -14.857  13.095   0.113  1.00  0.00     0.293 HD
ENDBRANCH  17  20
ENDBRANCH   1  12
BRANCH   6  22
ATOM     22  O   UNL     1     -14.628  13.205  10.277  1.00  0.00    -0.507 OA
ATOM     23  H   UNL     1     -14.584  12.780  11.190  1.00  0.00     0.293 HD
ENDBRANCH   6  22
BRANCH   8  24
ATOM     24  O   UNL     1     -14.764   8.927   8.097  1.00  0.00    -0.508 OA
ATOM     25  H   UNL     1     -15.387   8.498   8.773  1.00  0.00     0.293 HD
ENDBRANCH   8  24
TORSDOF 5
ENDMDL
