MODEL 1
REMARK VINA RESULT:     5.147      0.000      0.000
REMARK INTER + INTRA:          10.297
REMARK INTER:                   8.456
REMARK INTRA:                   1.840
REMARK UNBOUND:                 1.840
REMARK SMILES C[C@H]1O[C@H](OC[C@@H]2O[C@@H](Oc3c(-c4ccc(O)c(O)c4)oc4cc(O)cc(O)c4c3=O)[C@@H](O)[C@@H](O)[C@@H]2O)[C@H](O)[C@@H](O)[C@H]1O
REMARK SMILES IDX 7 1 36 2 34 3 32 4 9 5 8 6 6 7 5 8 4 9 1 10 2 11 42 12 3 13
REMARK SMILES IDX 40 14 38 15 43 16 41 18 39 20 37 22 35 24 10 26 11 27 12 28
REMARK SMILES IDX 30 29 21 30 29 31 31 32 22 33 27 34 23 35 26 36 24 37 13 38
REMARK SMILES IDX 20 39 14 40 18 41 15 42 16 43 19 44 17 46 28 48 25 50 33 52
REMARK H PARENT 43 17 41 19 39 21 37 23 35 25 19 45 17 47 28 49 25 51 33 53
REMARK Flexibility Score: inf
ROOT
ATOM      1  C   UNL     1       7.807   1.314  19.690  1.00  0.00     0.180 C 
ATOM      2  C   UNL     1       6.276   1.243  19.468  1.00  0.00     0.177 C 
ATOM      3  C   UNL     1       5.889  -0.178  19.025  1.00  0.00     0.180 C 
ATOM      4  C   UNL     1       6.759  -0.614  17.832  1.00  0.00     0.214 C 
ATOM      5  C   UNL     1       8.257  -0.373  18.118  1.00  0.00     0.339 C 
ATOM      6  O   UNL     1       8.501   0.972  18.501  1.00  0.00    -0.332 OA
ENDROOT
BRANCH   1   7
ATOM      7  C   UNL     1       8.255   2.716  20.122  1.00  0.00     0.198 C 
BRANCH   7   8
ATOM      8  O   UNL     1       8.530   3.510  18.986  1.00  0.00    -0.347 OA
BRANCH   8   9
ATOM      9  C   UNL     1       7.331   4.082  18.483  1.00  0.00     0.281 C 
ATOM     10  C   UNL     1       7.535   7.378  20.123  1.00  0.00     0.041 C 
ATOM     11  C   UNL     1       7.929   6.251  19.166  1.00  0.00     0.150 C 
ATOM     12  C   UNL     1       8.068   6.771  17.720  1.00  0.00     0.174 C 
ATOM     13  O   UNL     1       6.951   5.223  19.244  1.00  0.00    -0.344 OA
ATOM     14  C   UNL     1       8.469   5.599  16.803  1.00  0.00     0.179 C 
ATOM     15  C   UNL     1       7.487   4.432  16.986  1.00  0.00     0.202 C 
BRANCH  12  16
ATOM     16  O   UNL     1       6.850   7.332  17.294  1.00  0.00    -0.388 OA
ATOM     17  H   UNL     1       7.071   8.128  16.744  1.00  0.00     0.211 HD
ENDBRANCH  12  16
BRANCH  14  18
ATOM     18  O   UNL     1       8.471   6.003  15.457  1.00  0.00    -0.387 OA
ATOM     19  H   UNL     1       8.977   5.312  14.953  1.00  0.00     0.211 HD
ENDBRANCH  14  18
BRANCH  15  20
ATOM     20  O   UNL     1       7.948   3.315  16.268  1.00  0.00    -0.385 OA
ATOM     21  H   UNL     1       8.002   3.591  15.316  1.00  0.00     0.211 HD
ENDBRANCH  15  20
ENDBRANCH   8   9
ENDBRANCH   7   8
ENDBRANCH   1   7
BRANCH   2  22
ATOM     22  O   UNL     1       5.880   2.154  18.471  1.00  0.00    -0.387 OA
ATOM     23  H   UNL     1       6.471   2.010  17.689  1.00  0.00     0.211 HD
ENDBRANCH   2  22
BRANCH   3  24
ATOM     24  O   UNL     1       6.050  -1.081  20.090  1.00  0.00    -0.387 OA
ATOM     25  H   UNL     1       5.883  -0.572  20.927  1.00  0.00     0.211 HD
ENDBRANCH   3  24
BRANCH   5  26
ATOM     26  O   UNL     1       8.734  -1.300  19.100  1.00  0.00    -0.454 OA
BRANCH  26  27
ATOM     27  C   UNL     1      10.088  -1.578  19.343  1.00  0.00     0.214 A 
ATOM     28  C   UNL     1      10.474  -2.895  19.656  1.00  0.00     0.180 A 
ATOM     29  C   UNL     1      11.082  -0.583  19.269  1.00  0.00     0.239 A 
ATOM     30  O   UNL     1      11.759  -3.187  19.839  1.00  0.00    -0.452 OA
ATOM     31  C   UNL     1      12.434  -0.931  19.481  1.00  0.00     0.111 A 
ATOM     32  O   UNL     1      10.758   0.610  19.030  1.00  0.00    -0.285 OA
ATOM     33  C   UNL     1      12.730  -2.285  19.767  1.00  0.00     0.146 A 
ATOM     34  C   UNL     1      13.494   0.007  19.422  1.00  0.00     0.134 A 
ATOM     35  C   UNL     1      14.051  -2.690  19.979  1.00  0.00     0.094 A 
ATOM     36  C   UNL     1      14.812  -0.419  19.639  1.00  0.00     0.093 A 
ATOM     37  C   UNL     1      15.093  -1.763  19.915  1.00  0.00     0.123 A 
BRANCH  28  38
ATOM     38  C   UNL     1       9.489  -3.994  19.740  1.00  0.00     0.025 A 
ATOM     39  C   UNL     1       9.942  -5.320  19.831  1.00  0.00     0.062 A 
ATOM     40  C   UNL     1       8.109  -3.737  19.758  1.00  0.00     0.016 A 
ATOM     41  C   UNL     1       9.027  -6.381  19.905  1.00  0.00     0.158 A 
ATOM     42  C   UNL     1       7.196  -4.792  19.838  1.00  0.00     0.051 A 
ATOM     43  C   UNL     1       7.649  -6.115  19.909  1.00  0.00     0.157 A 
BRANCH  41  44
ATOM     44  O   UNL     1       9.487  -7.696  19.972  1.00  0.00    -0.504 OA
ATOM     45  H   UNL     1      10.186  -7.979  20.650  1.00  0.00     0.293 HD
ENDBRANCH  41  44
BRANCH  43  46
ATOM     46  O   UNL     1       6.714  -7.149  19.984  1.00  0.00    -0.504 OA
ATOM     47  H   UNL     1       6.159  -7.314  20.815  1.00  0.00     0.293 HD
ENDBRANCH  43  46
ENDBRANCH  28  38
BRANCH  34  48
ATOM     48  O   UNL     1      13.248   1.353  19.148  1.00  0.00    -0.507 OA
ATOM     49  H   UNL     1      13.602   2.092  19.746  1.00  0.00     0.293 HD
ENDBRANCH  34  48
BRANCH  37  50
ATOM     50  O   UNL     1      16.402  -2.186  20.125  1.00  0.00    -0.508 OA
ATOM     51  H   UNL     1      16.649  -2.775  20.909  1.00  0.00     0.293 HD
ENDBRANCH  37  50
ENDBRANCH  26  27
ENDBRANCH   5  26
BRANCH   4  52
ATOM     52  O   UNL     1       6.527  -1.971  17.549  1.00  0.00    -0.384 OA
ATOM     53  H   UNL     1       6.753  -2.479  18.373  1.00  0.00     0.211 HD
ENDBRANCH   4  52
TORSDOF 16
ENDMDL
