MODEL 1
REMARK VINA RESULT:    -3.765      0.000      0.000
REMARK INTER + INTRA:         -16.597
REMARK INTER:                  -9.927
REMARK INTRA:                  -6.670
REMARK UNBOUND:                -6.670
REMARK SMILES CCCCCCCCCCCCCCCCCCCCCCCCCCCCCC(=O)[O-]
REMARK SMILES IDX 16 1 17 2 18 3 19 4 20 5 21 6 22 7 23 8 24 9 25 10 26 11
REMARK SMILES IDX 27 12 28 13 29 14 30 15 31 16 32 17 15 18 14 19 13 20 12 21
REMARK SMILES IDX 11 22 10 23 9 24 8 25 7 26 6 27 5 28 4 29 3 30 2 31 1 32
REMARK H PARENT
REMARK Flexibility Score: inf
ROOT
ATOM      1  C   UNL     1      -2.678 -32.109 -27.335  1.00  0.00     0.000 C 
ENDROOT
BRANCH   1   2
ATOM      2  C   UNL     1      -3.851 -33.089 -27.471  1.00  0.00     0.000 C 
BRANCH   2   3
ATOM      3  C   UNL     1      -3.609 -34.175 -28.537  1.00  0.00     0.000 C 
BRANCH   3   4
ATOM      4  C   UNL     1      -4.345 -33.958 -29.873  1.00  0.00     0.000 C 
BRANCH   4   5
ATOM      5  C   UNL     1      -5.396 -32.831 -29.881  1.00  0.00     0.000 C 
BRANCH   5   6
ATOM      6  C   UNL     1      -6.392 -32.901 -31.058  1.00  0.00     0.000 C 
BRANCH   6   7
ATOM      7  C   UNL     1      -6.138 -31.819 -32.123  1.00  0.00     0.000 C 
BRANCH   7   8
ATOM      8  C   UNL     1      -6.566 -32.268 -33.532  1.00  0.00     0.000 C 
BRANCH   8   9
ATOM      9  C   UNL     1      -5.427 -32.894 -34.360  1.00  0.00     0.000 C 
BRANCH   9  10
ATOM     10  C   UNL     1      -4.051 -32.302 -34.004  1.00  0.00     0.000 C 
BRANCH  10  11
ATOM     11  C   UNL     1      -3.061 -33.367 -33.502  1.00  0.00     0.000 C 
BRANCH  11  12
ATOM     12  C   UNL     1      -3.669 -34.781 -33.495  1.00  0.00     0.000 C 
BRANCH  12  13
ATOM     13  C   UNL     1      -2.675 -35.846 -33.005  1.00  0.00     0.006 C 
BRANCH  13  14
ATOM     14  C   UNL     1      -3.306 -36.834 -32.014  1.00  0.00     0.053 C 
BRANCH  14  15
ATOM     15  C   UNL     1      -2.310 -37.233 -30.970  1.00  0.00     0.041 C 
ATOM     16  O   UNL     1      -1.111 -37.452 -31.288  1.00  0.00    -0.550 OA
ATOM     17  O   UNL     1      -2.717 -37.414 -29.654  1.00  0.00    -0.550 OA
ENDBRANCH  14  15
ENDBRANCH  13  14
ENDBRANCH  12  13
ENDBRANCH  11  12
ENDBRANCH  10  11
ENDBRANCH   9  10
ENDBRANCH   8   9
ENDBRANCH   7   8
ENDBRANCH   6   7
ENDBRANCH   5   6
ENDBRANCH   4   5
ENDBRANCH   3   4
ENDBRANCH   2   3
ENDBRANCH   1   2
BRANCH   1  18
ATOM     18  C   UNL     1      -3.187 -30.663 -27.221  1.00  0.00     0.000 C 
BRANCH  18  19
ATOM     19  C   UNL     1      -3.073 -29.882 -28.539  1.00  0.00     0.000 C 
BRANCH  19  20
ATOM     20  C   UNL     1      -2.268 -30.641 -29.610  1.00  0.00     0.000 C 
BRANCH  20  21
ATOM     21  C   UNL     1      -2.858 -30.483 -31.022  1.00  0.00     0.000 C 
BRANCH  21  22
ATOM     22  C   UNL     1      -3.084 -29.025 -31.472  1.00  0.00     0.000 C 
BRANCH  22  23
ATOM     23  C   UNL     1      -3.462 -28.884 -32.963  1.00  0.00     0.000 C 
BRANCH  23  24
ATOM     24  C   UNL     1      -2.310 -28.362 -33.841  1.00  0.00    -0.000 C 
BRANCH  24  25
ATOM     25  C   UNL     1      -1.669 -29.478 -34.684  1.00  0.00    -0.000 C 
BRANCH  25  26
ATOM     26  C   UNL     1      -0.190 -29.703 -34.332  1.00  0.00    -0.000 C 
BRANCH  26  27
ATOM     27  C   UNL     1       0.047 -31.040 -33.612  1.00  0.00    -0.000 C 
BRANCH  27  28
ATOM     28  C   UNL     1       0.468 -30.815 -32.155  1.00  0.00    -0.000 C 
BRANCH  28  29
ATOM     29  C   UNL     1       1.067 -32.094 -31.549  1.00  0.00    -0.000 C 
BRANCH  29  30
ATOM     30  C   UNL     1       0.206 -33.340 -31.848  1.00  0.00    -0.000 C 
BRANCH  30  31
ATOM     31  C   UNL     1      -0.648 -33.798 -30.653  1.00  0.00    -0.003 C 
ATOM     32  C   UNL     1       0.049 -33.604 -29.309  1.00  0.00     0.004 C 
ENDBRANCH  30  31
ENDBRANCH  29  30
ENDBRANCH  28  29
ENDBRANCH  27  28
ENDBRANCH  26  27
ENDBRANCH  25  26
ENDBRANCH  24  25
ENDBRANCH  23  24
ENDBRANCH  22  23
ENDBRANCH  21  22
ENDBRANCH  20  21
ENDBRANCH  19  20
ENDBRANCH  18  19
ENDBRANCH   1  18
TORSDOF 28
ENDMDL
MODEL 2
REMARK VINA RESULT:    -3.643      1.545      4.256
REMARK INTER + INTRA:         -16.276
REMARK INTER:                 -10.024
REMARK INTRA:                  -6.252
REMARK UNBOUND:                -6.670
REMARK SMILES CCCCCCCCCCCCCCCCCCCCCCCCCCCCCC(=O)[O-]
REMARK SMILES IDX 16 1 17 2 18 3 19 4 20 5 21 6 22 7 23 8 24 9 25 10 26 11
REMARK SMILES IDX 27 12 28 13 29 14 30 15 31 16 32 17 15 18 14 19 13 20 12 21
REMARK SMILES IDX 11 22 10 23 9 24 8 25 7 26 6 27 5 28 4 29 3 30 2 31 1 32
REMARK H PARENT
REMARK Flexibility Score: inf
ROOT
ATOM      1  C   UNL     1      -2.620 -32.514 -27.785  1.00  0.00     0.000 C 
ENDROOT
BRANCH   1   2
ATOM      2  C   UNL     1      -2.673 -31.226 -26.950  1.00  0.00     0.000 C 
BRANCH   2   3
ATOM      3  C   UNL     1      -3.041 -29.983 -27.782  1.00  0.00     0.000 C 
BRANCH   3   4
ATOM      4  C   UNL     1      -2.559 -30.006 -29.245  1.00  0.00     0.000 C 
BRANCH   4   5
ATOM      5  C   UNL     1      -3.670 -30.017 -30.314  1.00  0.00     0.000 C 
BRANCH   5   6
ATOM      6  C   UNL     1      -3.463 -31.060 -31.432  1.00  0.00     0.000 C 
BRANCH   6   7
ATOM      7  C   UNL     1      -2.073 -31.720 -31.386  1.00  0.00     0.000 C 
BRANCH   7   8
ATOM      8  C   UNL     1      -1.370 -31.707 -32.756  1.00  0.00     0.000 C 
BRANCH   8   9
ATOM      9  C   UNL     1      -1.335 -33.082 -33.451  1.00  0.00     0.000 C 
BRANCH   9  10
ATOM     10  C   UNL     1      -2.639 -33.389 -34.209  1.00  0.00     0.000 C 
BRANCH  10  11
ATOM     11  C   UNL     1      -3.532 -34.396 -33.464  1.00  0.00     0.000 C 
BRANCH  11  12
ATOM     12  C   UNL     1      -2.720 -35.394 -32.620  1.00  0.00     0.000 C 
BRANCH  12  13
ATOM     13  C   UNL     1      -3.104 -35.357 -31.132  1.00  0.00     0.006 C 
BRANCH  13  14
ATOM     14  C   UNL     1      -3.120 -36.749 -30.488  1.00  0.00     0.053 C 
BRANCH  14  15
ATOM     15  C   UNL     1      -2.102 -36.830 -29.394  1.00  0.00     0.041 C 
ATOM     16  O   UNL     1      -0.899 -37.083 -29.665  1.00  0.00    -0.550 OA
ATOM     17  O   UNL     1      -2.492 -36.677 -28.069  1.00  0.00    -0.550 OA
ENDBRANCH  14  15
ENDBRANCH  13  14
ENDBRANCH  12  13
ENDBRANCH  11  12
ENDBRANCH  10  11
ENDBRANCH   9  10
ENDBRANCH   8   9
ENDBRANCH   7   8
ENDBRANCH   6   7
ENDBRANCH   5   6
ENDBRANCH   4   5
ENDBRANCH   3   4
ENDBRANCH   2   3
ENDBRANCH   1   2
BRANCH   1  18
ATOM     18  C   UNL     1      -3.866 -33.377 -27.533  1.00  0.00     0.000 C 
BRANCH  18  19
ATOM     19  C   UNL     1      -4.883 -33.311 -28.683  1.00  0.00     0.000 C 
BRANCH  19  20
ATOM     20  C   UNL     1      -6.018 -32.307 -28.414  1.00  0.00     0.000 C 
BRANCH  20  21
ATOM     21  C   UNL     1      -7.101 -32.326 -29.507  1.00  0.00     0.000 C 
BRANCH  21  22
ATOM     22  C   UNL     1      -6.631 -32.854 -30.877  1.00  0.00     0.000 C 
BRANCH  22  23
ATOM     23  C   UNL     1      -7.052 -31.963 -32.067  1.00  0.00     0.000 C 
BRANCH  23  24
ATOM     24  C   UNL     1      -6.741 -32.585 -33.440  1.00  0.00    -0.000 C 
BRANCH  24  25
ATOM     25  C   UNL     1      -5.806 -31.699 -34.281  1.00  0.00    -0.000 C 
BRANCH  25  26
ATOM     26  C   UNL     1      -6.284 -30.239 -34.346  1.00  0.00    -0.000 C 
BRANCH  26  27
ATOM     27  C   UNL     1      -5.167 -29.271 -34.768  1.00  0.00    -0.000 C 
BRANCH  27  28
ATOM     28  C   UNL     1      -3.790 -29.936 -34.656  1.00  0.00    -0.000 C 
BRANCH  28  29
ATOM     29  C   UNL     1      -2.665 -28.892 -34.719  1.00  0.00    -0.000 C 
BRANCH  29  30
ATOM     30  C   UNL     1      -2.670 -27.953 -33.494  1.00  0.00    -0.000 C 
BRANCH  30  31
ATOM     31  C   UNL     1      -1.384 -28.033 -32.652  1.00  0.00    -0.003 C 
ATOM     32  C   UNL     1      -1.458 -27.213 -31.366  1.00  0.00     0.004 C 
ENDBRANCH  30  31
ENDBRANCH  29  30
ENDBRANCH  28  29
ENDBRANCH  27  28
ENDBRANCH  26  27
ENDBRANCH  25  26
ENDBRANCH  24  25
ENDBRANCH  23  24
ENDBRANCH  22  23
ENDBRANCH  21  22
ENDBRANCH  20  21
ENDBRANCH  19  20
ENDBRANCH  18  19
ENDBRANCH   1  18
TORSDOF 28
ENDMDL
MODEL 3
REMARK VINA RESULT:    -3.639      1.590      2.260
REMARK INTER + INTRA:         -16.267
REMARK INTER:                  -9.939
REMARK INTRA:                  -6.327
REMARK UNBOUND:                -6.670
REMARK SMILES CCCCCCCCCCCCCCCCCCCCCCCCCCCCCC(=O)[O-]
REMARK SMILES IDX 16 1 17 2 18 3 19 4 20 5 21 6 22 7 23 8 24 9 25 10 26 11
REMARK SMILES IDX 27 12 28 13 29 14 30 15 31 16 32 17 15 18 14 19 13 20 12 21
REMARK SMILES IDX 11 22 10 23 9 24 8 25 7 26 6 27 5 28 4 29 3 30 2 31 1 32
REMARK H PARENT
REMARK Flexibility Score: inf
ROOT
ATOM      1  C   UNL     1      -3.160 -32.613 -28.604  1.00  0.00     0.000 C 
ENDROOT
BRANCH   1   2
ATOM      2  C   UNL     1      -4.330 -33.578 -28.367  1.00  0.00     0.000 C 
BRANCH   2   3
ATOM      3  C   UNL     1      -5.686 -33.005 -28.820  1.00  0.00     0.000 C 
BRANCH   3   4
ATOM      4  C   UNL     1      -6.331 -31.999 -27.848  1.00  0.00     0.000 C 
BRANCH   4   5
ATOM      5  C   UNL     1      -6.537 -30.575 -28.400  1.00  0.00     0.000 C 
BRANCH   5   6
ATOM      6  C   UNL     1      -6.840 -30.520 -29.912  1.00  0.00     0.000 C 
BRANCH   6   7
ATOM      7  C   UNL     1      -5.730 -29.822 -30.720  1.00  0.00     0.000 C 
BRANCH   7   8
ATOM      8  C   UNL     1      -4.840 -30.820 -31.482  1.00  0.00     0.000 C 
BRANCH   8   9
ATOM      9  C   UNL     1      -5.390 -31.217 -32.866  1.00  0.00     0.000 C 
BRANCH   9  10
ATOM     10  C   UNL     1      -5.353 -32.739 -33.098  1.00  0.00     0.000 C 
BRANCH  10  11
ATOM     11  C   UNL     1      -4.187 -33.170 -34.002  1.00  0.00     0.000 C 
BRANCH  11  12
ATOM     12  C   UNL     1      -3.349 -34.304 -33.384  1.00  0.00     0.000 C 
BRANCH  12  13
ATOM     13  C   UNL     1      -3.640 -34.505 -31.889  1.00  0.00     0.006 C 
BRANCH  13  14
ATOM     14  C   UNL     1      -2.561 -35.335 -31.180  1.00  0.00     0.053 C 
BRANCH  14  15
ATOM     15  C   UNL     1      -2.985 -36.767 -31.081  1.00  0.00     0.041 C 
ATOM     16  O   UNL     1      -3.460 -37.359 -32.086  1.00  0.00    -0.550 OA
ATOM     17  O   UNL     1      -2.904 -37.434 -29.865  1.00  0.00    -0.550 OA
ENDBRANCH  14  15
ENDBRANCH  13  14
ENDBRANCH  12  13
ENDBRANCH  11  12
ENDBRANCH  10  11
ENDBRANCH   9  10
ENDBRANCH   8   9
ENDBRANCH   7   8
ENDBRANCH   6   7
ENDBRANCH   5   6
ENDBRANCH   4   5
ENDBRANCH   3   4
ENDBRANCH   2   3
ENDBRANCH   1   2
BRANCH   1  18
ATOM     18  C   UNL     1      -2.613 -32.082 -27.270  1.00  0.00     0.000 C 
BRANCH  18  19
ATOM     19  C   UNL     1      -2.940 -30.599 -27.037  1.00  0.00     0.000 C 
BRANCH  19  20
ATOM     20  C   UNL     1      -2.884 -29.769 -28.333  1.00  0.00     0.000 C 
BRANCH  20  21
ATOM     21  C   UNL     1      -3.351 -28.317 -28.131  1.00  0.00     0.000 C 
BRANCH  21  22
ATOM     22  C   UNL     1      -3.162 -27.399 -29.355  1.00  0.00     0.000 C 
BRANCH  22  23
ATOM     23  C   UNL     1      -2.478 -28.092 -30.554  1.00  0.00     0.000 C 
BRANCH  23  24
ATOM     24  C   UNL     1      -1.865 -27.106 -31.565  1.00  0.00    -0.000 C 
BRANCH  24  25
ATOM     25  C   UNL     1      -2.408 -27.319 -32.988  1.00  0.00    -0.000 C 
BRANCH  25  26
ATOM     26  C   UNL     1      -2.500 -28.807 -33.364  1.00  0.00    -0.000 C 
BRANCH  26  27
ATOM     27  C   UNL     1      -1.309 -29.275 -34.214  1.00  0.00    -0.000 C 
BRANCH  27  28
ATOM     28  C   UNL     1      -0.413 -30.238 -33.425  1.00  0.00    -0.000 C 
BRANCH  28  29
ATOM     29  C   UNL     1      -1.253 -31.208 -32.580  1.00  0.00    -0.000 C 
BRANCH  29  30
ATOM     30  C   UNL     1      -0.833 -31.203 -31.095  1.00  0.00    -0.000 C 
BRANCH  30  31
ATOM     31  C   UNL     1      -0.106 -32.487 -30.658  1.00  0.00    -0.003 C 
ATOM     32  C   UNL     1       1.390 -32.463 -30.963  1.00  0.00     0.004 C 
ENDBRANCH  30  31
ENDBRANCH  29  30
ENDBRANCH  28  29
ENDBRANCH  27  28
ENDBRANCH  26  27
ENDBRANCH  25  26
ENDBRANCH  24  25
ENDBRANCH  23  24
ENDBRANCH  22  23
ENDBRANCH  21  22
ENDBRANCH  20  21
ENDBRANCH  19  20
ENDBRANCH  18  19
ENDBRANCH   1  18
TORSDOF 28
ENDMDL
MODEL 4
REMARK VINA RESULT:    -3.634      2.202      4.545
REMARK INTER + INTRA:         -16.252
REMARK INTER:                  -9.460
REMARK INTRA:                  -6.791
REMARK UNBOUND:                -6.670
REMARK SMILES CCCCCCCCCCCCCCCCCCCCCCCCCCCCCC(=O)[O-]
REMARK SMILES IDX 16 1 17 2 18 3 19 4 20 5 21 6 22 7 23 8 24 9 25 10 26 11
REMARK SMILES IDX 27 12 28 13 29 14 30 15 31 16 32 17 15 18 14 19 13 20 12 21
REMARK SMILES IDX 11 22 10 23 9 24 8 25 7 26 6 27 5 28 4 29 3 30 2 31 1 32
REMARK H PARENT
REMARK Flexibility Score: inf
ROOT
ATOM      1  C   UNL     1      -3.333 -32.428 -29.382  1.00  0.00     0.000 C 
ENDROOT
BRANCH   1   2
ATOM      2  C   UNL     1      -2.647 -31.780 -30.593  1.00  0.00     0.000 C 
BRANCH   2   3
ATOM      3  C   UNL     1      -1.131 -31.590 -30.395  1.00  0.00     0.000 C 
BRANCH   3   4
ATOM      4  C   UNL     1      -0.262 -31.923 -31.623  1.00  0.00     0.000 C 
BRANCH   4   5
ATOM      5  C   UNL     1       0.397 -33.316 -31.617  1.00  0.00     0.000 C 
BRANCH   5   6
ATOM      6  C   UNL     1       0.307 -34.053 -30.264  1.00  0.00     0.000 C 
BRANCH   6   7
ATOM      7  C   UNL     1      -0.492 -35.366 -30.349  1.00  0.00     0.000 C 
BRANCH   7   8
ATOM      8  C   UNL     1      -1.298 -35.482 -31.656  1.00  0.00     0.000 C 
BRANCH   8   9
ATOM      9  C   UNL     1      -2.825 -35.445 -31.452  1.00  0.00     0.000 C 
BRANCH   9  10
ATOM     10  C   UNL     1      -3.566 -34.872 -32.674  1.00  0.00     0.000 C 
BRANCH  10  11
ATOM     11  C   UNL     1      -2.643 -34.056 -33.595  1.00  0.00     0.000 C 
BRANCH  11  12
ATOM     12  C   UNL     1      -3.319 -32.782 -34.131  1.00  0.00     0.000 C 
BRANCH  12  13
ATOM     13  C   UNL     1      -4.849 -32.825 -33.996  1.00  0.00     0.006 C 
BRANCH  13  14
ATOM     14  C   UNL     1      -5.432 -31.521 -33.434  1.00  0.00     0.053 C 
BRANCH  14  15
ATOM     15  C   UNL     1      -6.069 -31.765 -32.102  1.00  0.00     0.041 C 
ATOM     16  O   UNL     1      -6.103 -30.849 -31.238  1.00  0.00    -0.550 OA
ATOM     17  O   UNL     1      -6.581 -33.020 -31.795  1.00  0.00    -0.550 OA
ENDBRANCH  14  15
ENDBRANCH  13  14
ENDBRANCH  12  13
ENDBRANCH  11  12
ENDBRANCH  10  11
ENDBRANCH   9  10
ENDBRANCH   8   9
ENDBRANCH   7   8
ENDBRANCH   6   7
ENDBRANCH   5   6
ENDBRANCH   4   5
ENDBRANCH   3   4
ENDBRANCH   2   3
ENDBRANCH   1   2
BRANCH   1  18
ATOM     18  C   UNL     1      -2.330 -32.642 -28.238  1.00  0.00     0.000 C 
BRANCH  18  19
ATOM     19  C   UNL     1      -2.704 -31.871 -26.962  1.00  0.00     0.000 C 
BRANCH  19  20
ATOM     20  C   UNL     1      -3.575 -30.635 -27.251  1.00  0.00     0.000 C 
BRANCH  20  21
ATOM     21  C   UNL     1      -2.743 -29.390 -27.608  1.00  0.00     0.000 C 
BRANCH  21  22
ATOM     22  C   UNL     1      -3.461 -28.368 -28.511  1.00  0.00     0.000 C 
BRANCH  22  23
ATOM     23  C   UNL     1      -2.714 -28.070 -29.831  1.00  0.00     0.000 C 
BRANCH  23  24
ATOM     24  C   UNL     1      -3.590 -28.247 -31.085  1.00  0.00    -0.000 C 
BRANCH  24  25
ATOM     25  C   UNL     1      -2.765 -28.202 -32.382  1.00  0.00    -0.000 C 
BRANCH  25  26
ATOM     26  C   UNL     1      -1.251 -28.250 -32.115  1.00  0.00    -0.000 C 
BRANCH  26  27
ATOM     27  C   UNL     1      -0.450 -28.693 -33.349  1.00  0.00    -0.000 C 
BRANCH  27  28
ATOM     28  C   UNL     1      -1.321 -29.513 -34.308  1.00  0.00    -0.000 C 
BRANCH  28  29
ATOM     29  C   UNL     1      -0.470 -30.497 -35.125  1.00  0.00    -0.000 C 
BRANCH  29  30
ATOM     30  C   UNL     1       1.041 -30.218 -34.985  1.00  0.00    -0.000 C 
BRANCH  30  31
ATOM     31  C   UNL     1       1.890 -31.493 -34.829  1.00  0.00    -0.003 C 
ATOM     32  C   UNL     1       2.876 -31.418 -33.666  1.00  0.00     0.004 C 
ENDBRANCH  30  31
ENDBRANCH  29  30
ENDBRANCH  28  29
ENDBRANCH  27  28
ENDBRANCH  26  27
ENDBRANCH  25  26
ENDBRANCH  24  25
ENDBRANCH  23  24
ENDBRANCH  22  23
ENDBRANCH  21  22
ENDBRANCH  20  21
ENDBRANCH  19  20
ENDBRANCH  18  19
ENDBRANCH   1  18
TORSDOF 28
ENDMDL
MODEL 5
REMARK VINA RESULT:    -3.629      2.061      4.910
REMARK INTER + INTRA:         -16.240
REMARK INTER:                  -9.847
REMARK INTRA:                  -6.394
REMARK UNBOUND:                -6.670
REMARK SMILES CCCCCCCCCCCCCCCCCCCCCCCCCCCCCC(=O)[O-]
REMARK SMILES IDX 16 1 17 2 18 3 19 4 20 5 21 6 22 7 23 8 24 9 25 10 26 11
REMARK SMILES IDX 27 12 28 13 29 14 30 15 31 16 32 17 15 18 14 19 13 20 12 21
REMARK SMILES IDX 11 22 10 23 9 24 8 25 7 26 6 27 5 28 4 29 3 30 2 31 1 32
REMARK H PARENT
REMARK Flexibility Score: inf
ROOT
ATOM      1  C   UNL     1      -2.178 -32.779 -28.829  1.00  0.00     0.000 C 
ENDROOT
BRANCH   1   2
ATOM      2  C   UNL     1      -2.893 -32.762 -27.471  1.00  0.00     0.000 C 
BRANCH   2   3
ATOM      3  C   UNL     1      -3.045 -31.344 -26.888  1.00  0.00     0.000 C 
BRANCH   3   4
ATOM      4  C   UNL     1      -4.385 -30.648 -27.194  1.00  0.00     0.000 C 
BRANCH   4   5
ATOM      5  C   UNL     1      -4.283 -29.296 -27.928  1.00  0.00     0.000 C 
BRANCH   5   6
ATOM      6  C   UNL     1      -2.856 -28.933 -28.389  1.00  0.00     0.000 C 
BRANCH   6   7
ATOM      7  C   UNL     1      -2.692 -28.973 -29.919  1.00  0.00     0.000 C 
BRANCH   7   8
ATOM      8  C   UNL     1      -2.961 -27.607 -30.576  1.00  0.00     0.000 C 
BRANCH   8   9
ATOM      9  C   UNL     1      -1.743 -27.021 -31.317  1.00  0.00     0.000 C 
BRANCH   9  10
ATOM     10  C   UNL     1      -1.052 -28.058 -32.221  1.00  0.00     0.000 C 
BRANCH  10  11
ATOM     11  C   UNL     1      -1.874 -28.385 -33.479  1.00  0.00     0.000 C 
BRANCH  11  12
ATOM     12  C   UNL     1      -1.161 -29.385 -34.408  1.00  0.00     0.000 C 
BRANCH  12  13
ATOM     13  C   UNL     1       0.208 -29.821 -33.864  1.00  0.00     0.006 C 
BRANCH  13  14
ATOM     14  C   UNL     1       0.251 -31.308 -33.487  1.00  0.00     0.053 C 
BRANCH  14  15
ATOM     15  C   UNL     1       0.735 -31.476 -32.080  1.00  0.00     0.041 C 
ATOM     16  O   UNL     1      -0.055 -31.310 -31.114  1.00  0.00    -0.550 OA
ATOM     17  O   UNL     1       2.072 -31.766 -31.834  1.00  0.00    -0.550 OA
ENDBRANCH  14  15
ENDBRANCH  13  14
ENDBRANCH  12  13
ENDBRANCH  11  12
ENDBRANCH  10  11
ENDBRANCH   9  10
ENDBRANCH   8   9
ENDBRANCH   7   8
ENDBRANCH   6   7
ENDBRANCH   5   6
ENDBRANCH   4   5
ENDBRANCH   3   4
ENDBRANCH   2   3
ENDBRANCH   1   2
BRANCH   1  18
ATOM     18  C   UNL     1      -3.193 -32.713 -29.981  1.00  0.00     0.000 C 
BRANCH  18  19
ATOM     19  C   UNL     1      -4.478 -33.505 -29.692  1.00  0.00     0.000 C 
BRANCH  19  20
ATOM     20  C   UNL     1      -5.688 -32.983 -30.487  1.00  0.00     0.000 C 
BRANCH  20  21
ATOM     21  C   UNL     1      -5.773 -31.447 -30.503  1.00  0.00     0.000 C 
BRANCH  21  22
ATOM     22  C   UNL     1      -6.063 -30.827 -31.885  1.00  0.00     0.000 C 
BRANCH  22  23
ATOM     23  C   UNL     1      -4.804 -30.298 -32.607  1.00  0.00     0.000 C 
BRANCH  23  24
ATOM     24  C   UNL     1      -4.540 -30.982 -33.961  1.00  0.00    -0.000 C 
BRANCH  24  25
ATOM     25  C   UNL     1      -3.587 -32.182 -33.830  1.00  0.00    -0.000 C 
BRANCH  25  26
ATOM     26  C   UNL     1      -4.333 -33.526 -33.831  1.00  0.00    -0.000 C 
BRANCH  26  27
ATOM     27  C   UNL     1      -3.379 -34.730 -33.776  1.00  0.00    -0.000 C 
BRANCH  27  28
ATOM     28  C   UNL     1      -2.040 -34.343 -33.138  1.00  0.00    -0.000 C 
BRANCH  28  29
ATOM     29  C   UNL     1      -1.610 -35.376 -32.085  1.00  0.00    -0.000 C 
BRANCH  29  30
ATOM     30  C   UNL     1      -2.708 -36.428 -31.817  1.00  0.00    -0.000 C 
BRANCH  30  31
ATOM     31  C   UNL     1      -2.957 -36.688 -30.321  1.00  0.00    -0.003 C 
ATOM     32  C   UNL     1      -1.710 -36.488 -29.462  1.00  0.00     0.004 C 
ENDBRANCH  30  31
ENDBRANCH  29  30
ENDBRANCH  28  29
ENDBRANCH  27  28
ENDBRANCH  26  27
ENDBRANCH  25  26
ENDBRANCH  24  25
ENDBRANCH  23  24
ENDBRANCH  22  23
ENDBRANCH  21  22
ENDBRANCH  20  21
ENDBRANCH  19  20
ENDBRANCH  18  19
ENDBRANCH   1  18
TORSDOF 28
ENDMDL
MODEL 6
REMARK VINA RESULT:    -3.611      2.455      5.263
REMARK INTER + INTRA:         -16.190
REMARK INTER:                  -9.394
REMARK INTRA:                  -6.796
REMARK UNBOUND:                -6.670
REMARK SMILES CCCCCCCCCCCCCCCCCCCCCCCCCCCCCC(=O)[O-]
REMARK SMILES IDX 16 1 17 2 18 3 19 4 20 5 21 6 22 7 23 8 24 9 25 10 26 11
REMARK SMILES IDX 27 12 28 13 29 14 30 15 31 16 32 17 15 18 14 19 13 20 12 21
REMARK SMILES IDX 11 22 10 23 9 24 8 25 7 26 6 27 5 28 4 29 3 30 2 31 1 32
REMARK H PARENT
REMARK Flexibility Score: inf
ROOT
ATOM      1  C   UNL     1      -2.486 -30.964 -29.379  1.00  0.00     0.000 C 
ENDROOT
BRANCH   1   2
ATOM      2  C   UNL     1      -2.472 -30.322 -30.773  1.00  0.00     0.000 C 
BRANCH   2   3
ATOM      3  C   UNL     1      -2.497 -28.782 -30.728  1.00  0.00     0.000 C 
BRANCH   3   4
ATOM      4  C   UNL     1      -1.441 -28.083 -31.604  1.00  0.00     0.000 C 
BRANCH   4   5
ATOM      5  C   UNL     1      -0.356 -29.001 -32.202  1.00  0.00     0.000 C 
BRANCH   5   6
ATOM      6  C   UNL     1      -0.385 -29.094 -33.742  1.00  0.00     0.000 C 
BRANCH   6   7
ATOM      7  C   UNL     1      -1.802 -28.940 -34.326  1.00  0.00     0.000 C 
BRANCH   7   8
ATOM      8  C   UNL     1      -2.504 -30.295 -34.531  1.00  0.00     0.000 C 
BRANCH   8   9
ATOM      9  C   UNL     1      -1.536 -31.470 -34.767  1.00  0.00     0.000 C 
BRANCH   9  10
ATOM     10  C   UNL     1      -1.535 -32.473 -33.599  1.00  0.00     0.000 C 
BRANCH  10  11
ATOM     11  C   UNL     1      -0.127 -32.715 -33.029  1.00  0.00     0.000 C 
BRANCH  11  12
ATOM     12  C   UNL     1      -0.151 -33.095 -31.537  1.00  0.00     0.000 C 
BRANCH  12  13
ATOM     13  C   UNL     1       0.995 -32.445 -30.745  1.00  0.00     0.006 C 
BRANCH  13  14
ATOM     14  C   UNL     1       2.015 -31.740 -31.648  1.00  0.00     0.053 C 
BRANCH  14  15
ATOM     15  C   UNL     1       3.384 -32.307 -31.431  1.00  0.00     0.041 C 
ATOM     16  O   UNL     1       3.993 -32.872 -32.378  1.00  0.00    -0.550 OA
ATOM     17  O   UNL     1       3.966 -32.256 -30.171  1.00  0.00    -0.550 OA
ENDBRANCH  14  15
ENDBRANCH  13  14
ENDBRANCH  12  13
ENDBRANCH  11  12
ENDBRANCH  10  11
ENDBRANCH   9  10
ENDBRANCH   8   9
ENDBRANCH   7   8
ENDBRANCH   6   7
ENDBRANCH   5   6
ENDBRANCH   4   5
ENDBRANCH   3   4
ENDBRANCH   2   3
ENDBRANCH   1   2
BRANCH   1  18
ATOM     18  C   UNL     1      -2.734 -29.904 -28.294  1.00  0.00     0.000 C 
BRANCH  18  19
ATOM     19  C   UNL     1      -3.784 -30.340 -27.260  1.00  0.00     0.000 C 
BRANCH  19  20
ATOM     20  C   UNL     1      -5.189 -29.796 -27.576  1.00  0.00     0.000 C 
BRANCH  20  21
ATOM     21  C   UNL     1      -6.174 -30.900 -28.000  1.00  0.00     0.000 C 
BRANCH  21  22
ATOM     22  C   UNL     1      -6.626 -30.836 -29.472  1.00  0.00     0.000 C 
BRANCH  22  23
ATOM     23  C   UNL     1      -6.083 -29.609 -30.238  1.00  0.00     0.000 C 
BRANCH  23  24
ATOM     24  C   UNL     1      -6.029 -29.812 -31.763  1.00  0.00    -0.000 C 
BRANCH  24  25
ATOM     25  C   UNL     1      -6.455 -31.231 -32.176  1.00  0.00    -0.000 C 
BRANCH  25  26
ATOM     26  C   UNL     1      -5.556 -31.815 -33.279  1.00  0.00    -0.000 C 
BRANCH  26  27
ATOM     27  C   UNL     1      -5.017 -33.209 -32.922  1.00  0.00    -0.000 C 
BRANCH  27  28
ATOM     28  C   UNL     1      -4.642 -33.292 -31.438  1.00  0.00    -0.000 C 
BRANCH  28  29
ATOM     29  C   UNL     1      -3.589 -34.384 -31.194  1.00  0.00    -0.000 C 
BRANCH  29  30
ATOM     30  C   UNL     1      -3.448 -34.735 -29.697  1.00  0.00    -0.000 C 
BRANCH  30  31
ATOM     31  C   UNL     1      -4.458 -34.004 -28.796  1.00  0.00    -0.003 C 
ATOM     32  C   UNL     1      -4.106 -34.084 -27.313  1.00  0.00     0.004 C 
ENDBRANCH  30  31
ENDBRANCH  29  30
ENDBRANCH  28  29
ENDBRANCH  27  28
ENDBRANCH  26  27
ENDBRANCH  25  26
ENDBRANCH  24  25
ENDBRANCH  23  24
ENDBRANCH  22  23
ENDBRANCH  21  22
ENDBRANCH  20  21
ENDBRANCH  19  20
ENDBRANCH  18  19
ENDBRANCH   1  18
TORSDOF 28
ENDMDL
MODEL 7
REMARK VINA RESULT:    -3.599      1.805      5.158
REMARK INTER + INTRA:         -16.160
REMARK INTER:                  -9.839
REMARK INTRA:                  -6.322
REMARK UNBOUND:                -6.670
REMARK SMILES CCCCCCCCCCCCCCCCCCCCCCCCCCCCCC(=O)[O-]
REMARK SMILES IDX 16 1 17 2 18 3 19 4 20 5 21 6 22 7 23 8 24 9 25 10 26 11
REMARK SMILES IDX 27 12 28 13 29 14 30 15 31 16 32 17 15 18 14 19 13 20 12 21
REMARK SMILES IDX 11 22 10 23 9 24 8 25 7 26 6 27 5 28 4 29 3 30 2 31 1 32
REMARK H PARENT
REMARK Flexibility Score: inf
ROOT
ATOM      1  C   UNL     1      -0.096 -32.023 -31.325  1.00  0.00     0.000 C 
ENDROOT
BRANCH   1   2
ATOM      2  C   UNL     1      -1.016 -30.997 -30.650  1.00  0.00     0.000 C 
BRANCH   2   3
ATOM      3  C   UNL     1      -2.465 -31.052 -31.171  1.00  0.00     0.000 C 
BRANCH   3   4
ATOM      4  C   UNL     1      -3.373 -29.897 -30.708  1.00  0.00     0.000 C 
BRANCH   4   5
ATOM      5  C   UNL     1      -2.674 -28.775 -29.915  1.00  0.00     0.000 C 
BRANCH   5   6
ATOM      6  C   UNL     1      -3.100 -28.686 -28.435  1.00  0.00     0.000 C 
BRANCH   6   7
ATOM      7  C   UNL     1      -3.137 -30.059 -27.738  1.00  0.00     0.000 C 
BRANCH   7   8
ATOM      8  C   UNL     1      -4.519 -30.379 -27.141  1.00  0.00     0.000 C 
BRANCH   8   9
ATOM      9  C   UNL     1      -5.653 -29.483 -27.677  1.00  0.00     0.000 C 
BRANCH   9  10
ATOM     10  C   UNL     1      -6.549 -30.216 -28.691  1.00  0.00     0.000 C 
BRANCH  10  11
ATOM     11  C   UNL     1      -6.831 -31.673 -28.286  1.00  0.00     0.000 C 
BRANCH  11  12
ATOM     12  C   UNL     1      -6.720 -32.648 -29.471  1.00  0.00     0.000 C 
BRANCH  12  13
ATOM     13  C   UNL     1      -5.278 -32.786 -29.988  1.00  0.00     0.006 C 
BRANCH  13  14
ATOM     14  C   UNL     1      -4.607 -34.089 -29.534  1.00  0.00     0.053 C 
BRANCH  14  15
ATOM     15  C   UNL     1      -3.734 -33.839 -28.343  1.00  0.00     0.041 C 
ATOM     16  O   UNL     1      -4.205 -33.946 -27.180  1.00  0.00    -0.550 OA
ATOM     17  O   UNL     1      -2.416 -33.439 -28.519  1.00  0.00    -0.550 OA
ENDBRANCH  14  15
ENDBRANCH  13  14
ENDBRANCH  12  13
ENDBRANCH  11  12
ENDBRANCH  10  11
ENDBRANCH   9  10
ENDBRANCH   8   9
ENDBRANCH   7   8
ENDBRANCH   6   7
ENDBRANCH   5   6
ENDBRANCH   4   5
ENDBRANCH   3   4
ENDBRANCH   2   3
ENDBRANCH   1   2
BRANCH   1  18
ATOM     18  C   UNL     1      -0.832 -32.749 -32.462  1.00  0.00     0.000 C 
BRANCH  18  19
ATOM     19  C   UNL     1      -0.142 -32.583 -33.825  1.00  0.00     0.000 C 
BRANCH  19  20
ATOM     20  C   UNL     1       1.184 -31.807 -33.727  1.00  0.00     0.000 C 
BRANCH  20  21
ATOM     21  C   UNL     1       1.133 -30.446 -34.442  1.00  0.00     0.000 C 
BRANCH  21  22
ATOM     22  C   UNL     1      -0.287 -29.925 -34.742  1.00  0.00     0.000 C 
BRANCH  22  23
ATOM     23  C   UNL     1      -0.807 -28.900 -33.709  1.00  0.00     0.000 C 
BRANCH  23  24
ATOM     24  C   UNL     1      -2.281 -28.510 -33.920  1.00  0.00    -0.000 C 
BRANCH  24  25
ATOM     25  C   UNL     1      -3.025 -29.511 -34.820  1.00  0.00    -0.000 C 
BRANCH  25  26
ATOM     26  C   UNL     1      -4.549 -29.447 -34.632  1.00  0.00    -0.000 C 
BRANCH  26  27
ATOM     27  C   UNL     1      -5.143 -30.788 -34.174  1.00  0.00    -0.000 C 
BRANCH  27  28
ATOM     28  C   UNL     1      -4.064 -31.875 -34.108  1.00  0.00    -0.000 C 
BRANCH  28  29
ATOM     29  C   UNL     1      -4.664 -33.226 -33.687  1.00  0.00    -0.000 C 
BRANCH  29  30
ATOM     30  C   UNL     1      -3.782 -34.417 -34.119  1.00  0.00    -0.000 C 
BRANCH  30  31
ATOM     31  C   UNL     1      -3.434 -35.374 -32.965  1.00  0.00    -0.003 C 
ATOM     32  C   UNL     1      -2.232 -36.265 -33.268  1.00  0.00     0.004 C 
ENDBRANCH  30  31
ENDBRANCH  29  30
ENDBRANCH  28  29
ENDBRANCH  27  28
ENDBRANCH  26  27
ENDBRANCH  25  26
ENDBRANCH  24  25
ENDBRANCH  23  24
ENDBRANCH  22  23
ENDBRANCH  21  22
ENDBRANCH  20  21
ENDBRANCH  19  20
ENDBRANCH  18  19
ENDBRANCH   1  18
TORSDOF 28
ENDMDL
MODEL 8
REMARK VINA RESULT:    -3.576      2.013      4.900
REMARK INTER + INTRA:         -16.099
REMARK INTER:                  -9.739
REMARK INTRA:                  -6.360
REMARK UNBOUND:                -6.670
REMARK SMILES CCCCCCCCCCCCCCCCCCCCCCCCCCCCCC(=O)[O-]
REMARK SMILES IDX 16 1 17 2 18 3 19 4 20 5 21 6 22 7 23 8 24 9 25 10 26 11
REMARK SMILES IDX 27 12 28 13 29 14 30 15 31 16 32 17 15 18 14 19 13 20 12 21
REMARK SMILES IDX 11 22 10 23 9 24 8 25 7 26 6 27 5 28 4 29 3 30 2 31 1 32
REMARK H PARENT
REMARK Flexibility Score: inf
ROOT
ATOM      1  C   UNL     1      -2.864 -32.503 -27.477  1.00  0.00     0.000 C 
ENDROOT
BRANCH   1   2
ATOM      2  C   UNL     1      -1.839 -32.185 -28.574  1.00  0.00     0.000 C 
BRANCH   2   3
ATOM      3  C   UNL     1      -2.241 -32.738 -29.954  1.00  0.00     0.000 C 
BRANCH   3   4
ATOM      4  C   UNL     1      -2.111 -31.744 -31.123  1.00  0.00     0.000 C 
BRANCH   4   5
ATOM      5  C   UNL     1      -1.492 -30.377 -30.771  1.00  0.00     0.000 C 
BRANCH   5   6
ATOM      6  C   UNL     1      -2.187 -29.175 -31.445  1.00  0.00     0.000 C 
BRANCH   6   7
ATOM      7  C   UNL     1      -1.327 -28.526 -32.545  1.00  0.00     0.000 C 
BRANCH   7   8
ATOM      8  C   UNL     1      -1.878 -28.794 -33.958  1.00  0.00     0.000 C 
BRANCH   8   9
ATOM      9  C   UNL     1      -1.047 -29.807 -34.769  1.00  0.00     0.000 C 
BRANCH   9  10
ATOM     10  C   UNL     1       0.454 -29.737 -34.432  1.00  0.00     0.000 C 
BRANCH  10  11
ATOM     11  C   UNL     1       1.142 -31.109 -34.513  1.00  0.00     0.000 C 
BRANCH  11  12
ATOM     12  C   UNL     1       0.846 -31.993 -33.289  1.00  0.00     0.000 C 
BRANCH  12  13
ATOM     13  C   UNL     1       1.729 -31.643 -32.080  1.00  0.00     0.006 C 
BRANCH  13  14
ATOM     14  C   UNL     1       1.487 -32.567 -30.880  1.00  0.00     0.053 C 
BRANCH  14  15
ATOM     15  C   UNL     1       2.787 -33.081 -30.346  1.00  0.00     0.041 C 
ATOM     16  O   UNL     1       3.686 -32.276 -29.984  1.00  0.00    -0.550 OA
ATOM     17  O   UNL     1       3.027 -34.448 -30.295  1.00  0.00    -0.550 OA
ENDBRANCH  14  15
ENDBRANCH  13  14
ENDBRANCH  12  13
ENDBRANCH  11  12
ENDBRANCH  10  11
ENDBRANCH   9  10
ENDBRANCH   8   9
ENDBRANCH   7   8
ENDBRANCH   6   7
ENDBRANCH   5   6
ENDBRANCH   4   5
ENDBRANCH   3   4
ENDBRANCH   2   3
ENDBRANCH   1   2
BRANCH   1  18
ATOM     18  C   UNL     1      -3.420 -31.211 -26.859  1.00  0.00     0.000 C 
BRANCH  18  19
ATOM     19  C   UNL     1      -2.942 -29.945 -27.588  1.00  0.00     0.000 C 
BRANCH  19  20
ATOM     20  C   UNL     1      -4.086 -29.205 -28.304  1.00  0.00     0.000 C 
BRANCH  20  21
ATOM     21  C   UNL     1      -5.310 -30.103 -28.558  1.00  0.00     0.000 C 
BRANCH  21  22
ATOM     22  C   UNL     1      -5.407 -30.677 -29.986  1.00  0.00     0.000 C 
BRANCH  22  23
ATOM     23  C   UNL     1      -6.025 -32.092 -30.048  1.00  0.00     0.000 C 
BRANCH  23  24
ATOM     24  C   UNL     1      -5.628 -32.880 -31.310  1.00  0.00    -0.000 C 
BRANCH  24  25
ATOM     25  C   UNL     1      -6.456 -32.466 -32.538  1.00  0.00    -0.000 C 
BRANCH  25  26
ATOM     26  C   UNL     1      -5.716 -32.731 -33.860  1.00  0.00    -0.000 C 
BRANCH  26  27
ATOM     27  C   UNL     1      -4.373 -31.990 -33.942  1.00  0.00    -0.000 C 
BRANCH  27  28
ATOM     28  C   UNL     1      -3.238 -32.946 -34.328  1.00  0.00    -0.000 C 
BRANCH  28  29
ATOM     29  C   UNL     1      -3.648 -34.410 -34.107  1.00  0.00    -0.000 C 
BRANCH  29  30
ATOM     30  C   UNL     1      -2.964 -35.027 -32.868  1.00  0.00    -0.000 C 
BRANCH  30  31
ATOM     31  C   UNL     1      -1.429 -34.916 -32.895  1.00  0.00    -0.003 C 
ATOM     32  C   UNL     1      -0.799 -35.616 -34.097  1.00  0.00     0.004 C 
ENDBRANCH  30  31
ENDBRANCH  29  30
ENDBRANCH  28  29
ENDBRANCH  27  28
ENDBRANCH  26  27
ENDBRANCH  25  26
ENDBRANCH  24  25
ENDBRANCH  23  24
ENDBRANCH  22  23
ENDBRANCH  21  22
ENDBRANCH  20  21
ENDBRANCH  19  20
ENDBRANCH  18  19
ENDBRANCH   1  18
TORSDOF 28
ENDMDL
MODEL 9
REMARK VINA RESULT:    -3.574      1.860      4.722
REMARK INTER + INTRA:         -16.094
REMARK INTER:                  -9.599
REMARK INTRA:                  -6.495
REMARK UNBOUND:                -6.670
REMARK SMILES CCCCCCCCCCCCCCCCCCCCCCCCCCCCCC(=O)[O-]
REMARK SMILES IDX 16 1 17 2 18 3 19 4 20 5 21 6 22 7 23 8 24 9 25 10 26 11
REMARK SMILES IDX 27 12 28 13 29 14 30 15 31 16 32 17 15 18 14 19 13 20 12 21
REMARK SMILES IDX 11 22 10 23 9 24 8 25 7 26 6 27 5 28 4 29 3 30 2 31 1 32
REMARK H PARENT
REMARK Flexibility Score: inf
ROOT
ATOM      1  C   UNL     1      -5.554 -32.990 -29.556  1.00  0.00     0.000 C 
ENDROOT
BRANCH   1   2
ATOM      2  C   UNL     1      -6.288 -31.942 -28.708  1.00  0.00     0.000 C 
BRANCH   2   3
ATOM      3  C   UNL     1      -6.397 -30.572 -29.405  1.00  0.00     0.000 C 
BRANCH   3   4
ATOM      4  C   UNL     1      -6.518 -30.625 -30.940  1.00  0.00     0.000 C 
BRANCH   4   5
ATOM      5  C   UNL     1      -6.120 -29.336 -31.685  1.00  0.00     0.000 C 
BRANCH   5   6
ATOM      6  C   UNL     1      -5.519 -28.240 -30.780  1.00  0.00     0.000 C 
BRANCH   6   7
ATOM      7  C   UNL     1      -4.338 -27.502 -31.435  1.00  0.00     0.000 C 
BRANCH   7   8
ATOM      8  C   UNL     1      -4.179 -27.852 -32.926  1.00  0.00     0.000 C 
BRANCH   8   9
ATOM      9  C   UNL     1      -2.770 -27.574 -33.485  1.00  0.00     0.000 C 
BRANCH   9  10
ATOM     10  C   UNL     1      -2.176 -28.794 -34.211  1.00  0.00     0.000 C 
BRANCH  10  11
ATOM     11  C   UNL     1      -0.695 -29.025 -33.865  1.00  0.00     0.000 C 
BRANCH  11  12
ATOM     12  C   UNL     1      -0.137 -30.319 -34.486  1.00  0.00     0.000 C 
BRANCH  12  13
ATOM     13  C   UNL     1       0.948 -30.970 -33.614  1.00  0.00     0.006 C 
BRANCH  13  14
ATOM     14  C   UNL     1       0.629 -30.895 -32.115  1.00  0.00     0.053 C 
BRANCH  14  15
ATOM     15  C   UNL     1       1.218 -32.070 -31.397  1.00  0.00     0.041 C 
ATOM     16  O   UNL     1       0.468 -32.953 -30.906  1.00  0.00    -0.550 OA
ATOM     17  O   UNL     1       2.594 -32.162 -31.226  1.00  0.00    -0.550 OA
ENDBRANCH  14  15
ENDBRANCH  13  14
ENDBRANCH  12  13
ENDBRANCH  11  12
ENDBRANCH  10  11
ENDBRANCH   9  10
ENDBRANCH   8   9
ENDBRANCH   7   8
ENDBRANCH   6   7
ENDBRANCH   5   6
ENDBRANCH   4   5
ENDBRANCH   3   4
ENDBRANCH   2   3
ENDBRANCH   1   2
BRANCH   1  18
ATOM     18  C   UNL     1      -4.514 -33.742 -28.711  1.00  0.00     0.000 C 
BRANCH  18  19
ATOM     19  C   UNL     1      -4.281 -33.097 -27.335  1.00  0.00     0.000 C 
BRANCH  19  20
ATOM     20  C   UNL     1      -2.926 -32.373 -27.242  1.00  0.00     0.000 C 
BRANCH  20  21
ATOM     21  C   UNL     1      -3.073 -30.843 -27.164  1.00  0.00     0.000 C 
BRANCH  21  22
ATOM     22  C   UNL     1      -2.806 -30.098 -28.487  1.00  0.00     0.000 C 
BRANCH  22  23
ATOM     23  C   UNL     1      -2.213 -30.993 -29.598  1.00  0.00     0.000 C 
BRANCH  23  24
ATOM     24  C   UNL     1      -2.834 -30.743 -30.984  1.00  0.00    -0.000 C 
BRANCH  24  25
ATOM     25  C   UNL     1      -2.861 -32.016 -31.847  1.00  0.00    -0.000 C 
BRANCH  25  26
ATOM     26  C   UNL     1      -3.684 -31.834 -33.133  1.00  0.00    -0.000 C 
BRANCH  26  27
ATOM     27  C   UNL     1      -3.059 -32.554 -34.339  1.00  0.00    -0.000 C 
BRANCH  27  28
ATOM     28  C   UNL     1      -2.420 -33.882 -33.917  1.00  0.00    -0.000 C 
BRANCH  28  29
ATOM     29  C   UNL     1      -3.398 -35.051 -34.106  1.00  0.00    -0.000 C 
BRANCH  29  30
ATOM     30  C   UNL     1      -3.192 -36.162 -33.055  1.00  0.00    -0.000 C 
BRANCH  30  31
ATOM     31  C   UNL     1      -3.158 -35.640 -31.608  1.00  0.00    -0.003 C 
ATOM     32  C   UNL     1      -2.987 -36.751 -30.574  1.00  0.00     0.004 C 
ENDBRANCH  30  31
ENDBRANCH  29  30
ENDBRANCH  28  29
ENDBRANCH  27  28
ENDBRANCH  26  27
ENDBRANCH  25  26
ENDBRANCH  24  25
ENDBRANCH  23  24
ENDBRANCH  22  23
ENDBRANCH  21  22
ENDBRANCH  20  21
ENDBRANCH  19  20
ENDBRANCH  18  19
ENDBRANCH   1  18
TORSDOF 28
ENDMDL
