MODEL 1
REMARK VINA RESULT:    -3.791      0.000      0.000
REMARK INTER + INTRA:          -7.513
REMARK INTER:                  -6.008
REMARK INTRA:                  -1.505
REMARK UNBOUND:                -1.505
REMARK SMILES CCCCCCCCCCCC(=O)[O-]
REMARK SMILES IDX 7 1 8 2 9 3 10 4 11 5 12 6 13 7 14 8 6 9 5 10 4 11 3 12 2 13
REMARK SMILES IDX 1 14
REMARK H PARENT
REMARK Flexibility Score: inf
ROOT
ATOM      1  C   UNL     1      20.084  -6.108  46.990  1.00  0.00     0.000 C 
ENDROOT
BRANCH   1   2
ATOM      2  C   UNL     1      20.702  -4.776  46.529  1.00  0.00     0.000 C 
BRANCH   2   3
ATOM      3  C   UNL     1      22.075  -4.980  45.856  1.00  0.00     0.000 C 
BRANCH   3   4
ATOM      4  C   UNL     1      22.396  -3.939  44.766  1.00  0.00     0.006 C 
BRANCH   4   5
ATOM      5  C   UNL     1      21.535  -2.664  44.840  1.00  0.00     0.053 C 
BRANCH   5   6
ATOM      6  C   UNL     1      22.269  -1.493  45.425  1.00  0.00     0.041 C 
ATOM      7  O   UNL     1      22.490  -1.433  46.663  1.00  0.00    -0.550 OA
ATOM      8  O   UNL     1      22.649  -0.434  44.611  1.00  0.00    -0.550 OA
ENDBRANCH   5   6
ENDBRANCH   4   5
ENDBRANCH   3   4
ENDBRANCH   2   3
ENDBRANCH   1   2
BRANCH   1   9
ATOM      9  C   UNL     1      19.827  -7.077  45.827  1.00  0.00     0.000 C 
BRANCH   9  10
ATOM     10  C   UNL     1      18.359  -7.090  45.381  1.00  0.00    -0.000 C 
BRANCH  10  11
ATOM     11  C   UNL     1      18.230  -6.711  43.901  1.00  0.00    -0.000 C 
BRANCH  11  12
ATOM     12  C   UNL     1      19.605  -6.399  43.291  1.00  0.00    -0.000 C 
BRANCH  12  13
ATOM     13  C   UNL     1      19.643  -5.032  42.591  1.00  0.00    -0.003 C 
ATOM     14  C   UNL     1      18.535  -4.092  43.065  1.00  0.00     0.004 C 
ENDBRANCH  12  13
ENDBRANCH  11  12
ENDBRANCH  10  11
ENDBRANCH   9  10
ENDBRANCH   1   9
TORSDOF 10
ENDMDL
MODEL 2
REMARK VINA RESULT:    -3.777      2.993      4.667
REMARK INTER + INTRA:          -7.490
REMARK INTER:                  -6.297
REMARK INTRA:                  -1.193
REMARK UNBOUND:                -1.505
REMARK SMILES CCCCCCCCCCCC(=O)[O-]
REMARK SMILES IDX 7 1 8 2 9 3 10 4 11 5 12 6 13 7 14 8 6 9 5 10 4 11 3 12 2 13
REMARK SMILES IDX 1 14
REMARK H PARENT
REMARK Flexibility Score: inf
ROOT
ATOM      1  C   UNL     1      18.760  -7.285  44.102  1.00  0.00     0.000 C 
ENDROOT
BRANCH   1   2
ATOM      2  C   UNL     1      18.575  -7.088  45.617  1.00  0.00     0.000 C 
BRANCH   2   3
ATOM      3  C   UNL     1      19.921  -7.099  46.369  1.00  0.00     0.000 C 
BRANCH   3   4
ATOM      4  C   UNL     1      19.888  -6.354  47.717  1.00  0.00     0.006 C 
BRANCH   4   5
ATOM      5  C   UNL     1      20.182  -7.246  48.937  1.00  0.00     0.053 C 
BRANCH   5   6
ATOM      6  C   UNL     1      21.549  -7.020  49.514  1.00  0.00     0.041 C 
ATOM      7  O   UNL     1      22.577  -7.352  48.867  1.00  0.00    -0.550 OA
ATOM      8  O   UNL     1      21.685  -6.505  50.797  1.00  0.00    -0.550 OA
ENDBRANCH   5   6
ENDBRANCH   4   5
ENDBRANCH   3   4
ENDBRANCH   2   3
ENDBRANCH   1   2
BRANCH   1   9
ATOM      9  C   UNL     1      20.236  -7.407  43.696  1.00  0.00     0.000 C 
BRANCH   9  10
ATOM     10  C   UNL     1      20.725  -6.204  42.876  1.00  0.00    -0.000 C 
BRANCH  10  11
ATOM     11  C   UNL     1      19.583  -5.213  42.621  1.00  0.00    -0.000 C 
BRANCH  11  12
ATOM     12  C   UNL     1      19.948  -3.810  43.131  1.00  0.00    -0.000 C 
BRANCH  12  13
ATOM     13  C   UNL     1      19.944  -3.720  44.665  1.00  0.00    -0.003 C 
ATOM     14  C   UNL     1      21.330  -3.440  45.245  1.00  0.00     0.004 C 
ENDBRANCH  12  13
ENDBRANCH  11  12
ENDBRANCH  10  11
ENDBRANCH   9  10
ENDBRANCH   1   9
TORSDOF 10
ENDMDL
MODEL 3
REMARK VINA RESULT:    -3.648      1.343      3.119
REMARK INTER + INTRA:          -7.286
REMARK INTER:                  -6.244
REMARK INTRA:                  -1.042
REMARK UNBOUND:                -1.505
REMARK SMILES CCCCCCCCCCCC(=O)[O-]
REMARK SMILES IDX 7 1 8 2 9 3 10 4 11 5 12 6 13 7 14 8 6 9 5 10 4 11 3 12 2 13
REMARK SMILES IDX 1 14
REMARK H PARENT
REMARK Flexibility Score: inf
ROOT
ATOM      1  C   UNL     1      19.544  -5.181  42.613  1.00  0.00     0.000 C 
ENDROOT
BRANCH   1   2
ATOM      2  C   UNL     1      19.837  -3.750  43.095  1.00  0.00     0.000 C 
BRANCH   2   3
ATOM      3  C   UNL     1      20.230  -3.711  44.587  1.00  0.00     0.000 C 
BRANCH   3   4
ATOM      4  C   UNL     1      21.654  -3.183  44.842  1.00  0.00     0.006 C 
BRANCH   4   5
ATOM      5  C   UNL     1      21.707  -1.718  45.317  1.00  0.00     0.053 C 
BRANCH   5   6
ATOM      6  C   UNL     1      22.773  -0.918  44.628  1.00  0.00     0.041 C 
ATOM      7  O   UNL     1      23.972  -1.304  44.644  1.00  0.00    -0.550 OA
ATOM      8  O   UNL     1      22.454   0.294  44.029  1.00  0.00    -0.550 OA
ENDBRANCH   5   6
ENDBRANCH   4   5
ENDBRANCH   3   4
ENDBRANCH   2   3
ENDBRANCH   1   2
BRANCH   1   9
ATOM      9  C   UNL     1      20.684  -6.160  42.936  1.00  0.00     0.000 C 
BRANCH   9  10
ATOM     10  C   UNL     1      20.186  -7.443  43.616  1.00  0.00    -0.000 C 
BRANCH  10  11
ATOM     11  C   UNL     1      20.503  -7.429  45.116  1.00  0.00    -0.000 C 
BRANCH  11  12
ATOM     12  C   UNL     1      19.294  -6.944  45.930  1.00  0.00    -0.000 C 
BRANCH  12  13
ATOM     13  C   UNL     1      19.661  -6.592  47.379  1.00  0.00    -0.003 C 
ATOM     14  C   UNL     1      20.987  -5.839  47.489  1.00  0.00     0.004 C 
ENDBRANCH  12  13
ENDBRANCH  11  12
ENDBRANCH  10  11
ENDBRANCH   9  10
ENDBRANCH   1   9
TORSDOF 10
ENDMDL
MODEL 4
REMARK VINA RESULT:    -3.642      3.110      4.582
REMARK INTER + INTRA:          -7.275
REMARK INTER:                  -6.511
REMARK INTRA:                  -0.764
REMARK UNBOUND:                -1.505
REMARK SMILES CCCCCCCCCCCC(=O)[O-]
REMARK SMILES IDX 7 1 8 2 9 3 10 4 11 5 12 6 13 7 14 8 6 9 5 10 4 11 3 12 2 13
REMARK SMILES IDX 1 14
REMARK H PARENT
REMARK Flexibility Score: inf
ROOT
ATOM      1  C   UNL     1      19.883  -6.968  46.223  1.00  0.00     0.000 C 
ENDROOT
BRANCH   1   2
ATOM      2  C   UNL     1      19.885  -6.406  47.656  1.00  0.00     0.000 C 
BRANCH   2   3
ATOM      3  C   UNL     1      20.296  -7.471  48.693  1.00  0.00     0.000 C 
BRANCH   3   4
ATOM      4  C   UNL     1      20.351  -6.943  50.140  1.00  0.00     0.006 C 
BRANCH   4   5
ATOM      5  C   UNL     1      21.653  -7.285  50.886  1.00  0.00     0.053 C 
BRANCH   5   6
ATOM      6  C   UNL     1      22.726  -6.253  50.698  1.00  0.00     0.041 C 
ATOM      7  O   UNL     1      23.716  -6.490  49.957  1.00  0.00    -0.550 OA
ATOM      8  O   UNL     1      22.666  -5.054  51.396  1.00  0.00    -0.550 OA
ENDBRANCH   5   6
ENDBRANCH   4   5
ENDBRANCH   3   4
ENDBRANCH   2   3
ENDBRANCH   1   2
BRANCH   1   9
ATOM      9  C   UNL     1      18.467  -7.131  45.651  1.00  0.00     0.000 C 
BRANCH   9  10
ATOM     10  C   UNL     1      18.444  -7.121  44.117  1.00  0.00    -0.000 C 
BRANCH  10  11
ATOM     11  C   UNL     1      19.740  -6.528  43.552  1.00  0.00    -0.000 C 
BRANCH  11  12
ATOM     12  C   UNL     1      19.450  -5.284  42.698  1.00  0.00    -0.000 C 
BRANCH  12  13
ATOM     13  C   UNL     1      19.007  -4.079  43.542  1.00  0.00    -0.003 C 
ATOM     14  C   UNL     1      20.018  -3.712  44.628  1.00  0.00     0.004 C 
ENDBRANCH  12  13
ENDBRANCH  11  12
ENDBRANCH  10  11
ENDBRANCH   9  10
ENDBRANCH   1   9
TORSDOF 10
ENDMDL
MODEL 5
REMARK VINA RESULT:    -3.615      3.758      6.124
REMARK INTER + INTRA:          -7.233
REMARK INTER:                  -6.498
REMARK INTRA:                  -0.735
REMARK UNBOUND:                -1.505
REMARK SMILES CCCCCCCCCCCC(=O)[O-]
REMARK SMILES IDX 7 1 8 2 9 3 10 4 11 5 12 6 13 7 14 8 6 9 5 10 4 11 3 12 2 13
REMARK SMILES IDX 1 14
REMARK H PARENT
REMARK Flexibility Score: inf
ROOT
ATOM      1  C   UNL     1      21.020  -6.448  48.244  1.00  0.00     0.000 C 
ENDROOT
BRANCH   1   2
ATOM      2  C   UNL     1      20.112  -5.964  47.099  1.00  0.00     0.000 C 
BRANCH   2   3
ATOM      3  C   UNL     1      19.910  -7.052  46.024  1.00  0.00     0.000 C 
BRANCH   3   4
ATOM      4  C   UNL     1      18.473  -7.123  45.472  1.00  0.00     0.006 C 
BRANCH   4   5
ATOM      5  C   UNL     1      18.375  -6.948  43.946  1.00  0.00     0.053 C 
BRANCH   5   6
ATOM      6  C   UNL     1      19.170  -5.781  43.437  1.00  0.00     0.041 C 
ATOM      7  O   UNL     1      18.756  -4.604  43.611  1.00  0.00    -0.550 OA
ATOM      8  O   UNL     1      20.333  -5.996  42.711  1.00  0.00    -0.550 OA
ENDBRANCH   5   6
ENDBRANCH   4   5
ENDBRANCH   3   4
ENDBRANCH   2   3
ENDBRANCH   1   2
BRANCH   1   9
ATOM      9  C   UNL     1      20.233  -7.107  49.387  1.00  0.00     0.000 C 
BRANCH   9  10
ATOM     10  C   UNL     1      21.019  -7.135  50.706  1.00  0.00    -0.000 C 
BRANCH  10  11
ATOM     11  C   UNL     1      22.488  -7.499  50.462  1.00  0.00    -0.000 C 
BRANCH  11  12
ATOM     12  C   UNL     1      23.425  -6.459  51.096  1.00  0.00    -0.000 C 
BRANCH  12  13
ATOM     13  C   UNL     1      22.721  -5.123  51.377  1.00  0.00    -0.003 C 
ATOM     14  C   UNL     1      23.297  -3.967  50.560  1.00  0.00     0.004 C 
ENDBRANCH  12  13
ENDBRANCH  11  12
ENDBRANCH  10  11
ENDBRANCH   9  10
ENDBRANCH   1   9
TORSDOF 10
ENDMDL
MODEL 6
REMARK VINA RESULT:    -3.603      3.233      4.728
REMARK INTER + INTRA:          -7.214
REMARK INTER:                  -5.550
REMARK INTRA:                  -1.664
REMARK UNBOUND:                -1.505
REMARK SMILES CCCCCCCCCCCC(=O)[O-]
REMARK SMILES IDX 7 1 8 2 9 3 10 4 11 5 12 6 13 7 14 8 6 9 5 10 4 11 3 12 2 13
REMARK SMILES IDX 1 14
REMARK H PARENT
REMARK Flexibility Score: inf
ROOT
ATOM      1  C   UNL     1      20.317  -6.135  47.270  1.00  0.00     0.000 C 
ENDROOT
BRANCH   1   2
ATOM      2  C   UNL     1      19.357  -7.138  46.606  1.00  0.00     0.000 C 
BRANCH   2   3
ATOM      3  C   UNL     1      18.957  -6.698  45.182  1.00  0.00     0.000 C 
BRANCH   3   4
ATOM      4  C   UNL     1      19.296  -7.733  44.092  1.00  0.00     0.006 C 
BRANCH   4   5
ATOM      5  C   UNL     1      20.676  -7.533  43.440  1.00  0.00     0.053 C 
BRANCH   5   6
ATOM      6  C   UNL     1      21.718  -8.473  43.972  1.00  0.00     0.041 C 
ATOM      7  O   UNL     1      22.309  -8.224  45.056  1.00  0.00    -0.550 OA
ATOM      8  O   UNL     1      22.086  -9.591  43.235  1.00  0.00    -0.550 OA
ENDBRANCH   5   6
ENDBRANCH   4   5
ENDBRANCH   3   4
ENDBRANCH   2   3
ENDBRANCH   1   2
BRANCH   1   9
ATOM      9  C   UNL     1      20.524  -4.866  46.429  1.00  0.00     0.000 C 
BRANCH   9  10
ATOM     10  C   UNL     1      21.941  -4.769  45.847  1.00  0.00    -0.000 C 
BRANCH  10  11
ATOM     11  C   UNL     1      21.906  -4.267  44.398  1.00  0.00    -0.000 C 
BRANCH  11  12
ATOM     12  C   UNL     1      20.614  -3.484  44.118  1.00  0.00    -0.000 C 
BRANCH  12  13
ATOM     13  C   UNL     1      19.918  -3.939  42.826  1.00  0.00    -0.003 C 
ATOM     14  C   UNL     1      18.393  -3.931  42.942  1.00  0.00     0.004 C 
ENDBRANCH  12  13
ENDBRANCH  11  12
ENDBRANCH  10  11
ENDBRANCH   9  10
ENDBRANCH   1   9
TORSDOF 10
ENDMDL
MODEL 7
REMARK VINA RESULT:    -3.575      3.861      5.914
REMARK INTER + INTRA:          -7.170
REMARK INTER:                  -6.174
REMARK INTRA:                  -0.996
REMARK UNBOUND:                -1.505
REMARK SMILES CCCCCCCCCCCC(=O)[O-]
REMARK SMILES IDX 7 1 8 2 9 3 10 4 11 5 12 6 13 7 14 8 6 9 5 10 4 11 3 12 2 13
REMARK SMILES IDX 1 14
REMARK H PARENT
REMARK Flexibility Score: inf
ROOT
ATOM      1  C   UNL     1      20.556  -5.402  46.802  1.00  0.00     0.000 C 
ENDROOT
BRANCH   1   2
ATOM      2  C   UNL     1      21.920  -5.872  46.265  1.00  0.00     0.000 C 
BRANCH   2   3
ATOM      3  C   UNL     1      22.153  -5.421  44.808  1.00  0.00     0.000 C 
BRANCH   3   4
ATOM      4  C   UNL     1      20.896  -5.500  43.922  1.00  0.00     0.006 C 
BRANCH   4   5
ATOM      5  C   UNL     1      20.685  -6.869  43.249  1.00  0.00     0.053 C 
BRANCH   5   6
ATOM      6  C   UNL     1      19.614  -7.688  43.908  1.00  0.00     0.041 C 
ATOM      7  O   UNL     1      18.409  -7.324  43.855  1.00  0.00    -0.550 OA
ATOM      8  O   UNL     1      19.955  -8.817  44.641  1.00  0.00    -0.550 OA
ENDBRANCH   5   6
ENDBRANCH   4   5
ENDBRANCH   3   4
ENDBRANCH   2   3
ENDBRANCH   1   2
BRANCH   1   9
ATOM      9  C   UNL     1      19.780  -6.521  47.512  1.00  0.00     0.000 C 
BRANCH   9  10
ATOM     10  C   UNL     1      20.671  -7.363  48.436  1.00  0.00    -0.000 C 
BRANCH  10  11
ATOM     11  C   UNL     1      20.187  -7.283  49.889  1.00  0.00    -0.000 C 
BRANCH  11  12
ATOM     12  C   UNL     1      21.372  -7.158  50.858  1.00  0.00    -0.000 C 
BRANCH  12  13
ATOM     13  C   UNL     1      22.517  -6.310  50.284  1.00  0.00    -0.003 C 
ATOM     14  C   UNL     1      22.894  -5.136  51.187  1.00  0.00     0.004 C 
ENDBRANCH  12  13
ENDBRANCH  11  12
ENDBRANCH  10  11
ENDBRANCH   9  10
ENDBRANCH   1   9
TORSDOF 10
ENDMDL
MODEL 8
REMARK VINA RESULT:    -3.570      3.024      5.459
REMARK INTER + INTRA:          -7.162
REMARK INTER:                  -6.328
REMARK INTRA:                  -0.834
REMARK UNBOUND:                -1.505
REMARK SMILES CCCCCCCCCCCC(=O)[O-]
REMARK SMILES IDX 7 1 8 2 9 3 10 4 11 5 12 6 13 7 14 8 6 9 5 10 4 11 3 12 2 13
REMARK SMILES IDX 1 14
REMARK H PARENT
REMARK Flexibility Score: inf
ROOT
ATOM      1  C   UNL     1      19.721  -6.338  46.889  1.00  0.00     0.000 C 
ENDROOT
BRANCH   1   2
ATOM      2  C   UNL     1      18.876  -7.057  45.823  1.00  0.00     0.000 C 
BRANCH   2   3
ATOM      3  C   UNL     1      19.738  -7.559  44.646  1.00  0.00     0.000 C 
BRANCH   3   4
ATOM      4  C   UNL     1      19.625  -6.693  43.377  1.00  0.00     0.006 C 
BRANCH   4   5
ATOM      5  C   UNL     1      18.460  -5.685  43.403  1.00  0.00     0.053 C 
BRANCH   5   6
ATOM      6  C   UNL     1      18.920  -4.257  43.359  1.00  0.00     0.041 C 
ATOM      7  O   UNL     1      18.826  -3.589  42.296  1.00  0.00    -0.550 OA
ATOM      8  O   UNL     1      19.518  -3.685  44.475  1.00  0.00    -0.550 OA
ENDBRANCH   5   6
ENDBRANCH   4   5
ENDBRANCH   3   4
ENDBRANCH   2   3
ENDBRANCH   1   2
BRANCH   1   9
ATOM      9  C   UNL     1      21.161  -6.868  46.962  1.00  0.00     0.000 C 
BRANCH   9  10
ATOM     10  C   UNL     1      21.481  -7.528  48.311  1.00  0.00    -0.000 C 
BRANCH  10  11
ATOM     11  C   UNL     1      20.367  -7.261  49.330  1.00  0.00    -0.000 C 
BRANCH  11  12
ATOM     12  C   UNL     1      20.946  -7.058  50.738  1.00  0.00    -0.000 C 
BRANCH  12  13
ATOM     13  C   UNL     1      22.450  -6.749  50.719  1.00  0.00    -0.003 C 
ATOM     14  C   UNL     1      22.770  -5.329  51.187  1.00  0.00     0.004 C 
ENDBRANCH  12  13
ENDBRANCH  11  12
ENDBRANCH  10  11
ENDBRANCH   9  10
ENDBRANCH   1   9
TORSDOF 10
ENDMDL
MODEL 9
REMARK VINA RESULT:    -3.568      1.649      3.105
REMARK INTER + INTRA:          -7.158
REMARK INTER:                  -5.604
REMARK INTRA:                  -1.554
REMARK UNBOUND:                -1.505
REMARK SMILES CCCCCCCCCCCC(=O)[O-]
REMARK SMILES IDX 7 1 8 2 9 3 10 4 11 5 12 6 13 7 14 8 6 9 5 10 4 11 3 12 2 13
REMARK SMILES IDX 1 14
REMARK H PARENT
REMARK Flexibility Score: inf
ROOT
ATOM      1  C   UNL     1      19.469  -4.026  43.625  1.00  0.00     0.000 C 
ENDROOT
BRANCH   1   2
ATOM      2  C   UNL     1      20.850  -3.446  43.976  1.00  0.00     0.000 C 
BRANCH   2   3
ATOM      3  C   UNL     1      21.091  -3.409  45.500  1.00  0.00     0.000 C 
BRANCH   3   4
ATOM      4  C   UNL     1      22.512  -3.834  45.917  1.00  0.00     0.006 C 
BRANCH   4   5
ATOM      5  C   UNL     1      23.463  -4.098  44.735  1.00  0.00     0.053 C 
BRANCH   5   6
ATOM      6  C   UNL     1      24.442  -2.983  44.510  1.00  0.00     0.041 C 
ATOM      7  O   UNL     1      24.148  -1.801  44.831  1.00  0.00    -0.550 OA
ATOM      8  O   UNL     1      25.653  -3.238  43.881  1.00  0.00    -0.550 OA
ENDBRANCH   5   6
ENDBRANCH   4   5
ENDBRANCH   3   4
ENDBRANCH   2   3
ENDBRANCH   1   2
BRANCH   1   9
ATOM      9  C   UNL     1      19.551  -5.198  42.636  1.00  0.00     0.000 C 
BRANCH   9  10
ATOM     10  C   UNL     1      20.745  -6.122  42.913  1.00  0.00    -0.000 C 
BRANCH  10  11
ATOM     11  C   UNL     1      20.322  -7.325  43.764  1.00  0.00    -0.000 C 
BRANCH  11  12
ATOM     12  C   UNL     1      20.700  -7.117  45.238  1.00  0.00    -0.000 C 
BRANCH  12  13
ATOM     13  C   UNL     1      19.475  -6.866  46.131  1.00  0.00    -0.003 C 
ATOM     14  C   UNL     1      18.159  -7.242  45.451  1.00  0.00     0.004 C 
ENDBRANCH  12  13
ENDBRANCH  11  12
ENDBRANCH  10  11
ENDBRANCH   9  10
ENDBRANCH   1   9
TORSDOF 10
ENDMDL
