MODEL 1
REMARK VINA RESULT:    -5.680      0.000      0.000
REMARK INTER + INTRA:          -7.240
REMARK INTER:                  -6.842
REMARK INTRA:                  -0.398
REMARK UNBOUND:                -0.398
REMARK SMILES O=c1c(O)c(-c2ccc(O)cc2O)oc2cc(O)cc(O)c12
REMARK SMILES IDX 5 1 3 2 2 3 1 4 22 5 20 6 19 7 17 8 16 9 15 10 14 11 6 12
REMARK SMILES IDX 8 13 7 14 9 15 11 16 12 17 10 18 13 20 4 22 21 24 18 26
REMARK H PARENT 10 19 13 21 4 23 21 25 18 27
REMARK Flexibility Score: inf
ROOT
ATOM      1  C   UNL     1      71.325  38.582  20.262  1.00  0.00     0.184 A 
ATOM      2  C   UNL     1      71.657  37.466  19.472  1.00  0.00     0.208 A 
ATOM      3  C   UNL     1      70.623  36.688  18.927  1.00  0.00     0.238 A 
ATOM      4  O   UNL     1      70.909  35.690  18.211  1.00  0.00    -0.285 OA
ATOM      5  C   UNL     1      69.280  37.029  19.195  1.00  0.00     0.111 A 
ATOM      6  C   UNL     1      68.181  36.295  18.689  1.00  0.00     0.134 A 
ATOM      7  C   UNL     1      66.874  36.693  19.006  1.00  0.00     0.093 A 
ATOM      8  C   UNL     1      66.647  37.810  19.820  1.00  0.00     0.123 A 
ATOM      9  C   UNL     1      67.728  38.535  20.321  1.00  0.00     0.094 A 
ATOM     10  C   UNL     1      69.038  38.156  20.015  1.00  0.00     0.146 A 
ATOM     11  O   UNL     1      70.048  38.866  20.503  1.00  0.00    -0.451 OA
ENDROOT
BRANCH   1  12
ATOM     12  C   UNL     1      72.364  39.457  20.853  1.00  0.00     0.063 A 
ATOM     13  C   UNL     1      74.240  39.777  22.371  1.00  0.00     0.047 A 
ATOM     14  C   UNL     1      73.242  38.960  21.833  1.00  0.00     0.020 A 
ATOM     15  C   UNL     1      74.381  41.097  21.931  1.00  0.00     0.119 A 
ATOM     16  C   UNL     1      73.523  41.597  20.948  1.00  0.00     0.093 A 
ATOM     17  C   UNL     1      72.516  40.785  20.403  1.00  0.00     0.130 A 
BRANCH  15  18
ATOM     18  O   UNL     1      75.373  41.920  22.460  1.00  0.00    -0.508 OA
ATOM     19  H   UNL     1      76.351  41.786  22.229  1.00  0.00     0.293 HD
ENDBRANCH  15  18
BRANCH  17  20
ATOM     20  O   UNL     1      71.663  41.298  19.427  1.00  0.00    -0.507 OA
ATOM     21  H   UNL     1      70.719  40.946  19.307  1.00  0.00     0.293 HD
ENDBRANCH  17  20
ENDBRANCH   1  12
BRANCH   2  22
ATOM     22  O   UNL     1      72.996  37.129  19.257  1.00  0.00    -0.502 OA
ATOM     23  H   UNL     1      73.558  36.664  19.960  1.00  0.00     0.293 HD
ENDBRANCH   2  22
BRANCH   6  24
ATOM     24  O   UNL     1      68.375  35.178  17.875  1.00  0.00    -0.507 OA
ATOM     25  H   UNL     1      68.582  34.265  18.264  1.00  0.00     0.293 HD
ENDBRANCH   6  24
BRANCH   8  26
ATOM     26  O   UNL     1      65.349  38.205  20.136  1.00  0.00    -0.508 OA
ATOM     27  H   UNL     1      64.954  39.066  19.775  1.00  0.00     0.293 HD
ENDBRANCH   8  26
TORSDOF 6
ENDMDL
MODEL 2
REMARK VINA RESULT:    -5.328      2.083      3.485
REMARK INTER + INTRA:          -6.816
REMARK INTER:                  -6.381
REMARK INTRA:                  -0.435
REMARK UNBOUND:                -0.398
REMARK SMILES O=c1c(O)c(-c2ccc(O)cc2O)oc2cc(O)cc(O)c12
REMARK SMILES IDX 5 1 3 2 2 3 1 4 22 5 20 6 19 7 17 8 16 9 15 10 14 11 6 12
REMARK SMILES IDX 8 13 7 14 9 15 11 16 12 17 10 18 13 20 4 22 21 24 18 26
REMARK H PARENT 10 19 13 21 4 23 21 25 18 27
REMARK Flexibility Score: inf
ROOT
ATOM      1  C   UNL     1      71.356  39.180  19.393  1.00  0.00     0.184 A 
ATOM      2  C   UNL     1      70.671  39.842  20.428  1.00  0.00     0.208 A 
ATOM      3  C   UNL     1      69.387  39.401  20.784  1.00  0.00     0.238 A 
ATOM      4  O   UNL     1      68.767  39.983  21.715  1.00  0.00    -0.285 OA
ATOM      5  C   UNL     1      68.805  38.321  20.089  1.00  0.00     0.111 A 
ATOM      6  C   UNL     1      67.514  37.818  20.382  1.00  0.00     0.134 A 
ATOM      7  C   UNL     1      67.001  36.744  19.640  1.00  0.00     0.093 A 
ATOM      8  C   UNL     1      67.755  36.164  18.612  1.00  0.00     0.123 A 
ATOM      9  C   UNL     1      69.027  36.656  18.321  1.00  0.00     0.094 A 
ATOM     10  C   UNL     1      69.557  37.725  19.049  1.00  0.00     0.146 A 
ATOM     11  O   UNL     1      70.772  38.171  18.753  1.00  0.00    -0.451 OA
ENDROOT
BRANCH   1  12
ATOM     12  C   UNL     1      72.721  39.580  18.979  1.00  0.00     0.063 A 
ATOM     13  C   UNL     1      74.216  41.157  17.881  1.00  0.00     0.047 A 
ATOM     14  C   UNL     1      72.926  40.765  18.249  1.00  0.00     0.020 A 
ATOM     15  C   UNL     1      75.318  40.377  18.245  1.00  0.00     0.119 A 
ATOM     16  C   UNL     1      75.128  39.205  18.982  1.00  0.00     0.093 A 
ATOM     17  C   UNL     1      73.835  38.802  19.354  1.00  0.00     0.130 A 
BRANCH  15  18
ATOM     18  O   UNL     1      76.609  40.759  17.884  1.00  0.00    -0.508 OA
ATOM     19  H   UNL     1      77.075  40.354  17.080  1.00  0.00     0.293 HD
ENDBRANCH  15  18
BRANCH  17  20
ATOM     20  O   UNL     1      73.658  37.627  20.083  1.00  0.00    -0.507 OA
ATOM     21  H   UNL     1      72.739  37.220  20.222  1.00  0.00     0.293 HD
ENDBRANCH  17  20
ENDBRANCH   1  12
BRANCH   2  22
ATOM     22  O   UNL     1      71.257  40.937  21.072  1.00  0.00    -0.502 OA
ATOM     23  H   UNL     1      70.707  41.690  21.468  1.00  0.00     0.293 HD
ENDBRANCH   2  22
BRANCH   6  24
ATOM     24  O   UNL     1      66.740  38.376  21.400  1.00  0.00    -0.507 OA
ATOM     25  H   UNL     1      65.862  38.844  21.207  1.00  0.00     0.293 HD
ENDBRANCH   6  24
BRANCH   8  26
ATOM     26  O   UNL     1      67.246  35.097  17.875  1.00  0.00    -0.508 OA
ATOM     27  H   UNL     1      66.248  34.965  17.752  1.00  0.00     0.293 HD
ENDBRANCH   8  26
TORSDOF 6
ENDMDL
MODEL 3
REMARK VINA RESULT:    -5.313      1.606      3.259
REMARK INTER + INTRA:          -6.798
REMARK INTER:                  -6.395
REMARK INTRA:                  -0.404
REMARK UNBOUND:                -0.398
REMARK SMILES O=c1c(O)c(-c2ccc(O)cc2O)oc2cc(O)cc(O)c12
REMARK SMILES IDX 5 1 3 2 2 3 1 4 22 5 20 6 19 7 17 8 16 9 15 10 14 11 6 12
REMARK SMILES IDX 8 13 7 14 9 15 11 16 12 17 10 18 13 20 4 22 21 24 18 26
REMARK H PARENT 10 19 13 21 4 23 21 25 18 27
REMARK Flexibility Score: inf
ROOT
ATOM      1  C   UNL     1      70.490  39.805  20.101  1.00  0.00     0.184 A 
ATOM      2  C   UNL     1      69.465  40.766  20.180  1.00  0.00     0.208 A 
ATOM      3  C   UNL     1      68.147  40.378  19.897  1.00  0.00     0.238 A 
ATOM      4  O   UNL     1      67.220  41.230  19.973  1.00  0.00    -0.285 OA
ATOM      5  C   UNL     1      67.878  39.045  19.523  1.00  0.00     0.111 A 
ATOM      6  C   UNL     1      66.578  38.574  19.217  1.00  0.00     0.134 A 
ATOM      7  C   UNL     1      66.393  37.234  18.847  1.00  0.00     0.093 A 
ATOM      8  C   UNL     1      67.483  36.357  18.777  1.00  0.00     0.123 A 
ATOM      9  C   UNL     1      68.765  36.817  19.078  1.00  0.00     0.094 A 
ATOM     10  C   UNL     1      68.970  38.149  19.451  1.00  0.00     0.146 A 
ATOM     11  O   UNL     1      70.201  38.559  19.735  1.00  0.00    -0.451 OA
ENDROOT
BRANCH   1  12
ATOM     12  C   UNL     1      71.900  40.139  20.404  1.00  0.00     0.063 A 
ATOM     13  C   UNL     1      74.091  40.907  19.672  1.00  0.00     0.047 A 
ATOM     14  C   UNL     1      72.768  40.565  19.382  1.00  0.00     0.020 A 
ATOM     15  C   UNL     1      74.563  40.839  20.987  1.00  0.00     0.119 A 
ATOM     16  C   UNL     1      73.706  40.431  22.012  1.00  0.00     0.093 A 
ATOM     17  C   UNL     1      72.376  40.083  21.730  1.00  0.00     0.130 A 
BRANCH  15  18
ATOM     18  O   UNL     1      75.881  41.178  21.287  1.00  0.00    -0.508 OA
ATOM     19  H   UNL     1      76.518  41.513  20.572  1.00  0.00     0.293 HD
ENDBRANCH  15  18
BRANCH  17  20
ATOM     20  O   UNL     1      71.533  39.671  22.762  1.00  0.00    -0.507 OA
ATOM     21  H   UNL     1      70.887  38.898  22.645  1.00  0.00     0.293 HD
ENDBRANCH  17  20
ENDBRANCH   1  12
BRANCH   2  22
ATOM     22  O   UNL     1      69.767  42.090  20.513  1.00  0.00    -0.502 OA
ATOM     23  H   UNL     1      70.717  42.440  20.538  1.00  0.00     0.293 HD
ENDBRANCH   2  22
BRANCH   6  24
ATOM     24  O   UNL     1      65.473  39.424  19.278  1.00  0.00    -0.507 OA
ATOM     25  H   UNL     1      64.553  39.084  19.531  1.00  0.00     0.293 HD
ENDBRANCH   6  24
BRANCH   8  26
ATOM     26  O   UNL     1      67.300  35.026  18.408  1.00  0.00    -0.508 OA
ATOM     27  H   UNL     1      66.774  34.383  18.988  1.00  0.00     0.293 HD
ENDBRANCH   8  26
TORSDOF 6
ENDMDL
MODEL 4
REMARK VINA RESULT:    -5.290      1.582      3.344
REMARK INTER + INTRA:          -6.770
REMARK INTER:                  -6.367
REMARK INTRA:                  -0.403
REMARK UNBOUND:                -0.398
REMARK SMILES O=c1c(O)c(-c2ccc(O)cc2O)oc2cc(O)cc(O)c12
REMARK SMILES IDX 5 1 3 2 2 3 1 4 22 5 20 6 19 7 17 8 16 9 15 10 14 11 6 12
REMARK SMILES IDX 8 13 7 14 9 15 11 16 12 17 10 18 13 20 4 22 21 24 18 26
REMARK H PARENT 10 19 13 21 4 23 21 25 18 27
REMARK Flexibility Score: inf
ROOT
ATOM      1  C   UNL     1      71.756  39.812  20.758  1.00  0.00     0.184 A 
ATOM      2  C   UNL     1      70.604  40.384  21.328  1.00  0.00     0.208 A 
ATOM      3  C   UNL     1      69.361  39.769  21.111  1.00  0.00     0.238 A 
ATOM      4  O   UNL     1      68.323  40.269  21.623  1.00  0.00    -0.285 OA
ATOM      5  C   UNL     1      69.289  38.606  20.315  1.00  0.00     0.111 A 
ATOM      6  C   UNL     1      68.076  37.928  20.044  1.00  0.00     0.134 A 
ATOM      7  C   UNL     1      68.087  36.781  19.237  1.00  0.00     0.093 A 
ATOM      8  C   UNL     1      69.286  36.300  18.697  1.00  0.00     0.123 A 
ATOM      9  C   UNL     1      70.483  36.965  18.963  1.00  0.00     0.094 A 
ATOM     10  C   UNL     1      70.494  38.109  19.766  1.00  0.00     0.146 A 
ATOM     11  O   UNL     1      71.649  38.721  20.004  1.00  0.00    -0.451 OA
ENDROOT
BRANCH   1  12
ATOM     12  C   UNL     1      73.101  40.397  20.961  1.00  0.00     0.063 A 
ATOM     13  C   UNL     1      74.869  41.917  20.261  1.00  0.00     0.047 A 
ATOM     14  C   UNL     1      73.611  41.345  20.055  1.00  0.00     0.020 A 
ATOM     15  C   UNL     1      75.630  41.560  21.379  1.00  0.00     0.119 A 
ATOM     16  C   UNL     1      75.127  40.630  22.293  1.00  0.00     0.093 A 
ATOM     17  C   UNL     1      73.866  40.047  22.093  1.00  0.00     0.130 A 
BRANCH  15  18
ATOM     18  O   UNL     1      76.885  42.125  21.594  1.00  0.00    -0.508 OA
ATOM     19  H   UNL     1      77.736  41.638  21.336  1.00  0.00     0.293 HD
ENDBRANCH  15  18
BRANCH  17  20
ATOM     20  O   UNL     1      73.378  39.116  23.009  1.00  0.00    -0.507 OA
ATOM     21  H   UNL     1      73.934  38.805  23.799  1.00  0.00     0.293 HD
ENDBRANCH  17  20
ENDBRANCH   1  12
BRANCH   2  22
ATOM     22  O   UNL     1      70.700  41.560  22.078  1.00  0.00    -0.502 OA
ATOM     23  H   UNL     1      70.543  42.475  21.673  1.00  0.00     0.293 HD
ENDBRANCH   2  22
BRANCH   6  24
ATOM     24  O   UNL     1      66.866  38.383  20.568  1.00  0.00    -0.507 OA
ATOM     25  H   UNL     1      66.830  38.990  21.378  1.00  0.00     0.293 HD
ENDBRANCH   6  24
BRANCH   8  26
ATOM     26  O   UNL     1      69.297  35.161  17.895  1.00  0.00    -0.508 OA
ATOM     27  H   UNL     1      69.961  34.411  18.048  1.00  0.00     0.293 HD
ENDBRANCH   8  26
TORSDOF 6
ENDMDL
MODEL 5
REMARK VINA RESULT:    -4.900      2.139      7.364
REMARK INTER + INTRA:          -6.300
REMARK INTER:                  -5.865
REMARK INTRA:                  -0.435
REMARK UNBOUND:                -0.398
REMARK SMILES O=c1c(O)c(-c2ccc(O)cc2O)oc2cc(O)cc(O)c12
REMARK SMILES IDX 5 1 3 2 2 3 1 4 22 5 20 6 19 7 17 8 16 9 15 10 14 11 6 12
REMARK SMILES IDX 8 13 7 14 9 15 11 16 12 17 10 18 13 20 4 22 21 24 18 26
REMARK H PARENT 10 19 13 21 4 23 21 25 18 27
REMARK Flexibility Score: inf
ROOT
ATOM      1  C   UNL     1      72.819  39.402  20.273  1.00  0.00     0.184 A 
ATOM      2  C   UNL     1      73.016  39.717  21.630  1.00  0.00     0.208 A 
ATOM      3  C   UNL     1      74.123  40.501  21.992  1.00  0.00     0.238 A 
ATOM      4  O   UNL     1      74.304  40.795  23.205  1.00  0.00    -0.285 OA
ATOM      5  C   UNL     1      75.021  40.939  20.997  1.00  0.00     0.111 A 
ATOM      6  C   UNL     1      76.162  41.728  21.278  1.00  0.00     0.134 A 
ATOM      7  C   UNL     1      77.012  42.120  20.233  1.00  0.00     0.093 A 
ATOM      8  C   UNL     1      76.741  41.737  18.913  1.00  0.00     0.123 A 
ATOM      9  C   UNL     1      75.617  40.960  18.632  1.00  0.00     0.094 A 
ATOM     10  C   UNL     1      74.757  40.561  19.660  1.00  0.00     0.146 A 
ATOM     11  O   UNL     1      73.693  39.824  19.363  1.00  0.00    -0.451 OA
ENDROOT
BRANCH   1  12
ATOM     12  C   UNL     1      71.663  38.596  19.818  1.00  0.00     0.063 A 
ATOM     13  C   UNL     1      70.553  36.442  19.586  1.00  0.00     0.047 A 
ATOM     14  C   UNL     1      71.655  37.200  19.991  1.00  0.00     0.020 A 
ATOM     15  C   UNL     1      69.441  37.067  19.013  1.00  0.00     0.119 A 
ATOM     16  C   UNL     1      69.433  38.455  18.849  1.00  0.00     0.093 A 
ATOM     17  C   UNL     1      70.536  39.225  19.251  1.00  0.00     0.130 A 
BRANCH  15  18
ATOM     18  O   UNL     1      68.337  36.321  18.607  1.00  0.00    -0.508 OA
ATOM     19  H   UNL     1      67.795  35.775  19.267  1.00  0.00     0.293 HD
ENDBRANCH  15  18
BRANCH  17  20
ATOM     20  O   UNL     1      70.517  40.608  19.076  1.00  0.00    -0.507 OA
ATOM     21  H   UNL     1      70.880  41.043  18.234  1.00  0.00     0.293 HD
ENDBRANCH  17  20
ENDBRANCH   1  12
BRANCH   2  22
ATOM     22  O   UNL     1      72.132  39.234  22.600  1.00  0.00    -0.502 OA
ATOM     23  H   UNL     1      71.562  39.849  23.168  1.00  0.00     0.293 HD
ENDBRANCH   2  22
BRANCH   6  24
ATOM     24  O   UNL     1      76.458  42.125  22.583  1.00  0.00    -0.507 OA
ATOM     25  H   UNL     1      77.317  41.847  23.043  1.00  0.00     0.293 HD
ENDBRANCH   6  24
BRANCH   8  26
ATOM     26  O   UNL     1      77.585  42.125  17.875  1.00  0.00    -0.508 OA
ATOM     27  H   UNL     1      77.882  43.088  17.765  1.00  0.00     0.293 HD
ENDBRANCH   8  26
TORSDOF 6
ENDMDL
MODEL 6
REMARK VINA RESULT:    -4.864      1.666      6.986
REMARK INTER + INTRA:          -6.257
REMARK INTER:                  -5.880
REMARK INTRA:                  -0.377
REMARK UNBOUND:                -0.398
REMARK SMILES O=c1c(O)c(-c2ccc(O)cc2O)oc2cc(O)cc(O)c12
REMARK SMILES IDX 5 1 3 2 2 3 1 4 22 5 20 6 19 7 17 8 16 9 15 10 14 11 6 12
REMARK SMILES IDX 8 13 7 14 9 15 11 16 12 17 10 18 13 20 4 22 21 24 18 26
REMARK H PARENT 10 19 13 21 4 23 21 25 18 27
REMARK Flexibility Score: inf
ROOT
ATOM      1  C   UNL     1      71.999  39.205  20.198  1.00  0.00     0.184 A 
ATOM      2  C   UNL     1      72.526  39.917  19.106  1.00  0.00     0.208 A 
ATOM      3  C   UNL     1      73.709  40.652  19.282  1.00  0.00     0.238 A 
ATOM      4  O   UNL     1      74.195  41.288  18.307  1.00  0.00    -0.285 OA
ATOM      5  C   UNL     1      74.333  40.674  20.547  1.00  0.00     0.111 A 
ATOM      6  C   UNL     1      75.525  41.393  20.808  1.00  0.00     0.134 A 
ATOM      7  C   UNL     1      76.081  41.371  22.096  1.00  0.00     0.093 A 
ATOM      8  C   UNL     1      75.468  40.646  23.125  1.00  0.00     0.123 A 
ATOM      9  C   UNL     1      74.294  39.936  22.871  1.00  0.00     0.094 A 
ATOM     10  C   UNL     1      73.725  39.944  21.594  1.00  0.00     0.146 A 
ATOM     11  O   UNL     1      72.608  39.257  21.379  1.00  0.00    -0.451 OA
ENDROOT
BRANCH   1  12
ATOM     12  C   UNL     1      70.765  38.394  20.080  1.00  0.00     0.063 A 
ATOM     13  C   UNL     1      68.350  38.181  20.308  1.00  0.00     0.047 A 
ATOM     14  C   UNL     1      69.519  38.935  20.446  1.00  0.00     0.020 A 
ATOM     15  C   UNL     1      68.409  36.881  19.795  1.00  0.00     0.119 A 
ATOM     16  C   UNL     1      69.639  36.339  19.415  1.00  0.00     0.093 A 
ATOM     17  C   UNL     1      70.819  37.088  19.552  1.00  0.00     0.130 A 
BRANCH  15  18
ATOM     18  O   UNL     1      67.250  36.120  19.654  1.00  0.00    -0.508 OA
ATOM     19  H   UNL     1      66.330  36.546  19.681  1.00  0.00     0.293 HD
ENDBRANCH  15  18
BRANCH  17  20
ATOM     20  O   UNL     1      72.041  36.533  19.175  1.00  0.00    -0.507 OA
ATOM     21  H   UNL     1      72.827  36.492  19.815  1.00  0.00     0.293 HD
ENDBRANCH  17  20
ENDBRANCH   1  12
BRANCH   2  22
ATOM     22  O   UNL     1      71.864  39.910  17.875  1.00  0.00    -0.502 OA
ATOM     23  H   UNL     1      71.975  39.159  17.204  1.00  0.00     0.293 HD
ENDBRANCH   2  22
BRANCH   6  24
ATOM     24  O   UNL     1      76.159  42.125  19.803  1.00  0.00    -0.507 OA
ATOM     25  H   UNL     1      77.129  42.405  19.880  1.00  0.00     0.293 HD
ENDBRANCH   6  24
BRANCH   8  26
ATOM     26  O   UNL     1      76.019  40.625  24.404  1.00  0.00    -0.508 OA
ATOM     27  H   UNL     1      76.929  41.029  24.596  1.00  0.00     0.293 HD
ENDBRANCH   8  26
TORSDOF 6
ENDMDL
MODEL 7
REMARK VINA RESULT:    -4.819      1.561      3.283
REMARK INTER + INTRA:          -6.202
REMARK INTER:                  -5.793
REMARK INTRA:                  -0.409
REMARK UNBOUND:                -0.398
REMARK SMILES O=c1c(O)c(-c2ccc(O)cc2O)oc2cc(O)cc(O)c12
REMARK SMILES IDX 5 1 3 2 2 3 1 4 22 5 20 6 19 7 17 8 16 9 15 10 14 11 6 12
REMARK SMILES IDX 8 13 7 14 9 15 11 16 12 17 10 18 13 20 4 22 21 24 18 26
REMARK H PARENT 10 19 13 21 4 23 21 25 18 27
REMARK Flexibility Score: inf
ROOT
ATOM      1  C   UNL     1      72.238  39.735  21.360  1.00  0.00     0.184 A 
ATOM      2  C   UNL     1      71.005  40.187  21.866  1.00  0.00     0.208 A 
ATOM      3  C   UNL     1      69.829  39.527  21.477  1.00  0.00     0.238 A 
ATOM      4  O   UNL     1      68.719  39.919  21.930  1.00  0.00    -0.285 OA
ATOM      5  C   UNL     1      69.903  38.442  20.579  1.00  0.00     0.111 A 
ATOM      6  C   UNL     1      68.764  37.727  20.134  1.00  0.00     0.134 A 
ATOM      7  C   UNL     1      68.920  36.663  19.234  1.00  0.00     0.093 A 
ATOM      8  C   UNL     1      70.191  36.301  18.771  1.00  0.00     0.123 A 
ATOM      9  C   UNL     1      71.315  37.003  19.207  1.00  0.00     0.094 A 
ATOM     10  C   UNL     1      71.181  38.066  20.105  1.00  0.00     0.146 A 
ATOM     11  O   UNL     1      72.268  38.715  20.506  1.00  0.00    -0.451 OA
ENDROOT
BRANCH   1  12
ATOM     12  C   UNL     1      73.520  40.371  21.742  1.00  0.00     0.063 A 
ATOM     13  C   UNL     1      75.504  40.439  23.151  1.00  0.00     0.047 A 
ATOM     14  C   UNL     1      74.281  39.856  22.808  1.00  0.00     0.020 A 
ATOM     15  C   UNL     1      75.988  41.535  22.429  1.00  0.00     0.119 A 
ATOM     16  C   UNL     1      75.247  42.045  21.360  1.00  0.00     0.093 A 
ATOM     17  C   UNL     1      74.016  41.468  21.009  1.00  0.00     0.130 A 
BRANCH  15  18
ATOM     18  O   UNL     1      77.206  42.123  22.763  1.00  0.00    -0.508 OA
ATOM     19  H   UNL     1      78.035  41.565  22.931  1.00  0.00     0.293 HD
ENDBRANCH  15  18
BRANCH  17  20
ATOM     20  O   UNL     1      73.284  41.990  19.944  1.00  0.00    -0.507 OA
ATOM     21  H   UNL     1      72.499  42.616  20.093  1.00  0.00     0.293 HD
ENDBRANCH  17  20
ENDBRANCH   1  12
BRANCH   2  22
ATOM     22  O   UNL     1      70.958  41.290  22.722  1.00  0.00    -0.502 OA
ATOM     23  H   UNL     1      71.795  41.740  23.073  1.00  0.00     0.293 HD
ENDBRANCH   2  22
BRANCH   6  24
ATOM     24  O   UNL     1      67.485  38.064  20.578  1.00  0.00    -0.507 OA
ATOM     25  H   UNL     1      66.857  38.626  20.016  1.00  0.00     0.293 HD
ENDBRANCH   6  24
BRANCH   8  26
ATOM     26  O   UNL     1      70.346  35.245  17.876  1.00  0.00    -0.508 OA
ATOM     27  H   UNL     1      70.356  35.396  16.874  1.00  0.00     0.293 HD
ENDBRANCH   8  26
TORSDOF 6
ENDMDL
MODEL 8
REMARK VINA RESULT:    -4.777      1.952      7.073
REMARK INTER + INTRA:          -6.152
REMARK INTER:                  -5.726
REMARK INTRA:                  -0.426
REMARK UNBOUND:                -0.398
REMARK SMILES O=c1c(O)c(-c2ccc(O)cc2O)oc2cc(O)cc(O)c12
REMARK SMILES IDX 5 1 3 2 2 3 1 4 22 5 20 6 19 7 17 8 16 9 15 10 14 11 6 12
REMARK SMILES IDX 8 13 7 14 9 15 11 16 12 17 10 18 13 20 4 22 21 24 18 26
REMARK H PARENT 10 19 13 21 4 23 21 25 18 27
REMARK Flexibility Score: inf
ROOT
ATOM      1  C   UNL     1      70.744  39.585  20.334  1.00  0.00     0.184 A 
ATOM      2  C   UNL     1      70.945  40.391  21.470  1.00  0.00     0.208 A 
ATOM      3  C   UNL     1      72.203  40.980  21.670  1.00  0.00     0.238 A 
ATOM      4  O   UNL     1      72.392  41.710  22.681  1.00  0.00    -0.285 OA
ATOM      5  C   UNL     1      73.240  40.741  20.745  1.00  0.00     0.111 A 
ATOM      6  C   UNL     1      74.537  41.293  20.876  1.00  0.00     0.134 A 
ATOM      7  C   UNL     1      75.517  41.001  19.916  1.00  0.00     0.093 A 
ATOM      8  C   UNL     1      75.224  40.169  18.828  1.00  0.00     0.123 A 
ATOM      9  C   UNL     1      73.947  39.624  18.695  1.00  0.00     0.094 A 
ATOM     10  C   UNL     1      72.956  39.903  19.641  1.00  0.00     0.146 A 
ATOM     11  O   UNL     1      71.748  39.373  19.487  1.00  0.00    -0.451 OA
ENDROOT
BRANCH   1  12
ATOM     12  C   UNL     1      69.438  38.948  20.049  1.00  0.00     0.063 A 
ATOM     13  C   UNL     1      67.081  39.135  19.469  1.00  0.00     0.047 A 
ATOM     14  C   UNL     1      68.308  39.736  19.764  1.00  0.00     0.020 A 
ATOM     15  C   UNL     1      66.969  37.741  19.443  1.00  0.00     0.119 A 
ATOM     16  C   UNL     1      68.089  36.949  19.711  1.00  0.00     0.093 A 
ATOM     17  C   UNL     1      69.324  37.543  20.011  1.00  0.00     0.130 A 
BRANCH  15  18
ATOM     18  O   UNL     1      65.751  37.131  19.149  1.00  0.00    -0.508 OA
ATOM     19  H   UNL     1      65.068  36.937  19.873  1.00  0.00     0.293 HD
ENDBRANCH  15  18
BRANCH  17  20
ATOM     20  O   UNL     1      70.432  36.742  20.283  1.00  0.00    -0.507 OA
ATOM     21  H   UNL     1      70.457  36.123  21.086  1.00  0.00     0.293 HD
ENDBRANCH  17  20
ENDBRANCH   1  12
BRANCH   2  22
ATOM     22  O   UNL     1      69.911  40.577  22.392  1.00  0.00    -0.502 OA
ATOM     23  H   UNL     1      69.639  39.860  23.054  1.00  0.00     0.293 HD
ENDBRANCH   2  22
BRANCH   6  24
ATOM     24  O   UNL     1      74.859  42.125  21.949  1.00  0.00    -0.507 OA
ATOM     25  H   UNL     1      74.200  42.309  22.697  1.00  0.00     0.293 HD
ENDBRANCH   6  24
BRANCH   8  26
ATOM     26  O   UNL     1      76.198  39.879  17.875  1.00  0.00    -0.508 OA
ATOM     27  H   UNL     1      77.109  40.323  17.896  1.00  0.00     0.293 HD
ENDBRANCH   8  26
TORSDOF 6
ENDMDL
