MODEL 1
REMARK VINA RESULT:    -5.723      0.000      0.000
REMARK INTER + INTRA:          -6.978
REMARK INTER:                  -6.894
REMARK INTRA:                  -0.084
REMARK UNBOUND:                -0.084
REMARK SMILES O=c1c(O)c(-c2ccc(O)c(O)c2)oc2cc(O)cc(O)c12
REMARK SMILES IDX 5 1 3 2 2 3 1 4 22 5 20 6 19 7 17 8 16 9 15 10 14 11 6 12
REMARK SMILES IDX 7 13 8 14 9 15 13 16 11 17 10 18 12 20 4 22 21 24 18 26
REMARK H PARENT 10 19 12 21 4 23 21 25 18 27
REMARK Flexibility Score: inf
ROOT
ATOM      1  C   UNL     1      18.204  39.305  92.033  1.00  0.00     0.180 A 
ATOM      2  C   UNL     1      17.942  39.160  93.409  1.00  0.00     0.208 A 
ATOM      3  C   UNL     1      18.520  40.069  94.309  1.00  0.00     0.238 A 
ATOM      4  O   UNL     1      18.284  39.956  95.543  1.00  0.00    -0.285 OA
ATOM      5  C   UNL     1      19.363  41.089  93.824  1.00  0.00     0.111 A 
ATOM      6  C   UNL     1      19.989  42.043  94.665  1.00  0.00     0.134 A 
ATOM      7  C   UNL     1      20.822  43.022  94.105  1.00  0.00     0.093 A 
ATOM      8  C   UNL     1      21.042  43.067  92.724  1.00  0.00     0.123 A 
ATOM      9  C   UNL     1      20.428  42.130  91.891  1.00  0.00     0.094 A 
ATOM     10  C   UNL     1      19.593  41.146  92.429  1.00  0.00     0.146 A 
ATOM     11  O   UNL     1      19.017  40.271  91.613  1.00  0.00    -0.452 OA
ENDROOT
BRANCH   1  12
ATOM     12  C   UNL     1      17.617  38.398  91.020  1.00  0.00     0.025 A 
ATOM     13  C   UNL     1      16.230  38.199  90.935  1.00  0.00     0.016 A 
ATOM     14  C   UNL     1      15.697  37.358  89.956  1.00  0.00     0.051 A 
ATOM     15  C   UNL     1      16.532  36.712  89.037  1.00  0.00     0.157 A 
ATOM     16  C   UNL     1      18.454  37.770  90.086  1.00  0.00     0.062 A 
ATOM     17  C   UNL     1      17.930  36.925  89.100  1.00  0.00     0.158 A 
BRANCH  15  18
ATOM     18  O   UNL     1      15.937  35.882  88.086  1.00  0.00    -0.504 OA
ATOM     19  H   UNL     1      15.477  36.218  87.252  1.00  0.00     0.293 HD
ENDBRANCH  15  18
BRANCH  17  20
ATOM     20  O   UNL     1      18.824  36.324  88.212  1.00  0.00    -0.504 OA
ATOM     21  H   UNL     1      18.833  36.495  87.217  1.00  0.00     0.293 HD
ENDBRANCH  17  20
ENDBRANCH   1  12
BRANCH   2  22
ATOM     22  O   UNL     1      17.142  38.111  93.868  1.00  0.00    -0.502 OA
ATOM     23  H   UNL     1      17.375  37.140  93.704  1.00  0.00     0.293 HD
ENDBRANCH   2  22
BRANCH   6  24
ATOM     24  O   UNL     1      19.789  42.023  96.045  1.00  0.00    -0.507 OA
ATOM     25  H   UNL     1      19.228  41.307  96.492  1.00  0.00     0.293 HD
ENDBRANCH   6  24
BRANCH   8  26
ATOM     26  O   UNL     1      21.872  44.040  92.168  1.00  0.00    -0.508 OA
ATOM     27  H   UNL     1      22.086  44.898  92.662  1.00  0.00     0.293 HD
ENDBRANCH   8  26
TORSDOF 6
ENDMDL
MODEL 2
REMARK VINA RESULT:    -5.719      1.410      7.126
REMARK INTER + INTRA:          -6.973
REMARK INTER:                  -6.820
REMARK INTRA:                  -0.153
REMARK UNBOUND:                -0.084
REMARK SMILES O=c1c(O)c(-c2ccc(O)c(O)c2)oc2cc(O)cc(O)c12
REMARK SMILES IDX 5 1 3 2 2 3 1 4 22 5 20 6 19 7 17 8 16 9 15 10 14 11 6 12
REMARK SMILES IDX 7 13 8 14 9 15 13 16 11 17 10 18 12 20 4 22 21 24 18 26
REMARK H PARENT 10 19 12 21 4 23 21 25 18 27
REMARK Flexibility Score: inf
ROOT
ATOM      1  C   UNL     1      18.970  39.548  91.898  1.00  0.00     0.180 A 
ATOM      2  C   UNL     1      19.908  38.942  91.040  1.00  0.00     0.208 A 
ATOM      3  C   UNL     1      19.453  38.024  90.079  1.00  0.00     0.238 A 
ATOM      4  O   UNL     1      20.282  37.482  89.298  1.00  0.00    -0.285 OA
ATOM      5  C   UNL     1      18.080  37.714  90.006  1.00  0.00     0.111 A 
ATOM      6  C   UNL     1      17.541  36.797  89.070  1.00  0.00     0.134 A 
ATOM      7  C   UNL     1      16.164  36.536  89.068  1.00  0.00     0.093 A 
ATOM      8  C   UNL     1      15.315  37.171  89.981  1.00  0.00     0.123 A 
ATOM      9  C   UNL     1      15.841  38.076  90.905  1.00  0.00     0.094 A 
ATOM     10  C   UNL     1      17.211  38.351  90.924  1.00  0.00     0.146 A 
ATOM     11  O   UNL     1      17.684  39.220  91.810  1.00  0.00    -0.452 OA
ENDROOT
BRANCH   1  12
ATOM     12  C   UNL     1      19.369  40.540  92.923  1.00  0.00     0.025 A 
ATOM     13  C   UNL     1      19.238  40.266  94.293  1.00  0.00     0.016 A 
ATOM     14  C   UNL     1      19.643  41.208  95.242  1.00  0.00     0.051 A 
ATOM     15  C   UNL     1      20.196  42.431  94.845  1.00  0.00     0.157 A 
ATOM     16  C   UNL     1      19.943  41.755  92.522  1.00  0.00     0.062 A 
ATOM     17  C   UNL     1      20.353  42.707  93.466  1.00  0.00     0.158 A 
BRANCH  15  18
ATOM     18  O   UNL     1      20.576  43.330  95.843  1.00  0.00    -0.504 OA
ATOM     19  H   UNL     1      20.608  44.331  95.718  1.00  0.00     0.293 HD
ENDBRANCH  15  18
BRANCH  17  20
ATOM     20  O   UNL     1      20.905  43.899  92.993  1.00  0.00    -0.504 OA
ATOM     21  H   UNL     1      21.893  44.107  93.005  1.00  0.00     0.293 HD
ENDBRANCH  17  20
ENDBRANCH   1  12
BRANCH   2  22
ATOM     22  O   UNL     1      21.269  39.229  91.165  1.00  0.00    -0.502 OA
ATOM     23  H   UNL     1      21.665  40.115  90.878  1.00  0.00     0.293 HD
ENDBRANCH   2  22
BRANCH   6  24
ATOM     24  O   UNL     1      18.362  36.147  88.148  1.00  0.00    -0.507 OA
ATOM     25  H   UNL     1      18.485  35.142  88.161  1.00  0.00     0.293 HD
ENDBRANCH   6  24
BRANCH   8  26
ATOM     26  O   UNL     1      13.946  36.910  89.979  1.00  0.00    -0.508 OA
ATOM     27  H   UNL     1      13.579  36.009  89.696  1.00  0.00     0.293 HD
ENDBRANCH   8  26
TORSDOF 6
ENDMDL
MODEL 3
REMARK VINA RESULT:    -5.492      2.813      4.723
REMARK INTER + INTRA:          -6.700
REMARK INTER:                  -6.417
REMARK INTRA:                  -0.283
REMARK UNBOUND:                -0.084
REMARK SMILES O=c1c(O)c(-c2ccc(O)c(O)c2)oc2cc(O)cc(O)c12
REMARK SMILES IDX 5 1 3 2 2 3 1 4 22 5 20 6 19 7 17 8 16 9 15 10 14 11 6 12
REMARK SMILES IDX 7 13 8 14 9 15 13 16 11 17 10 18 12 20 4 22 21 24 18 26
REMARK H PARENT 10 19 12 21 4 23 21 25 18 27
REMARK Flexibility Score: inf
ROOT
ATOM      1  C   UNL     1      21.523  42.388  92.878  1.00  0.00     0.180 A 
ATOM      2  C   UNL     1      21.747  42.028  94.221  1.00  0.00     0.208 A 
ATOM      3  C   UNL     1      22.158  43.017  95.129  1.00  0.00     0.238 A 
ATOM      4  O   UNL     1      22.351  42.710  96.337  1.00  0.00    -0.285 OA
ATOM      5  C   UNL     1      22.358  44.338  94.678  1.00  0.00     0.111 A 
ATOM      6  C   UNL     1      22.775  45.392  95.527  1.00  0.00     0.134 A 
ATOM      7  C   UNL     1      22.961  46.678  94.999  1.00  0.00     0.093 A 
ATOM      8  C   UNL     1      22.738  46.930  93.641  1.00  0.00     0.123 A 
ATOM      9  C   UNL     1      22.325  45.895  92.800  1.00  0.00     0.094 A 
ATOM     10  C   UNL     1      22.134  44.606  93.307  1.00  0.00     0.146 A 
ATOM     11  O   UNL     1      21.737  43.641  92.486  1.00  0.00    -0.452 OA
ENDROOT
BRANCH   1  12
ATOM     12  C   UNL     1      21.071  41.407  91.866  1.00  0.00     0.025 A 
ATOM     13  C   UNL     1      21.972  40.817  90.966  1.00  0.00     0.016 A 
ATOM     14  C   UNL     1      21.525  39.876  90.036  1.00  0.00     0.051 A 
ATOM     15  C   UNL     1      20.179  39.497  89.992  1.00  0.00     0.157 A 
ATOM     16  C   UNL     1      19.724  41.013  91.840  1.00  0.00     0.062 A 
ATOM     17  C   UNL     1      19.266  40.070  90.910  1.00  0.00     0.158 A 
BRANCH  15  18
ATOM     18  O   UNL     1      19.796  38.555  89.036  1.00  0.00    -0.504 OA
ATOM     19  H   UNL     1      19.443  37.636  89.259  1.00  0.00     0.293 HD
ENDBRANCH  15  18
BRANCH  17  20
ATOM     20  O   UNL     1      17.911  39.735  90.935  1.00  0.00    -0.504 OA
ATOM     21  H   UNL     1      17.164  40.409  91.022  1.00  0.00     0.293 HD
ENDBRANCH  17  20
ENDBRANCH   1  12
BRANCH   2  22
ATOM     22  O   UNL     1      21.589  40.703  94.633  1.00  0.00    -0.502 OA
ATOM     23  H   UNL     1      22.364  40.052  94.675  1.00  0.00     0.293 HD
ENDBRANCH   2  22
BRANCH   6  24
ATOM     24  O   UNL     1      23.006  45.171  96.885  1.00  0.00    -0.507 OA
ATOM     25  H   UNL     1      23.739  44.549  97.206  1.00  0.00     0.293 HD
ENDBRANCH   6  24
BRANCH   8  26
ATOM     26  O   UNL     1      22.923  48.208  93.116  1.00  0.00    -0.508 OA
ATOM     27  H   UNL     1      23.526  48.885  93.569  1.00  0.00     0.293 HD
ENDBRANCH   8  26
TORSDOF 6
ENDMDL
MODEL 4
REMARK VINA RESULT:    -5.464      1.746      6.832
REMARK INTER + INTRA:          -6.666
REMARK INTER:                  -6.454
REMARK INTRA:                  -0.212
REMARK UNBOUND:                -0.084
REMARK SMILES O=c1c(O)c(-c2ccc(O)c(O)c2)oc2cc(O)cc(O)c12
REMARK SMILES IDX 5 1 3 2 2 3 1 4 22 5 20 6 19 7 17 8 16 9 15 10 14 11 6 12
REMARK SMILES IDX 7 13 8 14 9 15 13 16 11 17 10 18 12 20 4 22 21 24 18 26
REMARK H PARENT 10 19 12 21 4 23 21 25 18 27
REMARK Flexibility Score: inf
ROOT
ATOM      1  C   UNL     1      18.161  39.178  93.316  1.00  0.00     0.180 A 
ATOM      2  C   UNL     1      16.763  39.252  93.460  1.00  0.00     0.208 A 
ATOM      3  C   UNL     1      15.948  38.670  92.475  1.00  0.00     0.238 A 
ATOM      4  O   UNL     1      14.694  38.720  92.597  1.00  0.00    -0.285 OA
ATOM      5  C   UNL     1      16.542  38.046  91.359  1.00  0.00     0.111 A 
ATOM      6  C   UNL     1      15.793  37.440  90.321  1.00  0.00     0.134 A 
ATOM      7  C   UNL     1      16.459  36.847  89.238  1.00  0.00     0.093 A 
ATOM      8  C   UNL     1      17.857  36.849  89.173  1.00  0.00     0.123 A 
ATOM      9  C   UNL     1      18.599  37.444  90.194  1.00  0.00     0.094 A 
ATOM     10  C   UNL     1      17.955  38.040  91.282  1.00  0.00     0.146 A 
ATOM     11  O   UNL     1      18.686  38.595  92.242  1.00  0.00    -0.452 OA
ENDROOT
BRANCH   1  12
ATOM     12  C   UNL     1      19.087  39.751  94.321  1.00  0.00     0.025 A 
ATOM     13  C   UNL     1      19.893  38.929  95.123  1.00  0.00     0.016 A 
ATOM     14  C   UNL     1      20.775  39.492  96.047  1.00  0.00     0.051 A 
ATOM     15  C   UNL     1      20.881  40.881  96.180  1.00  0.00     0.157 A 
ATOM     16  C   UNL     1      19.206  41.144  94.435  1.00  0.00     0.062 A 
ATOM     17  C   UNL     1      20.089  41.719  95.360  1.00  0.00     0.158 A 
BRANCH  15  18
ATOM     18  O   UNL     1      21.779  41.380  97.125  1.00  0.00    -0.504 OA
ATOM     19  H   UNL     1      22.472  40.818  97.597  1.00  0.00     0.293 HD
ENDBRANCH  15  18
BRANCH  17  20
ATOM     20  O   UNL     1      20.145  43.113  95.427  1.00  0.00    -0.504 OA
ATOM     21  H   UNL     1      19.639  43.666  96.103  1.00  0.00     0.293 HD
ENDBRANCH  17  20
ENDBRANCH   1  12
BRANCH   2  22
ATOM     22  O   UNL     1      16.199  39.919  94.549  1.00  0.00    -0.502 OA
ATOM     23  H   UNL     1      15.327  40.429  94.482  1.00  0.00     0.293 HD
ENDBRANCH   2  22
BRANCH   6  24
ATOM     24  O   UNL     1      14.398  37.423  90.357  1.00  0.00    -0.507 OA
ATOM     25  H   UNL     1      13.878  36.560  90.462  1.00  0.00     0.293 HD
ENDBRANCH   6  24
BRANCH   8  26
ATOM     26  O   UNL     1      18.518  36.260  88.096  1.00  0.00    -0.508 OA
ATOM     27  H   UNL     1      19.084  36.808  87.458  1.00  0.00     0.293 HD
ENDBRANCH   8  26
TORSDOF 6
ENDMDL
MODEL 5
REMARK VINA RESULT:    -5.417      1.417      6.797
REMARK INTER + INTRA:          -6.610
REMARK INTER:                  -6.682
REMARK INTRA:                   0.072
REMARK UNBOUND:                -0.084
REMARK SMILES O=c1c(O)c(-c2ccc(O)c(O)c2)oc2cc(O)cc(O)c12
REMARK SMILES IDX 5 1 3 2 2 3 1 4 22 5 20 6 19 7 17 8 16 9 15 10 14 11 6 12
REMARK SMILES IDX 7 13 8 14 9 15 13 16 11 17 10 18 12 20 4 22 21 24 18 26
REMARK H PARENT 10 19 12 21 4 23 21 25 18 27
REMARK Flexibility Score: inf
ROOT
ATOM      1  C   UNL     1      18.718  40.098  93.013  1.00  0.00     0.180 A 
ATOM      2  C   UNL     1      17.464  39.702  93.517  1.00  0.00     0.208 A 
ATOM      3  C   UNL     1      16.744  38.707  92.838  1.00  0.00     0.238 A 
ATOM      4  O   UNL     1      15.624  38.337  93.285  1.00  0.00    -0.285 OA
ATOM      5  C   UNL     1      17.276  38.141  91.662  1.00  0.00     0.111 A 
ATOM      6  C   UNL     1      16.612  37.136  90.916  1.00  0.00     0.134 A 
ATOM      7  C   UNL     1      17.204  36.630  89.750  1.00  0.00     0.093 A 
ATOM      8  C   UNL     1      18.446  37.109  89.315  1.00  0.00     0.123 A 
ATOM      9  C   UNL     1      19.104  38.098  90.047  1.00  0.00     0.094 A 
ATOM     10  C   UNL     1      18.531  38.615  91.212  1.00  0.00     0.146 A 
ATOM     11  O   UNL     1      19.182  39.552  91.892  1.00  0.00    -0.452 OA
ENDROOT
BRANCH   1  12
ATOM     12  C   UNL     1      19.547  41.126  93.683  1.00  0.00     0.025 A 
ATOM     13  C   UNL     1      20.107  42.194  92.965  1.00  0.00     0.016 A 
ATOM     14  C   UNL     1      20.865  43.165  93.623  1.00  0.00     0.051 A 
ATOM     15  C   UNL     1      21.067  43.099  95.005  1.00  0.00     0.157 A 
ATOM     16  C   UNL     1      19.728  41.069  95.073  1.00  0.00     0.062 A 
ATOM     17  C   UNL     1      20.487  42.039  95.742  1.00  0.00     0.158 A 
BRANCH  15  18
ATOM     18  O   UNL     1      21.837  44.099  95.601  1.00  0.00    -0.504 OA
ATOM     19  H   UNL     1      22.460  44.710  95.093  1.00  0.00     0.293 HD
ENDBRANCH  15  18
BRANCH  17  20
ATOM     20  O   UNL     1      20.635  41.912  97.125  1.00  0.00    -0.504 OA
ATOM     21  H   UNL     1      20.011  42.328  97.800  1.00  0.00     0.293 HD
ENDBRANCH  17  20
ENDBRANCH   1  12
BRANCH   2  22
ATOM     22  O   UNL     1      16.937  40.313  94.657  1.00  0.00    -0.502 OA
ATOM     23  H   UNL     1      16.886  39.841  95.551  1.00  0.00     0.293 HD
ENDBRANCH   2  22
BRANCH   6  24
ATOM     24  O   UNL     1      15.373  36.641  91.324  1.00  0.00    -0.507 OA
ATOM     25  H   UNL     1      14.823  37.104  92.037  1.00  0.00     0.293 HD
ENDBRANCH   6  24
BRANCH   8  26
ATOM     26  O   UNL     1      19.034  36.606  88.155  1.00  0.00    -0.508 OA
ATOM     27  H   UNL     1      18.474  36.300  87.367  1.00  0.00     0.293 HD
ENDBRANCH   8  26
TORSDOF 6
ENDMDL
MODEL 6
REMARK VINA RESULT:    -5.414      2.930      7.668
REMARK INTER + INTRA:          -6.606
REMARK INTER:                  -6.550
REMARK INTRA:                  -0.056
REMARK UNBOUND:                -0.084
REMARK SMILES O=c1c(O)c(-c2ccc(O)c(O)c2)oc2cc(O)cc(O)c12
REMARK SMILES IDX 5 1 3 2 2 3 1 4 22 5 20 6 19 7 17 8 16 9 15 10 14 11 6 12
REMARK SMILES IDX 7 13 8 14 9 15 13 16 11 17 10 18 12 20 4 22 21 24 18 26
REMARK H PARENT 10 19 12 21 4 23 21 25 18 27
REMARK Flexibility Score: inf
ROOT
ATOM      1  C   UNL     1      21.273  42.514  92.172  1.00  0.00     0.180 A 
ATOM      2  C   UNL     1      20.173  41.684  92.460  1.00  0.00     0.208 A 
ATOM      3  C   UNL     1      19.805  40.700  91.529  1.00  0.00     0.238 A 
ATOM      4  O   UNL     1      18.827  39.943  91.780  1.00  0.00    -0.285 OA
ATOM      5  C   UNL     1      20.526  40.575  90.325  1.00  0.00     0.111 A 
ATOM      6  C   UNL     1      20.217  39.611  89.333  1.00  0.00     0.134 A 
ATOM      7  C   UNL     1      20.977  39.557  88.156  1.00  0.00     0.093 A 
ATOM      8  C   UNL     1      22.039  40.446  87.951  1.00  0.00     0.123 A 
ATOM      9  C   UNL     1      22.347  41.396  88.925  1.00  0.00     0.094 A 
ATOM     10  C   UNL     1      21.602  41.467  90.106  1.00  0.00     0.146 A 
ATOM     11  O   UNL     1      21.921  42.377  91.018  1.00  0.00    -0.452 OA
ENDROOT
BRANCH   1  12
ATOM     12  C   UNL     1      21.735  43.563  93.111  1.00  0.00     0.025 A 
ATOM     13  C   UNL     1      22.017  43.268  94.453  1.00  0.00     0.016 A 
ATOM     14  C   UNL     1      22.474  44.269  95.314  1.00  0.00     0.051 A 
ATOM     15  C   UNL     1      22.670  45.574  94.852  1.00  0.00     0.157 A 
ATOM     16  C   UNL     1      21.952  44.866  92.638  1.00  0.00     0.062 A 
ATOM     17  C   UNL     1      22.410  45.877  93.493  1.00  0.00     0.158 A 
BRANCH  15  18
ATOM     18  O   UNL     1      23.125  46.529  95.763  1.00  0.00    -0.504 OA
ATOM     19  H   UNL     1      24.023  46.986  95.701  1.00  0.00     0.293 HD
ENDBRANCH  15  18
BRANCH  17  20
ATOM     20  O   UNL     1      22.592  47.153  92.957  1.00  0.00    -0.504 OA
ATOM     21  H   UNL     1      22.459  48.008  93.477  1.00  0.00     0.293 HD
ENDBRANCH  17  20
ENDBRANCH   1  12
BRANCH   2  22
ATOM     22  O   UNL     1      19.444  41.861  93.638  1.00  0.00    -0.502 OA
ATOM     23  H   UNL     1      19.886  41.902  94.548  1.00  0.00     0.293 HD
ENDBRANCH   2  22
BRANCH   6  24
ATOM     24  O   UNL     1      19.164  38.713  89.508  1.00  0.00    -0.507 OA
ATOM     25  H   UNL     1      18.794  38.169  88.738  1.00  0.00     0.293 HD
ENDBRANCH   6  24
BRANCH   8  26
ATOM     26  O   UNL     1      22.794  40.393  86.780  1.00  0.00    -0.508 OA
ATOM     27  H   UNL     1      23.497  39.678  86.636  1.00  0.00     0.293 HD
ENDBRANCH   8  26
TORSDOF 6
ENDMDL
MODEL 7
REMARK VINA RESULT:    -5.276      2.050      7.225
REMARK INTER + INTRA:          -6.440
REMARK INTER:                  -6.149
REMARK INTRA:                  -0.291
REMARK UNBOUND:                -0.084
REMARK SMILES O=c1c(O)c(-c2ccc(O)c(O)c2)oc2cc(O)cc(O)c12
REMARK SMILES IDX 5 1 3 2 2 3 1 4 22 5 20 6 19 7 17 8 16 9 15 10 14 11 6 12
REMARK SMILES IDX 7 13 8 14 9 15 13 16 11 17 10 18 12 20 4 22 21 24 18 26
REMARK H PARENT 10 19 12 21 4 23 21 25 18 27
REMARK Flexibility Score: inf
ROOT
ATOM      1  C   UNL     1      18.186  39.244  93.293  1.00  0.00     0.180 A 
ATOM      2  C   UNL     1      18.594  38.902  91.989  1.00  0.00     0.208 A 
ATOM      3  C   UNL     1      17.633  38.435  91.079  1.00  0.00     0.238 A 
ATOM      4  O   UNL     1      17.984  38.135  89.905  1.00  0.00    -0.285 OA
ATOM      5  C   UNL     1      16.292  38.299  91.490  1.00  0.00     0.111 A 
ATOM      6  C   UNL     1      15.263  37.831  90.635  1.00  0.00     0.134 A 
ATOM      7  C   UNL     1      13.953  37.716  91.123  1.00  0.00     0.093 A 
ATOM      8  C   UNL     1      13.652  38.057  92.447  1.00  0.00     0.123 A 
ATOM      9  C   UNL     1      14.662  38.518  93.292  1.00  0.00     0.094 A 
ATOM     10  C   UNL     1      15.974  38.642  92.825  1.00  0.00     0.146 A 
ATOM     11  O   UNL     1      16.914  39.089  93.650  1.00  0.00    -0.452 OA
ENDROOT
BRANCH   1  12
ATOM     12  C   UNL     1      19.136  39.762  94.304  1.00  0.00     0.025 A 
ATOM     13  C   UNL     1      19.993  38.902  95.009  1.00  0.00     0.016 A 
ATOM     14  C   UNL     1      20.897  39.417  95.941  1.00  0.00     0.051 A 
ATOM     15  C   UNL     1      20.974  40.793  96.178  1.00  0.00     0.157 A 
ATOM     16  C   UNL     1      19.226  41.145  94.523  1.00  0.00     0.062 A 
ATOM     17  C   UNL     1      20.130  41.671  95.456  1.00  0.00     0.158 A 
BRANCH  15  18
ATOM     18  O   UNL     1      21.896  41.242  97.125  1.00  0.00    -0.504 OA
ATOM     19  H   UNL     1      22.857  40.935  97.167  1.00  0.00     0.293 HD
ENDBRANCH  15  18
BRANCH  17  20
ATOM     20  O   UNL     1      20.156  43.056  95.630  1.00  0.00    -0.504 OA
ATOM     21  H   UNL     1      20.686  43.688  95.047  1.00  0.00     0.293 HD
ENDBRANCH  17  20
ENDBRANCH   1  12
BRANCH   2  22
ATOM     22  O   UNL     1      19.938  38.999  91.622  1.00  0.00    -0.502 OA
ATOM     23  H   UNL     1      20.630  39.448  92.209  1.00  0.00     0.293 HD
ENDBRANCH   2  22
BRANCH   6  24
ATOM     24  O   UNL     1      15.533  37.483  89.312  1.00  0.00    -0.507 OA
ATOM     25  H   UNL     1      15.685  36.520  89.035  1.00  0.00     0.293 HD
ENDBRANCH   6  24
BRANCH   8  26
ATOM     26  O   UNL     1      12.350  37.941  92.931  1.00  0.00    -0.508 OA
ATOM     27  H   UNL     1      11.595  37.603  92.346  1.00  0.00     0.293 HD
ENDBRANCH   8  26
TORSDOF 6
ENDMDL
MODEL 8
REMARK VINA RESULT:    -5.179      3.524      4.823
REMARK INTER + INTRA:          -6.323
REMARK INTER:                  -6.182
REMARK INTRA:                  -0.141
REMARK UNBOUND:                -0.084
REMARK SMILES O=c1c(O)c(-c2ccc(O)c(O)c2)oc2cc(O)cc(O)c12
REMARK SMILES IDX 5 1 3 2 2 3 1 4 22 5 20 6 19 7 17 8 16 9 15 10 14 11 6 12
REMARK SMILES IDX 7 13 8 14 9 15 13 16 11 17 10 18 12 20 4 22 21 24 18 26
REMARK H PARENT 10 19 12 21 4 23 21 25 18 27
REMARK Flexibility Score: inf
ROOT
ATOM      1  C   UNL     1      19.457  40.986  94.122  1.00  0.00     0.180 A 
ATOM      2  C   UNL     1      20.079  41.964  94.922  1.00  0.00     0.208 A 
ATOM      3  C   UNL     1      20.895  42.926  94.306  1.00  0.00     0.238 A 
ATOM      4  O   UNL     1      21.449  43.813  95.011  1.00  0.00    -0.285 OA
ATOM      5  C   UNL     1      21.091  42.883  92.911  1.00  0.00     0.111 A 
ATOM      6  C   UNL     1      21.902  43.812  92.213  1.00  0.00     0.134 A 
ATOM      7  C   UNL     1      22.055  43.696  90.824  1.00  0.00     0.093 A 
ATOM      8  C   UNL     1      21.415  42.670  90.120  1.00  0.00     0.123 A 
ATOM      9  C   UNL     1      20.615  41.753  90.802  1.00  0.00     0.094 A 
ATOM     10  C   UNL     1      20.449  41.851  92.187  1.00  0.00     0.146 A 
ATOM     11  O   UNL     1      19.678  40.968  92.810  1.00  0.00    -0.452 OA
ENDROOT
BRANCH   1  12
ATOM     12  C   UNL     1      18.567  39.950  94.694  1.00  0.00     0.025 A 
ATOM     13  C   UNL     1      19.042  39.012  95.623  1.00  0.00     0.016 A 
ATOM     14  C   UNL     1      18.178  38.059  96.167  1.00  0.00     0.051 A 
ATOM     15  C   UNL     1      16.826  38.031  95.807  1.00  0.00     0.157 A 
ATOM     16  C   UNL     1      17.207  39.940  94.348  1.00  0.00     0.062 A 
ATOM     17  C   UNL     1      16.332  38.988  94.888  1.00  0.00     0.158 A 
BRANCH  15  18
ATOM     18  O   UNL     1      16.016  37.052  96.384  1.00  0.00    -0.504 OA
ATOM     19  H   UNL     1      15.155  36.719  95.976  1.00  0.00     0.293 HD
ENDBRANCH  15  18
BRANCH  17  20
ATOM     20  O   UNL     1      14.995  39.030  94.489  1.00  0.00    -0.504 OA
ATOM     21  H   UNL     1      14.667  39.515  93.666  1.00  0.00     0.293 HD
ENDBRANCH  17  20
ENDBRANCH   1  12
BRANCH   2  22
ATOM     22  O   UNL     1      19.907  41.955  96.308  1.00  0.00    -0.502 OA
ATOM     23  H   UNL     1      19.101  42.372  96.758  1.00  0.00     0.293 HD
ENDBRANCH   2  22
BRANCH   6  24
ATOM     24  O   UNL     1      22.553  44.845  92.889  1.00  0.00    -0.507 OA
ATOM     25  H   UNL     1      23.470  45.171  92.606  1.00  0.00     0.293 HD
ENDBRANCH   6  24
BRANCH   8  26
ATOM     26  O   UNL     1      21.568  42.554  88.739  1.00  0.00    -0.508 OA
ATOM     27  H   UNL     1      22.467  42.342  88.322  1.00  0.00     0.293 HD
ENDBRANCH   8  26
TORSDOF 6
ENDMDL
MODEL 9
REMARK VINA RESULT:    -5.156      2.878      6.236
REMARK INTER + INTRA:          -6.295
REMARK INTER:                  -6.142
REMARK INTRA:                  -0.153
REMARK UNBOUND:                -0.084
REMARK SMILES O=c1c(O)c(-c2ccc(O)c(O)c2)oc2cc(O)cc(O)c12
REMARK SMILES IDX 5 1 3 2 2 3 1 4 22 5 20 6 19 7 17 8 16 9 15 10 14 11 6 12
REMARK SMILES IDX 7 13 8 14 9 15 13 16 11 17 10 18 12 20 4 22 21 24 18 26
REMARK H PARENT 10 19 12 21 4 23 21 25 18 27
REMARK Flexibility Score: inf
ROOT
ATOM      1  C   UNL     1      16.581  38.559  93.047  1.00  0.00     0.180 A 
ATOM      2  C   UNL     1      17.683  39.429  93.147  1.00  0.00     0.208 A 
ATOM      3  C   UNL     1      18.635  39.440  92.115  1.00  0.00     0.238 A 
ATOM      4  O   UNL     1      19.622  40.222  92.189  1.00  0.00    -0.285 OA
ATOM      5  C   UNL     1      18.481  38.571  91.016  1.00  0.00     0.111 A 
ATOM      6  C   UNL     1      19.398  38.516  89.937  1.00  0.00     0.134 A 
ATOM      7  C   UNL     1      19.178  37.616  88.884  1.00  0.00     0.093 A 
ATOM      8  C   UNL     1      18.063  36.771  88.889  1.00  0.00     0.123 A 
ATOM      9  C   UNL     1      17.157  36.821  89.949  1.00  0.00     0.094 A 
ATOM     10  C   UNL     1      17.357  37.712  91.008  1.00  0.00     0.146 A 
ATOM     11  O   UNL     1      16.476  37.742  92.002  1.00  0.00    -0.452 OA
ENDROOT
BRANCH   1  12
ATOM     12  C   UNL     1      15.525  38.503  94.084  1.00  0.00     0.025 A 
ATOM     13  C   UNL     1      15.335  37.358  94.872  1.00  0.00     0.016 A 
ATOM     14  C   UNL     1      14.348  37.338  95.860  1.00  0.00     0.051 A 
ATOM     15  C   UNL     1      13.544  38.459  96.090  1.00  0.00     0.157 A 
ATOM     16  C   UNL     1      14.736  39.638  94.327  1.00  0.00     0.062 A 
ATOM     17  C   UNL     1      13.743  39.627  95.316  1.00  0.00     0.158 A 
BRANCH  15  18
ATOM     18  O   UNL     1      12.574  38.373  97.090  1.00  0.00    -0.504 OA
ATOM     19  H   UNL     1      11.602  38.613  96.956  1.00  0.00     0.293 HD
ENDBRANCH  15  18
BRANCH  17  20
ATOM     20  O   UNL     1      12.988  40.788  95.495  1.00  0.00    -0.504 OA
ATOM     21  H   UNL     1      12.257  41.088  94.866  1.00  0.00     0.293 HD
ENDBRANCH  17  20
ENDBRANCH   1  12
BRANCH   2  22
ATOM     22  O   UNL     1      17.839  40.245  94.270  1.00  0.00    -0.502 OA
ATOM     23  H   UNL     1      17.100  40.381  94.948  1.00  0.00     0.293 HD
ENDBRANCH   2  22
BRANCH   6  24
ATOM     24  O   UNL     1      20.519  39.346  89.905  1.00  0.00    -0.507 OA
ATOM     25  H   UNL     1      20.658  40.025  89.167  1.00  0.00     0.293 HD
ENDBRANCH   6  24
BRANCH   8  26
ATOM     26  O   UNL     1      17.846  35.876  87.842  1.00  0.00    -0.508 OA
ATOM     27  H   UNL     1      16.990  35.891  87.301  1.00  0.00     0.293 HD
ENDBRANCH   8  26
TORSDOF 6
ENDMDL
