MODEL 1
REMARK VINA RESULT:    -4.692      0.000      0.000
REMARK INTER + INTRA:          -5.888
REMARK INTER:                  -5.653
REMARK INTRA:                  -0.235
REMARK UNBOUND:                -0.235
REMARK SMILES Oc1cc(O)c2cc(O)c(-c3ccc(O)c(O)c3)[o+]c2c1
REMARK SMILES IDX 10 1 19 2 20 3 21 4 2 5 3 6 4 7 6 8 7 9 8 10 11 11 12 12
REMARK SMILES IDX 13 13 14 14 18 15 16 16 15 17 17 19 9 21 1 23 5 25
REMARK H PARENT 15 18 17 20 9 22 1 24 5 26
REMARK Flexibility Score: inf
ROOT
ATOM      1  C   UNL     1     -26.090  51.456  42.095  1.00  0.00     0.402 A 
ATOM      2  O   UNL     1     -26.580  51.938  43.234  1.00  0.00    -0.202 OA
ATOM      3  C   UNL     1     -26.302  53.154  43.692  1.00  0.00     0.368 A 
ATOM      4  C   UNL     1     -26.868  53.572  44.899  1.00  0.00     0.162 A 
ATOM      5  C   UNL     1     -26.595  54.847  45.403  1.00  0.00     0.128 A 
ATOM      6  C   UNL     1     -25.751  55.708  44.696  1.00  0.00     0.093 A 
ATOM      7  C   UNL     1     -25.171  55.312  43.484  1.00  0.00     0.136 A 
ATOM      8  C   UNL     1     -25.445  54.018  42.970  1.00  0.00     0.125 A 
ATOM      9  C   UNL     1     -24.897  53.533  41.771  1.00  0.00     0.078 A 
ATOM     10  C   UNL     1     -25.208  52.243  41.330  1.00  0.00     0.223 A 
ENDROOT
BRANCH   1  11
ATOM     11  C   UNL     1     -26.483  50.089  41.686  1.00  0.00     0.087 A 
ATOM     12  C   UNL     1     -26.027  48.956  42.383  1.00  0.00     0.022 A 
ATOM     13  C   UNL     1     -26.392  47.674  41.963  1.00  0.00     0.051 A 
ATOM     14  C   UNL     1     -27.204  47.502  40.839  1.00  0.00     0.157 A 
ATOM     15  C   UNL     1     -27.281  49.911  40.544  1.00  0.00     0.068 A 
ATOM     16  C   UNL     1     -27.649  48.626  40.121  1.00  0.00     0.158 A 
BRANCH  14  17
ATOM     17  O   UNL     1     -27.553  46.210  40.446  1.00  0.00    -0.504 OA
ATOM     18  H   UNL     1     -28.361  45.733  40.827  1.00  0.00     0.293 HD
ENDBRANCH  14  17
BRANCH  16  19
ATOM     19  O   UNL     1     -28.454  48.461  38.994  1.00  0.00    -0.504 OA
ATOM     20  H   UNL     1     -28.190  47.836  38.242  1.00  0.00     0.293 HD
ENDBRANCH  16  19
ENDBRANCH   1  11
BRANCH  10  21
ATOM     21  O   UNL     1     -24.626  51.742  40.166  1.00  0.00    -0.500 OA
ATOM     22  H   UNL     1     -24.903  50.851  39.773  1.00  0.00     0.294 HD
ENDBRANCH  10  21
BRANCH   5  23
ATOM     23  O   UNL     1     -27.156  55.271  46.606  1.00  0.00    -0.507 OA
ATOM     24  H   UNL     1     -27.552  54.612  47.266  1.00  0.00     0.293 HD
ENDBRANCH   5  23
BRANCH   7  25
ATOM     25  O   UNL     1     -24.342  56.233  42.837  1.00  0.00    -0.507 OA
ATOM     26  H   UNL     1     -23.981  56.117  41.901  1.00  0.00     0.293 HD
ENDBRANCH   7  25
TORSDOF 6
ENDMDL
MODEL 2
REMARK VINA RESULT:    -4.630      0.759      1.541
REMARK INTER + INTRA:          -5.813
REMARK INTER:                  -5.615
REMARK INTRA:                  -0.198
REMARK UNBOUND:                -0.235
REMARK SMILES Oc1cc(O)c2cc(O)c(-c3ccc(O)c(O)c3)[o+]c2c1
REMARK SMILES IDX 10 1 19 2 20 3 21 4 2 5 3 6 4 7 6 8 7 9 8 10 11 11 12 12
REMARK SMILES IDX 13 13 14 14 18 15 16 16 15 17 17 19 9 21 1 23 5 25
REMARK H PARENT 15 18 17 20 9 22 1 24 5 26
REMARK Flexibility Score: inf
ROOT
ATOM      1  C   UNL     1     -26.254  51.194  41.902  1.00  0.00     0.402 A 
ATOM      2  O   UNL     1     -26.687  51.701  43.054  1.00  0.00    -0.202 OA
ATOM      3  C   UNL     1     -26.367  52.918  43.481  1.00  0.00     0.368 A 
ATOM      4  C   UNL     1     -26.874  53.364  44.705  1.00  0.00     0.162 A 
ATOM      5  C   UNL     1     -26.556  54.641  45.178  1.00  0.00     0.128 A 
ATOM      6  C   UNL     1     -25.728  55.476  44.423  1.00  0.00     0.093 A 
ATOM      7  C   UNL     1     -25.207  55.052  43.194  1.00  0.00     0.136 A 
ATOM      8  C   UNL     1     -25.525  53.756  42.711  1.00  0.00     0.125 A 
ATOM      9  C   UNL     1     -25.037  53.243  41.498  1.00  0.00     0.078 A 
ATOM     10  C   UNL     1     -25.391  51.954  41.089  1.00  0.00     0.223 A 
ENDROOT
BRANCH   1  11
ATOM     11  C   UNL     1     -26.688  49.829  41.531  1.00  0.00     0.087 A 
ATOM     12  C   UNL     1     -27.436  49.590  40.365  1.00  0.00     0.022 A 
ATOM     13  C   UNL     1     -27.856  48.295  40.047  1.00  0.00     0.051 A 
ATOM     14  C   UNL     1     -27.548  47.225  40.892  1.00  0.00     0.157 A 
ATOM     15  C   UNL     1     -26.400  48.754  42.388  1.00  0.00     0.068 A 
ATOM     16  C   UNL     1     -26.819  47.454  42.071  1.00  0.00     0.158 A 
BRANCH  14  17
ATOM     17  O   UNL     1     -27.979  45.944  40.547  1.00  0.00    -0.504 OA
ATOM     18  H   UNL     1     -28.913  45.768  40.196  1.00  0.00     0.293 HD
ENDBRANCH  14  17
BRANCH  16  19
ATOM     19  O   UNL     1     -26.515  46.392  42.921  1.00  0.00    -0.504 OA
ATOM     20  H   UNL     1     -26.339  45.461  42.564  1.00  0.00     0.293 HD
ENDBRANCH  16  19
ENDBRANCH   1  11
BRANCH  10  21
ATOM     21  O   UNL     1     -24.867  51.425  39.910  1.00  0.00    -0.500 OA
ATOM     22  H   UNL     1     -24.537  52.020  39.160  1.00  0.00     0.294 HD
ENDBRANCH  10  21
BRANCH   5  23
ATOM     23  O   UNL     1     -27.058  55.093  46.396  1.00  0.00    -0.507 OA
ATOM     24  H   UNL     1     -28.020  55.397  46.493  1.00  0.00     0.293 HD
ENDBRANCH   5  23
BRANCH   7  25
ATOM     25  O   UNL     1     -24.389  55.947  42.499  1.00  0.00    -0.507 OA
ATOM     26  H   UNL     1     -23.797  56.638  42.936  1.00  0.00     0.293 HD
ENDBRANCH   7  25
TORSDOF 6
ENDMDL
MODEL 3
REMARK VINA RESULT:    -4.346      1.531      7.265
REMARK INTER + INTRA:          -5.470
REMARK INTER:                  -5.248
REMARK INTRA:                  -0.222
REMARK UNBOUND:                -0.235
REMARK SMILES Oc1cc(O)c2cc(O)c(-c3ccc(O)c(O)c3)[o+]c2c1
REMARK SMILES IDX 10 1 19 2 20 3 21 4 2 5 3 6 4 7 6 8 7 9 8 10 11 11 12 12
REMARK SMILES IDX 13 13 14 14 18 15 16 16 15 17 17 19 9 21 1 23 5 25
REMARK H PARENT 15 18 17 20 9 22 1 24 5 26
REMARK Flexibility Score: inf
ROOT
ATOM      1  C   UNL     1     -25.833  51.962  43.842  1.00  0.00     0.402 A 
ATOM      2  O   UNL     1     -26.217  51.737  42.588  1.00  0.00    -0.202 OA
ATOM      3  C   UNL     1     -26.345  50.519  42.072  1.00  0.00     0.368 A 
ATOM      4  C   UNL     1     -26.759  50.384  40.743  1.00  0.00     0.162 A 
ATOM      5  C   UNL     1     -26.904  49.114  40.175  1.00  0.00     0.128 A 
ATOM      6  C   UNL     1     -26.634  47.976  40.938  1.00  0.00     0.093 A 
ATOM      7  C   UNL     1     -26.218  48.085  42.271  1.00  0.00     0.136 A 
ATOM      8  C   UNL     1     -26.067  49.371  42.851  1.00  0.00     0.125 A 
ATOM      9  C   UNL     1     -25.642  49.576  44.175  1.00  0.00     0.078 A 
ATOM     10  C   UNL     1     -25.512  50.874  44.676  1.00  0.00     0.223 A 
ENDROOT
BRANCH   1  11
ATOM     11  C   UNL     1     -25.738  53.364  44.304  1.00  0.00     0.087 A 
ATOM     12  C   UNL     1     -24.757  54.237  43.802  1.00  0.00     0.022 A 
ATOM     13  C   UNL     1     -24.672  55.551  44.272  1.00  0.00     0.051 A 
ATOM     14  C   UNL     1     -25.554  56.008  45.255  1.00  0.00     0.157 A 
ATOM     15  C   UNL     1     -26.608  53.822  45.308  1.00  0.00     0.068 A 
ATOM     16  C   UNL     1     -26.526  55.140  45.780  1.00  0.00     0.158 A 
BRANCH  14  17
ATOM     17  O   UNL     1     -25.446  57.325  45.702  1.00  0.00    -0.504 OA
ATOM     18  H   UNL     1     -26.244  57.839  46.058  1.00  0.00     0.293 HD
ENDBRANCH  14  17
BRANCH  16  19
ATOM     19  O   UNL     1     -27.404  55.588  46.766  1.00  0.00    -0.504 OA
ATOM     20  H   UNL     1     -28.394  55.696  46.584  1.00  0.00     0.293 HD
ENDBRANCH  16  19
ENDBRANCH   1  11
BRANCH  10  21
ATOM     21  O   UNL     1     -25.042  51.079  45.973  1.00  0.00    -0.500 OA
ATOM     22  H   UNL     1     -24.105  50.811  46.249  1.00  0.00     0.294 HD
ENDBRANCH  10  21
BRANCH   5  23
ATOM     23  O   UNL     1     -27.316  48.972  38.852  1.00  0.00    -0.507 OA
ATOM     24  H   UNL     1     -26.647  48.896  38.094  1.00  0.00     0.293 HD
ENDBRANCH   5  23
BRANCH   7  25
ATOM     25  O   UNL     1     -25.971  46.898  42.967  1.00  0.00    -0.507 OA
ATOM     26  H   UNL     1     -26.689  46.268  43.294  1.00  0.00     0.293 HD
ENDBRANCH   7  25
TORSDOF 6
ENDMDL
MODEL 4
REMARK VINA RESULT:    -4.336      1.731      6.949
REMARK INTER + INTRA:          -5.459
REMARK INTER:                  -5.298
REMARK INTRA:                  -0.161
REMARK UNBOUND:                -0.235
REMARK SMILES Oc1cc(O)c2cc(O)c(-c3ccc(O)c(O)c3)[o+]c2c1
REMARK SMILES IDX 10 1 19 2 20 3 21 4 2 5 3 6 4 7 6 8 7 9 8 10 11 11 12 12
REMARK SMILES IDX 13 13 14 14 18 15 16 16 15 17 17 19 9 21 1 23 5 25
REMARK H PARENT 15 18 17 20 9 22 1 24 5 26
REMARK Flexibility Score: inf
ROOT
ATOM      1  C   UNL     1     -25.847  52.272  43.301  1.00  0.00     0.402 A 
ATOM      2  O   UNL     1     -25.761  51.188  44.067  1.00  0.00    -0.202 OA
ATOM      3  C   UNL     1     -25.833  49.950  43.590  1.00  0.00     0.368 A 
ATOM      4  C   UNL     1     -25.728  48.872  44.474  1.00  0.00     0.162 A 
ATOM      5  C   UNL     1     -25.797  47.559  43.999  1.00  0.00     0.128 A 
ATOM      6  C   UNL     1     -25.971  47.322  42.633  1.00  0.00     0.093 A 
ATOM      7  C   UNL     1     -26.079  48.384  41.727  1.00  0.00     0.136 A 
ATOM      8  C   UNL     1     -26.012  49.719  42.205  1.00  0.00     0.125 A 
ATOM      9  C   UNL     1     -26.124  50.844  41.371  1.00  0.00     0.078 A 
ATOM     10  C   UNL     1     -26.053  52.129  41.915  1.00  0.00     0.223 A 
ENDROOT
BRANCH   1  11
ATOM     11  C   UNL     1     -25.743  53.598  43.950  1.00  0.00     0.087 A 
ATOM     12  C   UNL     1     -24.757  54.524  43.569  1.00  0.00     0.022 A 
ATOM     13  C   UNL     1     -24.662  55.761  44.213  1.00  0.00     0.051 A 
ATOM     14  C   UNL     1     -25.539  56.086  45.252  1.00  0.00     0.157 A 
ATOM     15  C   UNL     1     -26.608  53.920  45.008  1.00  0.00     0.068 A 
ATOM     16  C   UNL     1     -26.516  55.161  45.655  1.00  0.00     0.158 A 
BRANCH  14  17
ATOM     17  O   UNL     1     -25.421  57.329  45.873  1.00  0.00    -0.504 OA
ATOM     18  H   UNL     1     -26.030  58.105  45.643  1.00  0.00     0.293 HD
ENDBRANCH  14  17
BRANCH  16  19
ATOM     19  O   UNL     1     -27.389  55.476  46.696  1.00  0.00    -0.504 OA
ATOM     20  H   UNL     1     -27.903  54.758  47.192  1.00  0.00     0.293 HD
ENDBRANCH  16  19
ENDBRANCH   1  11
BRANCH  10  21
ATOM     21  O   UNL     1     -26.214  53.246  41.096  1.00  0.00    -0.500 OA
ATOM     22  H   UNL     1     -26.641  53.178  40.180  1.00  0.00     0.294 HD
ENDBRANCH  10  21
BRANCH   5  23
ATOM     23  O   UNL     1     -25.693  46.481  44.875  1.00  0.00    -0.507 OA
ATOM     24  H   UNL     1     -26.293  46.400  45.688  1.00  0.00     0.293 HD
ENDBRANCH   5  23
BRANCH   7  25
ATOM     25  O   UNL     1     -26.249  48.063  40.377  1.00  0.00    -0.507 OA
ATOM     26  H   UNL     1     -25.522  47.693  39.782  1.00  0.00     0.293 HD
ENDBRANCH   7  25
TORSDOF 6
ENDMDL
MODEL 5
REMARK VINA RESULT:    -4.272      1.632      1.677
REMARK INTER + INTRA:          -5.381
REMARK INTER:                  -5.077
REMARK INTRA:                  -0.304
REMARK UNBOUND:                -0.235
REMARK SMILES Oc1cc(O)c2cc(O)c(-c3ccc(O)c(O)c3)[o+]c2c1
REMARK SMILES IDX 10 1 19 2 20 3 21 4 2 5 3 6 4 7 6 8 7 9 8 10 11 11 12 12
REMARK SMILES IDX 13 13 14 14 18 15 16 16 15 17 17 19 9 21 1 23 5 25
REMARK H PARENT 15 18 17 20 9 22 1 24 5 26
REMARK Flexibility Score: inf
ROOT
ATOM      1  C   UNL     1     -25.859  50.596  42.766  1.00  0.00     0.402 A 
ATOM      2  O   UNL     1     -26.579  51.504  43.420  1.00  0.00    -0.202 OA
ATOM      3  C   UNL     1     -26.040  52.478  44.144  1.00  0.00     0.368 A 
ATOM      4  C   UNL     1     -26.880  53.387  44.794  1.00  0.00     0.162 A 
ATOM      5  C   UNL     1     -26.340  54.425  45.560  1.00  0.00     0.128 A 
ATOM      6  C   UNL     1     -24.954  54.553  45.677  1.00  0.00     0.093 A 
ATOM      7  C   UNL     1     -24.091  53.655  45.037  1.00  0.00     0.136 A 
ATOM      8  C   UNL     1     -24.635  52.600  44.260  1.00  0.00     0.125 A 
ATOM      9  C   UNL     1     -23.846  51.646  43.594  1.00  0.00     0.078 A 
ATOM     10  C   UNL     1     -24.454  50.631  42.850  1.00  0.00     0.223 A 
ENDROOT
BRANCH   1  11
ATOM     11  C   UNL     1     -26.576  49.564  41.984  1.00  0.00     0.087 A 
ATOM     12  C   UNL     1     -26.729  48.253  42.467  1.00  0.00     0.022 A 
ATOM     13  C   UNL     1     -27.390  47.289  41.700  1.00  0.00     0.051 A 
ATOM     14  C   UNL     1     -27.895  47.615  40.438  1.00  0.00     0.157 A 
ATOM     15  C   UNL     1     -27.067  49.881  40.706  1.00  0.00     0.068 A 
ATOM     16  C   UNL     1     -27.731  48.916  39.935  1.00  0.00     0.158 A 
BRANCH  14  17
ATOM     17  O   UNL     1     -28.551  46.632  39.697  1.00  0.00    -0.504 OA
ATOM     18  H   UNL     1     -28.891  45.777  40.121  1.00  0.00     0.293 HD
ENDBRANCH  14  17
BRANCH  16  19
ATOM     19  O   UNL     1     -28.226  49.246  38.674  1.00  0.00    -0.504 OA
ATOM     20  H   UNL     1     -28.524  48.533  38.019  1.00  0.00     0.293 HD
ENDBRANCH  16  19
ENDBRANCH   1  11
BRANCH  10  21
ATOM     21  O   UNL     1     -23.674  49.655  42.231  1.00  0.00    -0.500 OA
ATOM     22  H   UNL     1     -23.542  48.738  42.642  1.00  0.00     0.294 HD
ENDBRANCH  10  21
BRANCH   5  23
ATOM     23  O   UNL     1     -27.171  55.335  46.210  1.00  0.00    -0.507 OA
ATOM     24  H   UNL     1     -28.021  55.678  45.777  1.00  0.00     0.293 HD
ENDBRANCH   5  23
BRANCH   7  25
ATOM     25  O   UNL     1     -22.717  53.855  45.201  1.00  0.00    -0.507 OA
ATOM     26  H   UNL     1     -22.028  53.703  44.480  1.00  0.00     0.293 HD
ENDBRANCH   7  25
TORSDOF 6
ENDMDL
MODEL 6
REMARK VINA RESULT:    -4.146      1.591      6.929
REMARK INTER + INTRA:          -5.229
REMARK INTER:                  -4.886
REMARK INTRA:                  -0.343
REMARK UNBOUND:                -0.235
REMARK SMILES Oc1cc(O)c2cc(O)c(-c3ccc(O)c(O)c3)[o+]c2c1
REMARK SMILES IDX 10 1 19 2 20 3 21 4 2 5 3 6 4 7 6 8 7 9 8 10 11 11 12 12
REMARK SMILES IDX 13 13 14 14 18 15 16 16 15 17 17 19 9 21 1 23 5 25
REMARK H PARENT 15 18 17 20 9 22 1 24 5 26
REMARK Flexibility Score: inf
ROOT
ATOM      1  C   UNL     1     -25.885  51.350  43.039  1.00  0.00     0.402 A 
ATOM      2  O   UNL     1     -26.034  50.166  43.626  1.00  0.00    -0.202 OA
ATOM      3  C   UNL     1     -26.313  49.051  42.960  1.00  0.00     0.368 A 
ATOM      4  C   UNL     1     -26.448  47.852  43.666  1.00  0.00     0.162 A 
ATOM      5  C   UNL     1     -26.738  46.663  42.990  1.00  0.00     0.128 A 
ATOM      6  C   UNL     1     -26.893  46.673  41.601  1.00  0.00     0.093 A 
ATOM      7  C   UNL     1     -26.762  47.860  40.871  1.00  0.00     0.136 A 
ATOM      8  C   UNL     1     -26.470  49.070  41.553  1.00  0.00     0.125 A 
ATOM      9  C   UNL     1     -26.335  50.309  40.905  1.00  0.00     0.078 A 
ATOM     10  C   UNL     1     -26.051  51.460  41.645  1.00  0.00     0.223 A 
ENDROOT
BRANCH   1  11
ATOM     11  C   UNL     1     -25.565  52.518  43.889  1.00  0.00     0.087 A 
ATOM     12  C   UNL     1     -24.241  52.823  44.248  1.00  0.00     0.022 A 
ATOM     13  C   UNL     1     -23.966  53.918  45.073  1.00  0.00     0.051 A 
ATOM     14  C   UNL     1     -25.006  54.715  45.559  1.00  0.00     0.157 A 
ATOM     15  C   UNL     1     -26.608  53.310  44.398  1.00  0.00     0.068 A 
ATOM     16  C   UNL     1     -26.335  54.409  45.224  1.00  0.00     0.158 A 
BRANCH  14  17
ATOM     17  O   UNL     1     -24.699  55.802  46.378  1.00  0.00    -0.504 OA
ATOM     18  H   UNL     1     -24.405  55.684  47.340  1.00  0.00     0.293 HD
ENDBRANCH  14  17
BRANCH  16  19
ATOM     19  O   UNL     1     -27.378  55.197  45.712  1.00  0.00    -0.504 OA
ATOM     20  H   UNL     1     -27.215  56.131  46.066  1.00  0.00     0.293 HD
ENDBRANCH  16  19
ENDBRANCH   1  11
BRANCH  10  21
ATOM     21  O   UNL     1     -25.967  52.698  41.009  1.00  0.00    -0.500 OA
ATOM     22  H   UNL     1     -26.582  52.947  40.243  1.00  0.00     0.294 HD
ENDBRANCH  10  21
BRANCH   5  23
ATOM     23  O   UNL     1     -26.874  45.464  43.687  1.00  0.00    -0.507 OA
ATOM     24  H   UNL     1     -26.495  45.349  44.620  1.00  0.00     0.293 HD
ENDBRANCH   5  23
BRANCH   7  25
ATOM     25  O   UNL     1     -26.928  47.785  39.485  1.00  0.00    -0.507 OA
ATOM     26  H   UNL     1     -27.683  48.221  38.976  1.00  0.00     0.293 HD
ENDBRANCH   7  25
TORSDOF 6
ENDMDL
MODEL 7
REMARK VINA RESULT:    -3.998      1.654      3.128
REMARK INTER + INTRA:          -5.051
REMARK INTER:                  -4.736
REMARK INTRA:                  -0.316
REMARK UNBOUND:                -0.235
REMARK SMILES Oc1cc(O)c2cc(O)c(-c3ccc(O)c(O)c3)[o+]c2c1
REMARK SMILES IDX 10 1 19 2 20 3 21 4 2 5 3 6 4 7 6 8 7 9 8 10 11 11 12 12
REMARK SMILES IDX 13 13 14 14 18 15 16 16 15 17 17 19 9 21 1 23 5 25
REMARK H PARENT 15 18 17 20 9 22 1 24 5 26
REMARK Flexibility Score: inf
ROOT
ATOM      1  C   UNL     1     -25.881  52.595  43.611  1.00  0.00     0.402 A 
ATOM      2  O   UNL     1     -24.773  53.258  43.293  1.00  0.00    -0.202 OA
ATOM      3  C   UNL     1     -24.479  54.461  43.776  1.00  0.00     0.368 A 
ATOM      4  C   UNL     1     -23.287  55.077  43.385  1.00  0.00     0.162 A 
ATOM      5  C   UNL     1     -22.950  56.341  43.880  1.00  0.00     0.128 A 
ATOM      6  C   UNL     1     -23.810  56.991  44.770  1.00  0.00     0.093 A 
ATOM      7  C   UNL     1     -25.010  56.394  45.176  1.00  0.00     0.136 A 
ATOM      8  C   UNL     1     -25.356  55.112  44.675  1.00  0.00     0.125 A 
ATOM      9  C   UNL     1     -26.544  54.445  45.017  1.00  0.00     0.078 A 
ATOM     10  C   UNL     1     -26.820  53.185  44.479  1.00  0.00     0.223 A 
ENDROOT
BRANCH   1  11
ATOM     11  C   UNL     1     -26.092  51.256  43.015  1.00  0.00     0.087 A 
ATOM     12  C   UNL     1     -25.901  50.082  43.764  1.00  0.00     0.022 A 
ATOM     13  C   UNL     1     -26.082  48.829  43.173  1.00  0.00     0.051 A 
ATOM     14  C   UNL     1     -26.443  48.728  41.826  1.00  0.00     0.157 A 
ATOM     15  C   UNL     1     -26.433  51.150  41.656  1.00  0.00     0.068 A 
ATOM     16  C   UNL     1     -26.616  49.894  41.061  1.00  0.00     0.158 A 
BRANCH  14  17
ATOM     17  O   UNL     1     -26.619  47.463  41.264  1.00  0.00    -0.504 OA
ATOM     18  H   UNL     1     -26.269  46.624  41.711  1.00  0.00     0.293 HD
ENDBRANCH  14  17
BRANCH  16  19
ATOM     19  O   UNL     1     -26.969  49.800  39.715  1.00  0.00    -0.504 OA
ATOM     20  H   UNL     1     -27.082  48.903  39.258  1.00  0.00     0.293 HD
ENDBRANCH  16  19
ENDBRANCH   1  11
BRANCH  10  21
ATOM     21  O   UNL     1     -28.021  52.544  44.778  1.00  0.00    -0.500 OA
ATOM     22  H   UNL     1     -28.052  51.568  45.049  1.00  0.00     0.294 HD
ENDBRANCH  10  21
BRANCH   5  23
ATOM     23  O   UNL     1     -21.764  56.962  43.495  1.00  0.00    -0.507 OA
ATOM     24  H   UNL     1     -21.219  56.622  42.711  1.00  0.00     0.293 HD
ENDBRANCH   5  23
BRANCH   7  25
ATOM     25  O   UNL     1     -25.812  57.108  46.071  1.00  0.00    -0.507 OA
ATOM     26  H   UNL     1     -25.806  58.112  46.168  1.00  0.00     0.293 HD
ENDBRANCH   7  25
TORSDOF 6
ENDMDL
MODEL 8
REMARK VINA RESULT:    -3.997      1.759      7.086
REMARK INTER + INTRA:          -5.050
REMARK INTER:                  -4.702
REMARK INTRA:                  -0.348
REMARK UNBOUND:                -0.235
REMARK SMILES Oc1cc(O)c2cc(O)c(-c3ccc(O)c(O)c3)[o+]c2c1
REMARK SMILES IDX 10 1 19 2 20 3 21 4 2 5 3 6 4 7 6 8 7 9 8 10 11 11 12 12
REMARK SMILES IDX 13 13 14 14 18 15 16 16 15 17 17 19 9 21 1 23 5 25
REMARK H PARENT 15 18 17 20 9 22 1 24 5 26
REMARK Flexibility Score: inf
ROOT
ATOM      1  C   UNL     1     -25.370  53.387  44.250  1.00  0.00     0.402 A 
ATOM      2  O   UNL     1     -25.692  52.102  44.369  1.00  0.00    -0.202 OA
ATOM      3  C   UNL     1     -25.743  51.264  43.339  1.00  0.00     0.368 A 
ATOM      4  C   UNL     1     -26.089  49.929  43.565  1.00  0.00     0.162 A 
ATOM      5  C   UNL     1     -26.147  49.024  42.500  1.00  0.00     0.128 A 
ATOM      6  C   UNL     1     -25.858  49.458  41.204  1.00  0.00     0.093 A 
ATOM      7  C   UNL     1     -25.510  50.790  40.951  1.00  0.00     0.136 A 
ATOM      8  C   UNL     1     -25.451  51.712  42.029  1.00  0.00     0.125 A 
ATOM      9  C   UNL     1     -25.124  53.069  41.867  1.00  0.00     0.078 A 
ATOM     10  C   UNL     1     -25.091  53.919  42.976  1.00  0.00     0.223 A 
ENDROOT
BRANCH   1  11
ATOM     11  C   UNL     1     -25.339  54.218  45.474  1.00  0.00     0.087 A 
ATOM     12  C   UNL     1     -24.134  54.481  46.150  1.00  0.00     0.022 A 
ATOM     13  C   UNL     1     -24.132  55.248  47.319  1.00  0.00     0.051 A 
ATOM     14  C   UNL     1     -25.329  55.752  47.835  1.00  0.00     0.157 A 
ATOM     15  C   UNL     1     -26.541  54.708  46.009  1.00  0.00     0.068 A 
ATOM     16  C   UNL     1     -26.542  55.479  47.181  1.00  0.00     0.158 A 
BRANCH  14  17
ATOM     17  O   UNL     1     -25.295  56.516  49.002  1.00  0.00    -0.504 OA
ATOM     18  H   UNL     1     -24.547  57.173  49.192  1.00  0.00     0.293 HD
ENDBRANCH  14  17
BRANCH  16  19
ATOM     19  O   UNL     1     -27.740  55.973  47.695  1.00  0.00    -0.504 OA
ATOM     20  H   UNL     1     -28.265  55.464  48.396  1.00  0.00     0.293 HD
ENDBRANCH  16  19
ENDBRANCH   1  11
BRANCH  10  21
ATOM     21  O   UNL     1     -24.816  55.275  42.810  1.00  0.00    -0.500 OA
ATOM     22  H   UNL     1     -24.087  55.599  42.185  1.00  0.00     0.294 HD
ENDBRANCH  10  21
BRANCH   5  23
ATOM     23  O   UNL     1     -26.491  47.692  42.719  1.00  0.00    -0.507 OA
ATOM     24  H   UNL     1     -25.799  46.953  42.680  1.00  0.00     0.293 HD
ENDBRANCH   5  23
BRANCH   7  25
ATOM     25  O   UNL     1     -25.232  51.143  39.628  1.00  0.00    -0.507 OA
ATOM     26  H   UNL     1     -25.880  51.038  38.861  1.00  0.00     0.293 HD
ENDBRANCH   7  25
TORSDOF 6
ENDMDL
MODEL 9
REMARK VINA RESULT:    -3.923      7.811      8.739
REMARK INTER + INTRA:          -4.961
REMARK INTER:                  -4.681
REMARK INTRA:                  -0.280
REMARK UNBOUND:                -0.235
REMARK SMILES Oc1cc(O)c2cc(O)c(-c3ccc(O)c(O)c3)[o+]c2c1
REMARK SMILES IDX 10 1 19 2 20 3 21 4 2 5 3 6 4 7 6 8 7 9 8 10 11 11 12 12
REMARK SMILES IDX 13 13 14 14 18 15 16 16 15 17 17 19 9 21 1 23 5 25
REMARK H PARENT 15 18 17 20 9 22 1 24 5 26
REMARK Flexibility Score: inf
ROOT
ATOM      1  C   UNL     1     -27.127  55.025  34.327  1.00  0.00     0.402 A 
ATOM      2  O   UNL     1     -27.141  55.637  35.508  1.00  0.00    -0.202 OA
ATOM      3  C   UNL     1     -27.462  56.917  35.663  1.00  0.00     0.368 A 
ATOM      4  C   UNL     1     -27.451  57.472  36.946  1.00  0.00     0.162 A 
ATOM      5  C   UNL     1     -27.787  58.815  37.138  1.00  0.00     0.128 A 
ATOM      6  C   UNL     1     -28.137  59.607  36.042  1.00  0.00     0.093 A 
ATOM      7  C   UNL     1     -28.156  59.076  34.746  1.00  0.00     0.136 A 
ATOM      8  C   UNL     1     -27.813  57.713  34.546  1.00  0.00     0.125 A 
ATOM      9  C   UNL     1     -27.792  57.100  33.282  1.00  0.00     0.078 A 
ATOM     10  C   UNL     1     -27.439  55.753  33.163  1.00  0.00     0.223 A 
ENDROOT
BRANCH   1  11
ATOM     11  C   UNL     1     -26.762  53.591  34.286  1.00  0.00     0.087 A 
ATOM     12  C   UNL     1     -25.430  53.170  34.441  1.00  0.00     0.022 A 
ATOM     13  C   UNL     1     -25.105  51.812  34.374  1.00  0.00     0.051 A 
ATOM     14  C   UNL     1     -26.100  50.859  34.140  1.00  0.00     0.157 A 
ATOM     15  C   UNL     1     -27.754  52.631  34.030  1.00  0.00     0.068 A 
ATOM     16  C   UNL     1     -27.432  51.268  33.963  1.00  0.00     0.158 A 
BRANCH  14  17
ATOM     17  O   UNL     1     -25.745  49.511  34.081  1.00  0.00    -0.504 OA
ATOM     18  H   UNL     1     -24.778  49.211  34.036  1.00  0.00     0.293 HD
ENDBRANCH  14  17
BRANCH  16  19
ATOM     19  O   UNL     1     -28.428  50.322  33.722  1.00  0.00    -0.504 OA
ATOM     20  H   UNL     1     -28.330  49.624  32.995  1.00  0.00     0.293 HD
ENDBRANCH  16  19
ENDBRANCH   1  11
BRANCH  10  21
ATOM     21  O   UNL     1     -27.369  55.157  31.905  1.00  0.00    -0.500 OA
ATOM     22  H   UNL     1     -26.971  54.235  31.773  1.00  0.00     0.294 HD
ENDBRANCH  10  21
BRANCH   5  23
ATOM     23  O   UNL     1     -27.778  59.374  38.414  1.00  0.00    -0.507 OA
ATOM     24  H   UNL     1     -28.194  60.279  38.599  1.00  0.00     0.293 HD
ENDBRANCH   5  23
BRANCH   7  25
ATOM     25  O   UNL     1     -28.520  59.934  33.704  1.00  0.00    -0.507 OA
ATOM     26  H   UNL     1     -29.319  60.550  33.725  1.00  0.00     0.293 HD
ENDBRANCH   7  25
TORSDOF 6
ENDMDL
