MODEL 1
REMARK VINA RESULT:    -3.999      0.000      0.000
REMARK INTER + INTRA:         -13.196
REMARK INTER:                  -9.141
REMARK INTRA:                  -4.054
REMARK UNBOUND:                -4.054
REMARK SMILES CCCCCCCCCCCCCCCCCCCCCCCC(=O)[O-]
REMARK SMILES IDX 13 1 14 2 15 3 16 4 17 5 18 6 19 7 20 8 21 9 22 10 23 11
REMARK SMILES IDX 24 12 25 13 26 14 12 15 11 16 10 17 9 18 8 19 7 20 6 21 5 22
REMARK SMILES IDX 4 23 3 24 2 25 1 26
REMARK H PARENT
REMARK Flexibility Score: inf
ROOT
ATOM      1  C   UNL     1      25.577  -0.669  -8.858  1.00  0.00     0.000 C 
ENDROOT
BRANCH   1   2
ATOM      2  C   UNL     1      26.957  -1.209  -8.444  1.00  0.00     0.000 C 
BRANCH   2   3
ATOM      3  C   UNL     1      27.627  -0.325  -7.369  1.00  0.00     0.000 C 
BRANCH   3   4
ATOM      4  C   UNL     1      28.597  -1.099  -6.458  1.00  0.00     0.000 C 
BRANCH   4   5
ATOM      5  C   UNL     1      29.883  -1.528  -7.185  1.00  0.00     0.000 C 
BRANCH   5   6
ATOM      6  C   UNL     1      30.125  -3.044  -7.107  1.00  0.00     0.000 C 
BRANCH   6   7
ATOM      7  C   UNL     1      29.878  -3.749  -8.453  1.00  0.00     0.000 C 
BRANCH   7   8
ATOM      8  C   UNL     1      28.494  -4.422  -8.530  1.00  0.00     0.000 C 
BRANCH   8   9
ATOM      9  C   UNL     1      27.880  -4.802  -7.170  1.00  0.00     0.000 C 
BRANCH   9  10
ATOM     10  C   UNL     1      27.811  -6.319  -6.946  1.00  0.00     0.006 C 
BRANCH  10  11
ATOM     11  C   UNL     1      26.388  -6.841  -7.166  1.00  0.00     0.053 C 
BRANCH  11  12
ATOM     12  C   UNL     1      26.296  -7.595  -8.455  1.00  0.00     0.041 C 
ATOM     13  O   UNL     1      25.170  -7.941  -8.907  1.00  0.00    -0.550 OA
ATOM     14  O   UNL     1      27.452  -7.941  -9.145  1.00  0.00    -0.550 OA
ENDBRANCH  11  12
ENDBRANCH  10  11
ENDBRANCH   9  10
ENDBRANCH   8   9
ENDBRANCH   7   8
ENDBRANCH   6   7
ENDBRANCH   5   6
ENDBRANCH   4   5
ENDBRANCH   3   4
ENDBRANCH   2   3
ENDBRANCH   1   2
BRANCH   1  15
ATOM     15  C   UNL     1      24.481  -1.744  -8.798  1.00  0.00     0.000 C 
BRANCH  15  16
ATOM     16  C   UNL     1      24.907  -2.974  -7.979  1.00  0.00     0.000 C 
BRANCH  16  17
ATOM     17  C   UNL     1      24.223  -4.270  -8.445  1.00  0.00     0.000 C 
BRANCH  17  18
ATOM     18  C   UNL     1      24.131  -4.402  -9.981  1.00  0.00    -0.000 C 
BRANCH  18  19
ATOM     19  C   UNL     1      25.485  -4.768 -10.612  1.00  0.00    -0.000 C 
BRANCH  19  20
ATOM     20  C   UNL     1      25.782  -3.961 -11.885  1.00  0.00    -0.000 C 
BRANCH  20  21
ATOM     21  C   UNL     1      26.840  -2.869 -11.658  1.00  0.00    -0.000 C 
BRANCH  21  22
ATOM     22  C   UNL     1      26.328  -1.504 -12.134  1.00  0.00    -0.000 C 
BRANCH  22  23
ATOM     23  C   UNL     1      24.793  -1.480 -12.187  1.00  0.00    -0.000 C 
BRANCH  23  24
ATOM     24  C   UNL     1      24.233  -0.080 -12.488  1.00  0.00    -0.000 C 
BRANCH  24  25
ATOM     25  C   UNL     1      24.669   0.445 -13.866  1.00  0.00    -0.003 C 
ATOM     26  C   UNL     1      25.282   1.838 -13.754  1.00  0.00     0.004 C 
ENDBRANCH  24  25
ENDBRANCH  23  24
ENDBRANCH  22  23
ENDBRANCH  21  22
ENDBRANCH  20  21
ENDBRANCH  19  20
ENDBRANCH  18  19
ENDBRANCH  17  18
ENDBRANCH  16  17
ENDBRANCH  15  16
ENDBRANCH   1  15
TORSDOF 22
ENDMDL
MODEL 2
REMARK VINA RESULT:    -3.891      1.662      5.262
REMARK INTER + INTRA:         -12.949
REMARK INTER:                  -8.835
REMARK INTRA:                  -4.114
REMARK UNBOUND:                -4.054
REMARK SMILES CCCCCCCCCCCCCCCCCCCCCCCC(=O)[O-]
REMARK SMILES IDX 13 1 14 2 15 3 16 4 17 5 18 6 19 7 20 8 21 9 22 10 23 11
REMARK SMILES IDX 24 12 25 13 26 14 12 15 11 16 10 17 9 18 8 19 7 20 6 21 5 22
REMARK SMILES IDX 4 23 3 24 2 25 1 26
REMARK H PARENT
REMARK Flexibility Score: inf
ROOT
ATOM      1  C   UNL     1      25.095   0.576 -12.999  1.00  0.00     0.000 C 
ENDROOT
BRANCH   1   2
ATOM      2  C   UNL     1      23.984  -0.424 -12.636  1.00  0.00     0.000 C 
BRANCH   2   3
ATOM      3  C   UNL     1      24.239  -1.104 -11.272  1.00  0.00     0.000 C 
BRANCH   3   4
ATOM      4  C   UNL     1      25.485  -0.569 -10.545  1.00  0.00     0.000 C 
BRANCH   4   5
ATOM      5  C   UNL     1      25.452  -0.835  -9.031  1.00  0.00     0.000 C 
BRANCH   5   6
ATOM      6  C   UNL     1      24.382  -1.865  -8.637  1.00  0.00     0.000 C 
BRANCH   6   7
ATOM      7  C   UNL     1      24.948  -2.997  -7.760  1.00  0.00     0.000 C 
BRANCH   7   8
ATOM      8  C   UNL     1      24.745  -4.392  -8.380  1.00  0.00     0.000 C 
BRANCH   8   9
ATOM      9  C   UNL     1      23.700  -4.455  -9.509  1.00  0.00     0.000 C 
BRANCH   9  10
ATOM     10  C   UNL     1      23.088  -5.853  -9.682  1.00  0.00     0.006 C 
BRANCH  10  11
ATOM     11  C   UNL     1      24.119  -6.943  -9.375  1.00  0.00     0.053 C 
BRANCH  11  12
ATOM     12  C   UNL     1      24.785  -7.408 -10.631  1.00  0.00     0.041 C 
ATOM     13  O   UNL     1      24.125  -8.043 -11.499  1.00  0.00    -0.550 OA
ATOM     14  O   UNL     1      26.138  -7.167 -10.835  1.00  0.00    -0.550 OA
ENDBRANCH  11  12
ENDBRANCH  10  11
ENDBRANCH   9  10
ENDBRANCH   8   9
ENDBRANCH   7   8
ENDBRANCH   6   7
ENDBRANCH   5   6
ENDBRANCH   4   5
ENDBRANCH   3   4
ENDBRANCH   2   3
ENDBRANCH   1   2
BRANCH   1  15
ATOM     15  C   UNL     1      25.125   0.906 -14.499  1.00  0.00     0.000 C 
BRANCH  15  16
ATOM     16  C   UNL     1      26.281   0.206 -15.233  1.00  0.00     0.000 C 
BRANCH  16  17
ATOM     17  C   UNL     1      26.480  -1.251 -14.783  1.00  0.00     0.000 C 
BRANCH  17  18
ATOM     18  C   UNL     1      27.915  -1.562 -14.308  1.00  0.00    -0.000 C 
BRANCH  18  19
ATOM     19  C   UNL     1      27.943  -2.114 -12.873  1.00  0.00    -0.000 C 
BRANCH  19  20
ATOM     20  C   UNL     1      26.993  -3.305 -12.678  1.00  0.00    -0.000 C 
BRANCH  20  21
ATOM     21  C   UNL     1      26.890  -3.744 -11.208  1.00  0.00    -0.000 C 
BRANCH  21  22
ATOM     22  C   UNL     1      28.209  -4.362 -10.728  1.00  0.00    -0.000 C 
BRANCH  22  23
ATOM     23  C   UNL     1      28.377  -4.190  -9.211  1.00  0.00    -0.000 C 
BRANCH  23  24
ATOM     24  C   UNL     1      28.544  -2.718  -8.798  1.00  0.00    -0.000 C 
BRANCH  24  25
ATOM     25  C   UNL     1      28.607  -2.538  -7.272  1.00  0.00    -0.003 C 
ATOM     26  C   UNL     1      28.461  -1.069  -6.887  1.00  0.00     0.004 C 
ENDBRANCH  24  25
ENDBRANCH  23  24
ENDBRANCH  22  23
ENDBRANCH  21  22
ENDBRANCH  20  21
ENDBRANCH  19  20
ENDBRANCH  18  19
ENDBRANCH  17  18
ENDBRANCH  16  17
ENDBRANCH  15  16
ENDBRANCH   1  15
TORSDOF 22
ENDMDL
MODEL 3
REMARK VINA RESULT:    -3.872      1.688      3.973
REMARK INTER + INTRA:         -12.906
REMARK INTER:                  -9.341
REMARK INTRA:                  -3.565
REMARK UNBOUND:                -4.054
REMARK SMILES CCCCCCCCCCCCCCCCCCCCCCCC(=O)[O-]
REMARK SMILES IDX 13 1 14 2 15 3 16 4 17 5 18 6 19 7 20 8 21 9 22 10 23 11
REMARK SMILES IDX 24 12 25 13 26 14 12 15 11 16 10 17 9 18 8 19 7 20 6 21 5 22
REMARK SMILES IDX 4 23 3 24 2 25 1 26
REMARK H PARENT
REMARK Flexibility Score: inf
ROOT
ATOM      1  C   UNL     1      24.519  -1.320  -9.554  1.00  0.00     0.000 C 
ENDROOT
BRANCH   1   2
ATOM      2  C   UNL     1      25.876  -0.636  -9.309  1.00  0.00     0.000 C 
BRANCH   2   3
ATOM      3  C   UNL     1      26.669  -1.314  -8.170  1.00  0.00     0.000 C 
BRANCH   3   4
ATOM      4  C   UNL     1      27.651  -0.365  -7.460  1.00  0.00     0.000 C 
BRANCH   4   5
ATOM      5  C   UNL     1      28.890  -1.092  -6.911  1.00  0.00     0.000 C 
BRANCH   5   6
ATOM      6  C   UNL     1      28.548  -2.461  -6.301  1.00  0.00     0.000 C 
BRANCH   6   7
ATOM      7  C   UNL     1      29.319  -3.613  -6.970  1.00  0.00     0.000 C 
BRANCH   7   8
ATOM      8  C   UNL     1      28.431  -4.839  -7.256  1.00  0.00     0.000 C 
BRANCH   8   9
ATOM      9  C   UNL     1      26.956  -4.683  -6.844  1.00  0.00     0.000 C 
BRANCH   9  10
ATOM     10  C   UNL     1      25.988  -5.393  -7.801  1.00  0.00     0.006 C 
BRANCH  10  11
ATOM     11  C   UNL     1      24.818  -4.476  -8.175  1.00  0.00     0.053 C 
BRANCH  11  12
ATOM     12  C   UNL     1      24.031  -5.060  -9.305  1.00  0.00     0.041 C 
ATOM     13  O   UNL     1      24.419  -4.901 -10.495  1.00  0.00    -0.550 OA
ATOM     14  O   UNL     1      22.856  -5.757  -9.051  1.00  0.00    -0.550 OA
ENDBRANCH  11  12
ENDBRANCH  10  11
ENDBRANCH   9  10
ENDBRANCH   8   9
ENDBRANCH   7   8
ENDBRANCH   6   7
ENDBRANCH   5   6
ENDBRANCH   4   5
ENDBRANCH   3   4
ENDBRANCH   2   3
ENDBRANCH   1   2
BRANCH   1  15
ATOM     15  C   UNL     1      24.109  -1.305 -11.035  1.00  0.00     0.000 C 
BRANCH  15  16
ATOM     16  C   UNL     1      24.953  -0.326 -11.869  1.00  0.00     0.000 C 
BRANCH  16  17
ATOM     17  C   UNL     1      24.165   0.306 -13.028  1.00  0.00     0.000 C 
BRANCH  17  18
ATOM     18  C   UNL     1      24.954   1.391 -13.793  1.00  0.00    -0.000 C 
BRANCH  18  19
ATOM     19  C   UNL     1      25.496   0.873 -15.136  1.00  0.00    -0.000 C 
BRANCH  19  20
ATOM     20  C   UNL     1      25.028  -0.556 -15.452  1.00  0.00    -0.000 C 
BRANCH  20  21
ATOM     21  C   UNL     1      26.201  -1.519 -15.701  1.00  0.00    -0.000 C 
BRANCH  21  22
ATOM     22  C   UNL     1      27.449  -1.071 -14.930  1.00  0.00    -0.000 C 
BRANCH  22  23
ATOM     23  C   UNL     1      28.083  -2.250 -14.177  1.00  0.00    -0.000 C 
BRANCH  23  24
ATOM     24  C   UNL     1      27.913  -2.138 -12.652  1.00  0.00    -0.000 C 
BRANCH  24  25
ATOM     25  C   UNL     1      27.155  -3.333 -12.054  1.00  0.00    -0.003 C 
ATOM     26  C   UNL     1      27.742  -3.737 -10.705  1.00  0.00     0.004 C 
ENDBRANCH  24  25
ENDBRANCH  23  24
ENDBRANCH  22  23
ENDBRANCH  21  22
ENDBRANCH  20  21
ENDBRANCH  19  20
ENDBRANCH  18  19
ENDBRANCH  17  18
ENDBRANCH  16  17
ENDBRANCH  15  16
ENDBRANCH   1  15
TORSDOF 22
ENDMDL
MODEL 4
REMARK VINA RESULT:    -3.834      1.660      3.517
REMARK INTER + INTRA:         -12.820
REMARK INTER:                  -9.248
REMARK INTRA:                  -3.572
REMARK UNBOUND:                -4.054
REMARK SMILES CCCCCCCCCCCCCCCCCCCCCCCC(=O)[O-]
REMARK SMILES IDX 13 1 14 2 15 3 16 4 17 5 18 6 19 7 20 8 21 9 22 10 23 11
REMARK SMILES IDX 24 12 25 13 26 14 12 15 11 16 10 17 9 18 8 19 7 20 6 21 5 22
REMARK SMILES IDX 4 23 3 24 2 25 1 26
REMARK H PARENT
REMARK Flexibility Score: inf
ROOT
ATOM      1  C   UNL     1      26.360  -1.208  -8.951  1.00  0.00     0.000 C 
ENDROOT
BRANCH   1   2
ATOM      2  C   UNL     1      26.990  -0.327  -7.858  1.00  0.00     0.000 C 
BRANCH   2   3
ATOM      3  C   UNL     1      28.439  -0.753  -7.534  1.00  0.00     0.000 C 
BRANCH   3   4
ATOM      4  C   UNL     1      28.562  -1.559  -6.228  1.00  0.00     0.000 C 
BRANCH   4   5
ATOM      5  C   UNL     1      28.619  -3.076  -6.467  1.00  0.00     0.000 C 
BRANCH   5   6
ATOM      6  C   UNL     1      29.013  -3.432  -7.909  1.00  0.00     0.000 C 
BRANCH   6   7
ATOM      7  C   UNL     1      27.990  -4.360  -8.588  1.00  0.00     0.000 C 
BRANCH   7   8
ATOM      8  C   UNL     1      26.796  -4.701  -7.677  1.00  0.00     0.000 C 
BRANCH   8   9
ATOM      9  C   UNL     1      25.851  -5.787  -8.224  1.00  0.00     0.000 C 
BRANCH   9  10
ATOM     10  C   UNL     1      25.044  -5.320  -9.445  1.00  0.00     0.006 C 
BRANCH  10  11
ATOM     11  C   UNL     1      23.544  -5.295  -9.132  1.00  0.00     0.053 C 
BRANCH  11  12
ATOM     12  C   UNL     1      22.854  -6.460  -9.769  1.00  0.00     0.041 C 
ATOM     13  O   UNL     1      21.619  -6.639  -9.587  1.00  0.00    -0.550 OA
ATOM     14  O   UNL     1      23.576  -7.363 -10.539  1.00  0.00    -0.550 OA
ENDBRANCH  11  12
ENDBRANCH  10  11
ENDBRANCH   9  10
ENDBRANCH   8   9
ENDBRANCH   7   8
ENDBRANCH   6   7
ENDBRANCH   5   6
ENDBRANCH   4   5
ENDBRANCH   3   4
ENDBRANCH   2   3
ENDBRANCH   1   2
BRANCH   1  15
ATOM     15  C   UNL     1      24.923  -1.635  -8.610  1.00  0.00     0.000 C 
BRANCH  15  16
ATOM     16  C   UNL     1      24.016  -1.690  -9.850  1.00  0.00     0.000 C 
BRANCH  16  17
ATOM     17  C   UNL     1      24.699  -1.147 -11.116  1.00  0.00     0.000 C 
BRANCH  17  18
ATOM     18  C   UNL     1      23.746  -0.364 -12.045  1.00  0.00    -0.000 C 
BRANCH  18  19
ATOM     19  C   UNL     1      24.496   0.308 -13.208  1.00  0.00    -0.000 C 
BRANCH  19  20
ATOM     20  C   UNL     1      24.780  -0.660 -14.367  1.00  0.00    -0.000 C 
BRANCH  20  21
ATOM     21  C   UNL     1      25.792  -0.092 -15.375  1.00  0.00    -0.000 C 
BRANCH  21  22
ATOM     22  C   UNL     1      27.199  -0.639 -15.106  1.00  0.00    -0.000 C 
BRANCH  22  23
ATOM     23  C   UNL     1      27.134  -2.008 -14.412  1.00  0.00    -0.000 C 
BRANCH  23  24
ATOM     24  C   UNL     1      28.122  -2.125 -13.239  1.00  0.00    -0.000 C 
BRANCH  24  25
ATOM     25  C   UNL     1      27.538  -2.908 -12.053  1.00  0.00    -0.003 C 
ATOM     26  C   UNL     1      26.831  -4.175 -12.526  1.00  0.00     0.004 C 
ENDBRANCH  24  25
ENDBRANCH  23  24
ENDBRANCH  22  23
ENDBRANCH  21  22
ENDBRANCH  20  21
ENDBRANCH  19  20
ENDBRANCH  18  19
ENDBRANCH  17  18
ENDBRANCH  16  17
ENDBRANCH  15  16
ENDBRANCH   1  15
TORSDOF 22
ENDMDL
MODEL 5
REMARK VINA RESULT:    -3.814      3.094      6.316
REMARK INTER + INTRA:         -12.774
REMARK INTER:                  -9.058
REMARK INTRA:                  -3.717
REMARK UNBOUND:                -4.054
REMARK SMILES CCCCCCCCCCCCCCCCCCCCCCCC(=O)[O-]
REMARK SMILES IDX 13 1 14 2 15 3 16 4 17 5 18 6 19 7 20 8 21 9 22 10 23 11
REMARK SMILES IDX 24 12 25 13 26 14 12 15 11 16 10 17 9 18 8 19 7 20 6 21 5 22
REMARK SMILES IDX 4 23 3 24 2 25 1 26
REMARK H PARENT
REMARK Flexibility Score: inf
ROOT
ATOM      1  C   UNL     1      28.969  -2.493  -6.478  1.00  0.00     0.000 C 
ENDROOT
BRANCH   1   2
ATOM      2  C   UNL     1      28.326  -1.123  -6.755  1.00  0.00     0.000 C 
BRANCH   2   3
ATOM      3  C   UNL     1      27.611  -1.085  -8.124  1.00  0.00     0.000 C 
BRANCH   3   4
ATOM      4  C   UNL     1      26.495  -0.028  -8.202  1.00  0.00     0.000 C 
BRANCH   4   5
ATOM      5  C   UNL     1      25.285  -0.499  -9.027  1.00  0.00     0.000 C 
BRANCH   5   6
ATOM      6  C   UNL     1      25.675  -0.935 -10.448  1.00  0.00     0.000 C 
BRANCH   6   7
ATOM      7  C   UNL     1      24.453  -1.321 -11.301  1.00  0.00     0.000 C 
BRANCH   7   8
ATOM      8  C   UNL     1      24.117  -0.267 -12.374  1.00  0.00     0.000 C 
BRANCH   8   9
ATOM      9  C   UNL     1      25.210   0.792 -12.608  1.00  0.00     0.000 C 
BRANCH   9  10
ATOM     10  C   UNL     1      25.006   1.588 -13.905  1.00  0.00     0.006 C 
BRANCH  10  11
ATOM     11  C   UNL     1      25.084   0.670 -15.128  1.00  0.00     0.053 C 
BRANCH  11  12
ATOM     12  C   UNL     1      26.496   0.247 -15.381  1.00  0.00     0.041 C 
ATOM     13  O   UNL     1      27.340   1.081 -15.808  1.00  0.00    -0.550 OA
ATOM     14  O   UNL     1      26.877  -1.074 -15.172  1.00  0.00    -0.550 OA
ENDBRANCH  11  12
ENDBRANCH  10  11
ENDBRANCH   9  10
ENDBRANCH   8   9
ENDBRANCH   7   8
ENDBRANCH   6   7
ENDBRANCH   5   6
ENDBRANCH   4   5
ENDBRANCH   3   4
ENDBRANCH   2   3
ENDBRANCH   1   2
BRANCH   1  15
ATOM     15  C   UNL     1      28.410  -3.602  -7.383  1.00  0.00     0.000 C 
BRANCH  15  16
ATOM     16  C   UNL     1      27.766  -4.746  -6.583  1.00  0.00     0.000 C 
BRANCH  16  17
ATOM     17  C   UNL     1      26.339  -5.076  -7.052  1.00  0.00     0.000 C 
BRANCH  17  18
ATOM     18  C   UNL     1      25.504  -3.829  -7.414  1.00  0.00    -0.000 C 
BRANCH  18  19
ATOM     19  C   UNL     1      24.478  -4.121  -8.522  1.00  0.00    -0.000 C 
BRANCH  19  20
ATOM     20  C   UNL     1      24.367  -5.619  -8.846  1.00  0.00    -0.000 C 
BRANCH  20  21
ATOM     21  C   UNL     1      25.018  -5.982 -10.190  1.00  0.00    -0.000 C 
BRANCH  21  22
ATOM     22  C   UNL     1      25.237  -4.729 -11.047  1.00  0.00    -0.000 C 
BRANCH  22  23
ATOM     23  C   UNL     1      26.681  -4.664 -11.568  1.00  0.00    -0.000 C 
BRANCH  23  24
ATOM     24  C   UNL     1      27.658  -4.090 -10.529  1.00  0.00    -0.000 C 
BRANCH  24  25
ATOM     25  C   UNL     1      28.641  -3.078 -11.140  1.00  0.00    -0.003 C 
ATOM     26  C   UNL     1      28.311  -2.808 -12.605  1.00  0.00     0.004 C 
ENDBRANCH  24  25
ENDBRANCH  23  24
ENDBRANCH  22  23
ENDBRANCH  21  22
ENDBRANCH  20  21
ENDBRANCH  19  20
ENDBRANCH  18  19
ENDBRANCH  17  18
ENDBRANCH  16  17
ENDBRANCH  15  16
ENDBRANCH   1  15
TORSDOF 22
ENDMDL
MODEL 6
REMARK VINA RESULT:    -3.788      2.803      6.727
REMARK INTER + INTRA:         -12.714
REMARK INTER:                  -8.973
REMARK INTRA:                  -3.741
REMARK UNBOUND:                -4.054
REMARK SMILES CCCCCCCCCCCCCCCCCCCCCCCC(=O)[O-]
REMARK SMILES IDX 13 1 14 2 15 3 16 4 17 5 18 6 19 7 20 8 21 9 22 10 23 11
REMARK SMILES IDX 24 12 25 13 26 14 12 15 11 16 10 17 9 18 8 19 7 20 6 21 5 22
REMARK SMILES IDX 4 23 3 24 2 25 1 26
REMARK H PARENT
REMARK Flexibility Score: inf
ROOT
ATOM      1  C   UNL     1      23.995  -4.167  -9.580  1.00  0.00     0.000 C 
ENDROOT
BRANCH   1   2
ATOM      2  C   UNL     1      24.498  -3.989  -8.136  1.00  0.00     0.000 C 
BRANCH   2   3
ATOM      3  C   UNL     1      24.995  -2.551  -7.869  1.00  0.00     0.000 C 
BRANCH   3   4
ATOM      4  C   UNL     1      24.479  -1.524  -8.893  1.00  0.00     0.000 C 
BRANCH   4   5
ATOM      5  C   UNL     1      25.596  -0.628  -9.452  1.00  0.00     0.000 C 
BRANCH   5   6
ATOM      6  C   UNL     1      25.639  -0.630 -10.989  1.00  0.00     0.000 C 
BRANCH   6   7
ATOM      7  C   UNL     1      24.280  -0.990 -11.615  1.00  0.00     0.000 C 
BRANCH   7   8
ATOM      8  C   UNL     1      23.914  -0.088 -12.809  1.00  0.00     0.000 C 
BRANCH   8   9
ATOM      9  C   UNL     1      24.923   1.037 -13.105  1.00  0.00     0.000 C 
BRANCH   9  10
ATOM     10  C   UNL     1      25.235   1.183 -14.602  1.00  0.00     0.006 C 
BRANCH  10  11
ATOM     11  C   UNL     1      25.374  -0.189 -15.268  1.00  0.00     0.053 C 
BRANCH  11  12
ATOM     12  C   UNL     1      26.705  -0.795 -14.955  1.00  0.00     0.041 C 
ATOM     13  O   UNL     1      26.772  -1.868 -14.296  1.00  0.00    -0.550 OA
ATOM     14  O   UNL     1      27.874  -0.164 -15.365  1.00  0.00    -0.550 OA
ENDBRANCH  11  12
ENDBRANCH  10  11
ENDBRANCH   9  10
ENDBRANCH   8   9
ENDBRANCH   7   8
ENDBRANCH   6   7
ENDBRANCH   5   6
ENDBRANCH   4   5
ENDBRANCH   3   4
ENDBRANCH   2   3
ENDBRANCH   1   2
BRANCH   1  15
ATOM     15  C   UNL     1      23.129  -5.425  -9.752  1.00  0.00     0.000 C 
BRANCH  15  16
ATOM     16  C   UNL     1      23.900  -6.717  -9.435  1.00  0.00     0.000 C 
BRANCH  16  17
ATOM     17  C   UNL     1      25.148  -6.900 -10.315  1.00  0.00     0.000 C 
BRANCH  17  18
ATOM     18  C   UNL     1      26.462  -7.002  -9.511  1.00  0.00    -0.000 C 
BRANCH  18  19
ATOM     19  C   UNL     1      26.207  -7.083  -7.996  1.00  0.00    -0.000 C 
BRANCH  19  20
ATOM     20  C   UNL     1      27.464  -6.776  -7.167  1.00  0.00    -0.000 C 
BRANCH  20  21
ATOM     21  C   UNL     1      27.590  -5.286  -6.815  1.00  0.00    -0.000 C 
BRANCH  21  22
ATOM     22  C   UNL     1      29.051  -4.910  -6.536  1.00  0.00    -0.000 C 
BRANCH  22  23
ATOM     23  C   UNL     1      29.435  -3.614  -7.266  1.00  0.00    -0.000 C 
BRANCH  23  24
ATOM     24  C   UNL     1      28.365  -3.164  -8.274  1.00  0.00    -0.000 C 
BRANCH  24  25
ATOM     25  C   UNL     1      28.771  -3.444  -9.730  1.00  0.00    -0.003 C 
ATOM     26  C   UNL     1      27.546  -3.721 -10.598  1.00  0.00     0.004 C 
ENDBRANCH  24  25
ENDBRANCH  23  24
ENDBRANCH  22  23
ENDBRANCH  21  22
ENDBRANCH  20  21
ENDBRANCH  19  20
ENDBRANCH  18  19
ENDBRANCH  17  18
ENDBRANCH  16  17
ENDBRANCH  15  16
ENDBRANCH   1  15
TORSDOF 22
ENDMDL
MODEL 7
REMARK VINA RESULT:    -3.770      2.631      6.683
REMARK INTER + INTRA:         -12.672
REMARK INTER:                  -8.590
REMARK INTRA:                  -4.082
REMARK UNBOUND:                -4.054
REMARK SMILES CCCCCCCCCCCCCCCCCCCCCCCC(=O)[O-]
REMARK SMILES IDX 13 1 14 2 15 3 16 4 17 5 18 6 19 7 20 8 21 9 22 10 23 11
REMARK SMILES IDX 24 12 25 13 26 14 12 15 11 16 10 17 9 18 8 19 7 20 6 21 5 22
REMARK SMILES IDX 4 23 3 24 2 25 1 26
REMARK H PARENT
REMARK Flexibility Score: inf
ROOT
ATOM      1  C   UNL     1      24.422  -1.883  -9.124  1.00  0.00     0.000 C 
ENDROOT
BRANCH   1   2
ATOM      2  C   UNL     1      25.359  -0.706  -9.449  1.00  0.00     0.000 C 
BRANCH   2   3
ATOM      3  C   UNL     1      25.708  -0.640 -10.951  1.00  0.00     0.000 C 
BRANCH   3   4
ATOM      4  C   UNL     1      24.680  -1.350 -11.851  1.00  0.00     0.000 C 
BRANCH   4   5
ATOM      5  C   UNL     1      24.124  -0.437 -12.956  1.00  0.00     0.000 C 
BRANCH   5   6
ATOM      6  C   UNL     1      24.509   1.037 -12.752  1.00  0.00     0.000 C 
BRANCH   6   7
ATOM      7  C   UNL     1      25.260   1.623 -13.961  1.00  0.00     0.000 C 
BRANCH   7   8
ATOM      8  C   UNL     1      25.289   0.665 -15.167  1.00  0.00     0.000 C 
BRANCH   8   9
ATOM      9  C   UNL     1      26.598   0.682 -15.978  1.00  0.00     0.000 C 
BRANCH   9  10
ATOM     10  C   UNL     1      27.329  -0.669 -15.966  1.00  0.00     0.006 C 
BRANCH  10  11
ATOM     11  C   UNL     1      26.440  -1.765 -15.369  1.00  0.00     0.053 C 
BRANCH  11  12
ATOM     12  C   UNL     1      27.198  -2.565 -14.356  1.00  0.00     0.041 C 
ATOM     13  O   UNL     1      27.840  -1.981 -13.442  1.00  0.00    -0.550 OA
ATOM     14  O   UNL     1      27.218  -3.952 -14.437  1.00  0.00    -0.550 OA
ENDBRANCH  11  12
ENDBRANCH  10  11
ENDBRANCH   9  10
ENDBRANCH   8   9
ENDBRANCH   7   8
ENDBRANCH   6   7
ENDBRANCH   5   6
ENDBRANCH   4   5
ENDBRANCH   3   4
ENDBRANCH   2   3
ENDBRANCH   1   2
BRANCH   1  15
ATOM     15  C   UNL     1      24.869  -2.667  -7.880  1.00  0.00     0.000 C 
BRANCH  15  16
ATOM     16  C   UNL     1      26.394  -2.646  -7.688  1.00  0.00     0.000 C 
BRANCH  16  17
ATOM     17  C   UNL     1      26.968  -4.022  -7.309  1.00  0.00     0.000 C 
BRANCH  17  18
ATOM     18  C   UNL     1      27.845  -4.650  -8.414  1.00  0.00    -0.000 C 
BRANCH  18  19
ATOM     19  C   UNL     1      28.027  -3.706  -9.615  1.00  0.00    -0.000 C 
BRANCH  19  20
ATOM     20  C   UNL     1      27.595  -4.347 -10.943  1.00  0.00    -0.000 C 
BRANCH  20  21
ATOM     21  C   UNL     1      26.077  -4.575 -11.022  1.00  0.00    -0.000 C 
BRANCH  21  22
ATOM     22  C   UNL     1      25.761  -5.988 -11.528  1.00  0.00    -0.000 C 
BRANCH  22  23
ATOM     23  C   UNL     1      24.778  -6.702 -10.588  1.00  0.00    -0.000 C 
BRANCH  23  24
ATOM     24  C   UNL     1      24.462  -5.880  -9.328  1.00  0.00    -0.000 C 
BRANCH  24  25
ATOM     25  C   UNL     1      22.952  -5.733  -9.084  1.00  0.00    -0.003 C 
ATOM     26  C   UNL     1      22.156  -6.678  -9.980  1.00  0.00     0.004 C 
ENDBRANCH  24  25
ENDBRANCH  23  24
ENDBRANCH  22  23
ENDBRANCH  21  22
ENDBRANCH  20  21
ENDBRANCH  19  20
ENDBRANCH  18  19
ENDBRANCH  17  18
ENDBRANCH  16  17
ENDBRANCH  15  16
ENDBRANCH   1  15
TORSDOF 22
ENDMDL
MODEL 8
REMARK VINA RESULT:    -3.767      0.981      2.159
REMARK INTER + INTRA:         -12.667
REMARK INTER:                  -8.376
REMARK INTRA:                  -4.291
REMARK UNBOUND:                -4.054
REMARK SMILES CCCCCCCCCCCCCCCCCCCCCCCC(=O)[O-]
REMARK SMILES IDX 13 1 14 2 15 3 16 4 17 5 18 6 19 7 20 8 21 9 22 10 23 11
REMARK SMILES IDX 24 12 25 13 26 14 12 15 11 16 10 17 9 18 8 19 7 20 6 21 5 22
REMARK SMILES IDX 4 23 3 24 2 25 1 26
REMARK H PARENT
REMARK Flexibility Score: inf
ROOT
ATOM      1  C   UNL     1      24.768  -2.993  -8.378  1.00  0.00     0.000 C 
ENDROOT
BRANCH   1   2
ATOM      2  C   UNL     1      24.303  -1.669  -9.010  1.00  0.00     0.000 C 
BRANCH   2   3
ATOM      3  C   UNL     1      25.431  -0.614  -9.040  1.00  0.00     0.000 C 
BRANCH   3   4
ATOM      4  C   UNL     1      26.810  -1.180  -8.660  1.00  0.00     0.000 C 
BRANCH   4   5
ATOM      5  C   UNL     1      27.479  -0.403  -7.514  1.00  0.00     0.000 C 
BRANCH   5   6
ATOM      6  C   UNL     1      28.472  -1.265  -6.719  1.00  0.00     0.000 C 
BRANCH   6   7
ATOM      7  C   UNL     1      29.102  -2.380  -7.574  1.00  0.00     0.000 C 
BRANCH   7   8
ATOM      8  C   UNL     1      29.069  -3.755  -6.882  1.00  0.00     0.000 C 
BRANCH   8   9
ATOM      9  C   UNL     1      27.685  -4.429  -6.843  1.00  0.00     0.000 C 
BRANCH   9  10
ATOM     10  C   UNL     1      27.763  -5.962  -6.901  1.00  0.00     0.006 C 
BRANCH  10  11
ATOM     11  C   UNL     1      26.378  -6.571  -7.144  1.00  0.00     0.053 C 
BRANCH  11  12
ATOM     12  C   UNL     1      26.414  -7.517  -8.303  1.00  0.00     0.041 C 
ATOM     13  O   UNL     1      27.518  -7.946  -8.736  1.00  0.00    -0.550 OA
ATOM     14  O   UNL     1      25.232  -7.904  -8.924  1.00  0.00    -0.550 OA
ENDBRANCH  11  12
ENDBRANCH  10  11
ENDBRANCH   9  10
ENDBRANCH   8   9
ENDBRANCH   7   8
ENDBRANCH   6   7
ENDBRANCH   5   6
ENDBRANCH   4   5
ENDBRANCH   3   4
ENDBRANCH   2   3
ENDBRANCH   1   2
BRANCH   1  15
ATOM     15  C   UNL     1      24.125  -4.221  -9.042  1.00  0.00     0.000 C 
BRANCH  15  16
ATOM     16  C   UNL     1      24.897  -4.689 -10.286  1.00  0.00     0.000 C 
BRANCH  16  17
ATOM     17  C   UNL     1      26.403  -4.389 -10.204  1.00  0.00     0.000 C 
BRANCH  17  18
ATOM     18  C   UNL     1      27.258  -5.253 -11.156  1.00  0.00    -0.000 C 
BRANCH  18  19
ATOM     19  C   UNL     1      28.292  -4.415 -11.927  1.00  0.00    -0.000 C 
BRANCH  19  20
ATOM     20  C   UNL     1      28.157  -2.909 -11.651  1.00  0.00    -0.000 C 
BRANCH  20  21
ATOM     21  C   UNL     1      28.075  -2.079 -12.942  1.00  0.00    -0.000 C 
BRANCH  21  22
ATOM     22  C   UNL     1      26.655  -2.108 -13.522  1.00  0.00    -0.000 C 
BRANCH  22  23
ATOM     23  C   UNL     1      25.615  -1.750 -12.450  1.00  0.00    -0.000 C 
BRANCH  23  24
ATOM     24  C   UNL     1      24.493  -0.850 -12.993  1.00  0.00    -0.000 C 
BRANCH  24  25
ATOM     25  C   UNL     1      24.674   0.623 -12.594  1.00  0.00    -0.003 C 
ATOM     26  C   UNL     1      25.031   1.480 -13.806  1.00  0.00     0.004 C 
ENDBRANCH  24  25
ENDBRANCH  23  24
ENDBRANCH  22  23
ENDBRANCH  21  22
ENDBRANCH  20  21
ENDBRANCH  19  20
ENDBRANCH  18  19
ENDBRANCH  17  18
ENDBRANCH  16  17
ENDBRANCH  15  16
ENDBRANCH   1  15
TORSDOF 22
ENDMDL
MODEL 9
REMARK VINA RESULT:    -3.701      2.257      4.836
REMARK INTER + INTRA:         -12.515
REMARK INTER:                  -8.231
REMARK INTRA:                  -4.284
REMARK UNBOUND:                -4.054
REMARK SMILES CCCCCCCCCCCCCCCCCCCCCCCC(=O)[O-]
REMARK SMILES IDX 13 1 14 2 15 3 16 4 17 5 18 6 19 7 20 8 21 9 22 10 23 11
REMARK SMILES IDX 24 12 25 13 26 14 12 15 11 16 10 17 9 18 8 19 7 20 6 21 5 22
REMARK SMILES IDX 4 23 3 24 2 25 1 26
REMARK H PARENT
REMARK Flexibility Score: inf
ROOT
ATOM      1  C   UNL     1      24.873  -2.604  -7.803  1.00  0.00     0.000 C 
ENDROOT
BRANCH   1   2
ATOM      2  C   UNL     1      24.940  -4.067  -8.276  1.00  0.00     0.000 C 
BRANCH   2   3
ATOM      3  C   UNL     1      23.705  -4.463  -9.114  1.00  0.00     0.000 C 
BRANCH   3   4
ATOM      4  C   UNL     1      23.753  -5.912  -9.629  1.00  0.00     0.000 C 
BRANCH   4   5
ATOM      5  C   UNL     1      25.085  -6.613  -9.314  1.00  0.00     0.000 C 
BRANCH   5   6
ATOM      6  C   UNL     1      25.882  -6.959 -10.582  1.00  0.00     0.000 C 
BRANCH   6   7
ATOM      7  C   UNL     1      25.606  -5.981 -11.737  1.00  0.00     0.000 C 
BRANCH   7   8
ATOM      8  C   UNL     1      26.430  -4.684 -11.632  1.00  0.00     0.000 C 
BRANCH   8   9
ATOM      9  C   UNL     1      27.840  -4.857 -11.038  1.00  0.00     0.000 C 
BRANCH   9  10
ATOM     10  C   UNL     1      28.198  -3.767 -10.017  1.00  0.00     0.006 C 
BRANCH  10  11
ATOM     11  C   UNL     1      28.669  -4.388  -8.698  1.00  0.00     0.053 C 
BRANCH  11  12
ATOM     12  C   UNL     1      28.574  -3.395  -7.584  1.00  0.00     0.041 C 
ATOM     13  O   UNL     1      28.246  -3.772  -6.426  1.00  0.00    -0.550 OA
ATOM     14  O   UNL     1      28.821  -2.048  -7.826  1.00  0.00    -0.550 OA
ENDBRANCH  11  12
ENDBRANCH  10  11
ENDBRANCH   9  10
ENDBRANCH   8   9
ENDBRANCH   7   8
ENDBRANCH   6   7
ENDBRANCH   5   6
ENDBRANCH   4   5
ENDBRANCH   3   4
ENDBRANCH   2   3
ENDBRANCH   1   2
BRANCH   1  15
ATOM     15  C   UNL     1      24.587  -1.626  -8.953  1.00  0.00     0.000 C 
BRANCH  15  16
ATOM     16  C   UNL     1      25.866  -0.979  -9.508  1.00  0.00     0.000 C 
BRANCH  16  17
ATOM     17  C   UNL     1      25.913  -0.967 -11.046  1.00  0.00     0.000 C 
BRANCH  17  18
ATOM     18  C   UNL     1      24.605  -1.453 -11.707  1.00  0.00    -0.000 C 
BRANCH  18  19
ATOM     19  C   UNL     1      24.287  -0.678 -12.997  1.00  0.00    -0.000 C 
BRANCH  19  20
ATOM     20  C   UNL     1      24.526   0.833 -12.855  1.00  0.00    -0.000 C 
BRANCH  20  21
ATOM     21  C   UNL     1      25.192   1.444 -14.098  1.00  0.00    -0.000 C 
BRANCH  21  22
ATOM     22  C   UNL     1      25.649   0.348 -15.069  1.00  0.00    -0.000 C 
BRANCH  22  23
ATOM     23  C   UNL     1      27.061   0.638 -15.600  1.00  0.00    -0.000 C 
BRANCH  23  24
ATOM     24  C   UNL     1      28.028  -0.538 -15.381  1.00  0.00    -0.000 C 
BRANCH  24  25
ATOM     25  C   UNL     1      27.465  -1.592 -14.414  1.00  0.00    -0.003 C 
ATOM     26  C   UNL     1      28.554  -2.127 -13.489  1.00  0.00     0.004 C 
ENDBRANCH  24  25
ENDBRANCH  23  24
ENDBRANCH  22  23
ENDBRANCH  21  22
ENDBRANCH  20  21
ENDBRANCH  19  20
ENDBRANCH  18  19
ENDBRANCH  17  18
ENDBRANCH  16  17
ENDBRANCH  15  16
ENDBRANCH   1  15
TORSDOF 22
ENDMDL
