MODEL 1
REMARK VINA RESULT:    -2.019      0.000      0.000
REMARK INTER + INTRA:          -2.868
REMARK INTER:                  -2.491
REMARK INTRA:                  -0.376
REMARK UNBOUND:                -0.376
REMARK SMILES Oc1cc(O)c2cc(O)c(-c3cc(O)c(O)c(O)c3)[o+]c2c1
REMARK SMILES IDX 10 1 20 2 21 3 22 4 2 5 3 6 4 7 6 8 7 9 8 10 11 11 12 12
REMARK SMILES IDX 13 13 19 14 15 15 17 16 14 17 16 19 18 21 9 23 1 25 5 27
REMARK H PARENT 14 18 16 20 18 22 9 24 1 26 5 28
REMARK Flexibility Score: inf
ROOT
ATOM      1  C   UNL     1      28.211  -9.687  15.054  1.00  0.00     0.402 A 
ATOM      2  O   UNL     1      28.948  -9.930  16.135  1.00  0.00    -0.202 OA
ATOM      3  C   UNL     1      28.431 -10.283  17.307  1.00  0.00     0.368 A 
ATOM      4  C   UNL     1      29.286 -10.514  18.387  1.00  0.00     0.162 A 
ATOM      5  C   UNL     1      28.769 -10.883  19.632  1.00  0.00     0.128 A 
ATOM      6  C   UNL     1      27.389 -11.021  19.797  1.00  0.00     0.093 A 
ATOM      7  C   UNL     1      26.509 -10.794  18.731  1.00  0.00     0.136 A 
ATOM      8  C   UNL     1      27.030 -10.423  17.465  1.00  0.00     0.125 A 
ATOM      9  C   UNL     1      26.226 -10.188  16.337  1.00  0.00     0.078 A 
ATOM     10  C   UNL     1      26.812  -9.830  15.120  1.00  0.00     0.223 A 
ENDROOT
BRANCH   1  11
ATOM     11  C   UNL     1      28.905  -9.293  13.807  1.00  0.00     0.091 A 
ATOM     12  C   UNL     1      29.148  -7.935  13.552  1.00  0.00     0.068 A 
ATOM     13  C   UNL     1      29.784  -7.533  12.369  1.00  0.00     0.162 A 
ATOM     14  C   UNL     1      29.277 -10.247  12.843  1.00  0.00     0.068 A 
ATOM     15  C   UNL     1      30.171  -8.490  11.423  1.00  0.00     0.200 A 
ATOM     16  C   UNL     1      29.913  -9.852  11.658  1.00  0.00     0.162 A 
BRANCH  13  17
ATOM     17  O   UNL     1      30.035  -6.184  12.129  1.00  0.00    -0.504 OA
ATOM     18  H   UNL     1      29.846  -5.475  12.829  1.00  0.00     0.293 HD
ENDBRANCH  13  17
BRANCH  15  19
ATOM     19  O   UNL     1      30.806  -8.073  10.253  1.00  0.00    -0.502 OA
ATOM     20  H   UNL     1      31.809  -7.944  10.200  1.00  0.00     0.293 HD
ENDBRANCH  15  19
BRANCH  16  21
ATOM     21  O   UNL     1      30.283 -10.805  10.711  1.00  0.00    -0.504 OA
ATOM     22  H   UNL     1      31.206 -11.223  10.711  1.00  0.00     0.293 HD
ENDBRANCH  16  21
ENDBRANCH   1  11
BRANCH  10  23
ATOM     23  O   UNL     1      26.018  -9.646  13.988  1.00  0.00    -0.500 OA
ATOM     24  H   UNL     1      25.025  -9.457  14.059  1.00  0.00     0.294 HD
ENDBRANCH  10  23
BRANCH   5  25
ATOM     25  O   UNL     1      29.617 -11.115  20.713  1.00  0.00    -0.507 OA
ATOM     26  H   UNL     1      29.257 -11.396  21.617  1.00  0.00     0.293 HD
ENDBRANCH   5  25
BRANCH   7  27
ATOM     27  O   UNL     1      25.143 -10.950  18.980  1.00  0.00    -0.507 OA
ATOM     28  H   UNL     1      24.684 -11.840  19.107  1.00  0.00     0.293 HD
ENDBRANCH   7  27
TORSDOF 7
ENDMDL
MODEL 2
REMARK VINA RESULT:    -2.009      0.968      2.094
REMARK INTER + INTRA:          -2.855
REMARK INTER:                  -2.491
REMARK INTRA:                  -0.364
REMARK UNBOUND:                -0.376
REMARK SMILES Oc1cc(O)c2cc(O)c(-c3cc(O)c(O)c(O)c3)[o+]c2c1
REMARK SMILES IDX 10 1 20 2 21 3 22 4 2 5 3 6 4 7 6 8 7 9 8 10 11 11 12 12
REMARK SMILES IDX 13 13 19 14 15 15 17 16 14 17 16 19 18 21 9 23 1 25 5 27
REMARK H PARENT 14 18 16 20 18 22 9 24 1 26 5 28
REMARK Flexibility Score: inf
ROOT
ATOM      1  C   UNL     1      29.030  -9.384  15.319  1.00  0.00     0.402 A 
ATOM      2  O   UNL     1      29.878  -9.412  16.343  1.00  0.00    -0.202 OA
ATOM      3  C   UNL     1      29.516  -9.723  17.582  1.00  0.00     0.368 A 
ATOM      4  C   UNL     1      30.480  -9.724  18.594  1.00  0.00     0.162 A 
ATOM      5  C   UNL     1      30.126 -10.044  19.908  1.00  0.00     0.128 A 
ATOM      6  C   UNL     1      28.801 -10.364  20.211  1.00  0.00     0.093 A 
ATOM      7  C   UNL     1      27.815 -10.371  19.216  1.00  0.00     0.136 A 
ATOM      8  C   UNL     1      28.171 -10.050  17.881  1.00  0.00     0.125 A 
ATOM      9  C   UNL     1      27.253 -10.044  16.818  1.00  0.00     0.078 A 
ATOM     10  C   UNL     1      27.679  -9.721  15.526  1.00  0.00     0.223 A 
ENDROOT
BRANCH   1  11
ATOM     11  C   UNL     1      29.554  -9.013  13.984  1.00  0.00     0.091 A 
ATOM     12  C   UNL     1      29.944 -10.021  13.091  1.00  0.00     0.068 A 
ATOM     13  C   UNL     1      30.463  -9.697  11.831  1.00  0.00     0.162 A 
ATOM     14  C   UNL     1      29.723  -7.667  13.613  1.00  0.00     0.068 A 
ATOM     15  C   UNL     1      30.609  -8.355  11.457  1.00  0.00     0.200 A 
ATOM     16  C   UNL     1      30.242  -7.336  12.354  1.00  0.00     0.162 A 
BRANCH  13  17
ATOM     17  O   UNL     1      30.836 -10.704  10.942  1.00  0.00    -0.504 OA
ATOM     18  H   UNL     1      31.806 -10.970  10.818  1.00  0.00     0.293 HD
ENDBRANCH  13  17
BRANCH  15  19
ATOM     19  O   UNL     1      31.125  -8.049  10.198  1.00  0.00    -0.502 OA
ATOM     20  H   UNL     1      31.249  -8.754   9.481  1.00  0.00     0.293 HD
ENDBRANCH  15  19
BRANCH  16  21
ATOM     21  O   UNL     1      30.401  -5.999  11.992  1.00  0.00    -0.504 OA
ATOM     22  H   UNL     1      30.215  -5.246  12.645  1.00  0.00     0.293 HD
ENDBRANCH  16  21
ENDBRANCH   1  11
BRANCH  10  23
ATOM     23  O   UNL     1      26.779  -9.764  14.461  1.00  0.00    -0.500 OA
ATOM     24  H   UNL     1      26.733 -10.558  13.833  1.00  0.00     0.294 HD
ENDBRANCH  10  23
BRANCH   5  25
ATOM     25  O   UNL     1      31.083 -10.046  20.921  1.00  0.00    -0.507 OA
ATOM     26  H   UNL     1      31.892  -9.438  20.885  1.00  0.00     0.293 HD
ENDBRANCH   5  25
BRANCH   7  27
ATOM     27  O   UNL     1      26.513 -10.700  19.603  1.00  0.00    -0.507 OA
ATOM     28  H   UNL     1      26.029 -10.287  20.386  1.00  0.00     0.293 HD
ENDBRANCH   7  27
TORSDOF 7
ENDMDL
MODEL 3
REMARK VINA RESULT:    -1.948      1.642      7.345
REMARK INTER + INTRA:          -2.779
REMARK INTER:                  -2.427
REMARK INTRA:                  -0.352
REMARK UNBOUND:                -0.376
REMARK SMILES Oc1cc(O)c2cc(O)c(-c3cc(O)c(O)c(O)c3)[o+]c2c1
REMARK SMILES IDX 10 1 20 2 21 3 22 4 2 5 3 6 4 7 6 8 7 9 8 10 11 11 12 12
REMARK SMILES IDX 13 13 19 14 15 15 17 16 14 17 16 19 18 21 9 23 1 25 5 27
REMARK H PARENT 14 18 16 20 18 22 9 24 1 26 5 28
REMARK Flexibility Score: inf
ROOT
ATOM      1  C   UNL     1      29.663  -8.720  15.949  1.00  0.00     0.402 A 
ATOM      2  O   UNL     1      29.682  -9.589  14.942  1.00  0.00    -0.202 OA
ATOM      3  C   UNL     1      30.020  -9.261  13.700  1.00  0.00     0.368 A 
ATOM      4  C   UNL     1      30.006 -10.244  12.708  1.00  0.00     0.162 A 
ATOM      5  C   UNL     1      30.355  -9.925  11.392  1.00  0.00     0.128 A 
ATOM      6  C   UNL     1      30.718  -8.616  11.068  1.00  0.00     0.093 A 
ATOM      7  C   UNL     1      30.740  -7.611  12.043  1.00  0.00     0.136 A 
ATOM      8  C   UNL     1      30.390  -7.931  13.381  1.00  0.00     0.125 A 
ATOM      9  C   UNL     1      30.396  -6.993  14.426  1.00  0.00     0.078 A 
ATOM     10  C   UNL     1      30.043  -7.384  15.721  1.00  0.00     0.223 A 
ENDROOT
BRANCH   1  11
ATOM     11  C   UNL     1      29.259  -9.207  17.288  1.00  0.00     0.091 A 
ATOM     12  C   UNL     1      27.896  -9.293  17.609  1.00  0.00     0.068 A 
ATOM     13  C   UNL     1      27.487  -9.730  18.876  1.00  0.00     0.162 A 
ATOM     14  C   UNL     1      30.214  -9.531  18.268  1.00  0.00     0.068 A 
ATOM     15  C   UNL     1      28.443 -10.073  19.840  1.00  0.00     0.200 A 
ATOM     16  C   UNL     1      29.812  -9.968  19.537  1.00  0.00     0.162 A 
BRANCH  13  17
ATOM     17  O   UNL     1      26.132  -9.828  19.183  1.00  0.00    -0.504 OA
ATOM     18  H   UNL     1      25.416  -9.550  18.521  1.00  0.00     0.293 HD
ENDBRANCH  13  17
BRANCH  15  19
ATOM     19  O   UNL     1      28.018 -10.509  21.096  1.00  0.00    -0.502 OA
ATOM     20  H   UNL     1      28.496 -11.246  21.600  1.00  0.00     0.293 HD
ENDBRANCH  15  19
BRANCH  16  21
ATOM     21  O   UNL     1      30.766 -10.294  20.500  1.00  0.00    -0.504 OA
ATOM     22  H   UNL     1      31.609  -9.744  20.620  1.00  0.00     0.293 HD
ENDBRANCH  16  21
ENDBRANCH   1  11
BRANCH  10  23
ATOM     23  O   UNL     1      30.097  -6.465  16.769  1.00  0.00    -0.500 OA
ATOM     24  H   UNL     1      29.575  -5.596  16.743  1.00  0.00     0.294 HD
ENDBRANCH  10  23
BRANCH   5  25
ATOM     25  O   UNL     1      30.343 -10.902  10.398  1.00  0.00    -0.507 OA
ATOM     26  H   UNL     1      29.536 -11.041   9.803  1.00  0.00     0.293 HD
ENDBRANCH   5  25
BRANCH   7  27
ATOM     27  O   UNL     1      31.111  -6.327  11.636  1.00  0.00    -0.507 OA
ATOM     28  H   UNL     1      31.136  -6.018  10.676  1.00  0.00     0.293 HD
ENDBRANCH   7  27
TORSDOF 7
ENDMDL
MODEL 4
REMARK VINA RESULT:    -1.893      1.567      3.198
REMARK INTER + INTRA:          -2.712
REMARK INTER:                  -2.358
REMARK INTRA:                  -0.354
REMARK UNBOUND:                -0.376
REMARK SMILES Oc1cc(O)c2cc(O)c(-c3cc(O)c(O)c(O)c3)[o+]c2c1
REMARK SMILES IDX 10 1 20 2 21 3 22 4 2 5 3 6 4 7 6 8 7 9 8 10 11 11 12 12
REMARK SMILES IDX 13 13 19 14 15 15 17 16 14 17 16 19 18 21 9 23 1 25 5 27
REMARK H PARENT 14 18 16 20 18 22 9 24 1 26 5 28
REMARK Flexibility Score: inf
ROOT
ATOM      1  C   UNL     1      28.714  -9.564  14.953  1.00  0.00     0.402 A 
ATOM      2  O   UNL     1      27.664  -9.855  15.715  1.00  0.00    -0.202 OA
ATOM      3  C   UNL     1      27.753 -10.102  17.018  1.00  0.00     0.368 A 
ATOM      4  C   UNL     1      26.592 -10.401  17.735  1.00  0.00     0.162 A 
ATOM      5  C   UNL     1      26.658 -10.669  19.106  1.00  0.00     0.128 A 
ATOM      6  C   UNL     1      27.891 -10.638  19.761  1.00  0.00     0.093 A 
ATOM      7  C   UNL     1      29.070 -10.342  19.065  1.00  0.00     0.136 A 
ATOM      8  C   UNL     1      29.007 -10.066  17.675  1.00  0.00     0.125 A 
ATOM      9  C   UNL     1      30.134  -9.747  16.900  1.00  0.00     0.078 A 
ATOM     10  C   UNL     1      29.993  -9.483  15.534  1.00  0.00     0.223 A 
ENDROOT
BRANCH   1  11
ATOM     11  C   UNL     1      28.486  -9.317  13.511  1.00  0.00     0.091 A 
ATOM     12  C   UNL     1      28.775 -10.328  12.582  1.00  0.00     0.068 A 
ATOM     13  C   UNL     1      28.589 -10.112  11.210  1.00  0.00     0.162 A 
ATOM     14  C   UNL     1      28.039  -8.068  13.045  1.00  0.00     0.068 A 
ATOM     15  C   UNL     1      28.122  -8.873  10.754  1.00  0.00     0.200 A 
ATOM     16  C   UNL     1      27.851  -7.845  11.674  1.00  0.00     0.162 A 
BRANCH  13  17
ATOM     17  O   UNL     1      28.864 -11.125  10.294  1.00  0.00    -0.504 OA
ATOM     18  H   UNL     1      28.127 -11.578   9.766  1.00  0.00     0.293 HD
ENDBRANCH  13  17
BRANCH  15  19
ATOM     19  O   UNL     1      27.939  -8.675   9.385  1.00  0.00    -0.502 OA
ATOM     20  H   UNL     1      28.701  -8.755   8.722  1.00  0.00     0.293 HD
ENDBRANCH  15  19
BRANCH  16  21
ATOM     21  O   UNL     1      27.402  -6.605  11.222  1.00  0.00    -0.504 OA
ATOM     22  H   UNL     1      26.464  -6.480  10.856  1.00  0.00     0.293 HD
ENDBRANCH  16  21
ENDBRANCH   1  11
BRANCH  10  23
ATOM     23  O   UNL     1      31.105  -9.117  14.774  1.00  0.00    -0.500 OA
ATOM     24  H   UNL     1      32.045  -9.166  15.148  1.00  0.00     0.294 HD
ENDBRANCH  10  23
BRANCH   5  25
ATOM     25  O   UNL     1      25.503 -10.967  19.827  1.00  0.00    -0.507 OA
ATOM     26  H   UNL     1      24.788 -10.269  19.993  1.00  0.00     0.293 HD
ENDBRANCH   5  25
BRANCH   7  27
ATOM     27  O   UNL     1      30.262 -10.334  19.794  1.00  0.00    -0.507 OA
ATOM     28  H   UNL     1      31.104  -9.859  19.505  1.00  0.00     0.293 HD
ENDBRANCH   7  27
TORSDOF 7
ENDMDL
MODEL 5
REMARK VINA RESULT:    -1.872      2.309      7.052
REMARK INTER + INTRA:          -2.687
REMARK INTER:                  -2.319
REMARK INTRA:                  -0.368
REMARK UNBOUND:                -0.376
REMARK SMILES Oc1cc(O)c2cc(O)c(-c3cc(O)c(O)c(O)c3)[o+]c2c1
REMARK SMILES IDX 10 1 20 2 21 3 22 4 2 5 3 6 4 7 6 8 7 9 8 10 11 11 12 12
REMARK SMILES IDX 13 13 19 14 15 15 17 16 14 17 16 19 18 21 9 23 1 25 5 27
REMARK H PARENT 14 18 16 20 18 22 9 24 1 26 5 28
REMARK Flexibility Score: inf
ROOT
ATOM      1  C   UNL     1      28.918  -9.475  18.135  1.00  0.00     0.402 A 
ATOM      2  O   UNL     1      29.783  -9.692  17.148  1.00  0.00    -0.202 OA
ATOM      3  C   UNL     1      29.416  -9.920  15.892  1.00  0.00     0.368 A 
ATOM      4  C   UNL     1      30.399 -10.140  14.924  1.00  0.00     0.162 A 
ATOM      5  C   UNL     1      30.040 -10.385  13.595  1.00  0.00     0.128 A 
ATOM      6  C   UNL     1      28.692 -10.410  13.233  1.00  0.00     0.093 A 
ATOM      7  C   UNL     1      27.686 -10.193  14.183  1.00  0.00     0.136 A 
ATOM      8  C   UNL     1      28.046  -9.941  15.533  1.00  0.00     0.125 A 
ATOM      9  C   UNL     1      27.108  -9.699  16.549  1.00  0.00     0.078 A 
ATOM     10  C   UNL     1      27.538  -9.453  17.857  1.00  0.00     0.223 A 
ENDROOT
BRANCH   1  11
ATOM     11  C   UNL     1      29.451  -9.243  19.496  1.00  0.00     0.091 A 
ATOM     12  C   UNL     1      30.006  -7.995  19.817  1.00  0.00     0.068 A 
ATOM     13  C   UNL     1      30.537  -7.756  21.091  1.00  0.00     0.162 A 
ATOM     14  C   UNL     1      29.466 -10.266  20.461  1.00  0.00     0.068 A 
ATOM     15  C   UNL     1      30.529  -8.772  22.055  1.00  0.00     0.200 A 
ATOM     16  C   UNL     1      29.996 -10.034  21.737  1.00  0.00     0.162 A 
BRANCH  13  17
ATOM     17  O   UNL     1      31.074  -6.510  21.408  1.00  0.00    -0.504 OA
ATOM     18  H   UNL     1      30.810  -6.017  22.253  1.00  0.00     0.293 HD
ENDBRANCH  13  17
BRANCH  15  19
ATOM     19  O   UNL     1      31.059  -8.517  23.320  1.00  0.00    -0.502 OA
ATOM     20  H   UNL     1      31.734  -7.779  23.483  1.00  0.00     0.293 HD
ENDBRANCH  15  19
BRANCH  16  21
ATOM     21  O   UNL     1      30.001 -11.053  22.689  1.00  0.00    -0.504 OA
ATOM     22  H   UNL     1      30.618 -11.027  23.492  1.00  0.00     0.293 HD
ENDBRANCH  16  21
ENDBRANCH   1  11
BRANCH  10  23
ATOM     23  O   UNL     1      26.609  -9.164  18.857  1.00  0.00    -0.500 OA
ATOM     24  H   UNL     1      26.898  -8.915  19.796  1.00  0.00     0.294 HD
ENDBRANCH  10  23
BRANCH   5  25
ATOM     25  O   UNL     1      31.017 -10.605  12.625  1.00  0.00    -0.507 OA
ATOM     26  H   UNL     1      31.046 -10.062  11.771  1.00  0.00     0.293 HD
ENDBRANCH   5  25
BRANCH   7  27
ATOM     27  O   UNL     1      26.362 -10.237  13.740  1.00  0.00    -0.507 OA
ATOM     28  H   UNL     1      25.735 -11.013  13.893  1.00  0.00     0.293 HD
ENDBRANCH   7  27
TORSDOF 7
ENDMDL
MODEL 6
REMARK VINA RESULT:    -1.853      2.935      5.784
REMARK INTER + INTRA:          -2.663
REMARK INTER:                  -2.281
REMARK INTRA:                  -0.383
REMARK UNBOUND:                -0.376
REMARK SMILES Oc1cc(O)c2cc(O)c(-c3cc(O)c(O)c(O)c3)[o+]c2c1
REMARK SMILES IDX 10 1 20 2 21 3 22 4 2 5 3 6 4 7 6 8 7 9 8 10 11 11 12 12
REMARK SMILES IDX 13 13 19 14 15 15 17 16 14 17 16 19 18 21 9 23 1 25 5 27
REMARK H PARENT 14 18 16 20 18 22 9 24 1 26 5 28
REMARK Flexibility Score: inf
ROOT
ATOM      1  C   UNL     1      26.186  -9.673  15.398  1.00  0.00     0.402 A 
ATOM      2  O   UNL     1      26.844  -9.730  16.553  1.00  0.00    -0.202 OA
ATOM      3  C   UNL     1      28.143  -9.998  16.640  1.00  0.00     0.368 A 
ATOM      4  C   UNL     1      28.746 -10.039  17.900  1.00  0.00     0.162 A 
ATOM      5  C   UNL     1      30.109 -10.322  18.022  1.00  0.00     0.128 A 
ATOM      6  C   UNL     1      30.873 -10.566  16.878  1.00  0.00     0.093 A 
ATOM      7  C   UNL     1      30.293 -10.532  15.604  1.00  0.00     0.136 A 
ATOM      8  C   UNL     1      28.910 -10.242  15.475  1.00  0.00     0.125 A 
ATOM      9  C   UNL     1      28.247 -10.173  14.239  1.00  0.00     0.078 A 
ATOM     10  C   UNL     1      26.881  -9.877  14.191  1.00  0.00     0.223 A 
ENDROOT
BRANCH   1  11
ATOM     11  C   UNL     1      24.737  -9.374  15.432  1.00  0.00     0.091 A 
ATOM     12  C   UNL     1      24.308  -8.040  15.509  1.00  0.00     0.068 A 
ATOM     13  C   UNL     1      22.943  -7.731  15.563  1.00  0.00     0.162 A 
ATOM     14  C   UNL     1      23.777 -10.401  15.446  1.00  0.00     0.068 A 
ATOM     15  C   UNL     1      21.991  -8.758  15.555  1.00  0.00     0.200 A 
ATOM     16  C   UNL     1      22.410 -10.099  15.501  1.00  0.00     0.162 A 
BRANCH  13  17
ATOM     17  O   UNL     1      22.524  -6.403  15.625  1.00  0.00    -0.504 OA
ATOM     18  H   UNL     1      23.011  -5.668  15.125  1.00  0.00     0.293 HD
ENDBRANCH  13  17
BRANCH  15  19
ATOM     19  O   UNL     1      20.636  -8.432  15.607  1.00  0.00    -0.502 OA
ATOM     20  H   UNL     1      20.285  -7.534  15.297  1.00  0.00     0.293 HD
ENDBRANCH  15  19
BRANCH  16  21
ATOM     21  O   UNL     1      21.466 -11.125  15.509  1.00  0.00    -0.504 OA
ATOM     22  H   UNL     1      20.646 -11.097  14.915  1.00  0.00     0.293 HD
ENDBRANCH  16  21
ENDBRANCH   1  11
BRANCH  10  23
ATOM     23  O   UNL     1      26.233  -9.760  12.961  1.00  0.00    -0.500 OA
ATOM     24  H   UNL     1      25.321  -9.326  12.879  1.00  0.00     0.294 HD
ENDBRANCH  10  23
BRANCH   5  25
ATOM     25  O   UNL     1      30.717 -10.364  19.275  1.00  0.00    -0.507 OA
ATOM     26  H   UNL     1      30.171 -10.347  20.128  1.00  0.00     0.293 HD
ENDBRANCH   5  25
BRANCH   7  27
ATOM     27  O   UNL     1      31.125 -10.790  14.511  1.00  0.00    -0.507 OA
ATOM     28  H   UNL     1      30.918 -10.522  13.561  1.00  0.00     0.293 HD
ENDBRANCH   7  27
TORSDOF 7
ENDMDL
MODEL 7
REMARK VINA RESULT:    -1.823      2.015      3.131
REMARK INTER + INTRA:          -2.626
REMARK INTER:                  -2.269
REMARK INTRA:                  -0.356
REMARK UNBOUND:                -0.376
REMARK SMILES Oc1cc(O)c2cc(O)c(-c3cc(O)c(O)c(O)c3)[o+]c2c1
REMARK SMILES IDX 10 1 20 2 21 3 22 4 2 5 3 6 4 7 6 8 7 9 8 10 11 11 12 12
REMARK SMILES IDX 13 13 19 14 15 15 17 16 14 17 16 19 18 21 9 23 1 25 5 27
REMARK H PARENT 14 18 16 20 18 22 9 24 1 26 5 28
REMARK Flexibility Score: inf
ROOT
ATOM      1  C   UNL     1      29.165  -9.680  15.968  1.00  0.00     0.402 A 
ATOM      2  O   UNL     1      28.375  -8.990  16.786  1.00  0.00    -0.202 OA
ATOM      3  C   UNL     1      28.526  -8.976  18.106  1.00  0.00     0.368 A 
ATOM      4  C   UNL     1      27.643  -8.222  18.884  1.00  0.00     0.162 A 
ATOM      5  C   UNL     1      27.776  -8.192  20.276  1.00  0.00     0.128 A 
ATOM      6  C   UNL     1      28.796  -8.921  20.891  1.00  0.00     0.093 A 
ATOM      7  C   UNL     1      29.694  -9.685  20.135  1.00  0.00     0.136 A 
ATOM      8  C   UNL     1      29.565  -9.715  18.722  1.00  0.00     0.125 A 
ATOM      9  C   UNL     1      30.426 -10.442  17.884  1.00  0.00     0.078 A 
ATOM     10  C   UNL     1      30.239 -10.420  16.499  1.00  0.00     0.223 A 
ENDROOT
BRANCH   1  11
ATOM     11  C   UNL     1      28.890  -9.622  14.515  1.00  0.00     0.091 A 
ATOM     12  C   UNL     1      29.603  -8.718  13.712  1.00  0.00     0.068 A 
ATOM     13  C   UNL     1      29.346  -8.628  12.338  1.00  0.00     0.162 A 
ATOM     14  C   UNL     1      27.888 -10.414  13.927  1.00  0.00     0.068 A 
ATOM     15  C   UNL     1      28.362  -9.436  11.754  1.00  0.00     0.200 A 
ATOM     16  C   UNL     1      27.626 -10.328  12.553  1.00  0.00     0.162 A 
BRANCH  13  17
ATOM     17  O   UNL     1      30.068  -7.739  11.544  1.00  0.00    -0.504 OA
ATOM     18  H   UNL     1      29.725  -7.435  10.640  1.00  0.00     0.293 HD
ENDBRANCH  13  17
BRANCH  15  19
ATOM     19  O   UNL     1      28.121  -9.336  10.384  1.00  0.00    -0.502 OA
ATOM     20  H   UNL     1      28.062 -10.151   9.786  1.00  0.00     0.293 HD
ENDBRANCH  15  19
BRANCH  16  21
ATOM     21  O   UNL     1      26.634 -11.122  11.979  1.00  0.00    -0.504 OA
ATOM     22  H   UNL     1      26.160 -10.847  11.127  1.00  0.00     0.293 HD
ENDBRANCH  16  21
ENDBRANCH   1  11
BRANCH  10  23
ATOM     23  O   UNL     1      31.123 -11.101  15.662  1.00  0.00    -0.500 OA
ATOM     24  H   UNL     1      30.796 -11.652  14.877  1.00  0.00     0.294 HD
ENDBRANCH  10  23
BRANCH   5  25
ATOM     25  O   UNL     1      26.899  -7.442  21.057  1.00  0.00    -0.507 OA
ATOM     26  H   UNL     1      26.729  -6.462  20.868  1.00  0.00     0.293 HD
ENDBRANCH   5  25
BRANCH   7  27
ATOM     27  O   UNL     1      30.684 -10.386  20.828  1.00  0.00    -0.507 OA
ATOM     28  H   UNL     1      31.666 -10.157  20.807  1.00  0.00     0.293 HD
ENDBRANCH   7  27
TORSDOF 7
ENDMDL
MODEL 8
REMARK VINA RESULT:    -1.781      1.941      7.416
REMARK INTER + INTRA:          -2.574
REMARK INTER:                  -2.218
REMARK INTRA:                  -0.356
REMARK UNBOUND:                -0.376
REMARK SMILES Oc1cc(O)c2cc(O)c(-c3cc(O)c(O)c(O)c3)[o+]c2c1
REMARK SMILES IDX 10 1 20 2 21 3 22 4 2 5 3 6 4 7 6 8 7 9 8 10 11 11 12 12
REMARK SMILES IDX 13 13 19 14 15 15 17 16 14 17 16 19 18 21 9 23 1 25 5 27
REMARK H PARENT 14 18 16 20 18 22 9 24 1 26 5 28
REMARK Flexibility Score: inf
ROOT
ATOM      1  C   UNL     1      28.795  -9.021  17.590  1.00  0.00     0.402 A 
ATOM      2  O   UNL     1      28.873  -9.887  16.583  1.00  0.00    -0.202 OA
ATOM      3  C   UNL     1      28.918  -9.521  15.307  1.00  0.00     0.368 A 
ATOM      4  C   UNL     1      28.997 -10.505  14.318  1.00  0.00     0.162 A 
ATOM      5  C   UNL     1      29.043 -10.148  12.967  1.00  0.00     0.128 A 
ATOM      6  C   UNL     1      29.009  -8.800  12.604  1.00  0.00     0.093 A 
ATOM      7  C   UNL     1      28.931  -7.793  13.575  1.00  0.00     0.136 A 
ATOM      8  C   UNL     1      28.887  -8.151  14.947  1.00  0.00     0.125 A 
ATOM      9  C   UNL     1      28.821  -7.211  15.989  1.00  0.00     0.078 A 
ATOM     10  C   UNL     1      28.786  -7.640  17.319  1.00  0.00     0.223 A 
ENDROOT
BRANCH   1  11
ATOM     11  C   UNL     1      28.742  -9.554  18.970  1.00  0.00     0.091 A 
ATOM     12  C   UNL     1      29.921  -9.636  19.725  1.00  0.00     0.068 A 
ATOM     13  C   UNL     1      29.902 -10.156  21.026  1.00  0.00     0.162 A 
ATOM     14  C   UNL     1      27.542 -10.034  19.523  1.00  0.00     0.068 A 
ATOM     15  C   UNL     1      28.699 -10.613  21.579  1.00  0.00     0.200 A 
ATOM     16  C   UNL     1      27.515 -10.556  20.823  1.00  0.00     0.162 A 
BRANCH  13  17
ATOM     17  O   UNL     1      31.074 -10.221  21.775  1.00  0.00    -0.504 OA
ATOM     18  H   UNL     1      31.291 -11.025  22.354  1.00  0.00     0.293 HD
ENDBRANCH  13  17
BRANCH  15  19
ATOM     19  O   UNL     1      28.697 -11.125  22.877  1.00  0.00    -0.502 OA
ATOM     20  H   UNL     1      28.996 -10.576  23.674  1.00  0.00     0.293 HD
ENDBRANCH  15  19
BRANCH  16  21
ATOM     21  O   UNL     1      26.319 -11.024  21.365  1.00  0.00    -0.504 OA
ATOM     22  H   UNL     1      25.541 -11.301  20.777  1.00  0.00     0.293 HD
ENDBRANCH  16  21
ENDBRANCH   1  11
BRANCH  10  23
ATOM     23  O   UNL     1      28.770  -6.706  18.355  1.00  0.00    -0.500 OA
ATOM     24  H   UNL     1      29.583  -6.545  18.940  1.00  0.00     0.294 HD
ENDBRANCH  10  23
BRANCH   5  25
ATOM     25  O   UNL     1      29.121 -11.125  11.977  1.00  0.00    -0.507 OA
ATOM     26  H   UNL     1      28.833 -12.080  12.152  1.00  0.00     0.293 HD
ENDBRANCH   5  25
BRANCH   7  27
ATOM     27  O   UNL     1      28.899  -6.469  13.128  1.00  0.00    -0.507 OA
ATOM     28  H   UNL     1      28.054  -5.941  12.971  1.00  0.00     0.293 HD
ENDBRANCH   7  27
TORSDOF 7
ENDMDL
MODEL 9
REMARK VINA RESULT:    -0.657      3.310      5.369
REMARK INTER + INTRA:          -1.187
REMARK INTER:                  -0.834
REMARK INTRA:                  -0.353
REMARK UNBOUND:                -0.376
REMARK SMILES Oc1cc(O)c2cc(O)c(-c3cc(O)c(O)c(O)c3)[o+]c2c1
REMARK SMILES IDX 10 1 20 2 21 3 22 4 2 5 3 6 4 7 6 8 7 9 8 10 11 11 12 12
REMARK SMILES IDX 13 13 19 14 15 15 17 16 14 17 16 19 18 21 9 23 1 25 5 27
REMARK H PARENT 14 18 16 20 18 22 9 24 1 26 5 28
REMARK Flexibility Score: inf
ROOT
ATOM      1  C   UNL     1      28.840  -8.694  19.582  1.00  0.00     0.402 A 
ATOM      2  O   UNL     1      29.417  -9.576  20.394  1.00  0.00    -0.202 OA
ATOM      3  C   UNL     1      29.644  -9.344  21.682  1.00  0.00     0.368 A 
ATOM      4  C   UNL     1      30.259 -10.332  22.454  1.00  0.00     0.162 A 
ATOM      5  C   UNL     1      30.512 -10.113  23.812  1.00  0.00     0.128 A 
ATOM      6  C   UNL     1      30.148  -8.899  24.398  1.00  0.00     0.093 A 
ATOM      7  C   UNL     1      29.531  -7.891  23.647  1.00  0.00     0.136 A 
ATOM      8  C   UNL     1      29.269  -8.111  22.270  1.00  0.00     0.125 A 
ATOM      9  C   UNL     1      28.643  -7.164  21.442  1.00  0.00     0.078 A 
ATOM     10  C   UNL     1      28.414  -7.454  20.094  1.00  0.00     0.223 A 
ENDROOT
BRANCH   1  11
ATOM     11  C   UNL     1      28.651  -9.068  18.162  1.00  0.00     0.091 A 
ATOM     12  C   UNL     1      27.411  -9.572  17.740  1.00  0.00     0.068 A 
ATOM     13  C   UNL     1      27.212  -9.953  16.406  1.00  0.00     0.162 A 
ATOM     14  C   UNL     1      29.705  -8.982  17.236  1.00  0.00     0.068 A 
ATOM     15  C   UNL     1      28.260  -9.845  15.483  1.00  0.00     0.200 A 
ATOM     16  C   UNL     1      29.513  -9.362  15.900  1.00  0.00     0.162 A 
BRANCH  13  17
ATOM     17  O   UNL     1      25.975 -10.440  15.991  1.00  0.00    -0.504 OA
ATOM     18  H   UNL     1      25.846 -11.410  15.728  1.00  0.00     0.293 HD
ENDBRANCH  13  17
BRANCH  15  19
ATOM     19  O   UNL     1      28.044 -10.226  14.159  1.00  0.00    -0.502 OA
ATOM     20  H   UNL     1      28.807 -10.442  13.529  1.00  0.00     0.293 HD
ENDBRANCH  15  19
BRANCH  16  21
ATOM     21  O   UNL     1      30.563  -9.268  14.988  1.00  0.00    -0.504 OA
ATOM     22  H   UNL     1      30.395  -9.149  13.996  1.00  0.00     0.293 HD
ENDBRANCH  16  21
ENDBRANCH   1  11
BRANCH  10  23
ATOM     23  O   UNL     1      27.748  -6.534  19.283  1.00  0.00    -0.500 OA
ATOM     24  H   UNL     1      27.848  -6.542  18.275  1.00  0.00     0.294 HD
ENDBRANCH  10  23
BRANCH   5  25
ATOM     25  O   UNL     1      31.125 -11.095  24.587  1.00  0.00    -0.507 OA
ATOM     26  H   UNL     1      31.686 -11.827  24.168  1.00  0.00     0.293 HD
ENDBRANCH   5  25
BRANCH   7  27
ATOM     27  O   UNL     1      29.202  -6.705  24.308  1.00  0.00    -0.507 OA
ATOM     28  H   UNL     1      28.337  -6.550  24.805  1.00  0.00     0.293 HD
ENDBRANCH   7  27
TORSDOF 7
ENDMDL
