MODEL 1
REMARK VINA RESULT:    -4.165      0.000      0.000
REMARK INTER + INTRA:          -7.473
REMARK INTER:                  -6.600
REMARK INTRA:                  -0.873
REMARK UNBOUND:                -0.873
REMARK SMILES CCCCCCCCCCCC(=O)[O-]
REMARK SMILES IDX 7 1 8 2 9 3 10 4 11 5 12 6 13 7 14 8 6 9 5 10 4 11 3 12 2 13
REMARK SMILES IDX 1 14
REMARK H PARENT
REMARK Flexibility Score: inf
ROOT
ATOM      1  C   UNL     1      52.020   0.204  71.923  1.00  0.00     0.000 C 
ENDROOT
BRANCH   1   2
ATOM      2  C   UNL     1      53.221  -0.739  72.095  1.00  0.00     0.000 C 
BRANCH   2   3
ATOM      3  C   UNL     1      53.064  -1.686  73.295  1.00  0.00     0.000 C 
BRANCH   3   4
ATOM      4  C   UNL     1      53.530  -3.119  72.983  1.00  0.00     0.006 C 
BRANCH   4   5
ATOM      5  C   UNL     1      53.797  -3.931  74.257  1.00  0.00     0.053 C 
BRANCH   5   6
ATOM      6  C   UNL     1      54.724  -5.081  74.002  1.00  0.00     0.041 C 
ATOM      7  O   UNL     1      55.839  -4.884  73.452  1.00  0.00    -0.550 OA
ATOM      8  O   UNL     1      54.343  -6.372  74.344  1.00  0.00    -0.550 OA
ENDBRANCH   5   6
ENDBRANCH   4   5
ENDBRANCH   3   4
ENDBRANCH   2   3
ENDBRANCH   1   2
BRANCH   1   9
ATOM      9  C   UNL     1      50.842  -0.243  72.799  1.00  0.00     0.000 C 
BRANCH   9  10
ATOM     10  C   UNL     1      49.686  -0.769  71.940  1.00  0.00    -0.000 C 
BRANCH  10  11
ATOM     11  C   UNL     1      49.050  -2.014  72.578  1.00  0.00    -0.000 C 
BRANCH  11  12
ATOM     12  C   UNL     1      49.891  -3.287  72.377  1.00  0.00    -0.000 C 
BRANCH  12  13
ATOM     13  C   UNL     1      49.114  -4.606  72.532  1.00  0.00    -0.003 C 
ATOM     14  C   UNL     1      47.741  -4.420  73.177  1.00  0.00     0.004 C 
ENDBRANCH  12  13
ENDBRANCH  11  12
ENDBRANCH  10  11
ENDBRANCH   9  10
ENDBRANCH   1   9
TORSDOF 10
ENDMDL
MODEL 2
REMARK VINA RESULT:    -4.154     11.528     13.168
REMARK INTER + INTRA:          -7.455
REMARK INTER:                  -6.429
REMARK INTRA:                  -1.026
REMARK UNBOUND:                -0.873
REMARK SMILES CCCCCCCCCCCC(=O)[O-]
REMARK SMILES IDX 7 1 8 2 9 3 10 4 11 5 12 6 13 7 14 8 6 9 5 10 4 11 3 12 2 13
REMARK SMILES IDX 1 14
REMARK H PARENT
REMARK Flexibility Score: inf
ROOT
ATOM      1  C   UNL     1      56.599  -2.694  83.043  1.00  0.00     0.000 C 
ENDROOT
BRANCH   1   2
ATOM      2  C   UNL     1      57.339  -1.996  84.193  1.00  0.00     0.000 C 
BRANCH   2   3
ATOM      3  C   UNL     1      58.400  -0.999  83.698  1.00  0.00     0.000 C 
BRANCH   3   4
ATOM      4  C   UNL     1      59.730  -1.683  83.336  1.00  0.00     0.006 C 
BRANCH   4   5
ATOM      5  C   UNL     1      59.717  -2.262  81.916  1.00  0.00     0.053 C 
BRANCH   5   6
ATOM      6  C   UNL     1      61.088  -2.292  81.312  1.00  0.00     0.041 C 
ATOM      7  O   UNL     1      61.869  -1.318  81.467  1.00  0.00    -0.550 OA
ATOM      8  O   UNL     1      61.490  -3.384  80.553  1.00  0.00    -0.550 OA
ENDBRANCH   5   6
ENDBRANCH   4   5
ENDBRANCH   3   4
ENDBRANCH   2   3
ENDBRANCH   1   2
BRANCH   1   9
ATOM      9  C   UNL     1      56.599  -4.217  83.235  1.00  0.00     0.000 C 
BRANCH   9  10
ATOM     10  C   UNL     1      57.643  -4.639  84.276  1.00  0.00    -0.000 C 
BRANCH  10  11
ATOM     11  C   UNL     1      58.710  -5.547  83.647  1.00  0.00    -0.000 C 
BRANCH  11  12
ATOM     12  C   UNL     1      60.109  -5.337  84.252  1.00  0.00    -0.000 C 
BRANCH  12  13
ATOM     13  C   UNL     1      61.272  -5.872  83.397  1.00  0.00    -0.003 C 
ATOM     14  C   UNL     1      61.060  -7.312  82.933  1.00  0.00     0.004 C 
ENDBRANCH  12  13
ENDBRANCH  11  12
ENDBRANCH  10  11
ENDBRANCH   9  10
ENDBRANCH   1   9
TORSDOF 10
ENDMDL
MODEL 3
REMARK VINA RESULT:    -4.145     11.613     13.358
REMARK INTER + INTRA:          -7.441
REMARK INTER:                  -6.076
REMARK INTRA:                  -1.365
REMARK UNBOUND:                -0.873
REMARK SMILES CCCCCCCCCCCC(=O)[O-]
REMARK SMILES IDX 7 1 8 2 9 3 10 4 11 5 12 6 13 7 14 8 6 9 5 10 4 11 3 12 2 13
REMARK SMILES IDX 1 14
REMARK H PARENT
REMARK Flexibility Score: inf
ROOT
ATOM      1  C   UNL     1      56.948  -0.390  84.622  1.00  0.00     0.000 C 
ENDROOT
BRANCH   1   2
ATOM      2  C   UNL     1      56.903  -1.916  84.449  1.00  0.00     0.000 C 
BRANCH   2   3
ATOM      3  C   UNL     1      56.796  -2.344  82.977  1.00  0.00     0.000 C 
BRANCH   3   4
ATOM      4  C   UNL     1      57.325  -3.769  82.735  1.00  0.00     0.006 C 
BRANCH   4   5
ATOM      5  C   UNL     1      57.329  -4.610  84.018  1.00  0.00     0.053 C 
BRANCH   5   6
ATOM      6  C   UNL     1      58.566  -5.449  84.131  1.00  0.00     0.041 C 
ATOM      7  O   UNL     1      58.735  -6.194  85.131  1.00  0.00    -0.550 OA
ATOM      8  O   UNL     1      59.544  -5.383  83.147  1.00  0.00    -0.550 OA
ENDBRANCH   5   6
ENDBRANCH   4   5
ENDBRANCH   3   4
ENDBRANCH   2   3
ENDBRANCH   1   2
BRANCH   1   9
ATOM      9  C   UNL     1      58.249   0.046  85.308  1.00  0.00     0.000 C 
BRANCH   9  10
ATOM     10  C   UNL     1      59.404   0.120  84.301  1.00  0.00    -0.000 C 
BRANCH  10  11
ATOM     11  C   UNL     1      60.484  -0.922  84.626  1.00  0.00    -0.000 C 
BRANCH  11  12
ATOM     12  C   UNL     1      60.519  -2.084  83.618  1.00  0.00    -0.000 C 
BRANCH  12  13
ATOM     13  C   UNL     1      60.378  -1.667  82.144  1.00  0.00    -0.003 C 
ATOM     14  C   UNL     1      61.032  -2.653  81.177  1.00  0.00     0.004 C 
ENDBRANCH  12  13
ENDBRANCH  11  12
ENDBRANCH  10  11
ENDBRANCH   9  10
ENDBRANCH   1   9
TORSDOF 10
ENDMDL
MODEL 4
REMARK VINA RESULT:    -4.125      3.046      4.787
REMARK INTER + INTRA:          -7.409
REMARK INTER:                  -5.870
REMARK INTRA:                  -1.539
REMARK UNBOUND:                -0.873
REMARK SMILES CCCCCCCCCCCC(=O)[O-]
REMARK SMILES IDX 7 1 8 2 9 3 10 4 11 5 12 6 13 7 14 8 6 9 5 10 4 11 3 12 2 13
REMARK SMILES IDX 1 14
REMARK H PARENT
REMARK Flexibility Score: inf
ROOT
ATOM      1  C   UNL     1      52.350  -1.997  73.492  1.00  0.00     0.000 C 
ENDROOT
BRANCH   1   2
ATOM      2  C   UNL     1      52.011  -3.406  72.983  1.00  0.00     0.000 C 
BRANCH   2   3
ATOM      3  C   UNL     1      50.645  -3.905  73.482  1.00  0.00     0.000 C 
BRANCH   3   4
ATOM      4  C   UNL     1      49.655  -4.167  72.333  1.00  0.00     0.006 C 
BRANCH   4   5
ATOM      5  C   UNL     1      48.196  -4.011  72.780  1.00  0.00     0.053 C 
BRANCH   5   6
ATOM      6  C   UNL     1      47.522  -5.338  72.958  1.00  0.00     0.041 C 
ATOM      7  O   UNL     1      46.387  -5.404  73.497  1.00  0.00    -0.550 OA
ATOM      8  O   UNL     1      48.163  -6.504  72.556  1.00  0.00    -0.550 OA
ENDBRANCH   5   6
ENDBRANCH   4   5
ENDBRANCH   3   4
ENDBRANCH   2   3
ENDBRANCH   1   2
BRANCH   1   9
ATOM      9  C   UNL     1      52.360  -0.985  72.339  1.00  0.00     0.000 C 
BRANCH   9  10
ATOM     10  C   UNL     1      51.195   0.005  72.467  1.00  0.00    -0.000 C 
BRANCH  10  11
ATOM     11  C   UNL     1      49.933  -0.540  71.781  1.00  0.00    -0.000 C 
BRANCH  11  12
ATOM     12  C   UNL     1      48.682  -0.453  72.672  1.00  0.00    -0.000 C 
BRANCH  12  13
ATOM     13  C   UNL     1      48.946   0.005  74.117  1.00  0.00    -0.003 C 
ATOM     14  C   UNL     1      48.759  -1.112  75.143  1.00  0.00     0.004 C 
ENDBRANCH  12  13
ENDBRANCH  11  12
ENDBRANCH  10  11
ENDBRANCH   9  10
ENDBRANCH   1   9
TORSDOF 10
ENDMDL
MODEL 5
REMARK VINA RESULT:    -4.039      2.451      3.851
REMARK INTER + INTRA:          -7.273
REMARK INTER:                  -5.725
REMARK INTRA:                  -1.548
REMARK UNBOUND:                -0.873
REMARK SMILES CCCCCCCCCCCC(=O)[O-]
REMARK SMILES IDX 7 1 8 2 9 3 10 4 11 5 12 6 13 7 14 8 6 9 5 10 4 11 3 12 2 13
REMARK SMILES IDX 1 14
REMARK H PARENT
REMARK Flexibility Score: inf
ROOT
ATOM      1  C   UNL     1      48.857   0.152  74.566  1.00  0.00     0.000 C 
ENDROOT
BRANCH   1   2
ATOM      2  C   UNL     1      48.289   0.195  73.140  1.00  0.00     0.000 C 
BRANCH   2   3
ATOM      3  C   UNL     1      49.151  -0.584  72.134  1.00  0.00     0.000 C 
BRANCH   3   4
ATOM      4  C   UNL     1      50.656  -0.314  72.309  1.00  0.00     0.006 C 
BRANCH   4   5
ATOM      5  C   UNL     1      51.456  -1.607  72.513  1.00  0.00     0.053 C 
BRANCH   5   6
ATOM      6  C   UNL     1      52.919  -1.336  72.692  1.00  0.00     0.041 C 
ATOM      7  O   UNL     1      53.539  -0.630  71.854  1.00  0.00    -0.550 OA
ATOM      8  O   UNL     1      53.603  -1.889  73.767  1.00  0.00    -0.550 OA
ENDBRANCH   5   6
ENDBRANCH   4   5
ENDBRANCH   3   4
ENDBRANCH   2   3
ENDBRANCH   1   2
BRANCH   1   9
ATOM      9  C   UNL     1      48.359  -1.090  75.317  1.00  0.00     0.000 C 
BRANCH   9  10
ATOM     10  C   UNL     1      49.529  -1.995  75.721  1.00  0.00    -0.000 C 
BRANCH  10  11
ATOM     11  C   UNL     1      49.400  -3.382  75.073  1.00  0.00    -0.000 C 
BRANCH  11  12
ATOM     12  C   UNL     1      48.013  -3.629  74.455  1.00  0.00    -0.000 C 
BRANCH  12  13
ATOM     13  C   UNL     1      48.029  -4.023  72.967  1.00  0.00    -0.003 C 
ATOM     14  C   UNL     1      49.373  -4.591  72.513  1.00  0.00     0.004 C 
ENDBRANCH  12  13
ENDBRANCH  11  12
ENDBRANCH  10  11
ENDBRANCH   9  10
ENDBRANCH   1   9
TORSDOF 10
ENDMDL
MODEL 6
REMARK VINA RESULT:    -3.982      4.146      6.368
REMARK INTER + INTRA:          -7.183
REMARK INTER:                  -5.803
REMARK INTRA:                  -1.380
REMARK UNBOUND:                -0.873
REMARK SMILES CCCCCCCCCCCC(=O)[O-]
REMARK SMILES IDX 7 1 8 2 9 3 10 4 11 5 12 6 13 7 14 8 6 9 5 10 4 11 3 12 2 13
REMARK SMILES IDX 1 14
REMARK H PARENT
REMARK Flexibility Score: inf
ROOT
ATOM      1  C   UNL     1      49.392  -3.748  72.669  1.00  0.00     0.000 C 
ENDROOT
BRANCH   1   2
ATOM      2  C   UNL     1      48.662  -2.434  72.988  1.00  0.00     0.000 C 
BRANCH   2   3
ATOM      3  C   UNL     1      49.071  -1.286  72.052  1.00  0.00     0.000 C 
BRANCH   3   4
ATOM      4  C   UNL     1      49.043   0.085  72.751  1.00  0.00     0.006 C 
BRANCH   4   5
ATOM      5  C   UNL     1      49.137  -0.042  74.277  1.00  0.00     0.053 C 
BRANCH   5   6
ATOM      6  C   UNL     1      48.227   0.923  74.974  1.00  0.00     0.041 C 
ATOM      7  O   UNL     1      48.695   1.754  75.796  1.00  0.00    -0.550 OA
ATOM      8  O   UNL     1      46.858   0.884  74.738  1.00  0.00    -0.550 OA
ENDBRANCH   5   6
ENDBRANCH   4   5
ENDBRANCH   3   4
ENDBRANCH   2   3
ENDBRANCH   1   2
BRANCH   1   9
ATOM      9  C   UNL     1      50.896  -3.508  72.485  1.00  0.00     0.000 C 
BRANCH   9  10
ATOM     10  C   UNL     1      51.593  -3.318  73.838  1.00  0.00    -0.000 C 
BRANCH  10  11
ATOM     11  C   UNL     1      52.344  -1.979  73.886  1.00  0.00    -0.000 C 
BRANCH  11  12
ATOM     12  C   UNL     1      52.935  -1.574  72.525  1.00  0.00    -0.000 C 
BRANCH  12  13
ATOM     13  C   UNL     1      52.641  -0.125  72.097  1.00  0.00    -0.003 C 
ATOM     14  C   UNL     1      53.811   0.533  71.368  1.00  0.00     0.004 C 
ENDBRANCH  12  13
ENDBRANCH  11  12
ENDBRANCH  10  11
ENDBRANCH   9  10
ENDBRANCH   1   9
TORSDOF 10
ENDMDL
MODEL 7
REMARK VINA RESULT:    -3.963      4.189      5.743
REMARK INTER + INTRA:          -7.153
REMARK INTER:                  -5.938
REMARK INTRA:                  -1.215
REMARK UNBOUND:                -0.873
REMARK SMILES CCCCCCCCCCCC(=O)[O-]
REMARK SMILES IDX 7 1 8 2 9 3 10 4 11 5 12 6 13 7 14 8 6 9 5 10 4 11 3 12 2 13
REMARK SMILES IDX 1 14
REMARK H PARENT
REMARK Flexibility Score: inf
ROOT
ATOM      1  C   UNL     1      51.127  -0.015  72.286  1.00  0.00     0.000 C 
ENDROOT
BRANCH   1   2
ATOM      2  C   UNL     1      49.977  -0.722  71.553  1.00  0.00     0.000 C 
BRANCH   2   3
ATOM      3  C   UNL     1      48.628  -0.562  72.272  1.00  0.00     0.000 C 
BRANCH   3   4
ATOM      4  C   UNL     1      48.773   0.063  73.671  1.00  0.00     0.006 C 
BRANCH   4   5
ATOM      5  C   UNL     1      48.179   1.475  73.739  1.00  0.00     0.053 C 
BRANCH   5   6
ATOM      6  C   UNL     1      49.035   2.404  74.545  1.00  0.00     0.041 C 
ATOM      7  O   UNL     1      48.676   2.753  75.700  1.00  0.00    -0.550 OA
ATOM      8  O   UNL     1      50.214   2.905  74.009  1.00  0.00    -0.550 OA
ENDBRANCH   5   6
ENDBRANCH   4   5
ENDBRANCH   3   4
ENDBRANCH   2   3
ENDBRANCH   1   2
BRANCH   1   9
ATOM      9  C   UNL     1      52.321  -0.960  72.472  1.00  0.00     0.000 C 
BRANCH   9  10
ATOM     10  C   UNL     1      52.072  -1.941  73.624  1.00  0.00    -0.000 C 
BRANCH  10  11
ATOM     11  C   UNL     1      52.006  -3.387  73.109  1.00  0.00    -0.000 C 
BRANCH  11  12
ATOM     12  C   UNL     1      50.698  -4.101  73.493  1.00  0.00    -0.000 C 
BRANCH  12  13
ATOM     13  C   UNL     1      49.687  -4.262  72.343  1.00  0.00    -0.003 C 
ATOM     14  C   UNL     1      48.234  -4.188  72.811  1.00  0.00     0.004 C 
ENDBRANCH  12  13
ENDBRANCH  11  12
ENDBRANCH  10  11
ENDBRANCH   9  10
ENDBRANCH   1   9
TORSDOF 10
ENDMDL
MODEL 8
REMARK VINA RESULT:    -3.930      3.213      5.625
REMARK INTER + INTRA:          -7.100
REMARK INTER:                  -6.127
REMARK INTRA:                  -0.973
REMARK UNBOUND:                -0.873
REMARK SMILES CCCCCCCCCCCC(=O)[O-]
REMARK SMILES IDX 7 1 8 2 9 3 10 4 11 5 12 6 13 7 14 8 6 9 5 10 4 11 3 12 2 13
REMARK SMILES IDX 1 14
REMARK H PARENT
REMARK Flexibility Score: inf
ROOT
ATOM      1  C   UNL     1      48.775  -1.814  72.284  1.00  0.00     0.000 C 
ENDROOT
BRANCH   1   2
ATOM      2  C   UNL     1      49.753  -2.998  72.249  1.00  0.00     0.000 C 
BRANCH   2   3
ATOM      3  C   UNL     1      49.404  -4.087  73.276  1.00  0.00     0.000 C 
BRANCH   3   4
ATOM      4  C   UNL     1      47.886  -4.261  73.459  1.00  0.00     0.006 C 
BRANCH   4   5
ATOM      5  C   UNL     1      47.323  -5.389  72.585  1.00  0.00     0.053 C 
BRANCH   5   6
ATOM      6  C   UNL     1      46.817  -6.535  73.408  1.00  0.00     0.041 C 
ATOM      7  O   UNL     1      46.139  -7.449  72.871  1.00  0.00    -0.550 OA
ATOM      8  O   UNL     1      47.071  -6.576  74.773  1.00  0.00    -0.550 OA
ENDBRANCH   5   6
ENDBRANCH   4   5
ENDBRANCH   3   4
ENDBRANCH   2   3
ENDBRANCH   1   2
BRANCH   1   9
ATOM      9  C   UNL     1      49.504  -0.492  72.007  1.00  0.00     0.000 C 
BRANCH   9  10
ATOM     10  C   UNL     1      50.718  -0.330  72.930  1.00  0.00    -0.000 C 
BRANCH  10  11
ATOM     11  C   UNL     1      51.944   0.157  72.143  1.00  0.00    -0.000 C 
BRANCH  11  12
ATOM     12  C   UNL     1      53.114  -0.842  72.177  1.00  0.00    -0.000 C 
BRANCH  12  13
ATOM     13  C   UNL     1      53.082  -1.836  73.352  1.00  0.00    -0.003 C 
ATOM     14  C   UNL     1      53.458  -3.259  72.941  1.00  0.00     0.004 C 
ENDBRANCH  12  13
ENDBRANCH  11  12
ENDBRANCH  10  11
ENDBRANCH   9  10
ENDBRANCH   1   9
TORSDOF 10
ENDMDL
MODEL 9
REMARK VINA RESULT:    -3.921      1.688      2.223
REMARK INTER + INTRA:          -7.087
REMARK INTER:                  -5.724
REMARK INTRA:                  -1.363
REMARK UNBOUND:                -0.873
REMARK SMILES CCCCCCCCCCCC(=O)[O-]
REMARK SMILES IDX 7 1 8 2 9 3 10 4 11 5 12 6 13 7 14 8 6 9 5 10 4 11 3 12 2 13
REMARK SMILES IDX 1 14
REMARK H PARENT
REMARK Flexibility Score: inf
ROOT
ATOM      1  C   UNL     1      50.002  -0.876  71.698  1.00  0.00     0.000 C 
ENDROOT
BRANCH   1   2
ATOM      2  C   UNL     1      51.107  -0.012  72.324  1.00  0.00     0.000 C 
BRANCH   2   3
ATOM      3  C   UNL     1      52.489  -0.683  72.266  1.00  0.00     0.000 C 
BRANCH   3   4
ATOM      4  C   UNL     1      52.661  -1.777  73.334  1.00  0.00     0.006 C 
BRANCH   4   5
ATOM      5  C   UNL     1      53.147  -3.102  72.732  1.00  0.00     0.053 C 
BRANCH   5   6
ATOM      6  C   UNL     1      53.557  -4.080  73.791  1.00  0.00     0.041 C 
ATOM      7  O   UNL     1      54.775  -4.244  74.064  1.00  0.00    -0.550 OA
ATOM      8  O   UNL     1      52.595  -4.831  74.455  1.00  0.00    -0.550 OA
ENDBRANCH   5   6
ENDBRANCH   4   5
ENDBRANCH   3   4
ENDBRANCH   2   3
ENDBRANCH   1   2
BRANCH   1   9
ATOM      9  C   UNL     1      48.626  -0.498  72.262  1.00  0.00     0.000 C 
BRANCH   9  10
ATOM     10  C   UNL     1      48.760   0.192  73.625  1.00  0.00    -0.000 C 
BRANCH  10  11
ATOM     11  C   UNL     1      48.353  -0.755  74.763  1.00  0.00    -0.000 C 
BRANCH  11  12
ATOM     12  C   UNL     1      49.513  -1.641  75.251  1.00  0.00    -0.000 C 
BRANCH  12  13
ATOM     13  C   UNL     1      49.222  -3.152  75.241  1.00  0.00    -0.003 C 
ATOM     14  C   UNL     1      49.290  -3.765  73.843  1.00  0.00     0.004 C 
ENDBRANCH  12  13
ENDBRANCH  11  12
ENDBRANCH  10  11
ENDBRANCH   9  10
ENDBRANCH   1   9
TORSDOF 10
ENDMDL
