MODEL 1
REMARK VINA RESULT:     3.290      0.000      0.000
REMARK INTER + INTRA:           3.732
REMARK INTER:                   3.578
REMARK INTRA:                   0.153
REMARK UNBOUND:                 0.153
REMARK SMILES C[C@H]1[C@H](C)CC[C@@]2(C(=O)[O-])CC[C@@]3(C)C(=CC[C@H]4[C@]5(C)CC[C@@H](O)C(C)(C)[C@H]5CC[C@]43C)[C@@H]12
REMARK SMILES IDX 7 1 6 2 11 3 33 4 5 5 12 6 15 7 2 8 3 9 13 10 16 11 1 12
REMARK SMILES IDX 4 13 14 14 31 15 17 16 18 17 30 18 32 19 19 20 29 21 28 22
REMARK SMILES IDX 21 23 20 24 25 25 22 26 23 27 26 28 27 29 8 30 9 31 10 32
REMARK SMILES IDX 24 33
REMARK H PARENT 24 34
REMARK Flexibility Score: inf
ROOT
ATOM      1  C   UNL     1     -19.608  39.192   0.202  1.00  0.00     0.017 C 
ATOM      2  C   UNL     1     -19.591  38.825   1.726  1.00  0.00     0.014 C 
ATOM      3  C   UNL     1     -20.919  38.653  -0.472  1.00  0.00     0.014 C 
ATOM      4  C   UNL     1     -19.438  40.746   0.030  1.00  0.00     0.030 C 
ATOM      5  C   UNL     1     -18.632  39.720   2.525  1.00  0.00     0.004 C 
ATOM      6  C   UNL     1     -21.855  39.690  -1.138  1.00  0.00     0.013 C 
ATOM      7  C   UNL     1     -19.868  41.232  -1.358  1.00  0.00    -0.063 C 
ATOM      8  C   UNL     1     -19.888  41.619   1.251  1.00  0.00    -0.003 C 
ATOM      9  C   UNL     1     -19.098  41.200   2.541  1.00  0.00    -0.011 C 
ATOM     10  C   UNL     1     -21.196  40.843  -1.992  1.00  0.00    -0.006 C 
ATOM     11  C   UNL     1     -19.043  42.043  -2.034  1.00  0.00    -0.027 C 
ATOM     12  C   UNL     1     -21.399  41.647   1.556  1.00  0.00     0.008 C 
ATOM     13  C   UNL     1     -17.897  42.125   2.782  1.00  0.00     0.008 C 
ATOM     14  C   UNL     1     -22.114  42.125  -1.885  1.00  0.00     0.017 C 
ATOM     15  C   UNL     1     -21.030  40.440  -3.549  1.00  0.00    -0.020 C 
ATOM     16  C   UNL     1     -18.945  42.005  -3.525  1.00  0.00     0.032 C 
ATOM     17  C   UNL     1     -20.196  41.545  -4.346  1.00  0.00     0.006 C 
ATOM     18  C   UNL     1     -20.264  39.085  -3.714  1.00  0.00     0.008 C 
ATOM     19  C   UNL     1     -22.490  40.287  -4.136  1.00  0.00     0.012 C 
ATOM     20  C   UNL     1     -19.830  41.183  -5.895  1.00  0.00    -0.025 C 
ATOM     21  C   UNL     1     -19.767  38.730  -5.145  1.00  0.00     0.005 C 
ATOM     22  C   UNL     1     -20.259  39.710  -6.236  1.00  0.00     0.003 C 
ATOM     23  C   UNL     1     -20.620  42.125  -6.854  1.00  0.00     0.010 C 
ATOM     24  C   UNL     1     -18.307  41.408  -6.197  1.00  0.00     0.012 C 
ATOM     25  C   UNL     1     -20.111  39.245  -7.743  1.00  0.00    -0.006 C 
ATOM     26  C   UNL     1     -20.485  41.760  -8.347  1.00  0.00     0.033 C 
ATOM     27  C   UNL     1     -20.853  40.291  -8.646  1.00  0.00     0.120 C 
ATOM     28  C   UNL     1     -18.641  39.030  -8.207  1.00  0.00     0.014 C 
ATOM     29  C   UNL     1     -20.845  37.885  -7.935  1.00  0.00     0.014 C 
ENDROOT
BRANCH   1  30
ATOM     30  C   UNL     1     -18.430  38.450  -0.451  1.00  0.00     0.048 C 
ATOM     31  O   UNL     1     -17.249  38.584  -0.032  1.00  0.00    -0.550 OA
ATOM     32  O   UNL     1     -18.647  37.666  -1.582  1.00  0.00    -0.550 OA
ENDBRANCH   1  30
BRANCH  27  33
ATOM     33  O   UNL     1     -20.614  40.015 -10.006  1.00  0.00    -0.393 OA
ATOM     34  H   UNL     1     -21.385  39.486 -10.335  1.00  0.00     0.210 HD
ENDBRANCH  27  33
TORSDOF 2
ENDMDL
MODEL 2
REMARK VINA RESULT:     5.881      1.936      7.852
REMARK INTER + INTRA:           6.550
REMARK INTER:                   6.313
REMARK INTRA:                   0.237
REMARK UNBOUND:                 0.153
REMARK SMILES C[C@H]1[C@H](C)CC[C@@]2(C(=O)[O-])CC[C@@]3(C)C(=CC[C@H]4[C@]5(C)CC[C@@H](O)C(C)(C)[C@H]5CC[C@]43C)[C@@H]12
REMARK SMILES IDX 7 1 6 2 11 3 33 4 5 5 12 6 15 7 2 8 3 9 13 10 16 11 1 12
REMARK SMILES IDX 4 13 14 14 31 15 17 16 18 17 30 18 32 19 19 20 29 21 28 22
REMARK SMILES IDX 21 23 20 24 25 25 22 26 23 27 26 28 27 29 8 30 9 31 10 32
REMARK SMILES IDX 24 33
REMARK H PARENT 24 34
REMARK Flexibility Score: inf
ROOT
ATOM      1  C   UNL     1     -20.004  37.680  -7.416  1.00  0.00     0.017 C 
ATOM      2  C   UNL     1     -19.904  37.045  -8.845  1.00  0.00     0.014 C 
ATOM      3  C   UNL     1     -18.572  38.024  -6.873  1.00  0.00     0.014 C 
ATOM      4  C   UNL     1     -20.949  38.936  -7.459  1.00  0.00     0.030 C 
ATOM      5  C   UNL     1     -21.228  37.150  -9.617  1.00  0.00     0.004 C 
ATOM      6  C   UNL     1     -18.280  39.503  -6.522  1.00  0.00     0.013 C 
ATOM      7  C   UNL     1     -20.765  39.850  -6.242  1.00  0.00    -0.063 C 
ATOM      8  C   UNL     1     -21.081  39.640  -8.853  1.00  0.00    -0.003 C 
ATOM      9  C   UNL     1     -21.602  38.622  -9.930  1.00  0.00    -0.011 C 
ATOM     10  C   UNL     1     -19.399  40.320  -5.765  1.00  0.00    -0.006 C 
ATOM     11  C   UNL     1     -21.857  40.259  -5.582  1.00  0.00    -0.027 C 
ATOM     12  C   UNL     1     -19.824  40.357  -9.383  1.00  0.00     0.008 C 
ATOM     13  C   UNL     1     -23.120  38.748 -10.124  1.00  0.00     0.008 C 
ATOM     14  C   UNL     1     -19.289  41.834  -6.204  1.00  0.00     0.017 C 
ATOM     15  C   UNL     1     -19.251  40.223  -4.158  1.00  0.00    -0.020 C 
ATOM     16  C   UNL     1     -21.845  40.489  -4.105  1.00  0.00     0.032 C 
ATOM     17  C   UNL     1     -20.497  40.900  -3.422  1.00  0.00     0.006 C 
ATOM     18  C   UNL     1     -19.190  38.736  -3.674  1.00  0.00     0.008 C 
ATOM     19  C   UNL     1     -17.898  40.948  -3.782  1.00  0.00     0.012 C 
ATOM     20  C   UNL     1     -20.542  40.736  -1.799  1.00  0.00    -0.025 C 
ATOM     21  C   UNL     1     -19.357  38.487  -2.147  1.00  0.00     0.005 C 
ATOM     22  C   UNL     1     -19.393  39.784  -1.306  1.00  0.00     0.003 C 
ATOM     23  C   UNL     1     -20.311  42.123  -1.125  1.00  0.00     0.010 C 
ATOM     24  C   UNL     1     -21.942  40.226  -1.308  1.00  0.00     0.012 C 
ATOM     25  C   UNL     1     -19.201  39.635   0.260  1.00  0.00    -0.006 C 
ATOM     26  C   UNL     1     -20.160  42.060   0.410  1.00  0.00     0.033 C 
ATOM     27  C   UNL     1     -19.067  41.073   0.870  1.00  0.00     0.120 C 
ATOM     28  C   UNL     1     -20.319  38.815   0.968  1.00  0.00     0.014 C 
ATOM     29  C   UNL     1     -17.857  38.900   0.544  1.00  0.00     0.014 C 
ENDROOT
BRANCH   1  30
ATOM     30  C   UNL     1     -20.589  36.603  -6.486  1.00  0.00     0.048 C 
ATOM     31  O   UNL     1     -20.831  36.838  -5.271  1.00  0.00    -0.550 OA
ATOM     32  O   UNL     1     -20.792  35.311  -6.964  1.00  0.00    -0.550 OA
ENDBRANCH   1  30
BRANCH  27  33
ATOM     33  O   UNL     1     -19.058  41.005   2.276  1.00  0.00    -0.393 OA
ATOM     34  H   UNL     1     -18.200  40.585   2.542  1.00  0.00     0.210 HD
ENDBRANCH  27  33
TORSDOF 2
ENDMDL
