MODEL 1
REMARK VINA RESULT:    -8.004      0.000      0.000
REMARK INTER + INTRA:          -9.964
REMARK INTER:                  -9.642
REMARK INTRA:                  -0.322
REMARK UNBOUND:                -0.322
REMARK SMILES O=c1c(O)c(-c2ccc(O)c(O)c2)oc2cc(O)cc(O)c12
REMARK SMILES IDX 5 1 3 2 2 3 1 4 22 5 20 6 19 7 17 8 16 9 15 10 14 11 6 12
REMARK SMILES IDX 7 13 8 14 9 15 13 16 11 17 10 18 12 20 4 22 21 24 18 26
REMARK H PARENT 10 19 12 21 4 23 21 25 18 27
REMARK Flexibility Score: inf
ROOT
ATOM      1  C   UNL     1     -24.696 -20.259 -13.386  1.00  0.00     0.180 A 
ATOM      2  C   UNL     1     -24.544 -21.378 -14.223  1.00  0.00     0.208 A 
ATOM      3  C   UNL     1     -24.318 -22.636 -13.643  1.00  0.00     0.238 A 
ATOM      4  O   UNL     1     -24.127 -23.624 -14.399  1.00  0.00    -0.285 OA
ATOM      5  C   UNL     1     -24.263 -22.764 -12.234  1.00  0.00     0.111 A 
ATOM      6  C   UNL     1     -24.079 -23.996 -11.538  1.00  0.00     0.134 A 
ATOM      7  C   UNL     1     -23.910 -23.986 -10.148  1.00  0.00     0.093 A 
ATOM      8  C   UNL     1     -23.984 -22.795  -9.422  1.00  0.00     0.123 A 
ATOM      9  C   UNL     1     -24.222 -21.594 -10.086  1.00  0.00     0.094 A 
ATOM     10  C   UNL     1     -24.359 -21.567 -11.476  1.00  0.00     0.146 A 
ATOM     11  O   UNL     1     -24.574 -20.399 -12.070  1.00  0.00    -0.452 OA
ENDROOT
BRANCH   1  12
ATOM     12  C   UNL     1     -24.962 -18.904 -13.921  1.00  0.00     0.025 A 
ATOM     13  C   UNL     1     -26.268 -18.407 -14.037  1.00  0.00     0.016 A 
ATOM     14  C   UNL     1     -26.493 -17.117 -14.522  1.00  0.00     0.051 A 
ATOM     15  C   UNL     1     -25.422 -16.295 -14.888  1.00  0.00     0.157 A 
ATOM     16  C   UNL     1     -23.884 -18.073 -14.267  1.00  0.00     0.062 A 
ATOM     17  C   UNL     1     -24.099 -16.779 -14.755  1.00  0.00     0.158 A 
BRANCH  15  18
ATOM     18  O   UNL     1     -25.715 -15.018 -15.371  1.00  0.00    -0.504 OA
ATOM     19  H   UNL     1     -25.106 -14.492 -15.981  1.00  0.00     0.293 HD
ENDBRANCH  15  18
BRANCH  17  20
ATOM     20  O   UNL     1     -22.980 -16.015 -15.092  1.00  0.00    -0.504 OA
ATOM     21  H   UNL     1     -22.769 -15.113 -14.688  1.00  0.00     0.293 HD
ENDBRANCH  17  20
ENDBRANCH   1  12
BRANCH   2  22
ATOM     22  O   UNL     1     -24.579 -21.226 -15.611  1.00  0.00    -0.502 OA
ATOM     23  H   UNL     1     -25.385 -21.489 -16.166  1.00  0.00     0.293 HD
ENDBRANCH   2  22
BRANCH   6  24
ATOM     24  O   UNL     1     -24.083 -25.250 -12.157  1.00  0.00    -0.507 OA
ATOM     25  H   UNL     1     -24.913 -25.771 -12.392  1.00  0.00     0.293 HD
ENDBRANCH   6  24
BRANCH   8  26
ATOM     26  O   UNL     1     -23.831 -22.795  -8.037  1.00  0.00    -0.508 OA
ATOM     27  H   UNL     1     -24.424 -22.232  -7.439  1.00  0.00     0.293 HD
ENDBRANCH   8  26
TORSDOF 6
ENDMDL
MODEL 2
REMARK VINA RESULT:    -7.729      1.311      2.864
REMARK INTER + INTRA:          -9.632
REMARK INTER:                  -9.373
REMARK INTRA:                  -0.259
REMARK UNBOUND:                -0.322
REMARK SMILES O=c1c(O)c(-c2ccc(O)c(O)c2)oc2cc(O)cc(O)c12
REMARK SMILES IDX 5 1 3 2 2 3 1 4 22 5 20 6 19 7 17 8 16 9 15 10 14 11 6 12
REMARK SMILES IDX 7 13 8 14 9 15 13 16 11 17 10 18 12 20 4 22 21 24 18 26
REMARK H PARENT 10 19 12 21 4 23 21 25 18 27
REMARK Flexibility Score: inf
ROOT
ATOM      1  C   UNL     1     -24.906 -19.557 -13.185  1.00  0.00     0.180 A 
ATOM      2  C   UNL     1     -25.338 -19.640 -11.850  1.00  0.00     0.208 A 
ATOM      3  C   UNL     1     -25.252 -20.872 -11.183  1.00  0.00     0.238 A 
ATOM      4  O   UNL     1     -25.692 -20.953 -10.006  1.00  0.00    -0.285 OA
ATOM      5  C   UNL     1     -24.721 -22.001 -11.851  1.00  0.00     0.111 A 
ATOM      6  C   UNL     1     -24.551 -23.288 -11.259  1.00  0.00     0.134 A 
ATOM      7  C   UNL     1     -24.138 -24.365 -12.053  1.00  0.00     0.093 A 
ATOM      8  C   UNL     1     -23.826 -24.186 -13.403  1.00  0.00     0.123 A 
ATOM      9  C   UNL     1     -23.932 -22.921 -13.976  1.00  0.00     0.094 A 
ATOM     10  C   UNL     1     -24.376 -21.835 -13.218  1.00  0.00     0.146 A 
ATOM     11  O   UNL     1     -24.473 -20.648 -13.806  1.00  0.00    -0.452 OA
ENDROOT
BRANCH   1  12
ATOM     12  C   UNL     1     -24.941 -18.288 -13.947  1.00  0.00     0.025 A 
ATOM     13  C   UNL     1     -26.147 -17.758 -14.431  1.00  0.00     0.016 A 
ATOM     14  C   UNL     1     -26.159 -16.548 -15.126  1.00  0.00     0.051 A 
ATOM     15  C   UNL     1     -24.974 -15.836 -15.341  1.00  0.00     0.157 A 
ATOM     16  C   UNL     1     -23.754 -17.565 -14.143  1.00  0.00     0.062 A 
ATOM     17  C   UNL     1     -23.755 -16.350 -14.839  1.00  0.00     0.158 A 
BRANCH  15  18
ATOM     18  O   UNL     1     -25.053 -14.635 -16.048  1.00  0.00    -0.504 OA
ATOM     19  H   UNL     1     -25.890 -14.303 -16.506  1.00  0.00     0.293 HD
ENDBRANCH  15  18
BRANCH  17  20
ATOM     20  O   UNL     1     -22.534 -15.694 -15.007  1.00  0.00    -0.504 OA
ATOM     21  H   UNL     1     -22.361 -14.995 -15.716  1.00  0.00     0.293 HD
ENDBRANCH  17  20
ENDBRANCH   1  12
BRANCH   2  22
ATOM     22  O   UNL     1     -25.879 -18.519 -11.216  1.00  0.00    -0.502 OA
ATOM     23  H   UNL     1     -25.661 -17.573 -11.506  1.00  0.00     0.293 HD
ENDBRANCH   2  22
BRANCH   6  24
ATOM     24  O   UNL     1     -24.746 -23.554  -9.900  1.00  0.00    -0.507 OA
ATOM     25  H   UNL     1     -24.585 -24.447  -9.461  1.00  0.00     0.293 HD
ENDBRANCH   6  24
BRANCH   8  26
ATOM     26  O   UNL     1     -23.399 -25.259 -14.182  1.00  0.00    -0.508 OA
ATOM     27  H   UNL     1     -22.477 -25.663 -14.068  1.00  0.00     0.293 HD
ENDBRANCH   8  26
TORSDOF 6
ENDMDL
MODEL 3
REMARK VINA RESULT:    -7.694      2.162      7.450
REMARK INTER + INTRA:          -9.591
REMARK INTER:                  -9.268
REMARK INTRA:                  -0.323
REMARK UNBOUND:                -0.322
REMARK SMILES O=c1c(O)c(-c2ccc(O)c(O)c2)oc2cc(O)cc(O)c12
REMARK SMILES IDX 5 1 3 2 2 3 1 4 22 5 20 6 19 7 17 8 16 9 15 10 14 11 6 12
REMARK SMILES IDX 7 13 8 14 9 15 13 16 11 17 10 18 12 20 4 22 21 24 18 26
REMARK H PARENT 10 19 12 21 4 23 21 25 18 27
REMARK Flexibility Score: inf
ROOT
ATOM      1  C   UNL     1     -24.416 -17.735 -14.079  1.00  0.00     0.180 A 
ATOM      2  C   UNL     1     -25.428 -16.925 -14.623  1.00  0.00     0.208 A 
ATOM      3  C   UNL     1     -25.125 -15.598 -14.968  1.00  0.00     0.238 A 
ATOM      4  O   UNL     1     -26.048 -14.861 -15.403  1.00  0.00    -0.285 OA
ATOM      5  C   UNL     1     -23.813 -15.102 -14.780  1.00  0.00     0.111 A 
ATOM      6  C   UNL     1     -23.385 -13.787 -15.131  1.00  0.00     0.134 A 
ATOM      7  C   UNL     1     -22.097 -13.363 -14.780  1.00  0.00     0.093 A 
ATOM      8  C   UNL     1     -21.200 -14.228 -14.148  1.00  0.00     0.123 A 
ATOM      9  C   UNL     1     -21.589 -15.533 -13.855  1.00  0.00     0.094 A 
ATOM     10  C   UNL     1     -22.879 -15.974 -14.160  1.00  0.00     0.146 A 
ATOM     11  O   UNL     1     -23.212 -17.223 -13.853  1.00  0.00    -0.452 OA
ENDROOT
BRANCH   1  12
ATOM     12  C   UNL     1     -24.652 -19.151 -13.714  1.00  0.00     0.025 A 
ATOM     13  C   UNL     1     -25.079 -19.513 -12.427  1.00  0.00     0.016 A 
ATOM     14  C   UNL     1     -25.318 -20.852 -12.113  1.00  0.00     0.051 A 
ATOM     15  C   UNL     1     -25.149 -21.853 -13.076  1.00  0.00     0.157 A 
ATOM     16  C   UNL     1     -24.503 -20.151 -14.688  1.00  0.00     0.062 A 
ATOM     17  C   UNL     1     -24.739 -21.496 -14.384  1.00  0.00     0.158 A 
BRANCH  15  18
ATOM     18  O   UNL     1     -25.399 -23.173 -12.698  1.00  0.00    -0.504 OA
ATOM     19  H   UNL     1     -25.509 -23.937 -13.349  1.00  0.00     0.293 HD
ENDBRANCH  15  18
BRANCH  17  20
ATOM     20  O   UNL     1     -24.558 -22.437 -15.400  1.00  0.00    -0.504 OA
ATOM     21  H   UNL     1     -23.659 -22.812 -15.669  1.00  0.00     0.293 HD
ENDBRANCH  17  20
ENDBRANCH   1  12
BRANCH   2  22
ATOM     22  O   UNL     1     -26.722 -17.427 -14.780  1.00  0.00    -0.502 OA
ATOM     23  H   UNL     1     -27.274 -17.258 -15.612  1.00  0.00     0.293 HD
ENDBRANCH   2  22
BRANCH   6  24
ATOM     24  O   UNL     1     -24.169 -12.876 -15.845  1.00  0.00    -0.507 OA
ATOM     25  H   UNL     1     -24.256 -11.896 -15.623  1.00  0.00     0.293 HD
ENDBRANCH   6  24
BRANCH   8  26
ATOM     26  O   UNL     1     -19.916 -13.804 -13.817  1.00  0.00    -0.508 OA
ATOM     27  H   UNL     1     -19.696 -12.821 -13.703  1.00  0.00     0.293 HD
ENDBRANCH   8  26
TORSDOF 6
ENDMDL
MODEL 4
REMARK VINA RESULT:    -7.266      2.314      7.517
REMARK INTER + INTRA:          -9.074
REMARK INTER:                  -8.761
REMARK INTRA:                  -0.314
REMARK UNBOUND:                -0.322
REMARK SMILES O=c1c(O)c(-c2ccc(O)c(O)c2)oc2cc(O)cc(O)c12
REMARK SMILES IDX 5 1 3 2 2 3 1 4 22 5 20 6 19 7 17 8 16 9 15 10 14 11 6 12
REMARK SMILES IDX 7 13 8 14 9 15 13 16 11 17 10 18 12 20 4 22 21 24 18 26
REMARK H PARENT 10 19 12 21 4 23 21 25 18 27
REMARK Flexibility Score: inf
ROOT
ATOM      1  C   UNL     1     -24.433 -17.574 -13.889  1.00  0.00     0.180 A 
ATOM      2  C   UNL     1     -25.376 -16.767 -14.550  1.00  0.00     0.208 A 
ATOM      3  C   UNL     1     -24.996 -15.484 -14.972  1.00  0.00     0.238 A 
ATOM      4  O   UNL     1     -25.860 -14.746 -15.514  1.00  0.00    -0.285 OA
ATOM      5  C   UNL     1     -23.675 -15.028 -14.745  1.00  0.00     0.111 A 
ATOM      6  C   UNL     1     -23.170 -13.761 -15.165  1.00  0.00     0.134 A 
ATOM      7  C   UNL     1     -21.887 -13.364 -14.771  1.00  0.00     0.093 A 
ATOM      8  C   UNL     1     -21.066 -14.214 -14.026  1.00  0.00     0.123 A 
ATOM      9  C   UNL     1     -21.528 -15.477 -13.661  1.00  0.00     0.094 A 
ATOM     10  C   UNL     1     -22.817 -15.888 -14.009  1.00  0.00     0.146 A 
ATOM     11  O   UNL     1     -23.221 -17.095 -13.632  1.00  0.00    -0.452 OA
ENDROOT
BRANCH   1  12
ATOM     12  C   UNL     1     -24.751 -18.948 -13.436  1.00  0.00     0.025 A 
ATOM     13  C   UNL     1     -24.408 -20.070 -14.206  1.00  0.00     0.016 A 
ATOM     14  C   UNL     1     -24.697 -21.356 -13.748  1.00  0.00     0.051 A 
ATOM     15  C   UNL     1     -25.319 -21.550 -12.510  1.00  0.00     0.157 A 
ATOM     16  C   UNL     1     -25.355 -19.141 -12.184  1.00  0.00     0.062 A 
ATOM     17  C   UNL     1     -25.649 -20.427 -11.715  1.00  0.00     0.158 A 
BRANCH  15  18
ATOM     18  O   UNL     1     -25.584 -22.862 -12.111  1.00  0.00    -0.504 OA
ATOM     19  H   UNL     1     -24.926 -23.623 -12.196  1.00  0.00     0.293 HD
ENDBRANCH  15  18
BRANCH  17  20
ATOM     20  O   UNL     1     -26.263 -20.541 -10.466  1.00  0.00    -0.504 OA
ATOM     21  H   UNL     1     -27.263 -20.591 -10.330  1.00  0.00     0.293 HD
ENDBRANCH  17  20
ENDBRANCH   1  12
BRANCH   2  22
ATOM     22  O   UNL     1     -26.680 -17.228 -14.745  1.00  0.00    -0.502 OA
ATOM     23  H   UNL     1     -26.894 -18.020 -15.340  1.00  0.00     0.293 HD
ENDBRANCH   2  22
BRANCH   6  24
ATOM     24  O   UNL     1     -23.872 -12.876 -15.988  1.00  0.00    -0.507 OA
ATOM     25  H   UNL     1     -23.509 -12.469 -16.836  1.00  0.00     0.293 HD
ENDBRANCH   6  24
BRANCH   8  26
ATOM     26  O   UNL     1     -19.784 -13.818 -13.652  1.00  0.00    -0.508 OA
ATOM     27  H   UNL     1     -18.958 -14.276 -14.021  1.00  0.00     0.293 HD
ENDBRANCH   8  26
TORSDOF 6
ENDMDL
MODEL 5
REMARK VINA RESULT:    -7.258      2.059      2.301
REMARK INTER + INTRA:          -9.065
REMARK INTER:                  -8.732
REMARK INTRA:                  -0.334
REMARK UNBOUND:                -0.322
REMARK SMILES O=c1c(O)c(-c2ccc(O)c(O)c2)oc2cc(O)cc(O)c12
REMARK SMILES IDX 5 1 3 2 2 3 1 4 22 5 20 6 19 7 17 8 16 9 15 10 14 11 6 12
REMARK SMILES IDX 7 13 8 14 9 15 13 16 11 17 10 18 12 20 4 22 21 24 18 26
REMARK H PARENT 10 19 12 21 4 23 21 25 18 27
REMARK Flexibility Score: inf
ROOT
ATOM      1  C   UNL     1     -25.105 -18.701 -13.203  1.00  0.00     0.180 A 
ATOM      2  C   UNL     1     -24.379 -19.764 -13.768  1.00  0.00     0.208 A 
ATOM      3  C   UNL     1     -24.533 -21.053 -13.234  1.00  0.00     0.238 A 
ATOM      4  O   UNL     1     -23.839 -21.990 -13.708  1.00  0.00    -0.285 OA
ATOM      5  C   UNL     1     -25.423 -21.268 -12.154  1.00  0.00     0.111 A 
ATOM      6  C   UNL     1     -25.687 -22.538 -11.561  1.00  0.00     0.134 A 
ATOM      7  C   UNL     1     -26.486 -22.613 -10.413  1.00  0.00     0.093 A 
ATOM      8  C   UNL     1     -27.083 -21.469  -9.876  1.00  0.00     0.123 A 
ATOM      9  C   UNL     1     -26.880 -20.233 -10.483  1.00  0.00     0.094 A 
ATOM     10  C   UNL     1     -26.058 -20.121 -11.608  1.00  0.00     0.146 A 
ATOM     11  O   UNL     1     -25.882 -18.921 -12.148  1.00  0.00    -0.452 OA
ENDROOT
BRANCH   1  12
ATOM     12  C   UNL     1     -25.015 -17.319 -13.726  1.00  0.00     0.025 A 
ATOM     13  C   UNL     1     -25.839 -16.878 -14.773  1.00  0.00     0.016 A 
ATOM     14  C   UNL     1     -25.752 -15.563 -15.234  1.00  0.00     0.051 A 
ATOM     15  C   UNL     1     -24.855 -14.660 -14.654  1.00  0.00     0.157 A 
ATOM     16  C   UNL     1     -24.129 -16.408 -13.128  1.00  0.00     0.062 A 
ATOM     17  C   UNL     1     -24.035 -15.088 -13.583  1.00  0.00     0.158 A 
BRANCH  15  18
ATOM     18  O   UNL     1     -24.814 -13.361 -15.164  1.00  0.00    -0.504 OA
ATOM     19  H   UNL     1     -25.112 -12.543 -14.652  1.00  0.00     0.293 HD
ENDBRANCH  15  18
BRANCH  17  20
ATOM     20  O   UNL     1     -23.122 -14.243 -12.948  1.00  0.00    -0.504 OA
ATOM     21  H   UNL     1     -22.535 -13.578 -13.433  1.00  0.00     0.293 HD
ENDBRANCH  17  20
ENDBRANCH   1  12
BRANCH   2  22
ATOM     22  O   UNL     1     -23.490 -19.526 -14.818  1.00  0.00    -0.502 OA
ATOM     23  H   UNL     1     -22.989 -18.652 -14.920  1.00  0.00     0.293 HD
ENDBRANCH   2  22
BRANCH   6  24
ATOM     24  O   UNL     1     -25.216 -23.751 -12.072  1.00  0.00    -0.507 OA
ATOM     25  H   UNL     1     -25.776 -24.415 -12.584  1.00  0.00     0.293 HD
ENDBRANCH   6  24
BRANCH   8  26
ATOM     26  O   UNL     1     -27.890 -21.554  -8.744  1.00  0.00    -0.508 OA
ATOM     27  H   UNL     1     -28.690 -20.944  -8.616  1.00  0.00     0.293 HD
ENDBRANCH   8  26
TORSDOF 6
ENDMDL
MODEL 6
REMARK VINA RESULT:    -7.056      5.639      8.629
REMARK INTER + INTRA:          -8.822
REMARK INTER:                  -8.673
REMARK INTRA:                  -0.149
REMARK UNBOUND:                -0.322
REMARK SMILES O=c1c(O)c(-c2ccc(O)c(O)c2)oc2cc(O)cc(O)c12
REMARK SMILES IDX 5 1 3 2 2 3 1 4 22 5 20 6 19 7 17 8 16 9 15 10 14 11 6 12
REMARK SMILES IDX 7 13 8 14 9 15 13 16 11 17 10 18 12 20 4 22 21 24 18 26
REMARK H PARENT 10 19 12 21 4 23 21 25 18 27
REMARK Flexibility Score: inf
ROOT
ATOM      1  C   UNL     1     -21.866 -14.240 -11.144  1.00  0.00     0.180 A 
ATOM      2  C   UNL     1     -21.065 -13.737 -12.184  1.00  0.00     0.208 A 
ATOM      3  C   UNL     1     -21.358 -14.104 -13.507  1.00  0.00     0.238 A 
ATOM      4  O   UNL     1     -20.605 -13.694 -14.428  1.00  0.00    -0.285 OA
ATOM      5  C   UNL     1     -22.456 -14.956 -13.776  1.00  0.00     0.111 A 
ATOM      6  C   UNL     1     -22.867 -15.360 -15.082  1.00  0.00     0.134 A 
ATOM      7  C   UNL     1     -23.887 -16.309 -15.221  1.00  0.00     0.093 A 
ATOM      8  C   UNL     1     -24.554 -16.820 -14.105  1.00  0.00     0.123 A 
ATOM      9  C   UNL     1     -24.199 -16.387 -12.830  1.00  0.00     0.094 A 
ATOM     10  C   UNL     1     -23.162 -15.468 -12.656  1.00  0.00     0.146 A 
ATOM     11  O   UNL     1     -22.849 -15.090 -11.422  1.00  0.00    -0.452 OA
ENDROOT
BRANCH   1  12
ATOM     12  C   UNL     1     -21.636 -13.879  -9.727  1.00  0.00     0.025 A 
ATOM     13  C   UNL     1     -22.601 -13.184  -8.983  1.00  0.00     0.016 A 
ATOM     14  C   UNL     1     -22.372 -12.875  -7.641  1.00  0.00     0.051 A 
ATOM     15  C   UNL     1     -21.185 -13.264  -7.011  1.00  0.00     0.157 A 
ATOM     16  C   UNL     1     -20.454 -14.290  -9.091  1.00  0.00     0.062 A 
ATOM     17  C   UNL     1     -20.214 -13.986  -7.746  1.00  0.00     0.158 A 
BRANCH  15  18
ATOM     18  O   UNL     1     -21.015 -12.921  -5.669  1.00  0.00    -0.504 OA
ATOM     19  H   UNL     1     -20.153 -12.565  -5.282  1.00  0.00     0.293 HD
ENDBRANCH  15  18
BRANCH  17  20
ATOM     20  O   UNL     1     -19.010 -14.415  -7.184  1.00  0.00    -0.504 OA
ATOM     21  H   UNL     1     -18.784 -14.336  -6.202  1.00  0.00     0.293 HD
ENDBRANCH  17  20
ENDBRANCH   1  12
BRANCH   2  22
ATOM     22  O   UNL     1     -19.974 -12.915 -11.894  1.00  0.00    -0.502 OA
ATOM     23  H   UNL     1     -19.088 -12.995 -12.380  1.00  0.00     0.293 HD
ENDBRANCH   2  22
BRANCH   6  24
ATOM     24  O   UNL     1     -22.331 -14.842 -16.264  1.00  0.00    -0.507 OA
ATOM     25  H   UNL     1     -22.720 -14.068 -16.780  1.00  0.00     0.293 HD
ENDBRANCH   6  24
BRANCH   8  26
ATOM     26  O   UNL     1     -25.579 -17.752 -14.253  1.00  0.00    -0.508 OA
ATOM     27  H   UNL     1     -25.393 -18.749 -14.252  1.00  0.00     0.293 HD
ENDBRANCH   8  26
TORSDOF 6
ENDMDL
MODEL 7
REMARK VINA RESULT:    -6.977      2.283      3.327
REMARK INTER + INTRA:          -8.727
REMARK INTER:                  -8.419
REMARK INTRA:                  -0.308
REMARK UNBOUND:                -0.322
REMARK SMILES O=c1c(O)c(-c2ccc(O)c(O)c2)oc2cc(O)cc(O)c12
REMARK SMILES IDX 5 1 3 2 2 3 1 4 22 5 20 6 19 7 17 8 16 9 15 10 14 11 6 12
REMARK SMILES IDX 7 13 8 14 9 15 13 16 11 17 10 18 12 20 4 22 21 24 18 26
REMARK H PARENT 10 19 12 21 4 23 21 25 18 27
REMARK Flexibility Score: inf
ROOT
ATOM      1  C   UNL     1     -25.718 -19.808 -11.461  1.00  0.00     0.180 A 
ATOM      2  C   UNL     1     -26.891 -19.778 -10.686  1.00  0.00     0.208 A 
ATOM      3  C   UNL     1     -27.088 -20.770  -9.712  1.00  0.00     0.238 A 
ATOM      4  O   UNL     1     -28.165 -20.770  -9.059  1.00  0.00    -0.285 OA
ATOM      5  C   UNL     1     -26.105 -21.769  -9.512  1.00  0.00     0.111 A 
ATOM      6  C   UNL     1     -26.183 -22.798  -8.527  1.00  0.00     0.134 A 
ATOM      7  C   UNL     1     -25.214 -23.809  -8.506  1.00  0.00     0.093 A 
ATOM      8  C   UNL     1     -24.136 -23.792  -9.394  1.00  0.00     0.123 A 
ATOM      9  C   UNL     1     -24.019 -22.759 -10.321  1.00  0.00     0.094 A 
ATOM     10  C   UNL     1     -24.989 -21.755 -10.390  1.00  0.00     0.146 A 
ATOM     11  O   UNL     1     -24.845 -20.795 -11.295  1.00  0.00    -0.452 OA
ENDROOT
BRANCH   1  12
ATOM     12  C   UNL     1     -25.428 -18.784 -12.489  1.00  0.00     0.025 A 
ATOM     13  C   UNL     1     -25.963 -18.874 -13.783  1.00  0.00     0.016 A 
ATOM     14  C   UNL     1     -25.694 -17.883 -14.729  1.00  0.00     0.051 A 
ATOM     15  C   UNL     1     -24.901 -16.779 -14.402  1.00  0.00     0.157 A 
ATOM     16  C   UNL     1     -24.649 -17.665 -12.152  1.00  0.00     0.062 A 
ATOM     17  C   UNL     1     -24.373 -16.667 -13.093  1.00  0.00     0.158 A 
BRANCH  15  18
ATOM     18  O   UNL     1     -24.666 -15.826 -15.395  1.00  0.00    -0.504 OA
ATOM     19  H   UNL     1     -23.812 -15.291 -15.474  1.00  0.00     0.293 HD
ENDBRANCH  15  18
BRANCH  17  20
ATOM     20  O   UNL     1     -23.581 -15.591 -12.689  1.00  0.00    -0.504 OA
ATOM     21  H   UNL     1     -23.647 -14.661 -13.081  1.00  0.00     0.293 HD
ENDBRANCH  17  20
ENDBRANCH   1  12
BRANCH   2  22
ATOM     22  O   UNL     1     -27.859 -18.797 -10.914  1.00  0.00    -0.502 OA
ATOM     23  H   UNL     1     -28.482 -18.823 -11.712  1.00  0.00     0.293 HD
ENDBRANCH   2  22
BRANCH   6  24
ATOM     24  O   UNL     1     -27.166 -22.856  -7.535  1.00  0.00    -0.507 OA
ATOM     25  H   UNL     1     -27.577 -22.052  -7.086  1.00  0.00     0.293 HD
ENDBRANCH   6  24
BRANCH   8  26
ATOM     26  O   UNL     1     -23.168 -24.793  -9.357  1.00  0.00    -0.508 OA
ATOM     27  H   UNL     1     -23.421 -25.773  -9.301  1.00  0.00     0.293 HD
ENDBRANCH   8  26
TORSDOF 6
ENDMDL
MODEL 8
REMARK VINA RESULT:    -6.886      1.550      7.064
REMARK INTER + INTRA:          -8.617
REMARK INTER:                  -8.304
REMARK INTRA:                  -0.313
REMARK UNBOUND:                -0.322
REMARK SMILES O=c1c(O)c(-c2ccc(O)c(O)c2)oc2cc(O)cc(O)c12
REMARK SMILES IDX 5 1 3 2 2 3 1 4 22 5 20 6 19 7 17 8 16 9 15 10 14 11 6 12
REMARK SMILES IDX 7 13 8 14 9 15 13 16 11 17 10 18 12 20 4 22 21 24 18 26
REMARK H PARENT 10 19 12 21 4 23 21 25 18 27
REMARK Flexibility Score: inf
ROOT
ATOM      1  C   UNL     1     -25.286 -20.137 -12.438  1.00  0.00     0.180 A 
ATOM      2  C   UNL     1     -26.650 -19.805 -12.518  1.00  0.00     0.208 A 
ATOM      3  C   UNL     1     -27.033 -18.676 -13.258  1.00  0.00     0.238 A 
ATOM      4  O   UNL     1     -28.250 -18.352 -13.280  1.00  0.00    -0.285 OA
ATOM      5  C   UNL     1     -26.052 -17.901 -13.923  1.00  0.00     0.111 A 
ATOM      6  C   UNL     1     -26.332 -16.761 -14.733  1.00  0.00     0.134 A 
ATOM      7  C   UNL     1     -25.272 -15.994 -15.235  1.00  0.00     0.093 A 
ATOM      8  C   UNL     1     -23.944 -16.365 -15.011  1.00  0.00     0.123 A 
ATOM      9  C   UNL     1     -23.662 -17.511 -14.271  1.00  0.00     0.094 A 
ATOM     10  C   UNL     1     -24.697 -18.276 -13.726  1.00  0.00     0.146 A 
ATOM     11  O   UNL     1     -24.383 -19.355 -13.018  1.00  0.00    -0.452 OA
ENDROOT
BRANCH   1  12
ATOM     12  C   UNL     1     -24.807 -21.326 -11.698  1.00  0.00     0.025 A 
ATOM     13  C   UNL     1     -24.576 -21.283 -10.315  1.00  0.00     0.016 A 
ATOM     14  C   UNL     1     -24.147 -22.424  -9.634  1.00  0.00     0.051 A 
ATOM     15  C   UNL     1     -23.953 -23.631 -10.313  1.00  0.00     0.157 A 
ATOM     16  C   UNL     1     -24.634 -22.542 -12.378  1.00  0.00     0.062 A 
ATOM     17  C   UNL     1     -24.204 -23.692 -11.705  1.00  0.00     0.158 A 
BRANCH  15  18
ATOM     18  O   UNL     1     -23.519 -24.733  -9.576  1.00  0.00    -0.504 OA
ATOM     19  H   UNL     1     -23.092 -25.553  -9.983  1.00  0.00     0.293 HD
ENDBRANCH  15  18
BRANCH  17  20
ATOM     20  O   UNL     1     -24.042 -24.861 -12.450  1.00  0.00    -0.504 OA
ATOM     21  H   UNL     1     -24.806 -25.382 -12.858  1.00  0.00     0.293 HD
ENDBRANCH  17  20
ENDBRANCH   1  12
BRANCH   2  22
ATOM     22  O   UNL     1     -27.600 -20.570 -11.836  1.00  0.00    -0.502 OA
ATOM     23  H   UNL     1     -28.594 -20.385 -11.900  1.00  0.00     0.293 HD
ENDBRANCH   2  22
BRANCH   6  24
ATOM     24  O   UNL     1     -27.620 -16.357 -15.095  1.00  0.00    -0.507 OA
ATOM     25  H   UNL     1     -27.877 -15.416 -15.351  1.00  0.00     0.293 HD
ENDBRANCH   6  24
BRANCH   8  26
ATOM     26  O   UNL     1     -22.897 -15.607 -15.528  1.00  0.00    -0.508 OA
ATOM     27  H   UNL     1     -22.444 -15.854 -16.401  1.00  0.00     0.293 HD
ENDBRANCH   8  26
TORSDOF 6
ENDMDL
MODEL 9
REMARK VINA RESULT:    -6.756      3.843      7.298
REMARK INTER + INTRA:          -8.461
REMARK INTER:                  -8.295
REMARK INTRA:                  -0.166
REMARK UNBOUND:                -0.322
REMARK SMILES O=c1c(O)c(-c2ccc(O)c(O)c2)oc2cc(O)cc(O)c12
REMARK SMILES IDX 5 1 3 2 2 3 1 4 22 5 20 6 19 7 17 8 16 9 15 10 14 11 6 12
REMARK SMILES IDX 7 13 8 14 9 15 13 16 11 17 10 18 12 20 4 22 21 24 18 26
REMARK H PARENT 10 19 12 21 4 23 21 25 18 27
REMARK Flexibility Score: inf
ROOT
ATOM      1  C   UNL     1     -22.306 -14.952 -13.688  1.00  0.00     0.180 A 
ATOM      2  C   UNL     1     -23.081 -14.205 -14.591  1.00  0.00     0.208 A 
ATOM      3  C   UNL     1     -24.328 -14.707 -14.995  1.00  0.00     0.238 A 
ATOM      4  O   UNL     1     -24.994 -14.060 -15.846  1.00  0.00    -0.285 OA
ATOM      5  C   UNL     1     -24.792 -15.942 -14.481  1.00  0.00     0.111 A 
ATOM      6  C   UNL     1     -26.056 -16.526 -14.791  1.00  0.00     0.134 A 
ATOM      7  C   UNL     1     -26.355 -17.813 -14.326  1.00  0.00     0.093 A 
ATOM      8  C   UNL     1     -25.462 -18.510 -13.509  1.00  0.00     0.123 A 
ATOM      9  C   UNL     1     -24.250 -17.923 -13.152  1.00  0.00     0.094 A 
ATOM     10  C   UNL     1     -23.908 -16.655 -13.629  1.00  0.00     0.146 A 
ATOM     11  O   UNL     1     -22.738 -16.138 -13.273  1.00  0.00    -0.452 OA
ENDROOT
BRANCH   1  12
ATOM     12  C   UNL     1     -20.993 -14.477 -13.196  1.00  0.00     0.025 A 
ATOM     13  C   UNL     1     -20.875 -13.292 -12.454  1.00  0.00     0.016 A 
ATOM     14  C   UNL     1     -19.629 -12.876 -11.980  1.00  0.00     0.051 A 
ATOM     15  C   UNL     1     -18.481 -13.638 -12.224  1.00  0.00     0.157 A 
ATOM     16  C   UNL     1     -19.845 -15.254 -13.424  1.00  0.00     0.062 A 
ATOM     17  C   UNL     1     -18.592 -14.846 -12.954  1.00  0.00     0.158 A 
BRANCH  15  18
ATOM     18  O   UNL     1     -17.266 -13.164 -11.727  1.00  0.00    -0.504 OA
ATOM     19  H   UNL     1     -16.983 -12.195 -11.754  1.00  0.00     0.293 HD
ENDBRANCH  15  18
BRANCH  17  20
ATOM     20  O   UNL     1     -17.494 -15.663 -13.230  1.00  0.00    -0.504 OA
ATOM     21  H   UNL     1     -17.564 -16.645 -13.460  1.00  0.00     0.293 HD
ENDBRANCH  17  20
ENDBRANCH   1  12
BRANCH   2  22
ATOM     22  O   UNL     1     -22.596 -13.000 -15.104  1.00  0.00    -0.502 OA
ATOM     23  H   UNL     1     -22.412 -12.194 -14.518  1.00  0.00     0.293 HD
ENDBRANCH   2  22
BRANCH   6  24
ATOM     24  O   UNL     1     -27.057 -15.878 -15.521  1.00  0.00    -0.507 OA
ATOM     25  H   UNL     1     -27.812 -15.347 -15.115  1.00  0.00     0.293 HD
ENDBRANCH   6  24
BRANCH   8  26
ATOM     26  O   UNL     1     -25.773 -19.783 -13.037  1.00  0.00    -0.508 OA
ATOM     27  H   UNL     1     -26.718 -20.148 -13.083  1.00  0.00     0.293 HD
ENDBRANCH   8  26
TORSDOF 6
ENDMDL
