MODEL 1
REMARK VINA RESULT:    -5.542      0.000      0.000
REMARK INTER + INTRA:          -6.845
REMARK INTER:                  -6.676
REMARK INTRA:                  -0.169
REMARK UNBOUND:                -0.169
REMARK SMILES O=c1c(O)c(-c2ccc(O)c(O)c2)oc2cc(O)cc(O)c12
REMARK SMILES IDX 5 1 3 2 2 3 1 4 22 5 20 6 19 7 17 8 16 9 15 10 14 11 6 12
REMARK SMILES IDX 7 13 8 14 9 15 13 16 11 17 10 18 12 20 4 22 21 24 18 26
REMARK H PARENT 10 19 12 21 4 23 21 25 18 27
REMARK Flexibility Score: inf
ROOT
ATOM      1  C   UNL     1      59.216  36.556  45.577  1.00  0.00     0.180 A 
ATOM      2  C   UNL     1      57.944  36.022  45.848  1.00  0.00     0.208 A 
ATOM      3  C   UNL     1      56.939  36.130  44.873  1.00  0.00     0.238 A 
ATOM      4  O   UNL     1      55.819  35.601  45.099  1.00  0.00    -0.285 OA
ATOM      5  C   UNL     1      57.213  36.783  43.647  1.00  0.00     0.111 A 
ATOM      6  C   UNL     1      56.258  36.985  42.605  1.00  0.00     0.134 A 
ATOM      7  C   UNL     1      56.673  37.528  41.384  1.00  0.00     0.093 A 
ATOM      8  C   UNL     1      57.995  37.938  41.190  1.00  0.00     0.123 A 
ATOM      9  C   UNL     1      58.921  37.801  42.223  1.00  0.00     0.094 A 
ATOM     10  C   UNL     1      58.544  37.228  43.440  1.00  0.00     0.146 A 
ATOM     11  O   UNL     1      59.460  37.106  44.393  1.00  0.00    -0.452 OA
ENDROOT
BRANCH   1  12
ATOM     12  C   UNL     1      60.318  36.503  46.564  1.00  0.00     0.025 A 
ATOM     13  C   UNL     1      60.884  35.280  46.966  1.00  0.00     0.016 A 
ATOM     14  C   UNL     1      61.907  35.254  47.917  1.00  0.00     0.051 A 
ATOM     15  C   UNL     1      62.370  36.445  48.491  1.00  0.00     0.157 A 
ATOM     16  C   UNL     1      60.772  37.693  47.158  1.00  0.00     0.062 A 
ATOM     17  C   UNL     1      61.797  37.671  48.110  1.00  0.00     0.158 A 
BRANCH  15  18
ATOM     18  O   UNL     1      63.393  36.417  49.438  1.00  0.00    -0.504 OA
ATOM     19  H   UNL     1      63.328  35.843  50.271  1.00  0.00     0.293 HD
ENDBRANCH  15  18
BRANCH  17  20
ATOM     20  O   UNL     1      62.230  38.873  48.668  1.00  0.00    -0.504 OA
ATOM     21  H   UNL     1      63.096  38.944  49.189  1.00  0.00     0.293 HD
ENDBRANCH  17  20
ENDBRANCH   1  12
BRANCH   2  22
ATOM     22  O   UNL     1      57.701  35.361  47.055  1.00  0.00    -0.502 OA
ATOM     23  H   UNL     1      57.006  34.629  47.144  1.00  0.00     0.293 HD
ENDBRANCH   2  22
BRANCH   6  24
ATOM     24  O   UNL     1      54.896  36.696  42.729  1.00  0.00    -0.507 OA
ATOM     25  H   UNL     1      54.381  36.711  43.596  1.00  0.00     0.293 HD
ENDBRANCH   6  24
BRANCH   8  26
ATOM     26  O   UNL     1      58.397  38.493  39.977  1.00  0.00    -0.508 OA
ATOM     27  H   UNL     1      59.373  38.532  39.710  1.00  0.00     0.293 HD
ENDBRANCH   8  26
TORSDOF 6
ENDMDL
MODEL 2
REMARK VINA RESULT:    -5.212     18.080     22.262
REMARK INTER + INTRA:          -6.448
REMARK INTER:                  -6.212
REMARK INTRA:                  -0.236
REMARK UNBOUND:                -0.169
REMARK SMILES O=c1c(O)c(-c2ccc(O)c(O)c2)oc2cc(O)cc(O)c12
REMARK SMILES IDX 5 1 3 2 2 3 1 4 22 5 20 6 19 7 17 8 16 9 15 10 14 11 6 12
REMARK SMILES IDX 7 13 8 14 9 15 13 16 11 17 10 18 12 20 4 22 21 24 18 26
REMARK H PARENT 10 19 12 21 4 23 21 25 18 27
REMARK Flexibility Score: inf
ROOT
ATOM      1  C   UNL     1      70.810  51.960  54.062  1.00  0.00     0.180 A 
ATOM      2  C   UNL     1      70.409  53.014  54.901  1.00  0.00     0.208 A 
ATOM      3  C   UNL     1      70.821  53.011  56.243  1.00  0.00     0.238 A 
ATOM      4  O   UNL     1      70.505  53.985  56.974  1.00  0.00    -0.285 OA
ATOM      5  C   UNL     1      71.615  51.946  56.734  1.00  0.00     0.111 A 
ATOM      6  C   UNL     1      72.056  51.821  58.086  1.00  0.00     0.134 A 
ATOM      7  C   UNL     1      72.945  50.796  58.430  1.00  0.00     0.093 A 
ATOM      8  C   UNL     1      73.357  49.852  57.485  1.00  0.00     0.123 A 
ATOM      9  C   UNL     1      72.885  49.931  56.177  1.00  0.00     0.094 A 
ATOM     10  C   UNL     1      72.026  50.965  55.795  1.00  0.00     0.146 A 
ATOM     11  O   UNL     1      71.608  51.009  54.536  1.00  0.00    -0.452 OA
ENDROOT
BRANCH   1  12
ATOM     12  C   UNL     1      70.395  51.880  52.643  1.00  0.00     0.025 A 
ATOM     13  C   UNL     1      70.930  52.747  51.674  1.00  0.00     0.016 A 
ATOM     14  C   UNL     1      70.504  52.670  50.345  1.00  0.00     0.051 A 
ATOM     15  C   UNL     1      69.531  51.736  49.968  1.00  0.00     0.157 A 
ATOM     16  C   UNL     1      69.404  50.960  52.263  1.00  0.00     0.062 A 
ATOM     17  C   UNL     1      68.976  50.879  50.933  1.00  0.00     0.158 A 
BRANCH  15  18
ATOM     18  O   UNL     1      69.110  51.659  48.641  1.00  0.00    -0.504 OA
ATOM     19  H   UNL     1      69.544  52.218  47.913  1.00  0.00     0.293 HD
ENDBRANCH  15  18
BRANCH  17  20
ATOM     20  O   UNL     1      68.001  49.943  50.591  1.00  0.00    -0.504 OA
ATOM     21  H   UNL     1      67.628  49.873  49.651  1.00  0.00     0.293 HD
ENDBRANCH  17  20
ENDBRANCH   1  12
BRANCH   2  22
ATOM     22  O   UNL     1      69.644  54.066  54.390  1.00  0.00    -0.502 OA
ATOM     23  H   UNL     1      69.311  54.083  53.433  1.00  0.00     0.293 HD
ENDBRANCH   2  22
BRANCH   6  24
ATOM     24  O   UNL     1      71.632  52.654  59.125  1.00  0.00    -0.507 OA
ATOM     25  H   UNL     1      72.241  53.072  59.812  1.00  0.00     0.293 HD
ENDBRANCH   6  24
BRANCH   8  26
ATOM     26  O   UNL     1      74.230  48.826  57.840  1.00  0.00    -0.508 OA
ATOM     27  H   UNL     1      74.999  48.554  57.240  1.00  0.00     0.293 HD
ENDBRANCH   8  26
TORSDOF 6
ENDMDL
MODEL 3
REMARK VINA RESULT:    -4.929      1.932      7.039
REMARK INTER + INTRA:          -6.107
REMARK INTER:                  -5.957
REMARK INTRA:                  -0.150
REMARK UNBOUND:                -0.169
REMARK SMILES O=c1c(O)c(-c2ccc(O)c(O)c2)oc2cc(O)cc(O)c12
REMARK SMILES IDX 5 1 3 2 2 3 1 4 22 5 20 6 19 7 17 8 16 9 15 10 14 11 6 12
REMARK SMILES IDX 7 13 8 14 9 15 13 16 11 17 10 18 12 20 4 22 21 24 18 26
REMARK H PARENT 10 19 12 21 4 23 21 25 18 27
REMARK Flexibility Score: inf
ROOT
ATOM      1  C   UNL     1      58.943  36.699  44.173  1.00  0.00     0.180 A 
ATOM      2  C   UNL     1      60.152  36.025  43.930  1.00  0.00     0.208 A 
ATOM      3  C   UNL     1      60.903  35.560  45.022  1.00  0.00     0.238 A 
ATOM      4  O   UNL     1      61.956  34.908  44.798  1.00  0.00    -0.285 OA
ATOM      5  C   UNL     1      60.444  35.790  46.342  1.00  0.00     0.111 A 
ATOM      6  C   UNL     1      61.144  35.399  47.523  1.00  0.00     0.134 A 
ATOM      7  C   UNL     1      60.535  35.561  48.773  1.00  0.00     0.093 A 
ATOM      8  C   UNL     1      59.279  36.161  48.889  1.00  0.00     0.123 A 
ATOM      9  C   UNL     1      58.613  36.601  47.746  1.00  0.00     0.094 A 
ATOM     10  C   UNL     1      59.180  36.419  46.483  1.00  0.00     0.146 A 
ATOM     11  O   UNL     1      58.508  36.843  45.419  1.00  0.00    -0.452 OA
ENDROOT
BRANCH   1  12
ATOM     12  C   UNL     1      58.109  37.240  43.075  1.00  0.00     0.025 A 
ATOM     13  C   UNL     1      56.829  36.725  42.805  1.00  0.00     0.016 A 
ATOM     14  C   UNL     1      56.070  37.235  41.749  1.00  0.00     0.051 A 
ATOM     15  C   UNL     1      56.583  38.256  40.938  1.00  0.00     0.157 A 
ATOM     16  C   UNL     1      58.627  38.250  42.246  1.00  0.00     0.062 A 
ATOM     17  C   UNL     1      57.870  38.763  41.188  1.00  0.00     0.158 A 
BRANCH  15  18
ATOM     18  O   UNL     1      55.823  38.765  39.886  1.00  0.00    -0.504 OA
ATOM     19  H   UNL     1      54.856  38.492  39.750  1.00  0.00     0.293 HD
ENDBRANCH  15  18
BRANCH  17  20
ATOM     20  O   UNL     1      58.411  39.775  40.395  1.00  0.00    -0.504 OA
ATOM     21  H   UNL     1      58.854  39.582  39.504  1.00  0.00     0.293 HD
ENDBRANCH  17  20
ENDBRANCH   1  12
BRANCH   2  22
ATOM     22  O   UNL     1      60.574  35.788  42.620  1.00  0.00    -0.502 OA
ATOM     23  H   UNL     1      60.047  35.213  41.973  1.00  0.00     0.293 HD
ENDBRANCH   2  22
BRANCH   6  24
ATOM     24  O   UNL     1      62.440  34.875  47.524  1.00  0.00    -0.507 OA
ATOM     25  H   UNL     1      62.868  34.399  48.304  1.00  0.00     0.293 HD
ENDBRANCH   6  24
BRANCH   8  26
ATOM     26  O   UNL     1      58.686  36.334  50.138  1.00  0.00    -0.508 OA
ATOM     27  H   UNL     1      58.235  37.203  50.395  1.00  0.00     0.293 HD
ENDBRANCH   8  26
TORSDOF 6
ENDMDL
MODEL 4
REMARK VINA RESULT:    -4.889     20.126     21.958
REMARK INTER + INTRA:          -6.059
REMARK INTER:                  -5.788
REMARK INTRA:                  -0.271
REMARK UNBOUND:                -0.169
REMARK SMILES O=c1c(O)c(-c2ccc(O)c(O)c2)oc2cc(O)cc(O)c12
REMARK SMILES IDX 5 1 3 2 2 3 1 4 22 5 20 6 19 7 17 8 16 9 15 10 14 11 6 12
REMARK SMILES IDX 7 13 8 14 9 15 13 16 11 17 10 18 12 20 4 22 21 24 18 26
REMARK H PARENT 10 19 12 21 4 23 21 25 18 27
REMARK Flexibility Score: inf
ROOT
ATOM      1  C   UNL     1      70.779  51.051  55.006  1.00  0.00     0.180 A 
ATOM      2  C   UNL     1      69.653  50.485  55.629  1.00  0.00     0.208 A 
ATOM      3  C   UNL     1      69.840  49.647  56.740  1.00  0.00     0.238 A 
ATOM      4  O   UNL     1      68.825  49.188  57.328  1.00  0.00    -0.285 OA
ATOM      5  C   UNL     1      71.149  49.373  57.205  1.00  0.00     0.111 A 
ATOM      6  C   UNL     1      71.456  48.506  58.297  1.00  0.00     0.134 A 
ATOM      7  C   UNL     1      72.777  48.410  58.752  1.00  0.00     0.093 A 
ATOM      8  C   UNL     1      73.811  49.098  58.111  1.00  0.00     0.123 A 
ATOM      9  C   UNL     1      73.529  49.900  57.007  1.00  0.00     0.094 A 
ATOM     10  C   UNL     1      72.216  50.044  56.553  1.00  0.00     0.146 A 
ATOM     11  O   UNL     1      71.989  50.826  55.504  1.00  0.00    -0.452 OA
ENDROOT
BRANCH   1  12
ATOM     12  C   UNL     1      70.665  51.923  53.815  1.00  0.00     0.025 A 
ATOM     13  C   UNL     1      70.238  53.259  53.924  1.00  0.00     0.016 A 
ATOM     14  C   UNL     1      70.115  54.056  52.783  1.00  0.00     0.051 A 
ATOM     15  C   UNL     1      70.402  53.528  51.517  1.00  0.00     0.157 A 
ATOM     16  C   UNL     1      70.931  51.393  52.542  1.00  0.00     0.062 A 
ATOM     17  C   UNL     1      70.809  52.189  51.397  1.00  0.00     0.158 A 
BRANCH  15  18
ATOM     18  O   UNL     1      70.280  54.326  50.380  1.00  0.00    -0.504 OA
ATOM     19  H   UNL     1      70.344  53.933  49.447  1.00  0.00     0.293 HD
ENDBRANCH  15  18
BRANCH  17  20
ATOM     20  O   UNL     1      71.095  51.632  50.151  1.00  0.00    -0.504 OA
ATOM     21  H   UNL     1      71.911  51.902  49.615  1.00  0.00     0.293 HD
ENDBRANCH  17  20
ENDBRANCH   1  12
BRANCH   2  22
ATOM     22  O   UNL     1      68.369  50.788  55.169  1.00  0.00    -0.502 OA
ATOM     23  H   UNL     1      67.818  50.135  54.624  1.00  0.00     0.293 HD
ENDBRANCH   2  22
BRANCH   6  24
ATOM     24  O   UNL     1      70.513  47.704  58.946  1.00  0.00    -0.507 OA
ATOM     25  H   UNL     1      69.581  47.522  58.604  1.00  0.00     0.293 HD
ENDBRANCH   6  24
BRANCH   8  26
ATOM     26  O   UNL     1      75.125  48.985  58.560  1.00  0.00    -0.508 OA
ATOM     27  H   UNL     1      75.908  49.257  57.980  1.00  0.00     0.293 HD
ENDBRANCH   8  26
TORSDOF 6
ENDMDL
MODEL 5
REMARK VINA RESULT:    -4.761     18.691     20.841
REMARK INTER + INTRA:          -5.904
REMARK INTER:                  -5.570
REMARK INTRA:                  -0.334
REMARK UNBOUND:                -0.169
REMARK SMILES O=c1c(O)c(-c2ccc(O)c(O)c2)oc2cc(O)cc(O)c12
REMARK SMILES IDX 5 1 3 2 2 3 1 4 22 5 20 6 19 7 17 8 16 9 15 10 14 11 6 12
REMARK SMILES IDX 7 13 8 14 9 15 13 16 11 17 10 18 12 20 4 22 21 24 18 26
REMARK H PARENT 10 19 12 21 4 23 21 25 18 27
REMARK Flexibility Score: inf
ROOT
ATOM      1  C   UNL     1      70.561  51.279  54.981  1.00  0.00     0.180 A 
ATOM      2  C   UNL     1      70.691  52.667  55.162  1.00  0.00     0.208 A 
ATOM      3  C   UNL     1      70.430  53.522  54.080  1.00  0.00     0.238 A 
ATOM      4  O   UNL     1      70.494  54.766  54.263  1.00  0.00    -0.285 OA
ATOM      5  C   UNL     1      70.058  52.979  52.826  1.00  0.00     0.111 A 
ATOM      6  C   UNL     1      69.809  53.750  51.650  1.00  0.00     0.134 A 
ATOM      7  C   UNL     1      69.321  53.118  50.501  1.00  0.00     0.093 A 
ATOM      8  C   UNL     1      69.136  51.733  50.463  1.00  0.00     0.123 A 
ATOM      9  C   UNL     1      69.434  50.965  51.587  1.00  0.00     0.094 A 
ATOM     10  C   UNL     1      69.887  51.572  52.761  1.00  0.00     0.146 A 
ATOM     11  O   UNL     1      70.148  50.804  53.811  1.00  0.00    -0.452 OA
ENDROOT
BRANCH   1  12
ATOM     12  C   UNL     1      70.844  50.313  56.067  1.00  0.00     0.025 A 
ATOM     13  C   UNL     1      72.140  49.813  56.283  1.00  0.00     0.016 A 
ATOM     14  C   UNL     1      72.378  48.884  57.299  1.00  0.00     0.051 A 
ATOM     15  C   UNL     1      71.326  48.430  58.104  1.00  0.00     0.157 A 
ATOM     16  C   UNL     1      69.788  49.839  56.864  1.00  0.00     0.062 A 
ATOM     17  C   UNL     1      70.023  48.909  57.882  1.00  0.00     0.158 A 
BRANCH  15  18
ATOM     18  O   UNL     1      71.566  47.505  59.118  1.00  0.00    -0.504 OA
ATOM     19  H   UNL     1      72.151  47.732  59.916  1.00  0.00     0.293 HD
ENDBRANCH  15  18
BRANCH  17  20
ATOM     20  O   UNL     1      68.953  48.472  58.661  1.00  0.00    -0.504 OA
ATOM     21  H   UNL     1      68.009  48.413  58.296  1.00  0.00     0.293 HD
ENDBRANCH  17  20
ENDBRANCH   1  12
BRANCH   2  22
ATOM     22  O   UNL     1      71.037  53.183  56.414  1.00  0.00    -0.502 OA
ATOM     23  H   UNL     1      71.815  52.825  56.954  1.00  0.00     0.293 HD
ENDBRANCH   2  22
BRANCH   6  24
ATOM     24  O   UNL     1      70.048  55.124  51.553  1.00  0.00    -0.507 OA
ATOM     25  H   UNL     1      69.353  55.813  51.309  1.00  0.00     0.293 HD
ENDBRANCH   6  24
BRANCH   8  26
ATOM     26  O   UNL     1      68.665  51.110  49.310  1.00  0.00    -0.508 OA
ATOM     27  H   UNL     1      67.678  50.934  49.168  1.00  0.00     0.293 HD
ENDBRANCH   8  26
TORSDOF 6
ENDMDL
MODEL 6
REMARK VINA RESULT:    -4.691     18.655     20.430
REMARK INTER + INTRA:          -5.820
REMARK INTER:                  -5.929
REMARK INTRA:                   0.109
REMARK UNBOUND:                -0.169
REMARK SMILES O=c1c(O)c(-c2ccc(O)c(O)c2)oc2cc(O)cc(O)c12
REMARK SMILES IDX 5 1 3 2 2 3 1 4 22 5 20 6 19 7 17 8 16 9 15 10 14 11 6 12
REMARK SMILES IDX 7 13 8 14 9 15 13 16 11 17 10 18 12 20 4 22 21 24 18 26
REMARK H PARENT 10 19 12 21 4 23 21 25 18 27
REMARK Flexibility Score: inf
ROOT
ATOM      1  C   UNL     1      70.136  51.532  52.777  1.00  0.00     0.180 A 
ATOM      2  C   UNL     1      69.118  51.146  51.888  1.00  0.00     0.208 A 
ATOM      3  C   UNL     1      69.104  51.689  50.593  1.00  0.00     0.238 A 
ATOM      4  O   UNL     1      68.223  51.298  49.784  1.00  0.00    -0.285 OA
ATOM      5  C   UNL     1      70.098  52.621  50.208  1.00  0.00     0.111 A 
ATOM      6  C   UNL     1      70.157  53.264  48.935  1.00  0.00     0.134 A 
ATOM      7  C   UNL     1      71.257  54.070  48.618  1.00  0.00     0.093 A 
ATOM      8  C   UNL     1      72.268  54.308  49.553  1.00  0.00     0.123 A 
ATOM      9  C   UNL     1      72.189  53.733  50.820  1.00  0.00     0.094 A 
ATOM     10  C   UNL     1      71.122  52.895  51.152  1.00  0.00     0.146 A 
ATOM     11  O   UNL     1      71.090  52.359  52.366  1.00  0.00    -0.452 OA
ENDROOT
BRANCH   1  12
ATOM     12  C   UNL     1      70.203  51.023  54.166  1.00  0.00     0.025 A 
ATOM     13  C   UNL     1      69.043  50.867  54.946  1.00  0.00     0.016 A 
ATOM     14  C   UNL     1      69.133  50.409  56.262  1.00  0.00     0.051 A 
ATOM     15  C   UNL     1      70.382  50.112  56.824  1.00  0.00     0.157 A 
ATOM     16  C   UNL     1      71.454  50.744  54.741  1.00  0.00     0.062 A 
ATOM     17  C   UNL     1      71.548  50.284  56.059  1.00  0.00     0.158 A 
BRANCH  15  18
ATOM     18  O   UNL     1      70.469  49.652  58.137  1.00  0.00    -0.504 OA
ATOM     19  H   UNL     1      71.332  49.719  58.666  1.00  0.00     0.293 HD
ENDBRANCH  15  18
BRANCH  17  20
ATOM     20  O   UNL     1      72.806  50.004  56.591  1.00  0.00    -0.504 OA
ATOM     21  H   UNL     1      73.612  49.825  56.003  1.00  0.00     0.293 HD
ENDBRANCH  17  20
ENDBRANCH   1  12
BRANCH   2  22
ATOM     22  O   UNL     1      68.161  50.207  52.280  1.00  0.00    -0.502 OA
ATOM     23  H   UNL     1      67.972  49.367  51.746  1.00  0.00     0.293 HD
ENDBRANCH   2  22
BRANCH   6  24
ATOM     24  O   UNL     1      69.155  53.167  47.965  1.00  0.00    -0.507 OA
ATOM     25  H   UNL     1      68.239  52.772  48.121  1.00  0.00     0.293 HD
ENDBRANCH   6  24
BRANCH   8  26
ATOM     26  O   UNL     1      73.352  55.124  49.236  1.00  0.00    -0.508 OA
ATOM     27  H   UNL     1      73.574  55.359  48.276  1.00  0.00     0.293 HD
ENDBRANCH   8  26
TORSDOF 6
ENDMDL
MODEL 7
REMARK VINA RESULT:    -4.578     18.735     21.140
REMARK INTER + INTRA:          -5.684
REMARK INTER:                  -5.433
REMARK INTRA:                  -0.251
REMARK UNBOUND:                -0.169
REMARK SMILES O=c1c(O)c(-c2ccc(O)c(O)c2)oc2cc(O)cc(O)c12
REMARK SMILES IDX 5 1 3 2 2 3 1 4 22 5 20 6 19 7 17 8 16 9 15 10 14 11 6 12
REMARK SMILES IDX 7 13 8 14 9 15 13 16 11 17 10 18 12 20 4 22 21 24 18 26
REMARK H PARENT 10 19 12 21 4 23 21 25 18 27
REMARK Flexibility Score: inf
ROOT
ATOM      1  C   UNL     1      69.922  51.272  54.240  1.00  0.00     0.180 A 
ATOM      2  C   UNL     1      71.002  50.641  54.881  1.00  0.00     0.208 A 
ATOM      3  C   UNL     1      70.846  50.206  56.207  1.00  0.00     0.238 A 
ATOM      4  O   UNL     1      71.797  49.592  56.757  1.00  0.00    -0.285 OA
ATOM      5  C   UNL     1      69.620  50.422  56.881  1.00  0.00     0.111 A 
ATOM      6  C   UNL     1      69.365  50.059  58.238  1.00  0.00     0.134 A 
ATOM      7  C   UNL     1      68.075  50.203  58.761  1.00  0.00     0.093 A 
ATOM      8  C   UNL     1      67.045  50.758  57.996  1.00  0.00     0.123 A 
ATOM      9  C   UNL     1      67.299  51.171  56.689  1.00  0.00     0.094 A 
ATOM     10  C   UNL     1      68.568  51.006  56.128  1.00  0.00     0.146 A 
ATOM     11  O   UNL     1      68.764  51.403  54.877  1.00  0.00    -0.452 OA
ENDROOT
BRANCH   1  12
ATOM     12  C   UNL     1      70.018  51.780  52.852  1.00  0.00     0.025 A 
ATOM     13  C   UNL     1      70.786  52.917  52.540  1.00  0.00     0.016 A 
ATOM     14  C   UNL     1      70.841  53.392  51.228  1.00  0.00     0.051 A 
ATOM     15  C   UNL     1      70.122  52.750  50.212  1.00  0.00     0.157 A 
ATOM     16  C   UNL     1      69.282  51.153  51.834  1.00  0.00     0.062 A 
ATOM     17  C   UNL     1      69.336  51.626  50.518  1.00  0.00     0.158 A 
BRANCH  15  18
ATOM     18  O   UNL     1      70.181  53.225  48.902  1.00  0.00    -0.504 OA
ATOM     19  H   UNL     1      71.061  53.490  48.474  1.00  0.00     0.293 HD
ENDBRANCH  15  18
BRANCH  17  20
ATOM     20  O   UNL     1      68.603  50.968  49.531  1.00  0.00    -0.504 OA
ATOM     21  H   UNL     1      68.594  49.959  49.449  1.00  0.00     0.293 HD
ENDBRANCH  17  20
ENDBRANCH   1  12
BRANCH   2  22
ATOM     22  O   UNL     1      72.196  50.416  54.191  1.00  0.00    -0.502 OA
ATOM     23  H   UNL     1      72.801  49.629  54.392  1.00  0.00     0.293 HD
ENDBRANCH   2  22
BRANCH   6  24
ATOM     24  O   UNL     1      70.344  49.583  59.114  1.00  0.00    -0.507 OA
ATOM     25  H   UNL     1      70.569  48.608  59.251  1.00  0.00     0.293 HD
ENDBRANCH   6  24
BRANCH   8  26
ATOM     26  O   UNL     1      65.768  50.912  58.529  1.00  0.00    -0.508 OA
ATOM     27  H   UNL     1      64.975  50.399  58.163  1.00  0.00     0.293 HD
ENDBRANCH   8  26
TORSDOF 6
ENDMDL
MODEL 8
REMARK VINA RESULT:    -4.573     17.988     22.196
REMARK INTER + INTRA:          -5.678
REMARK INTER:                  -5.354
REMARK INTRA:                  -0.324
REMARK UNBOUND:                -0.169
REMARK SMILES O=c1c(O)c(-c2ccc(O)c(O)c2)oc2cc(O)cc(O)c12
REMARK SMILES IDX 5 1 3 2 2 3 1 4 22 5 20 6 19 7 17 8 16 9 15 10 14 11 6 12
REMARK SMILES IDX 7 13 8 14 9 15 13 16 11 17 10 18 12 20 4 22 21 24 18 26
REMARK H PARENT 10 19 12 21 4 23 21 25 18 27
REMARK Flexibility Score: inf
ROOT
ATOM      1  C   UNL     1      70.294  52.038  54.230  1.00  0.00     0.180 A 
ATOM      2  C   UNL     1      71.343  51.329  54.840  1.00  0.00     0.208 A 
ATOM      3  C   UNL     1      71.561  51.486  56.218  1.00  0.00     0.238 A 
ATOM      4  O   UNL     1      72.465  50.805  56.768  1.00  0.00    -0.285 OA
ATOM      5  C   UNL     1      70.738  52.362  56.966  1.00  0.00     0.111 A 
ATOM      6  C   UNL     1      70.895  52.629  58.360  1.00  0.00     0.134 A 
ATOM      7  C   UNL     1      69.944  53.413  59.024  1.00  0.00     0.093 A 
ATOM      8  C   UNL     1      68.879  53.994  58.331  1.00  0.00     0.123 A 
ATOM      9  C   UNL     1      68.751  53.789  56.959  1.00  0.00     0.094 A 
ATOM     10  C   UNL     1      69.664  52.982  56.276  1.00  0.00     0.146 A 
ATOM     11  O   UNL     1      69.500  52.803  54.971  1.00  0.00    -0.452 OA
ENDROOT
BRANCH   1  12
ATOM     12  C   UNL     1      70.018  51.944  52.778  1.00  0.00     0.025 A 
ATOM     13  C   UNL     1      70.559  52.871  51.869  1.00  0.00     0.016 A 
ATOM     14  C   UNL     1      70.264  52.776  50.506  1.00  0.00     0.051 A 
ATOM     15  C   UNL     1      69.417  51.766  50.034  1.00  0.00     0.157 A 
ATOM     16  C   UNL     1      69.152  50.946  52.302  1.00  0.00     0.062 A 
ATOM     17  C   UNL     1      68.856  50.848  50.938  1.00  0.00     0.158 A 
BRANCH  15  18
ATOM     18  O   UNL     1      69.127  51.672  48.673  1.00  0.00    -0.504 OA
ATOM     19  H   UNL     1      69.198  52.476  48.059  1.00  0.00     0.293 HD
ENDBRANCH  15  18
BRANCH  17  20
ATOM     20  O   UNL     1      68.003  49.835  50.501  1.00  0.00    -0.504 OA
ATOM     21  H   UNL     1      67.280  49.446  51.094  1.00  0.00     0.293 HD
ENDBRANCH  17  20
ENDBRANCH   1  12
BRANCH   2  22
ATOM     22  O   UNL     1      72.128  50.451  54.087  1.00  0.00    -0.502 OA
ATOM     23  H   UNL     1      72.671  50.755  53.288  1.00  0.00     0.293 HD
ENDBRANCH   2  22
BRANCH   6  24
ATOM     24  O   UNL     1      71.972  52.173  59.125  1.00  0.00    -0.507 OA
ATOM     25  H   UNL     1      72.454  52.720  59.822  1.00  0.00     0.293 HD
ENDBRANCH   6  24
BRANCH   8  26
ATOM     26  O   UNL     1      67.945  54.786  58.997  1.00  0.00    -0.508 OA
ATOM     27  H   UNL     1      68.228  55.581  59.556  1.00  0.00     0.293 HD
ENDBRANCH   8  26
TORSDOF 6
ENDMDL
MODEL 9
REMARK VINA RESULT:    -4.453     18.913     20.260
REMARK INTER + INTRA:          -5.533
REMARK INTER:                  -5.354
REMARK INTRA:                  -0.179
REMARK UNBOUND:                -0.169
REMARK SMILES O=c1c(O)c(-c2ccc(O)c(O)c2)oc2cc(O)cc(O)c12
REMARK SMILES IDX 5 1 3 2 2 3 1 4 22 5 20 6 19 7 17 8 16 9 15 10 14 11 6 12
REMARK SMILES IDX 7 13 8 14 9 15 13 16 11 17 10 18 12 20 4 22 21 24 18 26
REMARK H PARENT 10 19 12 21 4 23 21 25 18 27
REMARK Flexibility Score: inf
ROOT
ATOM      1  C   UNL     1      68.923  54.323  48.048  1.00  0.00     0.180 A 
ATOM      2  C   UNL     1      69.841  54.610  47.023  1.00  0.00     0.208 A 
ATOM      3  C   UNL     1      69.363  54.813  45.718  1.00  0.00     0.238 A 
ATOM      4  O   UNL     1      70.183  55.125  44.816  1.00  0.00    -0.285 OA
ATOM      5  C   UNL     1      67.976  54.709  45.452  1.00  0.00     0.111 A 
ATOM      6  C   UNL     1      67.386  54.855  44.160  1.00  0.00     0.134 A 
ATOM      7  C   UNL     1      65.992  54.861  44.035  1.00  0.00     0.093 A 
ATOM      8  C   UNL     1      65.168  54.661  45.145  1.00  0.00     0.123 A 
ATOM      9  C   UNL     1      65.736  54.458  46.401  1.00  0.00     0.094 A 
ATOM     10  C   UNL     1      67.123  54.483  46.563  1.00  0.00     0.146 A 
ATOM     11  O   UNL     1      67.623  54.296  47.779  1.00  0.00    -0.452 OA
ENDROOT
BRANCH   1  12
ATOM     12  C   UNL     1      69.354  54.072  49.443  1.00  0.00     0.025 A 
ATOM     13  C   UNL     1      69.047  54.975  50.477  1.00  0.00     0.016 A 
ATOM     14  C   UNL     1      69.485  54.729  51.781  1.00  0.00     0.051 A 
ATOM     15  C   UNL     1      70.245  53.588  52.069  1.00  0.00     0.157 A 
ATOM     16  C   UNL     1      70.133  52.941  49.733  1.00  0.00     0.062 A 
ATOM     17  C   UNL     1      70.573  52.691  51.038  1.00  0.00     0.158 A 
BRANCH  15  18
ATOM     18  O   UNL     1      70.678  53.344  53.371  1.00  0.00    -0.504 OA
ATOM     19  H   UNL     1      70.488  53.997  54.125  1.00  0.00     0.293 HD
ENDBRANCH  15  18
BRANCH  17  20
ATOM     20  O   UNL     1      71.333  51.550  51.291  1.00  0.00    -0.504 OA
ATOM     21  H   UNL     1      72.067  51.536  51.989  1.00  0.00     0.293 HD
ENDBRANCH  17  20
ENDBRANCH   1  12
BRANCH   2  22
ATOM     22  O   UNL     1      71.203  54.731  47.312  1.00  0.00    -0.502 OA
ATOM     23  H   UNL     1      71.859  55.165  46.673  1.00  0.00     0.293 HD
ENDBRANCH   2  22
BRANCH   6  24
ATOM     24  O   UNL     1      68.120  54.969  42.976  1.00  0.00    -0.507 OA
ATOM     25  H   UNL     1      67.720  55.142  42.066  1.00  0.00     0.293 HD
ENDBRANCH   6  24
BRANCH   8  26
ATOM     26  O   UNL     1      63.781  54.653  45.010  1.00  0.00    -0.508 OA
ATOM     27  H   UNL     1      63.264  55.500  44.810  1.00  0.00     0.293 HD
ENDBRANCH   8  26
TORSDOF 6
ENDMDL
