MODEL 1
REMARK VINA RESULT:    -4.739      0.000      0.000
REMARK INTER + INTRA:         -16.995
REMARK INTER:                 -11.942
REMARK INTRA:                  -5.054
REMARK UNBOUND:                -5.054
REMARK SMILES CCCCCCCCCCCCCCCCCCCCCCCCCCCC(=O)[O-]
REMARK SMILES IDX 15 1 16 2 17 3 18 4 19 5 20 6 21 7 22 8 23 9 24 10 25 11
REMARK SMILES IDX 26 12 27 13 28 14 29 15 30 16 14 17 13 18 12 19 11 20 10 21
REMARK SMILES IDX 9 22 8 23 7 24 6 25 5 26 4 27 3 28 2 29 1 30
REMARK H PARENT
REMARK Flexibility Score: inf
ROOT
ATOM      1  C   UNL     1       5.957 -13.370  -3.462  1.00  0.00     0.000 C 
ENDROOT
BRANCH   1   2
ATOM      2  C   UNL     1       7.329 -13.199  -2.787  1.00  0.00     0.000 C 
BRANCH   2   3
ATOM      3  C   UNL     1       7.236 -13.097  -1.255  1.00  0.00     0.000 C 
BRANCH   3   4
ATOM      4  C   UNL     1       8.497 -12.503  -0.593  1.00  0.00     0.000 C 
BRANCH   4   5
ATOM      5  C   UNL     1       8.251 -11.088  -0.038  1.00  0.00     0.000 C 
BRANCH   5   6
ATOM      6  C   UNL     1       7.929 -10.068  -1.142  1.00  0.00     0.000 C 
BRANCH   6   7
ATOM      7  C   UNL     1       6.504  -9.503  -1.031  1.00  0.00     0.000 C 
BRANCH   7   8
ATOM      8  C   UNL     1       5.694  -9.813  -2.300  1.00  0.00     0.000 C 
BRANCH   8   9
ATOM      9  C   UNL     1       4.265 -10.298  -1.995  1.00  0.00     0.000 C 
BRANCH   9  10
ATOM     10  C   UNL     1       4.158 -11.303  -0.833  1.00  0.00     0.000 C 
BRANCH  10  11
ATOM     11  C   UNL     1       3.104 -12.397  -1.084  1.00  0.00     0.000 C 
BRANCH  11  12
ATOM     12  C   UNL     1       3.560 -13.781  -0.595  1.00  0.00     0.006 C 
BRANCH  12  13
ATOM     13  C   UNL     1       3.214 -14.901  -1.586  1.00  0.00     0.053 C 
BRANCH  13  14
ATOM     14  C   UNL     1       2.228 -15.855  -0.987  1.00  0.00     0.041 C 
ATOM     15  O   UNL     1       1.600 -15.544   0.061  1.00  0.00    -0.550 OA
ATOM     16  O   UNL     1       2.002 -17.089  -1.586  1.00  0.00    -0.550 OA
ENDBRANCH  13  14
ENDBRANCH  12  13
ENDBRANCH  11  12
ENDBRANCH  10  11
ENDBRANCH   9  10
ENDBRANCH   8   9
ENDBRANCH   7   8
ENDBRANCH   6   7
ENDBRANCH   5   6
ENDBRANCH   4   5
ENDBRANCH   3   4
ENDBRANCH   2   3
ENDBRANCH   1   2
BRANCH   1  17
ATOM     17  C   UNL     1       5.886 -12.658  -4.830  1.00  0.00     0.000 C 
BRANCH  17  18
ATOM     18  C   UNL     1       4.458 -12.551  -5.394  1.00  0.00     0.000 C 
BRANCH  18  19
ATOM     19  C   UNL     1       3.986 -11.100  -5.557  1.00  0.00     0.000 C 
BRANCH  19  20
ATOM     20  C   UNL     1       4.841 -10.359  -6.594  1.00  0.00     0.000 C 
BRANCH  20  21
ATOM     21  C   UNL     1       3.995  -9.929  -7.799  1.00  0.00     0.000 C 
BRANCH  21  22
ATOM     22  C   UNL     1       4.252  -8.473  -8.230  1.00  0.00    -0.000 C 
BRANCH  22  23
ATOM     23  C   UNL     1       5.312  -7.715  -7.408  1.00  0.00    -0.000 C 
BRANCH  23  24
ATOM     24  C   UNL     1       4.975  -6.226  -7.215  1.00  0.00    -0.000 C 
BRANCH  24  25
ATOM     25  C   UNL     1       4.473  -5.908  -5.796  1.00  0.00    -0.000 C 
BRANCH  25  26
ATOM     26  C   UNL     1       4.425  -7.137  -4.862  1.00  0.00    -0.000 C 
BRANCH  26  27
ATOM     27  C   UNL     1       2.992  -7.462  -4.402  1.00  0.00    -0.000 C 
BRANCH  27  28
ATOM     28  C   UNL     1       1.977  -7.398  -5.564  1.00  0.00    -0.000 C 
BRANCH  28  29
ATOM     29  C   UNL     1       1.123  -8.668  -5.708  1.00  0.00    -0.003 C 
ATOM     30  C   UNL     1       0.549  -8.848  -7.111  1.00  0.00     0.004 C 
ENDBRANCH  28  29
ENDBRANCH  27  28
ENDBRANCH  26  27
ENDBRANCH  25  26
ENDBRANCH  24  25
ENDBRANCH  23  24
ENDBRANCH  22  23
ENDBRANCH  21  22
ENDBRANCH  20  21
ENDBRANCH  19  20
ENDBRANCH  18  19
ENDBRANCH  17  18
ENDBRANCH   1  17
TORSDOF 26
ENDMDL
MODEL 2
REMARK VINA RESULT:    -4.721      3.915      8.169
REMARK INTER + INTRA:         -16.950
REMARK INTER:                 -12.234
REMARK INTRA:                  -4.717
REMARK UNBOUND:                -5.054
REMARK SMILES CCCCCCCCCCCCCCCCCCCCCCCCCCCC(=O)[O-]
REMARK SMILES IDX 15 1 16 2 17 3 18 4 19 5 20 6 21 7 22 8 23 9 24 10 25 11
REMARK SMILES IDX 26 12 27 13 28 14 29 15 30 16 14 17 13 18 12 19 11 20 10 21
REMARK SMILES IDX 9 22 8 23 7 24 6 25 5 26 4 27 3 28 2 29 1 30
REMARK H PARENT
REMARK Flexibility Score: inf
ROOT
ATOM      1  C   UNL     1       4.718  -9.080  -7.051  1.00  0.00     0.000 C 
ENDROOT
BRANCH   1   2
ATOM      2  C   UNL     1       3.810  -8.491  -8.144  1.00  0.00     0.000 C 
BRANCH   2   3
ATOM      3  C   UNL     1       2.478  -9.248  -8.289  1.00  0.00     0.000 C 
BRANCH   3   4
ATOM      4  C   UNL     1       1.233  -8.367  -8.051  1.00  0.00     0.000 C 
BRANCH   4   5
ATOM      5  C   UNL     1       0.169  -9.083  -7.198  1.00  0.00     0.000 C 
BRANCH   5   6
ATOM      6  C   UNL     1       0.657 -10.438  -6.662  1.00  0.00     0.000 C 
BRANCH   6   7
ATOM      7  C   UNL     1       0.538 -10.549  -5.134  1.00  0.00     0.000 C 
BRANCH   7   8
ATOM      8  C   UNL     1       0.471  -9.156  -4.489  1.00  0.00     0.000 C 
BRANCH   8   9
ATOM      9  C   UNL     1       1.768  -8.773  -3.753  1.00  0.00     0.000 C 
BRANCH   9  10
ATOM     10  C   UNL     1       2.699  -7.825  -4.533  1.00  0.00     0.000 C 
BRANCH  10  11
ATOM     11  C   UNL     1       2.082  -6.433  -4.760  1.00  0.00     0.000 C 
BRANCH  11  12
ATOM     12  C   UNL     1       2.766  -5.662  -5.900  1.00  0.00     0.006 C 
BRANCH  12  13
ATOM     13  C   UNL     1       4.296  -5.662  -5.778  1.00  0.00     0.053 C 
BRANCH  13  14
ATOM     14  C   UNL     1       4.805  -4.288  -5.472  1.00  0.00     0.041 C 
ATOM     15  O   UNL     1       5.712  -3.775  -6.181  1.00  0.00    -0.550 OA
ATOM     16  O   UNL     1       4.279  -3.574  -4.402  1.00  0.00    -0.550 OA
ENDBRANCH  13  14
ENDBRANCH  12  13
ENDBRANCH  11  12
ENDBRANCH  10  11
ENDBRANCH   9  10
ENDBRANCH   8   9
ENDBRANCH   7   8
ENDBRANCH   6   7
ENDBRANCH   5   6
ENDBRANCH   4   5
ENDBRANCH   3   4
ENDBRANCH   2   3
ENDBRANCH   1   2
BRANCH   1  17
ATOM     17  C   UNL     1       4.314 -10.519  -6.668  1.00  0.00     0.000 C 
BRANCH  17  18
ATOM     18  C   UNL     1       4.679 -10.896  -5.221  1.00  0.00     0.000 C 
BRANCH  18  19
ATOM     19  C   UNL     1       3.834 -12.054  -4.673  1.00  0.00     0.000 C 
BRANCH  19  20
ATOM     20  C   UNL     1       4.726 -13.140  -4.057  1.00  0.00     0.000 C 
BRANCH  20  21
ATOM     21  C   UNL     1       6.146 -13.077  -4.633  1.00  0.00     0.000 C 
BRANCH  21  22
ATOM     22  C   UNL     1       7.240 -13.312  -3.574  1.00  0.00    -0.000 C 
BRANCH  22  23
ATOM     23  C   UNL     1       6.748 -13.373  -2.115  1.00  0.00    -0.000 C 
BRANCH  23  24
ATOM     24  C   UNL     1       7.783 -12.847  -1.106  1.00  0.00    -0.000 C 
BRANCH  24  25
ATOM     25  C   UNL     1       8.022 -11.333  -1.231  1.00  0.00    -0.000 C 
BRANCH  25  26
ATOM     26  C   UNL     1       8.310 -10.634   0.115  1.00  0.00    -0.000 C 
BRANCH  26  27
ATOM     27  C   UNL     1       7.144  -9.735   0.565  1.00  0.00    -0.000 C 
BRANCH  27  28
ATOM     28  C   UNL     1       6.966  -8.506  -0.351  1.00  0.00    -0.000 C 
BRANCH  28  29
ATOM     29  C   UNL     1       5.531  -8.329  -0.874  1.00  0.00    -0.003 C 
ATOM     30  C   UNL     1       5.258  -9.115  -2.154  1.00  0.00     0.004 C 
ENDBRANCH  28  29
ENDBRANCH  27  28
ENDBRANCH  26  27
ENDBRANCH  25  26
ENDBRANCH  24  25
ENDBRANCH  23  24
ENDBRANCH  22  23
ENDBRANCH  21  22
ENDBRANCH  20  21
ENDBRANCH  19  20
ENDBRANCH  18  19
ENDBRANCH  17  18
ENDBRANCH   1  17
TORSDOF 26
ENDMDL
MODEL 3
REMARK VINA RESULT:    -4.712      2.268      6.308
REMARK INTER + INTRA:         -16.928
REMARK INTER:                 -11.963
REMARK INTRA:                  -4.964
REMARK UNBOUND:                -5.054
REMARK SMILES CCCCCCCCCCCCCCCCCCCCCCCCCCCC(=O)[O-]
REMARK SMILES IDX 15 1 16 2 17 3 18 4 19 5 20 6 21 7 22 8 23 9 24 10 25 11
REMARK SMILES IDX 26 12 27 13 28 14 29 15 30 16 14 17 13 18 12 19 11 20 10 21
REMARK SMILES IDX 9 22 8 23 7 24 6 25 5 26 4 27 3 28 2 29 1 30
REMARK H PARENT
REMARK Flexibility Score: inf
ROOT
ATOM      1  C   UNL     1       7.250 -13.359  -4.162  1.00  0.00     0.000 C 
ENDROOT
BRANCH   1   2
ATOM      2  C   UNL     1       5.870 -13.272  -4.837  1.00  0.00     0.000 C 
BRANCH   2   3
ATOM      3  C   UNL     1       5.315 -11.838  -4.884  1.00  0.00     0.000 C 
BRANCH   3   4
ATOM      4  C   UNL     1       4.662 -11.469  -6.233  1.00  0.00     0.000 C 
BRANCH   4   5
ATOM      5  C   UNL     1       4.689  -9.952  -6.496  1.00  0.00     0.000 C 
BRANCH   5   6
ATOM      6  C   UNL     1       4.342  -9.130  -5.244  1.00  0.00     0.000 C 
BRANCH   6   7
ATOM      7  C   UNL     1       4.391  -7.615  -5.497  1.00  0.00     0.000 C 
BRANCH   7   8
ATOM      8  C   UNL     1       3.566  -7.242  -6.739  1.00  0.00     0.000 C 
BRANCH   8   9
ATOM      9  C   UNL     1       2.048  -7.282  -6.485  1.00  0.00     0.000 C 
BRANCH   9  10
ATOM     10  C   UNL     1       1.320  -8.488  -7.105  1.00  0.00     0.000 C 
BRANCH  10  11
ATOM     11  C   UNL     1       0.394  -9.206  -6.106  1.00  0.00     0.000 C 
BRANCH  11  12
ATOM     12  C   UNL     1       0.953 -10.564  -5.652  1.00  0.00     0.006 C 
BRANCH  12  13
ATOM     13  C   UNL     1       1.130 -11.549  -6.816  1.00  0.00     0.053 C 
BRANCH  13  14
ATOM     14  C   UNL     1       0.204 -12.716  -6.672  1.00  0.00     0.041 C 
ATOM     15  O   UNL     1       0.151 -13.599  -7.569  1.00  0.00    -0.550 OA
ATOM     16  O   UNL     1      -0.602 -12.828  -5.545  1.00  0.00    -0.550 OA
ENDBRANCH  13  14
ENDBRANCH  12  13
ENDBRANCH  11  12
ENDBRANCH  10  11
ENDBRANCH   9  10
ENDBRANCH   8   9
ENDBRANCH   7   8
ENDBRANCH   6   7
ENDBRANCH   5   6
ENDBRANCH   4   5
ENDBRANCH   3   4
ENDBRANCH   2   3
ENDBRANCH   1   2
BRANCH   1  17
ATOM     17  C   UNL     1       7.316 -12.536  -2.858  1.00  0.00     0.000 C 
BRANCH  17  18
ATOM     18  C   UNL     1       7.601 -13.386  -1.607  1.00  0.00     0.000 C 
BRANCH  18  19
ATOM     19  C   UNL     1       8.245 -12.580  -0.470  1.00  0.00     0.000 C 
BRANCH  19  20
ATOM     20  C   UNL     1       8.454 -11.118  -0.885  1.00  0.00     0.000 C 
BRANCH  20  21
ATOM     21  C   UNL     1       8.007 -10.161   0.227  1.00  0.00     0.000 C 
BRANCH  21  22
ATOM     22  C   UNL     1       6.941  -9.150  -0.235  1.00  0.00    -0.000 C 
BRANCH  22  23
ATOM     23  C   UNL     1       6.298  -9.445  -1.604  1.00  0.00    -0.000 C 
BRANCH  23  24
ATOM     24  C   UNL     1       4.799  -9.775  -1.509  1.00  0.00    -0.000 C 
BRANCH  24  25
ATOM     25  C   UNL     1       4.525 -11.089  -0.757  1.00  0.00    -0.000 C 
BRANCH  25  26
ATOM     26  C   UNL     1       3.919 -12.199  -1.643  1.00  0.00    -0.000 C 
BRANCH  26  27
ATOM     27  C   UNL     1       2.667 -11.720  -2.401  1.00  0.00    -0.000 C 
BRANCH  27  28
ATOM     28  C   UNL     1       1.757 -12.891  -2.826  1.00  0.00    -0.000 C 
BRANCH  28  29
ATOM     29  C   UNL     1       2.489 -13.986  -3.618  1.00  0.00    -0.003 C 
ATOM     30  C   UNL     1       2.600 -15.305  -2.856  1.00  0.00     0.004 C 
ENDBRANCH  28  29
ENDBRANCH  27  28
ENDBRANCH  26  27
ENDBRANCH  25  26
ENDBRANCH  24  25
ENDBRANCH  23  24
ENDBRANCH  22  23
ENDBRANCH  21  22
ENDBRANCH  20  21
ENDBRANCH  19  20
ENDBRANCH  18  19
ENDBRANCH  17  18
ENDBRANCH   1  17
TORSDOF 26
ENDMDL
MODEL 4
REMARK VINA RESULT:    -4.710      2.172      3.631
REMARK INTER + INTRA:         -16.922
REMARK INTER:                 -11.125
REMARK INTRA:                  -5.797
REMARK UNBOUND:                -5.054
REMARK SMILES CCCCCCCCCCCCCCCCCCCCCCCCCCCC(=O)[O-]
REMARK SMILES IDX 15 1 16 2 17 3 18 4 19 5 20 6 21 7 22 8 23 9 24 10 25 11
REMARK SMILES IDX 26 12 27 13 28 14 29 15 30 16 14 17 13 18 12 19 11 20 10 21
REMARK SMILES IDX 9 22 8 23 7 24 6 25 5 26 4 27 3 28 2 29 1 30
REMARK H PARENT
REMARK Flexibility Score: inf
ROOT
ATOM      1  C   UNL     1       4.254 -10.454  -1.827  1.00  0.00     0.000 C 
ENDROOT
BRANCH   1   2
ATOM      2  C   UNL     1       5.414 -10.867  -0.906  1.00  0.00     0.000 C 
BRANCH   2   3
ATOM      3  C   UNL     1       6.780 -10.848  -1.614  1.00  0.00     0.000 C 
BRANCH   3   4
ATOM      4  C   UNL     1       7.640 -12.100  -1.340  1.00  0.00     0.000 C 
BRANCH   4   5
ATOM      5  C   UNL     1       7.141 -13.331  -2.120  1.00  0.00     0.000 C 
BRANCH   5   6
ATOM      6  C   UNL     1       7.186 -13.122  -3.642  1.00  0.00     0.000 C 
BRANCH   6   7
ATOM      7  C   UNL     1       5.797 -13.205  -4.293  1.00  0.00     0.000 C 
BRANCH   7   8
ATOM      8  C   UNL     1       4.738 -13.636  -3.267  1.00  0.00     0.000 C 
BRANCH   8   9
ATOM      9  C   UNL     1       3.309 -13.626  -3.839  1.00  0.00     0.000 C 
BRANCH   9  10
ATOM     10  C   UNL     1       3.227 -13.531  -5.374  1.00  0.00     0.000 C 
BRANCH  10  11
ATOM     11  C   UNL     1       1.783 -13.605  -5.903  1.00  0.00     0.000 C 
BRANCH  11  12
ATOM     12  C   UNL     1       1.219 -12.226  -6.277  1.00  0.00     0.006 C 
BRANCH  12  13
ATOM     13  C   UNL     1      -0.272 -12.086  -5.939  1.00  0.00     0.053 C 
BRANCH  13  14
ATOM     14  C   UNL     1      -0.477 -12.013  -4.458  1.00  0.00     0.041 C 
ATOM     15  O   UNL     1       0.255 -11.268  -3.752  1.00  0.00    -0.550 OA
ATOM     16  O   UNL     1      -1.475 -12.769  -3.856  1.00  0.00    -0.550 OA
ENDBRANCH  13  14
ENDBRANCH  12  13
ENDBRANCH  11  12
ENDBRANCH  10  11
ENDBRANCH   9  10
ENDBRANCH   8   9
ENDBRANCH   7   8
ENDBRANCH   6   7
ENDBRANCH   5   6
ENDBRANCH   4   5
ENDBRANCH   3   4
ENDBRANCH   2   3
ENDBRANCH   1   2
BRANCH   1  17
ATOM     17  C   UNL     1       4.743  -9.683  -3.072  1.00  0.00     0.000 C 
BRANCH  17  18
ATOM     18  C   UNL     1       3.997 -10.062  -4.364  1.00  0.00     0.000 C 
BRANCH  18  19
ATOM     19  C   UNL     1       4.818  -9.790  -5.631  1.00  0.00     0.000 C 
BRANCH  19  20
ATOM     20  C   UNL     1       4.055 -10.236  -6.885  1.00  0.00     0.000 C 
BRANCH  20  21
ATOM     21  C   UNL     1       4.263  -9.247  -8.038  1.00  0.00     0.000 C 
BRANCH  21  22
ATOM     22  C   UNL     1       5.305  -8.158  -7.722  1.00  0.00    -0.000 C 
BRANCH  22  23
ATOM     23  C   UNL     1       4.770  -6.714  -7.701  1.00  0.00    -0.000 C 
BRANCH  23  24
ATOM     24  C   UNL     1       5.085  -5.972  -6.390  1.00  0.00    -0.000 C 
BRANCH  24  25
ATOM     25  C   UNL     1       3.994  -6.161  -5.322  1.00  0.00    -0.000 C 
BRANCH  25  26
ATOM     26  C   UNL     1       2.596  -6.461  -5.906  1.00  0.00    -0.000 C 
BRANCH  26  27
ATOM     27  C   UNL     1       1.779  -7.405  -5.004  1.00  0.00    -0.000 C 
BRANCH  27  28
ATOM     28  C   UNL     1       0.984  -8.448  -5.818  1.00  0.00    -0.000 C 
BRANCH  28  29
ATOM     29  C   UNL     1       0.932  -8.145  -7.324  1.00  0.00    -0.003 C 
ATOM     30  C   UNL     1      -0.265  -8.784  -8.023  1.00  0.00     0.004 C 
ENDBRANCH  28  29
ENDBRANCH  27  28
ENDBRANCH  26  27
ENDBRANCH  25  26
ENDBRANCH  24  25
ENDBRANCH  23  24
ENDBRANCH  22  23
ENDBRANCH  21  22
ENDBRANCH  20  21
ENDBRANCH  19  20
ENDBRANCH  18  19
ENDBRANCH  17  18
ENDBRANCH   1  17
TORSDOF 26
ENDMDL
MODEL 5
REMARK VINA RESULT:    -4.702      1.985      3.836
REMARK INTER + INTRA:         -16.902
REMARK INTER:                 -12.501
REMARK INTRA:                  -4.401
REMARK UNBOUND:                -5.054
REMARK SMILES CCCCCCCCCCCCCCCCCCCCCCCCCCCC(=O)[O-]
REMARK SMILES IDX 15 1 16 2 17 3 18 4 19 5 20 6 21 7 22 8 23 9 24 10 25 11
REMARK SMILES IDX 26 12 27 13 28 14 29 15 30 16 14 17 13 18 12 19 11 20 10 21
REMARK SMILES IDX 9 22 8 23 7 24 6 25 5 26 4 27 3 28 2 29 1 30
REMARK H PARENT
REMARK Flexibility Score: inf
ROOT
ATOM      1  C   UNL     1       8.382 -12.279  -0.495  1.00  0.00     0.000 C 
ENDROOT
BRANCH   1   2
ATOM      2  C   UNL     1       8.506 -10.747  -0.449  1.00  0.00     0.000 C 
BRANCH   2   3
ATOM      3  C   UNL     1       7.347 -10.029  -1.163  1.00  0.00     0.000 C 
BRANCH   3   4
ATOM      4  C   UNL     1       6.405  -9.267  -0.207  1.00  0.00     0.000 C 
BRANCH   4   5
ATOM      5  C   UNL     1       4.928  -9.651  -0.417  1.00  0.00     0.000 C 
BRANCH   5   6
ATOM      6  C   UNL     1       4.641 -10.130  -1.849  1.00  0.00     0.000 C 
BRANCH   6   7
ATOM      7  C   UNL     1       3.682 -11.330  -1.891  1.00  0.00     0.000 C 
BRANCH   7   8
ATOM      8  C   UNL     1       3.529 -11.956  -0.496  1.00  0.00     0.000 C 
BRANCH   8   9
ATOM      9  C   UNL     1       3.861 -13.459  -0.473  1.00  0.00     0.000 C 
BRANCH   9  10
ATOM     10  C   UNL     1       3.738 -14.169  -1.834  1.00  0.00     0.000 C 
BRANCH  10  11
ATOM     11  C   UNL     1       2.429 -14.967  -1.977  1.00  0.00     0.000 C 
BRANCH  11  12
ATOM     12  C   UNL     1       2.372 -15.782  -3.279  1.00  0.00     0.006 C 
BRANCH  12  13
ATOM     13  C   UNL     1       1.186 -15.390  -4.169  1.00  0.00     0.053 C 
BRANCH  13  14
ATOM     14  C   UNL     1       1.591 -15.351  -5.610  1.00  0.00     0.041 C 
ATOM     15  O   UNL     1       2.139 -16.353  -6.142  1.00  0.00    -0.550 OA
ATOM     16  O   UNL     1       1.365 -14.207  -6.365  1.00  0.00    -0.550 OA
ENDBRANCH  13  14
ENDBRANCH  12  13
ENDBRANCH  11  12
ENDBRANCH  10  11
ENDBRANCH   9  10
ENDBRANCH   8   9
ENDBRANCH   7   8
ENDBRANCH   6   7
ENDBRANCH   5   6
ENDBRANCH   4   5
ENDBRANCH   3   4
ENDBRANCH   2   3
ENDBRANCH   1   2
BRANCH   1  17
ATOM     17  C   UNL     1       7.214 -12.744  -1.391  1.00  0.00     0.000 C 
BRANCH  17  18
ATOM     18  C   UNL     1       7.606 -13.849  -2.389  1.00  0.00     0.000 C 
BRANCH  18  19
ATOM     19  C   UNL     1       7.503 -13.397  -3.852  1.00  0.00     0.000 C 
BRANCH  19  20
ATOM     20  C   UNL     1       6.249 -12.543  -4.075  1.00  0.00     0.000 C 
BRANCH  20  21
ATOM     21  C   UNL     1       5.205 -13.304  -4.902  1.00  0.00     0.000 C 
BRANCH  21  22
ATOM     22  C   UNL     1       4.174 -12.378  -5.575  1.00  0.00    -0.000 C 
BRANCH  22  23
ATOM     23  C   UNL     1       4.492 -10.872  -5.508  1.00  0.00    -0.000 C 
BRANCH  23  24
ATOM     24  C   UNL     1       4.662 -10.228  -6.895  1.00  0.00    -0.000 C 
BRANCH  24  25
ATOM     25  C   UNL     1       4.683  -8.691  -6.839  1.00  0.00    -0.000 C 
BRANCH  25  26
ATOM     26  C   UNL     1       3.637  -8.020  -7.755  1.00  0.00    -0.000 C 
BRANCH  26  27
ATOM     27  C   UNL     1       2.556  -9.010  -8.227  1.00  0.00    -0.000 C 
BRANCH  27  28
ATOM     28  C   UNL     1       1.129  -8.457  -8.028  1.00  0.00    -0.000 C 
BRANCH  28  29
ATOM     29  C   UNL     1       0.214  -9.388  -7.217  1.00  0.00    -0.003 C 
ATOM     30  C   UNL     1       0.926 -10.642  -6.716  1.00  0.00     0.004 C 
ENDBRANCH  28  29
ENDBRANCH  27  28
ENDBRANCH  26  27
ENDBRANCH  25  26
ENDBRANCH  24  25
ENDBRANCH  23  24
ENDBRANCH  22  23
ENDBRANCH  21  22
ENDBRANCH  20  21
ENDBRANCH  19  20
ENDBRANCH  18  19
ENDBRANCH  17  18
ENDBRANCH   1  17
TORSDOF 26
ENDMDL
MODEL 6
REMARK VINA RESULT:    -4.675      3.408      7.405
REMARK INTER + INTRA:         -16.835
REMARK INTER:                 -12.834
REMARK INTRA:                  -4.001
REMARK UNBOUND:                -5.054
REMARK SMILES CCCCCCCCCCCCCCCCCCCCCCCCCCCC(=O)[O-]
REMARK SMILES IDX 15 1 16 2 17 3 18 4 19 5 20 6 21 7 22 8 23 9 24 10 25 11
REMARK SMILES IDX 26 12 27 13 28 14 29 15 30 16 14 17 13 18 12 19 11 20 10 21
REMARK SMILES IDX 9 22 8 23 7 24 6 25 5 26 4 27 3 28 2 29 1 30
REMARK H PARENT
REMARK Flexibility Score: inf
ROOT
ATOM      1  C   UNL     1       8.737 -11.179  -0.001  1.00  0.00     0.000 C 
ENDROOT
BRANCH   1   2
ATOM      2  C   UNL     1       8.474 -12.628  -0.445  1.00  0.00     0.000 C 
BRANCH   2   3
ATOM      3  C   UNL     1       7.322 -12.746  -1.458  1.00  0.00     0.000 C 
BRANCH   3   4
ATOM      4  C   UNL     1       7.588 -13.764  -2.587  1.00  0.00     0.000 C 
BRANCH   4   5
ATOM      5  C   UNL     1       7.243 -13.196  -3.976  1.00  0.00     0.000 C 
BRANCH   5   6
ATOM      6  C   UNL     1       5.907 -12.436  -3.987  1.00  0.00     0.000 C 
BRANCH   6   7
ATOM      7  C   UNL     1       4.901 -13.019  -4.992  1.00  0.00     0.000 C 
BRANCH   7   8
ATOM      8  C   UNL     1       4.576 -11.999  -6.094  1.00  0.00     0.000 C 
BRANCH   8   9
ATOM      9  C   UNL     1       3.424 -11.051  -5.712  1.00  0.00     0.000 C 
BRANCH   9  10
ATOM     10  C   UNL     1       3.777  -9.553  -5.757  1.00  0.00     0.000 C 
BRANCH  10  11
ATOM     11  C   UNL     1       4.776  -9.207  -6.876  1.00  0.00     0.000 C 
BRANCH  11  12
ATOM     12  C   UNL     1       4.181  -8.258  -7.928  1.00  0.00     0.006 C 
BRANCH  12  13
ATOM     13  C   UNL     1       4.936  -6.924  -8.015  1.00  0.00     0.053 C 
BRANCH  13  14
ATOM     14  C   UNL     1       4.629  -6.061  -6.832  1.00  0.00     0.041 C 
ATOM     15  O   UNL     1       5.560  -5.484  -6.209  1.00  0.00    -0.550 OA
ATOM     16  O   UNL     1       3.314  -5.894  -6.415  1.00  0.00    -0.550 OA
ENDBRANCH  13  14
ENDBRANCH  12  13
ENDBRANCH  11  12
ENDBRANCH  10  11
ENDBRANCH   9  10
ENDBRANCH   8   9
ENDBRANCH   7   8
ENDBRANCH   6   7
ENDBRANCH   5   6
ENDBRANCH   4   5
ENDBRANCH   3   4
ENDBRANCH   2   3
ENDBRANCH   1   2
BRANCH   1  17
ATOM     17  C   UNL     1       7.998 -10.153  -0.887  1.00  0.00     0.000 C 
BRANCH  17  18
ATOM     18  C   UNL     1       7.310  -9.032  -0.088  1.00  0.00     0.000 C 
BRANCH  18  19
ATOM     19  C   UNL     1       5.970  -8.599  -0.697  1.00  0.00     0.000 C 
BRANCH  19  20
ATOM     20  C   UNL     1       5.718  -9.314  -2.031  1.00  0.00     0.000 C 
BRANCH  20  21
ATOM     21  C   UNL     1       4.241  -9.701  -2.177  1.00  0.00     0.000 C 
BRANCH  21  22
ATOM     22  C   UNL     1       3.641 -10.298  -0.890  1.00  0.00    -0.000 C 
BRANCH  22  23
ATOM     23  C   UNL     1       4.047 -11.751  -0.581  1.00  0.00    -0.000 C 
BRANCH  23  24
ATOM     24  C   UNL     1       3.067 -12.788  -1.157  1.00  0.00    -0.000 C 
BRANCH  24  25
ATOM     25  C   UNL     1       3.767 -14.080  -1.614  1.00  0.00    -0.000 C 
BRANCH  25  26
ATOM     26  C   UNL     1       3.075 -15.370  -1.124  1.00  0.00    -0.000 C 
BRANCH  26  27
ATOM     27  C   UNL     1       2.063 -15.913  -2.150  1.00  0.00    -0.000 C 
BRANCH  27  28
ATOM     28  C   UNL     1       2.374 -15.437  -3.585  1.00  0.00    -0.000 C 
BRANCH  28  29
ATOM     29  C   UNL     1       1.676 -16.267  -4.674  1.00  0.00    -0.003 C 
ATOM     30  C   UNL     1       1.964 -15.765  -6.087  1.00  0.00     0.004 C 
ENDBRANCH  28  29
ENDBRANCH  27  28
ENDBRANCH  26  27
ENDBRANCH  25  26
ENDBRANCH  24  25
ENDBRANCH  23  24
ENDBRANCH  22  23
ENDBRANCH  21  22
ENDBRANCH  20  21
ENDBRANCH  19  20
ENDBRANCH  18  19
ENDBRANCH  17  18
ENDBRANCH   1  17
TORSDOF 26
ENDMDL
MODEL 7
REMARK VINA RESULT:    -4.674      1.876      3.227
REMARK INTER + INTRA:         -16.832
REMARK INTER:                 -12.541
REMARK INTRA:                  -4.291
REMARK UNBOUND:                -5.054
REMARK SMILES CCCCCCCCCCCCCCCCCCCCCCCCCCCC(=O)[O-]
REMARK SMILES IDX 15 1 16 2 17 3 18 4 19 5 20 6 21 7 22 8 23 9 24 10 25 11
REMARK SMILES IDX 26 12 27 13 28 14 29 15 30 16 14 17 13 18 12 19 11 20 10 21
REMARK SMILES IDX 9 22 8 23 7 24 6 25 5 26 4 27 3 28 2 29 1 30
REMARK H PARENT
REMARK Flexibility Score: inf
ROOT
ATOM      1  C   UNL     1       6.258 -13.311  -4.891  1.00  0.00     0.000 C 
ENDROOT
BRANCH   1   2
ATOM      2  C   UNL     1       6.791 -12.607  -3.631  1.00  0.00     0.000 C 
BRANCH   2   3
ATOM      3  C   UNL     1       7.640 -13.531  -2.741  1.00  0.00     0.000 C 
BRANCH   3   4
ATOM      4  C   UNL     1       7.398 -13.332  -1.230  1.00  0.00     0.000 C 
BRANCH   4   5
ATOM      5  C   UNL     1       8.508 -12.494  -0.568  1.00  0.00     0.000 C 
BRANCH   5   6
ATOM      6  C   UNL     1       8.396 -10.998  -0.902  1.00  0.00     0.000 C 
BRANCH   6   7
ATOM      7  C   UNL     1       7.884 -10.163   0.282  1.00  0.00     0.000 C 
BRANCH   7   8
ATOM      8  C   UNL     1       6.416  -9.762   0.073  1.00  0.00     0.000 C 
BRANCH   8   9
ATOM      9  C   UNL     1       5.982  -9.823  -1.404  1.00  0.00     0.000 C 
BRANCH   9  10
ATOM     10  C   UNL     1       4.563 -10.372  -1.639  1.00  0.00     0.000 C 
BRANCH  10  11
ATOM     11  C   UNL     1       4.302 -11.694  -0.895  1.00  0.00     0.000 C 
BRANCH  11  12
ATOM     12  C   UNL     1       3.400 -12.652  -1.689  1.00  0.00     0.006 C 
BRANCH  12  13
ATOM     13  C   UNL     1       3.920 -14.096  -1.679  1.00  0.00     0.053 C 
BRANCH  13  14
ATOM     14  C   UNL     1       3.170 -14.925  -0.684  1.00  0.00     0.041 C 
ATOM     15  O   UNL     1       2.583 -15.979  -1.049  1.00  0.00    -0.550 OA
ATOM     16  O   UNL     1       3.116 -14.532   0.648  1.00  0.00    -0.550 OA
ENDBRANCH  13  14
ENDBRANCH  12  13
ENDBRANCH  11  12
ENDBRANCH  10  11
ENDBRANCH   9  10
ENDBRANCH   8   9
ENDBRANCH   7   8
ENDBRANCH   6   7
ENDBRANCH   5   6
ENDBRANCH   4   5
ENDBRANCH   3   4
ENDBRANCH   2   3
ENDBRANCH   1   2
BRANCH   1  17
ATOM     17  C   UNL     1       4.784 -12.954  -5.180  1.00  0.00     0.000 C 
BRANCH  17  18
ATOM     18  C   UNL     1       4.494 -11.444  -5.122  1.00  0.00     0.000 C 
BRANCH  18  19
ATOM     19  C   UNL     1       4.016 -10.874  -6.464  1.00  0.00     0.000 C 
BRANCH  19  20
ATOM     20  C   UNL     1       4.559  -9.456  -6.682  1.00  0.00     0.000 C 
BRANCH  20  21
ATOM     21  C   UNL     1       4.032  -8.859  -7.993  1.00  0.00     0.000 C 
BRANCH  21  22
ATOM     22  C   UNL     1       2.595  -9.303  -8.326  1.00  0.00    -0.000 C 
BRANCH  22  23
ATOM     23  C   UNL     1       1.483  -8.329  -7.890  1.00  0.00    -0.000 C 
BRANCH  23  24
ATOM     24  C   UNL     1       0.227  -9.044  -7.362  1.00  0.00    -0.000 C 
BRANCH  24  25
ATOM     25  C   UNL     1       0.446  -9.694  -5.985  1.00  0.00    -0.000 C 
BRANCH  25  26
ATOM     26  C   UNL     1      -0.094 -11.137  -5.885  1.00  0.00    -0.000 C 
BRANCH  26  27
ATOM     27  C   UNL     1       0.622 -12.095  -6.854  1.00  0.00    -0.000 C 
BRANCH  27  28
ATOM     28  C   UNL     1       1.183 -13.342  -6.136  1.00  0.00    -0.000 C 
BRANCH  28  29
ATOM     29  C   UNL     1       0.666 -14.670  -6.712  1.00  0.00    -0.003 C 
ATOM     30  C   UNL     1      -0.195 -14.488  -7.959  1.00  0.00     0.004 C 
ENDBRANCH  28  29
ENDBRANCH  27  28
ENDBRANCH  26  27
ENDBRANCH  25  26
ENDBRANCH  24  25
ENDBRANCH  23  24
ENDBRANCH  22  23
ENDBRANCH  21  22
ENDBRANCH  20  21
ENDBRANCH  19  20
ENDBRANCH  18  19
ENDBRANCH  17  18
ENDBRANCH   1  17
TORSDOF 26
ENDMDL
MODEL 8
REMARK VINA RESULT:    -4.673      3.571      7.569
REMARK INTER + INTRA:         -16.831
REMARK INTER:                 -11.219
REMARK INTRA:                  -5.611
REMARK UNBOUND:                -5.054
REMARK SMILES CCCCCCCCCCCCCCCCCCCCCCCCCCCC(=O)[O-]
REMARK SMILES IDX 15 1 16 2 17 3 18 4 19 5 20 6 21 7 22 8 23 9 24 10 25 11
REMARK SMILES IDX 26 12 27 13 28 14 29 15 30 16 14 17 13 18 12 19 11 20 10 21
REMARK SMILES IDX 9 22 8 23 7 24 6 25 5 26 4 27 3 28 2 29 1 30
REMARK H PARENT
REMARK Flexibility Score: inf
ROOT
ATOM      1  C   UNL     1       2.410 -15.924  -2.198  1.00  0.00     0.000 C 
ENDROOT
BRANCH   1   2
ATOM      2  C   UNL     1       2.680 -15.032  -3.422  1.00  0.00     0.000 C 
BRANCH   2   3
ATOM      3  C   UNL     1       1.406 -14.717  -4.226  1.00  0.00     0.000 C 
BRANCH   3   4
ATOM      4  C   UNL     1       0.278 -14.088  -3.382  1.00  0.00     0.000 C 
BRANCH   4   5
ATOM      5  C   UNL     1       0.660 -12.696  -2.845  1.00  0.00     0.000 C 
BRANCH   5   6
ATOM      6  C   UNL     1      -0.383 -11.622  -3.194  1.00  0.00     0.000 C 
BRANCH   6   7
ATOM      7  C   UNL     1       0.087 -10.682  -4.315  1.00  0.00     0.000 C 
BRANCH   7   8
ATOM      8  C   UNL     1      -0.579 -11.050  -5.650  1.00  0.00     0.000 C 
BRANCH   8   9
ATOM      9  C   UNL     1       0.291 -11.978  -6.519  1.00  0.00     0.000 C 
BRANCH   9  10
ATOM     10  C   UNL     1       1.802 -11.687  -6.463  1.00  0.00     0.000 C 
BRANCH  10  11
ATOM     11  C   UNL     1       2.216 -10.501  -7.353  1.00  0.00     0.000 C 
BRANCH  11  12
ATOM     12  C   UNL     1       3.335  -9.654  -6.727  1.00  0.00     0.006 C 
BRANCH  12  13
ATOM     13  C   UNL     1       4.428  -9.280  -7.737  1.00  0.00     0.053 C 
BRANCH  13  14
ATOM     14  C   UNL     1       4.933  -7.893  -7.486  1.00  0.00     0.041 C 
ATOM     15  O   UNL     1       4.994  -7.442  -6.311  1.00  0.00    -0.550 OA
ATOM     16  O   UNL     1       5.334  -7.096  -8.552  1.00  0.00    -0.550 OA
ENDBRANCH  13  14
ENDBRANCH  12  13
ENDBRANCH  11  12
ENDBRANCH  10  11
ENDBRANCH   9  10
ENDBRANCH   8   9
ENDBRANCH   7   8
ENDBRANCH   6   7
ENDBRANCH   5   6
ENDBRANCH   4   5
ENDBRANCH   3   4
ENDBRANCH   2   3
ENDBRANCH   1   2
BRANCH   1  17
ATOM     17  C   UNL     1       2.907 -15.280  -0.886  1.00  0.00     0.000 C 
BRANCH  17  18
ATOM     18  C   UNL     1       3.892 -14.117  -1.105  1.00  0.00     0.000 C 
BRANCH  18  19
ATOM     19  C   UNL     1       3.419 -12.804  -0.467  1.00  0.00     0.000 C 
BRANCH  19  20
ATOM     20  C   UNL     1       4.295 -11.629  -0.919  1.00  0.00     0.000 C 
BRANCH  20  21
ATOM     21  C   UNL     1       3.455 -10.550  -1.614  1.00  0.00     0.000 C 
BRANCH  21  22
ATOM     22  C   UNL     1       3.669 -10.505  -3.138  1.00  0.00    -0.000 C 
BRANCH  22  23
ATOM     23  C   UNL     1       5.035 -11.020  -3.631  1.00  0.00    -0.000 C 
BRANCH  23  24
ATOM     24  C   UNL     1       4.922 -12.250  -4.548  1.00  0.00    -0.000 C 
BRANCH  24  25
ATOM     25  C   UNL     1       5.996 -13.311  -4.257  1.00  0.00    -0.000 C 
BRANCH  25  26
ATOM     26  C   UNL     1       7.193 -12.779  -3.438  1.00  0.00    -0.000 C 
BRANCH  26  27
ATOM     27  C   UNL     1       7.303 -13.457  -2.061  1.00  0.00    -0.000 C 
BRANCH  27  28
ATOM     28  C   UNL     1       7.907 -12.518  -0.994  1.00  0.00    -0.000 C 
BRANCH  28  29
ATOM     29  C   UNL     1       7.986 -11.049  -1.439  1.00  0.00    -0.003 C 
ATOM     30  C   UNL     1       7.556 -10.068  -0.351  1.00  0.00     0.004 C 
ENDBRANCH  28  29
ENDBRANCH  27  28
ENDBRANCH  26  27
ENDBRANCH  25  26
ENDBRANCH  24  25
ENDBRANCH  23  24
ENDBRANCH  22  23
ENDBRANCH  21  22
ENDBRANCH  20  21
ENDBRANCH  19  20
ENDBRANCH  18  19
ENDBRANCH  17  18
ENDBRANCH   1  17
TORSDOF 26
ENDMDL
MODEL 9
REMARK VINA RESULT:    -4.665      1.139      2.771
REMARK INTER + INTRA:         -16.808
REMARK INTER:                 -11.948
REMARK INTRA:                  -4.860
REMARK UNBOUND:                -5.054
REMARK SMILES CCCCCCCCCCCCCCCCCCCCCCCCCCCC(=O)[O-]
REMARK SMILES IDX 15 1 16 2 17 3 18 4 19 5 20 6 21 7 22 8 23 9 24 10 25 11
REMARK SMILES IDX 26 12 27 13 28 14 29 15 30 16 14 17 13 18 12 19 11 20 10 21
REMARK SMILES IDX 9 22 8 23 7 24 6 25 5 26 4 27 3 28 2 29 1 30
REMARK H PARENT
REMARK Flexibility Score: inf
ROOT
ATOM      1  C   UNL     1       7.263 -13.368  -3.709  1.00  0.00     0.000 C 
ENDROOT
BRANCH   1   2
ATOM      2  C   UNL     1       6.828 -13.294  -2.235  1.00  0.00     0.000 C 
BRANCH   2   3
ATOM      3  C   UNL     1       8.013 -13.350  -1.256  1.00  0.00     0.000 C 
BRANCH   3   4
ATOM      4  C   UNL     1       8.196 -12.062  -0.426  1.00  0.00     0.000 C 
BRANCH   4   5
ATOM      5  C   UNL     1       8.016 -10.791  -1.278  1.00  0.00     0.000 C 
BRANCH   5   6
ATOM      6  C   UNL     1       7.548  -9.586  -0.448  1.00  0.00     0.000 C 
BRANCH   6   7
ATOM      7  C   UNL     1       6.179  -9.051  -0.898  1.00  0.00     0.000 C 
BRANCH   7   8
ATOM      8  C   UNL     1       5.764  -9.675  -2.240  1.00  0.00     0.000 C 
BRANCH   8   9
ATOM      9  C   UNL     1       4.415 -10.414  -2.166  1.00  0.00     0.000 C 
BRANCH   9  10
ATOM     10  C   UNL     1       4.209 -11.259  -0.896  1.00  0.00     0.000 C 
BRANCH  10  11
ATOM     11  C   UNL     1       3.096 -12.311  -1.051  1.00  0.00     0.000 C 
BRANCH  11  12
ATOM     12  C   UNL     1       3.521 -13.700  -0.548  1.00  0.00     0.006 C 
BRANCH  12  13
ATOM     13  C   UNL     1       3.527 -14.755  -1.662  1.00  0.00     0.053 C 
BRANCH  13  14
ATOM     14  C   UNL     1       2.271 -15.568  -1.632  1.00  0.00     0.041 C 
ATOM     15  O   UNL     1       1.917 -16.152  -0.573  1.00  0.00    -0.550 OA
ATOM     16  O   UNL     1       1.489 -15.682  -2.776  1.00  0.00    -0.550 OA
ENDBRANCH  13  14
ENDBRANCH  12  13
ENDBRANCH  11  12
ENDBRANCH  10  11
ENDBRANCH   9  10
ENDBRANCH   8   9
ENDBRANCH   7   8
ENDBRANCH   6   7
ENDBRANCH   5   6
ENDBRANCH   4   5
ENDBRANCH   3   4
ENDBRANCH   2   3
ENDBRANCH   1   2
BRANCH   1  17
ATOM     17  C   UNL     1       6.297 -12.609  -4.643  1.00  0.00     0.000 C 
BRANCH  17  18
ATOM     18  C   UNL     1       4.841 -13.100  -4.553  1.00  0.00     0.000 C 
BRANCH  18  19
ATOM     19  C   UNL     1       3.901 -12.366  -5.518  1.00  0.00     0.000 C 
BRANCH  19  20
ATOM     20  C   UNL     1       2.469 -12.906  -5.405  1.00  0.00     0.000 C 
BRANCH  20  21
ATOM     21  C   UNL     1       1.618 -12.020  -4.486  1.00  0.00     0.000 C 
BRANCH  21  22
ATOM     22  C   UNL     1       1.301 -10.642  -5.096  1.00  0.00    -0.000 C 
BRANCH  22  23
ATOM     23  C   UNL     1       0.828 -10.660  -6.562  1.00  0.00    -0.000 C 
BRANCH  23  24
ATOM     24  C   UNL     1       0.425  -9.270  -7.084  1.00  0.00    -0.000 C 
BRANCH  24  25
ATOM     25  C   UNL     1       1.600  -8.509  -7.721  1.00  0.00    -0.000 C 
BRANCH  25  26
ATOM     26  C   UNL     1       2.728  -9.426  -8.241  1.00  0.00    -0.000 C 
BRANCH  26  27
ATOM     27  C   UNL     1       4.126  -8.897  -7.870  1.00  0.00    -0.000 C 
BRANCH  27  28
ATOM     28  C   UNL     1       4.337  -8.825  -6.343  1.00  0.00    -0.000 C 
BRANCH  28  29
ATOM     29  C   UNL     1       4.639  -7.408  -5.829  1.00  0.00    -0.003 C 
ATOM     30  C   UNL     1       4.630  -6.355  -6.933  1.00  0.00     0.004 C 
ENDBRANCH  28  29
ENDBRANCH  27  28
ENDBRANCH  26  27
ENDBRANCH  25  26
ENDBRANCH  24  25
ENDBRANCH  23  24
ENDBRANCH  22  23
ENDBRANCH  21  22
ENDBRANCH  20  21
ENDBRANCH  19  20
ENDBRANCH  18  19
ENDBRANCH  17  18
ENDBRANCH   1  17
TORSDOF 26
ENDMDL
