MODEL 1
REMARK VINA RESULT:    -5.031      0.000      0.000
REMARK INTER + INTRA:         -15.820
REMARK INTER:                 -13.266
REMARK INTRA:                  -2.555
REMARK UNBOUND:                -2.555
REMARK SMILES CCCCCCCCCCCCCCCCCCCCCCCCCCCCCC(=O)[O-]
REMARK SMILES IDX 16 1 17 2 18 3 19 4 20 5 21 6 22 7 23 8 24 9 25 10 26 11
REMARK SMILES IDX 27 12 28 13 29 14 30 15 31 16 32 17 15 18 14 19 13 20 12 21
REMARK SMILES IDX 11 22 10 23 9 24 8 25 7 26 6 27 5 28 4 29 3 30 2 31 1 32
REMARK H PARENT
REMARK Flexibility Score: inf
ROOT
ATOM      1  C   UNL     1      -0.978  36.029  16.028  1.00  0.00     0.000 C 
ENDROOT
BRANCH   1   2
ATOM      2  C   UNL     1      -0.118  34.942  16.697  1.00  0.00     0.000 C 
BRANCH   2   3
ATOM      3  C   UNL     1      -0.728  33.538  16.552  1.00  0.00     0.000 C 
BRANCH   3   4
ATOM      4  C   UNL     1      -0.532  32.667  17.809  1.00  0.00     0.000 C 
BRANCH   4   5
ATOM      5  C   UNL     1      -0.438  31.168  17.479  1.00  0.00     0.000 C 
BRANCH   5   6
ATOM      6  C   UNL     1       0.818  30.817  16.662  1.00  0.00     0.000 C 
BRANCH   6   7
ATOM      7  C   UNL     1       1.075  29.300  16.596  1.00  0.00     0.000 C 
BRANCH   7   8
ATOM      8  C   UNL     1      -0.107  28.427  17.058  1.00  0.00     0.000 C 
BRANCH   8   9
ATOM      9  C   UNL     1      -0.667  27.538  15.932  1.00  0.00     0.000 C 
BRANCH   9  10
ATOM     10  C   UNL     1      -0.552  26.035  16.263  1.00  0.00     0.000 C 
BRANCH  10  11
ATOM     11  C   UNL     1       0.456  25.713  17.384  1.00  0.00     0.000 C 
BRANCH  11  12
ATOM     12  C   UNL     1      -0.169  25.411  18.755  1.00  0.00     0.000 C 
BRANCH  12  13
ATOM     13  C   UNL     1       0.882  25.266  19.870  1.00  0.00     0.006 C 
BRANCH  13  14
ATOM     14  C   UNL     1       0.345  25.726  21.231  1.00  0.00     0.053 C 
BRANCH  14  15
ATOM     15  C   UNL     1      -1.017  25.167  21.503  1.00  0.00     0.041 C 
ATOM     16  O   UNL     1      -1.176  23.924  21.635  1.00  0.00    -0.550 OA
ATOM     17  O   UNL     1      -2.119  26.010  21.563  1.00  0.00    -0.550 OA
ENDBRANCH  14  15
ENDBRANCH  13  14
ENDBRANCH  12  13
ENDBRANCH  11  12
ENDBRANCH  10  11
ENDBRANCH   9  10
ENDBRANCH   8   9
ENDBRANCH   7   8
ENDBRANCH   6   7
ENDBRANCH   5   6
ENDBRANCH   4   5
ENDBRANCH   3   4
ENDBRANCH   2   3
ENDBRANCH   1   2
BRANCH   1  18
ATOM     18  C   UNL     1      -2.472  35.912  16.384  1.00  0.00     0.000 C 
BRANCH  18  19
ATOM     19  C   UNL     1      -3.272  37.229  16.299  1.00  0.00     0.000 C 
BRANCH  19  20
ATOM     20  C   UNL     1      -2.428  38.517  16.235  1.00  0.00     0.000 C 
BRANCH  20  21
ATOM     21  C   UNL     1      -2.635  39.495  17.406  1.00  0.00     0.000 C 
BRANCH  21  22
ATOM     22  C   UNL     1      -2.189  38.917  18.759  1.00  0.00     0.000 C 
BRANCH  22  23
ATOM     23  C   UNL     1      -3.337  38.864  19.792  1.00  0.00     0.000 C 
BRANCH  23  24
ATOM     24  C   UNL     1      -4.743  39.004  19.179  1.00  0.00    -0.000 C 
BRANCH  24  25
ATOM     25  C   UNL     1      -5.548  37.695  19.108  1.00  0.00    -0.000 C 
BRANCH  25  26
ATOM     26  C   UNL     1      -6.973  37.814  19.699  1.00  0.00    -0.000 C 
BRANCH  26  27
ATOM     27  C   UNL     1      -7.215  39.179  20.368  1.00  0.00    -0.000 C 
BRANCH  27  28
ATOM     28  C   UNL     1      -7.273  39.086  21.901  1.00  0.00    -0.000 C 
BRANCH  28  29
ATOM     29  C   UNL     1      -6.280  40.037  22.591  1.00  0.00    -0.000 C 
BRANCH  29  30
ATOM     30  C   UNL     1      -5.480  39.333  23.708  1.00  0.00    -0.000 C 
BRANCH  30  31
ATOM     31  C   UNL     1      -3.979  39.199  23.397  1.00  0.00    -0.003 C 
ATOM     32  C   UNL     1      -3.534  37.749  23.216  1.00  0.00     0.004 C 
ENDBRANCH  30  31
ENDBRANCH  29  30
ENDBRANCH  28  29
ENDBRANCH  27  28
ENDBRANCH  26  27
ENDBRANCH  25  26
ENDBRANCH  24  25
ENDBRANCH  23  24
ENDBRANCH  22  23
ENDBRANCH  21  22
ENDBRANCH  20  21
ENDBRANCH  19  20
ENDBRANCH  18  19
ENDBRANCH   1  18
TORSDOF 28
ENDMDL
MODEL 2
REMARK VINA RESULT:    -5.001      1.215      2.251
REMARK INTER + INTRA:         -15.742
REMARK INTER:                 -12.415
REMARK INTRA:                  -3.328
REMARK UNBOUND:                -2.555
REMARK SMILES CCCCCCCCCCCCCCCCCCCCCCCCCCCCCC(=O)[O-]
REMARK SMILES IDX 16 1 17 2 18 3 19 4 20 5 21 6 22 7 23 8 24 9 25 10 26 11
REMARK SMILES IDX 27 12 28 13 29 14 30 15 31 16 32 17 15 18 14 19 13 20 12 21
REMARK SMILES IDX 11 22 10 23 9 24 8 25 7 26 6 27 5 28 4 29 3 30 2 31 1 32
REMARK H PARENT
REMARK Flexibility Score: inf
ROOT
ATOM      1  C   UNL     1      -1.850  35.092  17.224  1.00  0.00     0.000 C 
ENDROOT
BRANCH   1   2
ATOM      2  C   UNL     1      -0.425  34.582  16.950  1.00  0.00     0.000 C 
BRANCH   2   3
ATOM      3  C   UNL     1      -0.390  33.081  16.620  1.00  0.00     0.000 C 
BRANCH   3   4
ATOM      4  C   UNL     1      -0.890  32.201  17.783  1.00  0.00     0.000 C 
BRANCH   4   5
ATOM      5  C   UNL     1      -0.579  30.710  17.570  1.00  0.00     0.000 C 
BRANCH   5   6
ATOM      6  C   UNL     1       0.844  30.471  17.034  1.00  0.00     0.000 C 
BRANCH   6   7
ATOM      7  C   UNL     1       1.067  29.017  16.578  1.00  0.00     0.000 C 
BRANCH   7   8
ATOM      8  C   UNL     1      -0.159  28.353  15.923  1.00  0.00     0.000 C 
BRANCH   8   9
ATOM      9  C   UNL     1      -0.663  27.128  16.707  1.00  0.00     0.000 C 
BRANCH   9  10
ATOM     10  C   UNL     1       0.082  25.835  16.312  1.00  0.00     0.000 C 
BRANCH  10  11
ATOM     11  C   UNL     1       0.764  25.116  17.494  1.00  0.00     0.000 C 
BRANCH  11  12
ATOM     12  C   UNL     1       0.066  25.289  18.852  1.00  0.00     0.000 C 
BRANCH  12  13
ATOM     13  C   UNL     1       1.027  25.115  20.042  1.00  0.00     0.006 C 
BRANCH  13  14
ATOM     14  C   UNL     1       0.459  25.716  21.333  1.00  0.00     0.053 C 
BRANCH  14  15
ATOM     15  C   UNL     1      -0.967  25.313  21.548  1.00  0.00     0.041 C 
ATOM     16  O   UNL     1      -1.268  24.096  21.672  1.00  0.00    -0.550 OA
ATOM     17  O   UNL     1      -1.970  26.274  21.564  1.00  0.00    -0.550 OA
ENDBRANCH  14  15
ENDBRANCH  13  14
ENDBRANCH  12  13
ENDBRANCH  11  12
ENDBRANCH  10  11
ENDBRANCH   9  10
ENDBRANCH   8   9
ENDBRANCH   7   8
ENDBRANCH   6   7
ENDBRANCH   5   6
ENDBRANCH   4   5
ENDBRANCH   3   4
ENDBRANCH   2   3
ENDBRANCH   1   2
BRANCH   1  18
ATOM     18  C   UNL     1      -1.951  36.628  17.202  1.00  0.00     0.000 C 
BRANCH  18  19
ATOM     19  C   UNL     1      -0.642  37.378  17.527  1.00  0.00     0.000 C 
BRANCH  19  20
ATOM     20  C   UNL     1      -0.703  38.912  17.384  1.00  0.00     0.000 C 
BRANCH  20  21
ATOM     21  C   UNL     1      -1.967  39.456  16.694  1.00  0.00     0.000 C 
BRANCH  21  22
ATOM     22  C   UNL     1      -2.632  40.603  17.473  1.00  0.00     0.000 C 
BRANCH  22  23
ATOM     23  C   UNL     1      -2.066  40.760  18.902  1.00  0.00     0.000 C 
BRANCH  23  24
ATOM     24  C   UNL     1      -3.137  41.017  19.978  1.00  0.00    -0.000 C 
BRANCH  24  25
ATOM     25  C   UNL     1      -3.334  39.865  20.979  1.00  0.00    -0.000 C 
BRANCH  25  26
ATOM     26  C   UNL     1      -2.746  38.519  20.494  1.00  0.00    -0.000 C 
BRANCH  26  27
ATOM     27  C   UNL     1      -3.835  37.458  20.256  1.00  0.00    -0.000 C 
BRANCH  27  28
ATOM     28  C   UNL     1      -4.774  37.822  19.094  1.00  0.00    -0.000 C 
BRANCH  28  29
ATOM     29  C   UNL     1      -6.232  38.008  19.548  1.00  0.00    -0.000 C 
BRANCH  29  30
ATOM     30  C   UNL     1      -6.430  37.644  21.034  1.00  0.00    -0.000 C 
BRANCH  30  31
ATOM     31  C   UNL     1      -7.117  38.751  21.852  1.00  0.00    -0.003 C 
ATOM     32  C   UNL     1      -7.029  40.125  21.190  1.00  0.00     0.004 C 
ENDBRANCH  30  31
ENDBRANCH  29  30
ENDBRANCH  28  29
ENDBRANCH  27  28
ENDBRANCH  26  27
ENDBRANCH  25  26
ENDBRANCH  24  25
ENDBRANCH  23  24
ENDBRANCH  22  23
ENDBRANCH  21  22
ENDBRANCH  20  21
ENDBRANCH  19  20
ENDBRANCH  18  19
ENDBRANCH   1  18
TORSDOF 28
ENDMDL
MODEL 3
REMARK VINA RESULT:    -4.922      1.462      2.947
REMARK INTER + INTRA:         -15.534
REMARK INTER:                 -12.999
REMARK INTRA:                  -2.535
REMARK UNBOUND:                -2.555
REMARK SMILES CCCCCCCCCCCCCCCCCCCCCCCCCCCCCC(=O)[O-]
REMARK SMILES IDX 16 1 17 2 18 3 19 4 20 5 21 6 22 7 23 8 24 9 25 10 26 11
REMARK SMILES IDX 27 12 28 13 29 14 30 15 31 16 32 17 15 18 14 19 13 20 12 21
REMARK SMILES IDX 11 22 10 23 9 24 8 25 7 26 6 27 5 28 4 29 3 30 2 31 1 32
REMARK H PARENT
REMARK Flexibility Score: inf
ROOT
ATOM      1  C   UNL     1      -1.284  33.623  17.363  1.00  0.00     0.000 C 
ENDROOT
BRANCH   1   2
ATOM      2  C   UNL     1      -0.388  32.497  17.907  1.00  0.00     0.000 C 
BRANCH   2   3
ATOM      3  C   UNL     1      -0.380  31.259  16.995  1.00  0.00     0.000 C 
BRANCH   3   4
ATOM      4  C   UNL     1       1.006  30.588  16.909  1.00  0.00     0.000 C 
BRANCH   4   5
ATOM      5  C   UNL     1       0.936  29.165  16.331  1.00  0.00     0.000 C 
BRANCH   5   6
ATOM      6  C   UNL     1      -0.034  28.255  17.106  1.00  0.00     0.000 C 
BRANCH   6   7
ATOM      7  C   UNL     1       0.383  26.773  17.063  1.00  0.00     0.000 C 
BRANCH   7   8
ATOM      8  C   UNL     1      -0.781  25.782  16.870  1.00  0.00     0.000 C 
BRANCH   8   9
ATOM      9  C   UNL     1      -0.406  24.341  17.258  1.00  0.00     0.000 C 
BRANCH   9  10
ATOM     10  C   UNL     1      -1.628  23.528  17.737  1.00  0.00     0.000 C 
BRANCH  10  11
ATOM     11  C   UNL     1      -2.125  23.911  19.145  1.00  0.00     0.000 C 
BRANCH  11  12
ATOM     12  C   UNL     1      -1.664  22.977  20.275  1.00  0.00     0.000 C 
BRANCH  12  13
ATOM     13  C   UNL     1      -1.043  23.738  21.460  1.00  0.00     0.006 C 
BRANCH  13  14
ATOM     14  C   UNL     1      -1.370  25.236  21.419  1.00  0.00     0.053 C 
BRANCH  14  15
ATOM     15  C   UNL     1      -0.257  26.025  20.800  1.00  0.00     0.041 C 
ATOM     16  O   UNL     1      -0.392  27.261  20.602  1.00  0.00    -0.550 OA
ATOM     17  O   UNL     1       0.911  25.389  20.399  1.00  0.00    -0.550 OA
ENDBRANCH  14  15
ENDBRANCH  13  14
ENDBRANCH  12  13
ENDBRANCH  11  12
ENDBRANCH  10  11
ENDBRANCH   9  10
ENDBRANCH   8   9
ENDBRANCH   7   8
ENDBRANCH   6   7
ENDBRANCH   5   6
ENDBRANCH   4   5
ENDBRANCH   3   4
ENDBRANCH   2   3
ENDBRANCH   1   2
BRANCH   1  18
ATOM     18  C   UNL     1      -0.558  34.528  16.351  1.00  0.00     0.000 C 
BRANCH  18  19
ATOM     19  C   UNL     1      -0.356  35.990  16.802  1.00  0.00     0.000 C 
BRANCH  19  20
ATOM     20  C   UNL     1      -1.501  36.589  17.644  1.00  0.00     0.000 C 
BRANCH  20  21
ATOM     21  C   UNL     1      -2.753  37.001  16.849  1.00  0.00     0.000 C 
BRANCH  21  22
ATOM     22  C   UNL     1      -2.890  38.524  16.688  1.00  0.00     0.000 C 
BRANCH  22  23
ATOM     23  C   UNL     1      -2.153  39.310  17.796  1.00  0.00     0.000 C 
BRANCH  23  24
ATOM     24  C   UNL     1      -3.072  40.196  18.656  1.00  0.00    -0.000 C 
BRANCH  24  25
ATOM     25  C   UNL     1      -3.937  39.432  19.674  1.00  0.00    -0.000 C 
BRANCH  25  26
ATOM     26  C   UNL     1      -3.144  38.388  20.496  1.00  0.00    -0.000 C 
BRANCH  26  27
ATOM     27  C   UNL     1      -3.780  36.988  20.429  1.00  0.00    -0.000 C 
BRANCH  27  28
ATOM     28  C   UNL     1      -5.271  36.995  20.802  1.00  0.00    -0.000 C 
BRANCH  28  29
ATOM     29  C   UNL     1      -5.500  37.002  22.323  1.00  0.00    -0.000 C 
BRANCH  29  30
ATOM     30  C   UNL     1      -6.749  37.817  22.720  1.00  0.00    -0.000 C 
BRANCH  30  31
ATOM     31  C   UNL     1      -6.644  39.311  22.366  1.00  0.00    -0.003 C 
ATOM     32  C   UNL     1      -7.418  39.681  21.102  1.00  0.00     0.004 C 
ENDBRANCH  30  31
ENDBRANCH  29  30
ENDBRANCH  28  29
ENDBRANCH  27  28
ENDBRANCH  26  27
ENDBRANCH  25  26
ENDBRANCH  24  25
ENDBRANCH  23  24
ENDBRANCH  22  23
ENDBRANCH  21  22
ENDBRANCH  20  21
ENDBRANCH  19  20
ENDBRANCH  18  19
ENDBRANCH   1  18
TORSDOF 28
ENDMDL
MODEL 4
REMARK VINA RESULT:    -4.759      3.602     11.999
REMARK INTER + INTRA:         -15.103
REMARK INTER:                 -12.342
REMARK INTRA:                  -2.761
REMARK UNBOUND:                -2.555
REMARK SMILES CCCCCCCCCCCCCCCCCCCCCCCCCCCCCC(=O)[O-]
REMARK SMILES IDX 16 1 17 2 18 3 19 4 20 5 21 6 22 7 23 8 24 9 25 10 26 11
REMARK SMILES IDX 27 12 28 13 29 14 30 15 31 16 32 17 15 18 14 19 13 20 12 21
REMARK SMILES IDX 11 22 10 23 9 24 8 25 7 26 6 27 5 28 4 29 3 30 2 31 1 32
REMARK H PARENT
REMARK Flexibility Score: inf
ROOT
ATOM      1  C   UNL     1      -0.679  32.269  17.919  1.00  0.00     0.000 C 
ENDROOT
BRANCH   1   2
ATOM      2  C   UNL     1      -0.635  33.284  16.764  1.00  0.00     0.000 C 
BRANCH   2   3
ATOM      3  C   UNL     1      -1.385  34.585  17.096  1.00  0.00     0.000 C 
BRANCH   3   4
ATOM      4  C   UNL     1      -0.885  35.790  16.274  1.00  0.00     0.000 C 
BRANCH   4   5
ATOM      5  C   UNL     1       0.029  36.720  17.090  1.00  0.00     0.000 C 
BRANCH   5   6
ATOM      6  C   UNL     1       0.613  37.868  16.247  1.00  0.00     0.000 C 
BRANCH   6   7
ATOM      7  C   UNL     1      -0.374  39.039  16.080  1.00  0.00     0.000 C 
BRANCH   7   8
ATOM      8  C   UNL     1      -0.941  39.596  17.400  1.00  0.00     0.000 C 
BRANCH   8   9
ATOM      9  C   UNL     1      -2.465  39.804  17.353  1.00  0.00     0.000 C 
BRANCH   9  10
ATOM     10  C   UNL     1      -3.202  38.591  16.746  1.00  0.00     0.000 C 
BRANCH  10  11
ATOM     11  C   UNL     1      -4.182  37.900  17.716  1.00  0.00     0.000 C 
BRANCH  11  12
ATOM     12  C   UNL     1      -3.971  38.233  19.202  1.00  0.00     0.000 C 
BRANCH  12  13
ATOM     13  C   UNL     1      -3.409  37.046  20.004  1.00  0.00     0.006 C 
BRANCH  13  14
ATOM     14  C   UNL     1      -4.348  36.623  21.141  1.00  0.00     0.053 C 
BRANCH  14  15
ATOM     15  C   UNL     1      -4.392  37.652  22.229  1.00  0.00     0.041 C 
ATOM     16  O   UNL     1      -5.331  38.491  22.269  1.00  0.00    -0.550 OA
ATOM     17  O   UNL     1      -3.374  37.716  23.172  1.00  0.00    -0.550 OA
ENDBRANCH  14  15
ENDBRANCH  13  14
ENDBRANCH  12  13
ENDBRANCH  11  12
ENDBRANCH  10  11
ENDBRANCH   9  10
ENDBRANCH   8   9
ENDBRANCH   7   8
ENDBRANCH   6   7
ENDBRANCH   5   6
ENDBRANCH   4   5
ENDBRANCH   3   4
ENDBRANCH   2   3
ENDBRANCH   1   2
BRANCH   1  18
ATOM     18  C   UNL     1      -0.621  30.808  17.434  1.00  0.00     0.000 C 
BRANCH  18  19
ATOM     19  C   UNL     1       0.756  30.340  16.920  1.00  0.00     0.000 C 
BRANCH  19  20
ATOM     20  C   UNL     1       0.829  28.870  16.460  1.00  0.00     0.000 C 
BRANCH  20  21
ATOM     21  C   UNL     1      -0.160  27.916  17.156  1.00  0.00     0.000 C 
BRANCH  21  22
ATOM     22  C   UNL     1      -0.713  26.833  16.216  1.00  0.00     0.000 C 
BRANCH  22  23
ATOM     23  C   UNL     1       0.105  25.523  16.268  1.00  0.00     0.000 C 
BRANCH  23  24
ATOM     24  C   UNL     1      -0.031  24.748  17.591  1.00  0.00    -0.000 C 
BRANCH  24  25
ATOM     25  C   UNL     1      -1.238  23.797  17.661  1.00  0.00    -0.000 C 
BRANCH  25  26
ATOM     26  C   UNL     1      -2.138  24.032  18.898  1.00  0.00    -0.000 C 
BRANCH  26  27
ATOM     27  C   UNL     1      -1.759  23.118  20.077  1.00  0.00    -0.000 C 
BRANCH  27  28
ATOM     28  C   UNL     1      -1.086  23.883  21.228  1.00  0.00    -0.000 C 
BRANCH  28  29
ATOM     29  C   UNL     1      -1.385  25.391  21.191  1.00  0.00    -0.000 C 
BRANCH  29  30
ATOM     30  C   UNL     1      -0.104  26.234  21.017  1.00  0.00    -0.000 C 
BRANCH  30  31
ATOM     31  C   UNL     1       1.171  25.388  20.855  1.00  0.00    -0.003 C 
ATOM     32  C   UNL     1       2.210  25.659  21.941  1.00  0.00     0.004 C 
ENDBRANCH  30  31
ENDBRANCH  29  30
ENDBRANCH  28  29
ENDBRANCH  27  28
ENDBRANCH  26  27
ENDBRANCH  25  26
ENDBRANCH  24  25
ENDBRANCH  23  24
ENDBRANCH  22  23
ENDBRANCH  21  22
ENDBRANCH  20  21
ENDBRANCH  19  20
ENDBRANCH  18  19
ENDBRANCH   1  18
TORSDOF 28
ENDMDL
MODEL 5
REMARK VINA RESULT:    -4.694     12.388     16.228
REMARK INTER + INTRA:         -14.933
REMARK INTER:                 -12.525
REMARK INTRA:                  -2.407
REMARK UNBOUND:                -2.555
REMARK SMILES CCCCCCCCCCCCCCCCCCCCCCCCCCCCCC(=O)[O-]
REMARK SMILES IDX 16 1 17 2 18 3 19 4 20 5 21 6 22 7 23 8 24 9 25 10 26 11
REMARK SMILES IDX 27 12 28 13 29 14 30 15 31 16 32 17 15 18 14 19 13 20 12 21
REMARK SMILES IDX 11 22 10 23 9 24 8 25 7 26 6 27 5 28 4 29 3 30 2 31 1 32
REMARK H PARENT
REMARK Flexibility Score: inf
ROOT
ATOM      1  C   UNL     1      -5.901  30.950  34.585  1.00  0.00     0.000 C 
ENDROOT
BRANCH   1   2
ATOM      2  C   UNL     1      -5.666  29.966  35.745  1.00  0.00     0.000 C 
BRANCH   2   3
ATOM      3  C   UNL     1      -5.852  28.500  35.319  1.00  0.00     0.000 C 
BRANCH   3   4
ATOM      4  C   UNL     1      -5.808  28.311  33.790  1.00  0.00     0.000 C 
BRANCH   4   5
ATOM      5  C   UNL     1      -5.436  26.875  33.384  1.00  0.00     0.000 C 
BRANCH   5   6
ATOM      6  C   UNL     1      -5.682  25.856  34.512  1.00  0.00     0.000 C 
BRANCH   6   7
ATOM      7  C   UNL     1      -6.267  24.530  33.992  1.00  0.00     0.000 C 
BRANCH   7   8
ATOM      8  C   UNL     1      -7.443  23.977  34.819  1.00  0.00     0.000 C 
BRANCH   8   9
ATOM      9  C   UNL     1      -7.109  22.644  35.512  1.00  0.00     0.000 C 
BRANCH   9  10
ATOM     10  C   UNL     1      -7.367  21.429  34.596  1.00  0.00     0.000 C 
BRANCH  10  11
ATOM     11  C   UNL     1      -8.573  21.599  33.650  1.00  0.00     0.000 C 
BRANCH  11  12
ATOM     12  C   UNL     1      -8.322  21.179  32.193  1.00  0.00     0.000 C 
BRANCH  12  13
ATOM     13  C   UNL     1      -6.834  21.236  31.805  1.00  0.00     0.006 C 
BRANCH  13  14
ATOM     14  C   UNL     1      -6.636  21.244  30.284  1.00  0.00     0.053 C 
BRANCH  14  15
ATOM     15  C   UNL     1      -5.926  22.481  29.828  1.00  0.00     0.041 C 
ATOM     16  O   UNL     1      -5.146  22.435  28.840  1.00  0.00    -0.550 OA
ATOM     17  O   UNL     1      -6.087  23.674  30.520  1.00  0.00    -0.550 OA
ENDBRANCH  14  15
ENDBRANCH  13  14
ENDBRANCH  12  13
ENDBRANCH  11  12
ENDBRANCH  10  11
ENDBRANCH   9  10
ENDBRANCH   8   9
ENDBRANCH   7   8
ENDBRANCH   6   7
ENDBRANCH   5   6
ENDBRANCH   4   5
ENDBRANCH   3   4
ENDBRANCH   2   3
ENDBRANCH   1   2
BRANCH   1  18
ATOM     18  C   UNL     1      -5.900  32.421  35.040  1.00  0.00     0.000 C 
BRANCH  18  19
ATOM     19  C   UNL     1      -7.225  33.179  34.818  1.00  0.00     0.000 C 
BRANCH  19  20
ATOM     20  C   UNL     1      -7.419  34.444  35.678  1.00  0.00     0.000 C 
BRANCH  20  21
ATOM     21  C   UNL     1      -6.127  35.212  36.013  1.00  0.00     0.000 C 
BRANCH  21  22
ATOM     22  C   UNL     1      -5.947  36.484  35.167  1.00  0.00     0.000 C 
BRANCH  22  23
ATOM     23  C   UNL     1      -4.852  37.420  35.724  1.00  0.00     0.000 C 
BRANCH  23  24
ATOM     24  C   UNL     1      -3.536  37.396  34.924  1.00  0.00    -0.000 C 
BRANCH  24  25
ATOM     25  C   UNL     1      -2.900  38.776  34.686  1.00  0.00    -0.000 C 
BRANCH  25  26
ATOM     26  C   UNL     1      -2.825  39.172  33.192  1.00  0.00    -0.000 C 
BRANCH  26  27
ATOM     27  C   UNL     1      -4.164  38.955  32.464  1.00  0.00    -0.000 C 
BRANCH  27  28
ATOM     28  C   UNL     1      -3.980  38.438  31.028  1.00  0.00    -0.000 C 
BRANCH  28  29
ATOM     29  C   UNL     1      -2.569  37.880  30.776  1.00  0.00    -0.000 C 
BRANCH  29  30
ATOM     30  C   UNL     1      -2.603  36.440  30.222  1.00  0.00    -0.000 C 
BRANCH  30  31
ATOM     31  C   UNL     1      -3.897  35.681  30.563  1.00  0.00    -0.003 C 
ATOM     32  C   UNL     1      -3.891  35.093  31.972  1.00  0.00     0.004 C 
ENDBRANCH  30  31
ENDBRANCH  29  30
ENDBRANCH  28  29
ENDBRANCH  27  28
ENDBRANCH  26  27
ENDBRANCH  25  26
ENDBRANCH  24  25
ENDBRANCH  23  24
ENDBRANCH  22  23
ENDBRANCH  21  22
ENDBRANCH  20  21
ENDBRANCH  19  20
ENDBRANCH  18  19
ENDBRANCH   1  18
TORSDOF 28
ENDMDL
MODEL 6
REMARK VINA RESULT:    -4.683      3.211     12.416
REMARK INTER + INTRA:         -14.903
REMARK INTER:                 -12.579
REMARK INTRA:                  -2.324
REMARK UNBOUND:                -2.555
REMARK SMILES CCCCCCCCCCCCCCCCCCCCCCCCCCCCCC(=O)[O-]
REMARK SMILES IDX 16 1 17 2 18 3 19 4 20 5 21 6 22 7 23 8 24 9 25 10 26 11
REMARK SMILES IDX 27 12 28 13 29 14 30 15 31 16 32 17 15 18 14 19 13 20 12 21
REMARK SMILES IDX 11 22 10 23 9 24 8 25 7 26 6 27 5 28 4 29 3 30 2 31 1 32
REMARK H PARENT
REMARK Flexibility Score: inf
ROOT
ATOM      1  C   UNL     1      -0.554  32.402  18.051  1.00  0.00     0.000 C 
ENDROOT
BRANCH   1   2
ATOM      2  C   UNL     1      -1.303  33.548  17.349  1.00  0.00     0.000 C 
BRANCH   2   3
ATOM      3  C   UNL     1      -0.353  34.645  16.838  1.00  0.00     0.000 C 
BRANCH   3   4
ATOM      4  C   UNL     1      -1.091  35.773  16.089  1.00  0.00     0.000 C 
BRANCH   4   5
ATOM      5  C   UNL     1      -0.778  37.164  16.665  1.00  0.00     0.000 C 
BRANCH   5   6
ATOM      6  C   UNL     1      -1.210  37.309  18.135  1.00  0.00     0.000 C 
BRANCH   6   7
ATOM      7  C   UNL     1      -1.295  38.780  18.584  1.00  0.00     0.000 C 
BRANCH   7   8
ATOM      8  C   UNL     1      -2.330  39.056  19.692  1.00  0.00     0.000 C 
BRANCH   8   9
ATOM      9  C   UNL     1      -3.610  39.724  19.158  1.00  0.00     0.000 C 
BRANCH   9  10
ATOM     10  C   UNL     1      -4.138  40.818  20.111  1.00  0.00     0.000 C 
BRANCH  10  11
ATOM     11  C   UNL     1      -4.168  40.400  21.595  1.00  0.00     0.000 C 
BRANCH  11  12
ATOM     12  C   UNL     1      -5.566  40.113  22.162  1.00  0.00     0.000 C 
BRANCH  12  13
ATOM     13  C   UNL     1      -5.582  38.917  23.131  1.00  0.00     0.006 C 
BRANCH  13  14
ATOM     14  C   UNL     1      -6.202  37.667  22.494  1.00  0.00     0.053 C 
BRANCH  14  15
ATOM     15  C   UNL     1      -5.184  36.876  21.732  1.00  0.00     0.041 C 
ATOM     16  O   UNL     1      -5.162  36.918  20.474  1.00  0.00    -0.550 OA
ATOM     17  O   UNL     1      -4.289  36.055  22.407  1.00  0.00    -0.550 OA
ENDBRANCH  14  15
ENDBRANCH  13  14
ENDBRANCH  12  13
ENDBRANCH  11  12
ENDBRANCH  10  11
ENDBRANCH   9  10
ENDBRANCH   8   9
ENDBRANCH   7   8
ENDBRANCH   6   7
ENDBRANCH   5   6
ENDBRANCH   4   5
ENDBRANCH   3   4
ENDBRANCH   2   3
ENDBRANCH   1   2
BRANCH   1  18
ATOM     18  C   UNL     1      -0.602  31.083  17.259  1.00  0.00     0.000 C 
BRANCH  18  19
ATOM     19  C   UNL     1       0.759  30.581  16.733  1.00  0.00     0.000 C 
BRANCH  19  20
ATOM     20  C   UNL     1       0.920  29.049  16.666  1.00  0.00     0.000 C 
BRANCH  20  21
ATOM     21  C   UNL     1      -0.322  28.240  17.083  1.00  0.00     0.000 C 
BRANCH  21  22
ATOM     22  C   UNL     1      -0.505  26.952  16.262  1.00  0.00     0.000 C 
BRANCH  22  23
ATOM     23  C   UNL     1       0.637  25.935  16.485  1.00  0.00     0.000 C 
BRANCH  23  24
ATOM     24  C   UNL     1       0.156  24.501  16.773  1.00  0.00    -0.000 C 
BRANCH  24  25
ATOM     25  C   UNL     1      -1.371  24.319  16.762  1.00  0.00    -0.000 C 
BRANCH  25  26
ATOM     26  C   UNL     1      -1.869  23.229  17.742  1.00  0.00    -0.000 C 
BRANCH  26  27
ATOM     27  C   UNL     1      -2.253  23.810  19.114  1.00  0.00    -0.000 C 
BRANCH  27  28
ATOM     28  C   UNL     1      -1.647  23.018  20.284  1.00  0.00    -0.000 C 
BRANCH  28  29
ATOM     29  C   UNL     1      -1.116  23.930  21.403  1.00  0.00    -0.000 C 
BRANCH  29  30
ATOM     30  C   UNL     1      -1.337  25.425  21.090  1.00  0.00    -0.000 C 
BRANCH  30  31
ATOM     31  C   UNL     1      -0.049  26.164  20.686  1.00  0.00    -0.003 C 
ATOM     32  C   UNL     1       1.173  25.250  20.633  1.00  0.00     0.004 C 
ENDBRANCH  30  31
ENDBRANCH  29  30
ENDBRANCH  28  29
ENDBRANCH  27  28
ENDBRANCH  26  27
ENDBRANCH  25  26
ENDBRANCH  24  25
ENDBRANCH  23  24
ENDBRANCH  22  23
ENDBRANCH  21  22
ENDBRANCH  20  21
ENDBRANCH  19  20
ENDBRANCH  18  19
ENDBRANCH   1  18
TORSDOF 28
ENDMDL
MODEL 7
REMARK VINA RESULT:    -4.680     12.116     15.902
REMARK INTER + INTRA:         -14.896
REMARK INTER:                 -12.399
REMARK INTRA:                  -2.497
REMARK UNBOUND:                -2.555
REMARK SMILES CCCCCCCCCCCCCCCCCCCCCCCCCCCCCC(=O)[O-]
REMARK SMILES IDX 16 1 17 2 18 3 19 4 20 5 21 6 22 7 23 8 24 9 25 10 26 11
REMARK SMILES IDX 27 12 28 13 29 14 30 15 31 16 32 17 15 18 14 19 13 20 12 21
REMARK SMILES IDX 11 22 10 23 9 24 8 25 7 26 6 27 5 28 4 29 3 30 2 31 1 32
REMARK H PARENT
REMARK Flexibility Score: inf
ROOT
ATOM      1  C   UNL     1      -5.542  31.039  34.744  1.00  0.00     0.000 C 
ENDROOT
BRANCH   1   2
ATOM      2  C   UNL     1      -5.676  29.958  35.831  1.00  0.00     0.000 C 
BRANCH   2   3
ATOM      3  C   UNL     1      -6.040  28.582  35.251  1.00  0.00     0.000 C 
BRANCH   3   4
ATOM      4  C   UNL     1      -6.004  28.554  33.709  1.00  0.00     0.000 C 
BRANCH   4   5
ATOM      5  C   UNL     1      -5.202  27.362  33.161  1.00  0.00     0.000 C 
BRANCH   5   6
ATOM      6  C   UNL     1      -5.101  26.201  34.166  1.00  0.00     0.000 C 
BRANCH   6   7
ATOM      7  C   UNL     1      -6.175  25.122  33.932  1.00  0.00     0.000 C 
BRANCH   7   8
ATOM      8  C   UNL     1      -6.714  24.461  35.215  1.00  0.00     0.000 C 
BRANCH   8   9
ATOM      9  C   UNL     1      -6.856  22.934  35.085  1.00  0.00     0.000 C 
BRANCH   9  10
ATOM     10  C   UNL     1      -5.658  22.297  34.349  1.00  0.00     0.000 C 
BRANCH  10  11
ATOM     11  C   UNL     1      -6.044  21.148  33.395  1.00  0.00     0.000 C 
BRANCH  11  12
ATOM     12  C   UNL     1      -7.459  21.242  32.801  1.00  0.00     0.000 C 
BRANCH  12  13
ATOM     13  C   UNL     1      -7.499  20.901  31.301  1.00  0.00     0.006 C 
BRANCH  13  14
ATOM     14  C   UNL     1      -7.684  22.150  30.431  1.00  0.00     0.053 C 
BRANCH  14  15
ATOM     15  C   UNL     1      -6.371  22.789  30.099  1.00  0.00     0.041 C 
ATOM     16  O   UNL     1      -6.023  23.854  30.675  1.00  0.00    -0.550 OA
ATOM     17  O   UNL     1      -5.552  22.237  29.123  1.00  0.00    -0.550 OA
ENDBRANCH  14  15
ENDBRANCH  13  14
ENDBRANCH  12  13
ENDBRANCH  11  12
ENDBRANCH  10  11
ENDBRANCH   9  10
ENDBRANCH   8   9
ENDBRANCH   7   8
ENDBRANCH   6   7
ENDBRANCH   5   6
ENDBRANCH   4   5
ENDBRANCH   3   4
ENDBRANCH   2   3
ENDBRANCH   1   2
BRANCH   1  18
ATOM     18  C   UNL     1      -6.455  32.253  34.992  1.00  0.00     0.000 C 
BRANCH  18  19
ATOM     19  C   UNL     1      -5.806  33.629  34.731  1.00  0.00     0.000 C 
BRANCH  19  20
ATOM     20  C   UNL     1      -6.011  34.681  35.839  1.00  0.00     0.000 C 
BRANCH  20  21
ATOM     21  C   UNL     1      -6.864  35.898  35.437  1.00  0.00     0.000 C 
BRANCH  21  22
ATOM     22  C   UNL     1      -6.190  37.241  35.767  1.00  0.00     0.000 C 
BRANCH  22  23
ATOM     23  C   UNL     1      -5.405  37.824  34.572  1.00  0.00     0.000 C 
BRANCH  23  24
ATOM     24  C   UNL     1      -4.017  37.190  34.360  1.00  0.00    -0.000 C 
BRANCH  24  25
ATOM     25  C   UNL     1      -3.410  37.419  32.965  1.00  0.00    -0.000 C 
BRANCH  25  26
ATOM     26  C   UNL     1      -3.746  36.296  31.955  1.00  0.00    -0.000 C 
BRANCH  26  27
ATOM     27  C   UNL     1      -2.872  36.368  30.690  1.00  0.00    -0.000 C 
BRANCH  27  28
ATOM     28  C   UNL     1      -2.241  37.755  30.484  1.00  0.00    -0.000 C 
BRANCH  28  29
ATOM     29  C   UNL     1      -2.967  38.581  29.409  1.00  0.00    -0.000 C 
BRANCH  29  30
ATOM     30  C   UNL     1      -3.317  40.001  29.904  1.00  0.00    -0.000 C 
BRANCH  30  31
ATOM     31  C   UNL     1      -4.656  40.076  30.657  1.00  0.00    -0.003 C 
ATOM     32  C   UNL     1      -4.527  40.706  32.043  1.00  0.00     0.004 C 
ENDBRANCH  30  31
ENDBRANCH  29  30
ENDBRANCH  28  29
ENDBRANCH  27  28
ENDBRANCH  26  27
ENDBRANCH  25  26
ENDBRANCH  24  25
ENDBRANCH  23  24
ENDBRANCH  22  23
ENDBRANCH  21  22
ENDBRANCH  20  21
ENDBRANCH  19  20
ENDBRANCH  18  19
ENDBRANCH   1  18
TORSDOF 28
ENDMDL
MODEL 8
REMARK VINA RESULT:    -4.601      7.126     12.697
REMARK INTER + INTRA:         -14.687
REMARK INTER:                 -11.355
REMARK INTRA:                  -3.332
REMARK UNBOUND:                -2.555
REMARK SMILES CCCCCCCCCCCCCCCCCCCCCCCCCCCCCC(=O)[O-]
REMARK SMILES IDX 16 1 17 2 18 3 19 4 20 5 21 6 22 7 23 8 24 9 25 10 26 11
REMARK SMILES IDX 27 12 28 13 29 14 30 15 31 16 32 17 15 18 14 19 13 20 12 21
REMARK SMILES IDX 11 22 10 23 9 24 8 25 7 26 6 27 5 28 4 29 3 30 2 31 1 32
REMARK H PARENT
REMARK Flexibility Score: inf
ROOT
ATOM      1  C   UNL     1      -3.631  40.052  26.866  1.00  0.00     0.000 C 
ENDROOT
BRANCH   1   2
ATOM      2  C   UNL     1      -4.877  40.089  25.964  1.00  0.00     0.000 C 
BRANCH   2   3
ATOM      3  C   UNL     1      -4.544  40.492  24.518  1.00  0.00     0.000 C 
BRANCH   3   4
ATOM      4  C   UNL     1      -3.380  39.674  23.922  1.00  0.00     0.000 C 
BRANCH   4   5
ATOM      5  C   UNL     1      -3.775  38.949  22.624  1.00  0.00     0.000 C 
BRANCH   5   6
ATOM      6  C   UNL     1      -4.327  37.535  22.877  1.00  0.00     0.000 C 
BRANCH   6   7
ATOM      7  C   UNL     1      -5.715  37.321  22.245  1.00  0.00     0.000 C 
BRANCH   7   8
ATOM      8  C   UNL     1      -6.842  38.170  22.865  1.00  0.00     0.000 C 
BRANCH   8   9
ATOM      9  C   UNL     1      -7.521  39.097  21.841  1.00  0.00     0.000 C 
BRANCH   9  10
ATOM     10  C   UNL     1      -6.729  39.187  20.519  1.00  0.00     0.000 C 
BRANCH  10  11
ATOM     11  C   UNL     1      -7.178  38.175  19.446  1.00  0.00     0.000 C 
BRANCH  11  12
ATOM     12  C   UNL     1      -6.094  37.776  18.432  1.00  0.00     0.000 C 
BRANCH  12  13
ATOM     13  C   UNL     1      -4.682  38.200  18.874  1.00  0.00     0.006 C 
BRANCH  13  14
ATOM     14  C   UNL     1      -3.645  37.996  17.762  1.00  0.00     0.053 C 
BRANCH  14  15
ATOM     15  C   UNL     1      -2.462  37.218  18.248  1.00  0.00     0.041 C 
ATOM     16  O   UNL     1      -1.859  37.573  19.296  1.00  0.00    -0.550 OA
ATOM     17  O   UNL     1      -1.994  36.131  17.522  1.00  0.00    -0.550 OA
ENDBRANCH  14  15
ENDBRANCH  13  14
ENDBRANCH  12  13
ENDBRANCH  11  12
ENDBRANCH  10  11
ENDBRANCH   9  10
ENDBRANCH   8   9
ENDBRANCH   7   8
ENDBRANCH   6   7
ENDBRANCH   5   6
ENDBRANCH   4   5
ENDBRANCH   3   4
ENDBRANCH   2   3
ENDBRANCH   1   2
BRANCH   1  18
ATOM     18  C   UNL     1      -3.763  40.956  28.106  1.00  0.00     0.000 C 
BRANCH  18  19
ATOM     19  C   UNL     1      -4.582  40.361  29.270  1.00  0.00     0.000 C 
BRANCH  19  20
ATOM     20  C   UNL     1      -3.756  39.738  30.413  1.00  0.00     0.000 C 
BRANCH  20  21
ATOM     21  C   UNL     1      -3.367  38.262  30.213  1.00  0.00     0.000 C 
BRANCH  21  22
ATOM     22  C   UNL     1      -1.899  37.972  30.563  1.00  0.00     0.000 C 
BRANCH  22  23
ATOM     23  C   UNL     1      -0.925  39.007  29.955  1.00  0.00     0.000 C 
BRANCH  23  24
ATOM     24  C   UNL     1       0.075  39.600  30.965  1.00  0.00    -0.000 C 
BRANCH  24  25
ATOM     25  C   UNL     1      -0.476  40.759  31.813  1.00  0.00    -0.000 C 
BRANCH  25  26
ATOM     26  C   UNL     1      -0.802  40.358  33.271  1.00  0.00    -0.000 C 
BRANCH  26  27
ATOM     27  C   UNL     1      -2.316  40.229  33.516  1.00  0.00    -0.000 C 
BRANCH  27  28
ATOM     28  C   UNL     1      -2.672  39.034  34.416  1.00  0.00    -0.000 C 
BRANCH  28  29
ATOM     29  C   UNL     1      -3.974  38.337  33.988  1.00  0.00    -0.000 C 
BRANCH  29  30
ATOM     30  C   UNL     1      -3.752  36.848  33.649  1.00  0.00    -0.000 C 
BRANCH  30  31
ATOM     31  C   UNL     1      -4.390  35.885  34.665  1.00  0.00    -0.003 C 
ATOM     32  C   UNL     1      -4.917  34.603  34.025  1.00  0.00     0.004 C 
ENDBRANCH  30  31
ENDBRANCH  29  30
ENDBRANCH  28  29
ENDBRANCH  27  28
ENDBRANCH  26  27
ENDBRANCH  25  26
ENDBRANCH  24  25
ENDBRANCH  23  24
ENDBRANCH  22  23
ENDBRANCH  21  22
ENDBRANCH  20  21
ENDBRANCH  19  20
ENDBRANCH  18  19
ENDBRANCH   1  18
TORSDOF 28
ENDMDL
MODEL 9
REMARK VINA RESULT:    -4.513      8.235     13.994
REMARK INTER + INTRA:         -14.456
REMARK INTER:                 -10.763
REMARK INTRA:                  -3.693
REMARK UNBOUND:                -2.555
REMARK SMILES CCCCCCCCCCCCCCCCCCCCCCCCCCCCCC(=O)[O-]
REMARK SMILES IDX 16 1 17 2 18 3 19 4 20 5 21 6 22 7 23 8 24 9 25 10 26 11
REMARK SMILES IDX 27 12 28 13 29 14 30 15 31 16 32 17 15 18 14 19 13 20 12 21
REMARK SMILES IDX 11 22 10 23 9 24 8 25 7 26 6 27 5 28 4 29 3 30 2 31 1 32
REMARK H PARENT
REMARK Flexibility Score: inf
ROOT
ATOM      1  C   UNL     1      -2.753  39.992  28.569  1.00  0.00     0.000 C 
ENDROOT
BRANCH   1   2
ATOM      2  C   UNL     1      -1.896  40.619  29.682  1.00  0.00     0.000 C 
BRANCH   2   3
ATOM      3  C   UNL     1      -0.574  39.863  29.902  1.00  0.00     0.000 C 
BRANCH   3   4
ATOM      4  C   UNL     1       0.046  40.135  31.287  1.00  0.00     0.000 C 
BRANCH   4   5
ATOM      5  C   UNL     1      -0.977  40.690  32.292  1.00  0.00     0.000 C 
BRANCH   5   6
ATOM      6  C   UNL     1      -0.729  40.194  33.728  1.00  0.00     0.000 C 
BRANCH   6   7
ATOM      7  C   UNL     1      -1.737  40.775  34.737  1.00  0.00     0.000 C 
BRANCH   7   8
ATOM      8  C   UNL     1      -2.325  39.748  35.723  1.00  0.00     0.000 C 
BRANCH   8   9
ATOM      9  C   UNL     1      -3.854  39.861  35.862  1.00  0.00     0.000 C 
BRANCH   9  10
ATOM     10  C   UNL     1      -4.596  39.282  34.638  1.00  0.00     0.000 C 
BRANCH  10  11
ATOM     11  C   UNL     1      -4.857  37.765  34.721  1.00  0.00     0.000 C 
BRANCH  11  12
ATOM     12  C   UNL     1      -4.155  36.923  33.644  1.00  0.00     0.000 C 
BRANCH  12  13
ATOM     13  C   UNL     1      -3.302  37.773  32.686  1.00  0.00     0.006 C 
BRANCH  13  14
ATOM     14  C   UNL     1      -3.834  37.731  31.248  1.00  0.00     0.053 C 
BRANCH  14  15
ATOM     15  C   UNL     1      -3.239  36.594  30.475  1.00  0.00     0.041 C 
ATOM     16  O   UNL     1      -3.867  35.508  30.364  1.00  0.00    -0.550 OA
ATOM     17  O   UNL     1      -1.974  36.716  29.916  1.00  0.00    -0.550 OA
ENDBRANCH  14  15
ENDBRANCH  13  14
ENDBRANCH  12  13
ENDBRANCH  11  12
ENDBRANCH  10  11
ENDBRANCH   9  10
ENDBRANCH   8   9
ENDBRANCH   7   8
ENDBRANCH   6   7
ENDBRANCH   5   6
ENDBRANCH   4   5
ENDBRANCH   3   4
ENDBRANCH   2   3
ENDBRANCH   1   2
BRANCH   1  18
ATOM     18  C   UNL     1      -4.233  40.410  28.648  1.00  0.00     0.000 C 
BRANCH  18  19
ATOM     19  C   UNL     1      -4.890  40.764  27.297  1.00  0.00     0.000 C 
BRANCH  19  20
ATOM     20  C   UNL     1      -4.079  40.379  26.044  1.00  0.00     0.000 C 
BRANCH  20  21
ATOM     21  C   UNL     1      -4.909  40.178  24.762  1.00  0.00     0.000 C 
BRANCH  21  22
ATOM     22  C   UNL     1      -4.157  40.592  23.487  1.00  0.00     0.000 C 
BRANCH  22  23
ATOM     23  C   UNL     1      -2.644  40.293  23.562  1.00  0.00     0.000 C 
BRANCH  23  24
ATOM     24  C   UNL     1      -2.202  39.069  22.738  1.00  0.00    -0.000 C 
BRANCH  24  25
ATOM     25  C   UNL     1      -3.312  38.433  21.883  1.00  0.00    -0.000 C 
BRANCH  25  26
ATOM     26  C   UNL     1      -2.918  38.250  20.398  1.00  0.00    -0.000 C 
BRANCH  26  27
ATOM     27  C   UNL     1      -3.661  39.232  19.473  1.00  0.00    -0.000 C 
BRANCH  27  28
ATOM     28  C   UNL     1      -5.035  39.643  20.026  1.00  0.00    -0.000 C 
BRANCH  28  29
ATOM     29  C   UNL     1      -6.145  38.645  19.655  1.00  0.00    -0.000 C 
BRANCH  29  30
ATOM     30  C   UNL     1      -7.425  38.861  20.490  1.00  0.00    -0.000 C 
BRANCH  30  31
ATOM     31  C   UNL     1      -7.158  38.995  21.999  1.00  0.00    -0.003 C 
ATOM     32  C   UNL     1      -6.801  37.666  22.663  1.00  0.00     0.004 C 
ENDBRANCH  30  31
ENDBRANCH  29  30
ENDBRANCH  28  29
ENDBRANCH  27  28
ENDBRANCH  26  27
ENDBRANCH  25  26
ENDBRANCH  24  25
ENDBRANCH  23  24
ENDBRANCH  22  23
ENDBRANCH  21  22
ENDBRANCH  20  21
ENDBRANCH  19  20
ENDBRANCH  18  19
ENDBRANCH   1  18
TORSDOF 28
ENDMDL
