MODEL 1
REMARK VINA RESULT:    -5.501      0.000      0.000
REMARK INTER + INTRA:          -5.661
REMARK INTER:                  -5.661
REMARK INTRA:                   0.000
REMARK UNBOUND:                 0.000
REMARK SMILES O=c1ccc2ccc(O)cc2o1
REMARK SMILES IDX 6 1 7 2 8 3 10 4 11 5 5 6 4 7 3 8 2 9 1 10 12 11 9 12
REMARK H PARENT 9 13
REMARK Flexibility Score: inf
ROOT
ATOM      1  C   UNL     1     -11.775  26.469 -18.959  1.00  0.00     0.016 A 
ATOM      2  C   UNL     1     -11.298  27.238 -17.893  1.00  0.00     0.047 A 
ATOM      3  C   UNL     1     -12.158  28.113 -17.210  1.00  0.00     0.119 A 
ATOM      4  C   UNL     1     -13.499  28.216 -17.598  1.00  0.00     0.094 A 
ATOM      5  C   UNL     1     -13.985  27.450 -18.663  1.00  0.00     0.142 A 
ATOM      6  C   UNL     1     -13.117  26.570 -19.348  1.00  0.00     0.018 A 
ATOM      7  C   UNL     1     -13.632  25.819 -20.409  1.00  0.00     0.019 A 
ATOM      8  C   UNL     1     -14.975  25.956 -20.758  1.00  0.00     0.094 A 
ATOM      9  C   UNL     1     -15.776  26.847 -20.034  1.00  0.00     0.336 A 
ATOM     10  O   UNL     1     -16.990  26.986 -20.333  1.00  0.00    -0.246 OA
ATOM     11  O   UNL     1     -15.261  27.551 -19.029  1.00  0.00    -0.423 OA
ENDROOT
BRANCH   3  12
ATOM     12  O   UNL     1     -11.690  28.882 -16.147  1.00  0.00    -0.508 OA
ATOM     13  H   UNL     1     -10.769  29.305 -16.165  1.00  0.00     0.293 HD
ENDBRANCH   3  12
TORSDOF 1
ENDMDL
MODEL 2
REMARK VINA RESULT:    -5.385      9.568     11.507
REMARK INTER + INTRA:          -5.543
REMARK INTER:                  -5.543
REMARK INTRA:                   0.000
REMARK UNBOUND:                 0.000
REMARK SMILES O=c1ccc2ccc(O)cc2o1
REMARK SMILES IDX 6 1 7 2 8 3 10 4 11 5 5 6 4 7 3 8 2 9 1 10 12 11 9 12
REMARK H PARENT 9 13
REMARK Flexibility Score: inf
ROOT
ATOM      1  C   UNL     1     -13.847  24.009 -29.892  1.00  0.00     0.016 A 
ATOM      2  C   UNL     1     -13.978  24.859 -28.789  1.00  0.00     0.047 A 
ATOM      3  C   UNL     1     -14.717  24.454 -27.667  1.00  0.00     0.119 A 
ATOM      4  C   UNL     1     -15.327  23.193 -27.651  1.00  0.00     0.094 A 
ATOM      5  C   UNL     1     -15.201  22.337 -28.750  1.00  0.00     0.142 A 
ATOM      6  C   UNL     1     -14.456  22.747 -29.878  1.00  0.00     0.018 A 
ATOM      7  C   UNL     1     -14.349  21.869 -30.961  1.00  0.00     0.019 A 
ATOM      8  C   UNL     1     -14.974  20.624 -30.898  1.00  0.00     0.094 A 
ATOM      9  C   UNL     1     -15.696  20.285 -29.747  1.00  0.00     0.336 A 
ATOM     10  O   UNL     1     -16.267  19.167 -29.671  1.00  0.00    -0.246 OA
ATOM     11  O   UNL     1     -15.782  21.139 -28.731  1.00  0.00    -0.423 OA
ENDROOT
BRANCH   3  12
ATOM     12  O   UNL     1     -14.851  25.295 -26.564  1.00  0.00    -0.508 OA
ATOM     13  H   UNL     1     -15.665  25.252 -25.962  1.00  0.00     0.293 HD
ENDBRANCH   3  12
TORSDOF 1
ENDMDL
MODEL 3
REMARK VINA RESULT:    -5.379      9.679     12.135
REMARK INTER + INTRA:          -5.536
REMARK INTER:                  -5.536
REMARK INTRA:                   0.000
REMARK UNBOUND:                 0.000
REMARK SMILES O=c1ccc2ccc(O)cc2o1
REMARK SMILES IDX 6 1 7 2 8 3 10 4 11 5 5 6 4 7 3 8 2 9 1 10 12 11 9 12
REMARK H PARENT 9 13
REMARK Flexibility Score: inf
ROOT
ATOM      1  C   UNL     1     -14.402  22.105 -31.163  1.00  0.00     0.016 A 
ATOM      2  C   UNL     1     -15.022  20.852 -31.194  1.00  0.00     0.047 A 
ATOM      3  C   UNL     1     -15.707  20.373 -30.066  1.00  0.00     0.119 A 
ATOM      4  C   UNL     1     -15.770  21.152 -28.905  1.00  0.00     0.094 A 
ATOM      5  C   UNL     1     -15.152  22.407 -28.865  1.00  0.00     0.142 A 
ATOM      6  C   UNL     1     -14.464  22.888 -30.002  1.00  0.00     0.018 A 
ATOM      7  C   UNL     1     -13.857  24.145 -29.931  1.00  0.00     0.019 A 
ATOM      8  C   UNL     1     -13.947  24.884 -28.752  1.00  0.00     0.094 A 
ATOM      9  C   UNL     1     -14.645  24.345 -27.665  1.00  0.00     0.336 A 
ATOM     10  O   UNL     1     -14.738  24.996 -26.593  1.00  0.00    -0.246 OA
ATOM     11  O   UNL     1     -15.214  23.145 -27.759  1.00  0.00    -0.423 OA
ENDROOT
BRANCH   3  12
ATOM     12  O   UNL     1     -16.327  19.126 -30.090  1.00  0.00    -0.508 OA
ATOM     13  H   UNL     1     -16.578  18.644 -29.234  1.00  0.00     0.293 HD
ENDBRANCH   3  12
TORSDOF 1
ENDMDL
MODEL 4
REMARK VINA RESULT:    -5.371      3.182      3.839
REMARK INTER + INTRA:          -5.528
REMARK INTER:                  -5.528
REMARK INTRA:                   0.000
REMARK UNBOUND:                 0.000
REMARK SMILES O=c1ccc2ccc(O)cc2o1
REMARK SMILES IDX 6 1 7 2 8 3 10 4 11 5 5 6 4 7 3 8 2 9 1 10 12 11 9 12
REMARK H PARENT 9 13
REMARK Flexibility Score: inf
ROOT
ATOM      1  C   UNL     1     -11.001  27.375 -20.489  1.00  0.00     0.016 A 
ATOM      2  C   UNL     1     -11.664  27.377 -19.258  1.00  0.00     0.047 A 
ATOM      3  C   UNL     1     -12.837  26.625 -19.084  1.00  0.00     0.119 A 
ATOM      4  C   UNL     1     -13.346  25.869 -20.147  1.00  0.00     0.094 A 
ATOM      5  C   UNL     1     -12.689  25.862 -21.382  1.00  0.00     0.142 A 
ATOM      6  C   UNL     1     -11.508  26.619 -21.555  1.00  0.00     0.018 A 
ATOM      7  C   UNL     1     -10.875  26.591 -22.801  1.00  0.00     0.019 A 
ATOM      8  C   UNL     1     -11.420  25.823 -23.829  1.00  0.00     0.094 A 
ATOM      9  C   UNL     1     -12.592  25.098 -23.586  1.00  0.00     0.336 A 
ATOM     10  O   UNL     1     -13.100  24.399 -24.501  1.00  0.00    -0.246 OA
ATOM     11  O   UNL     1     -13.175  25.142 -22.391  1.00  0.00    -0.423 OA
ENDROOT
BRANCH   3  12
ATOM     12  O   UNL     1     -13.503  26.622 -17.860  1.00  0.00    -0.508 OA
ATOM     13  H   UNL     1     -13.629  25.768 -17.329  1.00  0.00     0.293 HD
ENDBRANCH   3  12
TORSDOF 1
ENDMDL
MODEL 5
REMARK VINA RESULT:    -5.048      2.460      3.148
REMARK INTER + INTRA:          -5.196
REMARK INTER:                  -5.196
REMARK INTRA:                   0.000
REMARK UNBOUND:                 0.000
REMARK SMILES O=c1ccc2ccc(O)cc2o1
REMARK SMILES IDX 6 1 7 2 8 3 10 4 11 5 5 6 4 7 3 8 2 9 1 10 12 11 9 12
REMARK H PARENT 9 13
REMARK Flexibility Score: inf
ROOT
ATOM      1  C   UNL     1     -14.345  26.995 -18.937  1.00  0.00     0.016 A 
ATOM      2  C   UNL     1     -13.855  27.747 -17.865  1.00  0.00     0.047 A 
ATOM      3  C   UNL     1     -12.502  28.118 -17.820  1.00  0.00     0.119 A 
ATOM      4  C   UNL     1     -11.639  27.735 -18.854  1.00  0.00     0.094 A 
ATOM      5  C   UNL     1     -12.121  26.983 -19.931  1.00  0.00     0.142 A 
ATOM      6  C   UNL     1     -13.483  26.611 -19.974  1.00  0.00     0.018 A 
ATOM      7  C   UNL     1     -13.935  25.859 -21.062  1.00  0.00     0.019 A 
ATOM      8  C   UNL     1     -13.037  25.502 -22.068  1.00  0.00     0.094 A 
ATOM      9  C   UNL     1     -11.701  25.906 -21.959  1.00  0.00     0.336 A 
ATOM     10  O   UNL     1     -10.876  25.593 -22.856  1.00  0.00    -0.246 OA
ATOM     11  O   UNL     1     -11.297  26.620 -20.912  1.00  0.00    -0.423 OA
ENDROOT
BRANCH   3  12
ATOM     12  O   UNL     1     -12.006  28.867 -16.756  1.00  0.00    -0.508 OA
ATOM     13  H   UNL     1     -11.957  28.485 -15.818  1.00  0.00     0.293 HD
ENDBRANCH   3  12
TORSDOF 1
ENDMDL
MODEL 6
REMARK VINA RESULT:    -4.920     11.856     13.191
REMARK INTER + INTRA:          -5.064
REMARK INTER:                  -5.064
REMARK INTRA:                   0.000
REMARK UNBOUND:                 0.000
REMARK SMILES O=c1ccc2ccc(O)cc2o1
REMARK SMILES IDX 6 1 7 2 8 3 10 4 11 5 5 6 4 7 3 8 2 9 1 10 12 11 9 12
REMARK H PARENT 9 13
REMARK Flexibility Score: inf
ROOT
ATOM      1  C   UNL     1     -24.505  28.042 -20.316  1.00  0.00     0.016 A 
ATOM      2  C   UNL     1     -25.071  27.340 -21.384  1.00  0.00     0.047 A 
ATOM      3  C   UNL     1     -26.436  27.012 -21.372  1.00  0.00     0.119 A 
ATOM      4  C   UNL     1     -27.235  27.391 -20.286  1.00  0.00     0.094 A 
ATOM      5  C   UNL     1     -26.676  28.094 -19.213  1.00  0.00     0.142 A 
ATOM      6  C   UNL     1     -25.302  28.423 -19.228  1.00  0.00     0.018 A 
ATOM      7  C   UNL     1     -24.773  29.125 -18.141  1.00  0.00     0.019 A 
ATOM      8  C   UNL     1     -25.609  29.481 -17.083  1.00  0.00     0.094 A 
ATOM      9  C   UNL     1     -26.961  29.122 -17.136  1.00  0.00     0.336 A 
ATOM     10  O   UNL     1     -27.731  29.433 -16.191  1.00  0.00    -0.246 OA
ATOM     11  O   UNL     1     -27.439  28.452 -18.183  1.00  0.00    -0.423 OA
ENDROOT
BRANCH   3  12
ATOM     12  O   UNL     1     -27.007  26.313 -22.433  1.00  0.00    -0.508 OA
ATOM     13  H   UNL     1     -26.450  25.994 -23.217  1.00  0.00     0.293 HD
ENDBRANCH   3  12
TORSDOF 1
ENDMDL
MODEL 7
REMARK VINA RESULT:    -4.830     11.112     13.500
REMARK INTER + INTRA:          -4.971
REMARK INTER:                  -4.971
REMARK INTRA:                   0.000
REMARK UNBOUND:                 0.000
REMARK SMILES O=c1ccc2ccc(O)cc2o1
REMARK SMILES IDX 6 1 7 2 8 3 10 4 11 5 5 6 4 7 3 8 2 9 1 10 12 11 9 12
REMARK H PARENT 9 13
REMARK Flexibility Score: inf
ROOT
ATOM      1  C   UNL     1     -26.605  26.942 -21.483  1.00  0.00     0.016 A 
ATOM      2  C   UNL     1     -25.223  27.142 -21.552  1.00  0.00     0.047 A 
ATOM      3  C   UNL     1     -24.559  27.849 -20.537  1.00  0.00     0.119 A 
ATOM      4  C   UNL     1     -25.283  28.356 -19.451  1.00  0.00     0.094 A 
ATOM      5  C   UNL     1     -26.666  28.160 -19.375  1.00  0.00     0.142 A 
ATOM      6  C   UNL     1     -27.332  27.448 -20.397  1.00  0.00     0.018 A 
ATOM      7  C   UNL     1     -28.715  27.269 -20.293  1.00  0.00     0.019 A 
ATOM      8  C   UNL     1     -29.392  27.793 -19.192  1.00  0.00     0.094 A 
ATOM      9  C   UNL     1     -28.667  28.488 -18.218  1.00  0.00     0.336 A 
ATOM     10  O   UNL     1     -29.260  28.969 -17.217  1.00  0.00    -0.246 OA
ATOM     11  O   UNL     1     -27.351  28.644 -18.341  1.00  0.00    -0.423 OA
ENDROOT
BRANCH   3  12
ATOM     12  O   UNL     1     -23.182  28.052 -20.598  1.00  0.00    -0.508 OA
ATOM     13  H   UNL     1     -22.709  28.214 -21.480  1.00  0.00     0.293 HD
ENDBRANCH   3  12
TORSDOF 1
ENDMDL
MODEL 8
REMARK VINA RESULT:    -4.777     11.205     13.606
REMARK INTER + INTRA:          -4.916
REMARK INTER:                  -4.916
REMARK INTRA:                   0.000
REMARK UNBOUND:                 0.000
REMARK SMILES O=c1ccc2ccc(O)cc2o1
REMARK SMILES IDX 6 1 7 2 8 3 10 4 11 5 5 6 4 7 3 8 2 9 1 10 12 11 9 12
REMARK H PARENT 9 13
REMARK Flexibility Score: inf
ROOT
ATOM      1  C   UNL     1     -26.404  28.269 -18.723  1.00  0.00     0.016 A 
ATOM      2  C   UNL     1     -25.039  28.272 -19.028  1.00  0.00     0.047 A 
ATOM      3  C   UNL     1     -24.592  27.812 -20.277  1.00  0.00     0.119 A 
ATOM      4  C   UNL     1     -25.516  27.349 -21.221  1.00  0.00     0.094 A 
ATOM      5  C   UNL     1     -26.883  27.342 -20.924  1.00  0.00     0.142 A 
ATOM      6  C   UNL     1     -27.331  27.806 -19.667  1.00  0.00     0.018 A 
ATOM      7  C   UNL     1     -28.703  27.787 -19.399  1.00  0.00     0.019 A 
ATOM      8  C   UNL     1     -29.584  27.316 -20.372  1.00  0.00     0.094 A 
ATOM      9  C   UNL     1     -29.069  26.872 -21.596  1.00  0.00     0.336 A 
ATOM     10  O   UNL     1     -29.848  26.444 -22.486  1.00  0.00    -0.246 OA
ATOM     11  O   UNL     1     -27.759  26.901 -21.825  1.00  0.00    -0.423 OA
ENDROOT
BRANCH   3  12
ATOM     12  O   UNL     1     -23.235  27.812 -20.588  1.00  0.00    -0.508 OA
ATOM     13  H   UNL     1     -22.819  28.552 -21.143  1.00  0.00     0.293 HD
ENDBRANCH   3  12
TORSDOF 1
ENDMDL
