MODEL 1
REMARK VINA RESULT:    -2.228      0.000      0.000
REMARK INTER + INTRA:          -6.020
REMARK INTER:                  -4.051
REMARK INTRA:                  -1.969
REMARK UNBOUND:                -1.969
REMARK SMILES CCCCCCCCCCCCCCCC(=O)[O-]
REMARK SMILES IDX 9 1 10 2 11 3 12 4 13 5 14 6 15 7 16 8 17 9 18 10 8 11 7 12
REMARK SMILES IDX 6 13 5 14 4 15 3 16 2 17 1 18
REMARK H PARENT
REMARK Flexibility Score: inf
ROOT
ATOM      1  C   UNL     1      21.603 -15.459  14.141  1.00  0.00     0.000 C 
ENDROOT
BRANCH   1   2
ATOM      2  C   UNL     1      22.969 -15.910  13.600  1.00  0.00     0.000 C 
BRANCH   2   3
ATOM      3  C   UNL     1      23.125 -17.438  13.580  1.00  0.00     0.000 C 
BRANCH   3   4
ATOM      4  C   UNL     1      22.074 -18.086  12.665  1.00  0.00     0.000 C 
BRANCH   4   5
ATOM      5  C   UNL     1      22.381 -17.884  11.173  1.00  0.00     0.000 C 
BRANCH   5   6
ATOM      6  C   UNL     1      21.111 -17.794  10.313  1.00  0.00     0.006 C 
BRANCH   6   7
ATOM      7  C   UNL     1      19.889 -17.467  11.176  1.00  0.00     0.053 C 
BRANCH   7   8
ATOM      8  C   UNL     1      18.731 -17.070  10.316  1.00  0.00     0.041 C 
ATOM      9  O   UNL     1      17.753 -17.850  10.171  1.00  0.00    -0.550 OA
ATOM     10  O   UNL     1      18.708 -15.818   9.716  1.00  0.00    -0.550 OA
ENDBRANCH   7   8
ENDBRANCH   6   7
ENDBRANCH   5   6
ENDBRANCH   4   5
ENDBRANCH   3   4
ENDBRANCH   2   3
ENDBRANCH   1   2
BRANCH   1  11
ATOM     11  C   UNL     1      21.706 -14.796  15.526  1.00  0.00     0.000 C 
BRANCH  11  12
ATOM     12  C   UNL     1      20.977 -15.591  16.624  1.00  0.00    -0.000 C 
BRANCH  12  13
ATOM     13  C   UNL     1      21.475 -17.037  16.831  1.00  0.00    -0.000 C 
BRANCH  13  14
ATOM     14  C   UNL     1      20.391 -18.125  16.726  1.00  0.00    -0.000 C 
BRANCH  14  15
ATOM     15  C   UNL     1      18.978 -17.546  16.561  1.00  0.00    -0.000 C 
BRANCH  15  16
ATOM     16  C   UNL     1      18.390 -17.917  15.191  1.00  0.00    -0.000 C 
BRANCH  16  17
ATOM     17  C   UNL     1      17.472 -16.823  14.627  1.00  0.00    -0.003 C 
ATOM     18  C   UNL     1      18.238 -15.741  13.867  1.00  0.00     0.004 C 
ENDBRANCH  16  17
ENDBRANCH  15  16
ENDBRANCH  14  15
ENDBRANCH  13  14
ENDBRANCH  12  13
ENDBRANCH  11  12
ENDBRANCH   1  11
TORSDOF 14
ENDMDL
MODEL 2
REMARK VINA RESULT:    -2.223      2.858      5.158
REMARK INTER + INTRA:          -6.012
REMARK INTER:                  -4.390
REMARK INTRA:                  -1.622
REMARK UNBOUND:                -1.969
REMARK SMILES CCCCCCCCCCCCCCCC(=O)[O-]
REMARK SMILES IDX 9 1 10 2 11 3 12 4 13 5 14 6 15 7 16 8 17 9 18 10 8 11 7 12
REMARK SMILES IDX 6 13 5 14 4 15 3 16 2 17 1 18
REMARK H PARENT
REMARK Flexibility Score: inf
ROOT
ATOM      1  C   UNL     1      19.280 -16.641  10.350  1.00  0.00     0.000 C 
ENDROOT
BRANCH   1   2
ATOM      2  C   UNL     1      19.940 -17.991  10.670  1.00  0.00     0.000 C 
BRANCH   2   3
ATOM      3  C   UNL     1      21.409 -17.848  11.097  1.00  0.00     0.000 C 
BRANCH   3   4
ATOM      4  C   UNL     1      21.518 -17.152  12.463  1.00  0.00     0.000 C 
BRANCH   4   5
ATOM      5  C   UNL     1      20.821 -17.936  13.586  1.00  0.00     0.000 C 
BRANCH   5   6
ATOM      6  C   UNL     1      21.624 -17.934  14.896  1.00  0.00     0.006 C 
BRANCH   6   7
ATOM      7  C   UNL     1      22.645 -16.792  14.910  1.00  0.00     0.053 C 
BRANCH   7   8
ATOM      8  C   UNL     1      22.157 -15.664  15.763  1.00  0.00     0.041 C 
ATOM      9  O   UNL     1      22.361 -14.472  15.414  1.00  0.00    -0.550 OA
ATOM     10  O   UNL     1      21.434 -15.929  16.919  1.00  0.00    -0.550 OA
ENDBRANCH   7   8
ENDBRANCH   6   7
ENDBRANCH   5   6
ENDBRANCH   4   5
ENDBRANCH   3   4
ENDBRANCH   2   3
ENDBRANCH   1   2
BRANCH   1  11
ATOM     11  C   UNL     1      17.783 -16.779  10.021  1.00  0.00     0.000 C 
BRANCH  11  12
ATOM     12  C   UNL     1      17.188 -18.116  10.499  1.00  0.00    -0.000 C 
BRANCH  12  13
ATOM     13  C   UNL     1      16.439 -18.059  11.847  1.00  0.00    -0.000 C 
BRANCH  13  14
ATOM     14  C   UNL     1      17.338 -18.031  13.096  1.00  0.00    -0.000 C 
BRANCH  14  15
ATOM     15  C   UNL     1      16.838 -17.053  14.170  1.00  0.00    -0.000 C 
BRANCH  15  16
ATOM     16  C   UNL     1      17.907 -15.998  14.490  1.00  0.00    -0.000 C 
BRANCH  16  17
ATOM     17  C   UNL     1      18.050 -15.741  15.998  1.00  0.00    -0.003 C 
ATOM     18  C   UNL     1      16.836 -16.217  16.797  1.00  0.00     0.004 C 
ENDBRANCH  16  17
ENDBRANCH  15  16
ENDBRANCH  14  15
ENDBRANCH  13  14
ENDBRANCH  12  13
ENDBRANCH  11  12
ENDBRANCH   1  11
TORSDOF 14
ENDMDL
MODEL 3
REMARK VINA RESULT:    -2.026     24.108     26.183
REMARK INTER + INTRA:          -5.654
REMARK INTER:                  -4.502
REMARK INTRA:                  -1.151
REMARK UNBOUND:                -1.969
REMARK SMILES CCCCCCCCCCCCCCCC(=O)[O-]
REMARK SMILES IDX 9 1 10 2 11 3 12 4 13 5 14 6 15 7 16 8 17 9 18 10 8 11 7 12
REMARK SMILES IDX 6 13 5 14 4 15 3 16 2 17 1 18
REMARK H PARENT
REMARK Flexibility Score: inf
ROOT
ATOM      1  C   UNL     1       7.608   1.763  -3.031  1.00  0.00     0.000 C 
ENDROOT
BRANCH   1   2
ATOM      2  C   UNL     1       9.096   1.375  -3.057  1.00  0.00     0.000 C 
BRANCH   2   3
ATOM      3  C   UNL     1       9.834   1.762  -1.767  1.00  0.00     0.000 C 
BRANCH   3   4
ATOM      4  C   UNL     1      11.342   1.503  -1.898  1.00  0.00     0.000 C 
BRANCH   4   5
ATOM      5  C   UNL     1      11.662   0.071  -2.355  1.00  0.00     0.000 C 
BRANCH   5   6
ATOM      6  C   UNL     1      13.032  -0.040  -3.042  1.00  0.00     0.006 C 
BRANCH   6   7
ATOM      7  C   UNL     1      13.913   1.166  -2.702  1.00  0.00     0.053 C 
BRANCH   7   8
ATOM      8  C   UNL     1      15.151   0.726  -1.987  1.00  0.00     0.041 C 
ATOM      9  O   UNL     1      16.189   1.437  -2.021  1.00  0.00    -0.550 OA
ATOM     10  O   UNL     1      15.143  -0.446  -1.241  1.00  0.00    -0.550 OA
ENDBRANCH   7   8
ENDBRANCH   6   7
ENDBRANCH   5   6
ENDBRANCH   4   5
ENDBRANCH   3   4
ENDBRANCH   2   3
ENDBRANCH   1   2
BRANCH   1  11
ATOM     11  C   UNL     1       6.716   0.640  -2.473  1.00  0.00     0.000 C 
BRANCH  11  12
ATOM     12  C   UNL     1       7.271  -0.765  -2.765  1.00  0.00    -0.000 C 
BRANCH  12  13
ATOM     13  C   UNL     1       6.394  -1.935  -2.275  1.00  0.00    -0.000 C 
BRANCH  13  14
ATOM     14  C   UNL     1       4.976  -1.986  -2.871  1.00  0.00    -0.000 C 
BRANCH  14  15
ATOM     15  C   UNL     1       3.881  -2.097  -1.799  1.00  0.00    -0.000 C 
BRANCH  15  16
ATOM     16  C   UNL     1       4.411  -1.655  -0.427  1.00  0.00    -0.000 C 
BRANCH  16  17
ATOM     17  C   UNL     1       4.137  -0.172  -0.138  1.00  0.00    -0.003 C 
ATOM     18  C   UNL     1       2.875   0.343  -0.830  1.00  0.00     0.004 C 
ENDBRANCH  16  17
ENDBRANCH  15  16
ENDBRANCH  14  15
ENDBRANCH  13  14
ENDBRANCH  12  13
ENDBRANCH  11  12
ENDBRANCH   1  11
TORSDOF 14
ENDMDL
MODEL 4
REMARK VINA RESULT:    -1.983      1.620      3.163
REMARK INTER + INTRA:          -5.575
REMARK INTER:                  -4.022
REMARK INTRA:                  -1.553
REMARK UNBOUND:                -1.969
REMARK SMILES CCCCCCCCCCCCCCCC(=O)[O-]
REMARK SMILES IDX 9 1 10 2 11 3 12 4 13 5 14 6 15 7 16 8 17 9 18 10 8 11 7 12
REMARK SMILES IDX 6 13 5 14 4 15 3 16 2 17 1 18
REMARK H PARENT
REMARK Flexibility Score: inf
ROOT
ATOM      1  C   UNL     1      20.543 -17.060  12.765  1.00  0.00     0.000 C 
ENDROOT
BRANCH   1   2
ATOM      2  C   UNL     1      19.808 -15.836  13.335  1.00  0.00     0.000 C 
BRANCH   2   3
ATOM      3  C   UNL     1      18.304 -15.847  13.024  1.00  0.00     0.000 C 
BRANCH   3   4
ATOM      4  C   UNL     1      17.652 -17.148  13.516  1.00  0.00     0.000 C 
BRANCH   4   5
ATOM      5  C   UNL     1      17.021 -17.964  12.376  1.00  0.00     0.000 C 
BRANCH   5   6
ATOM      6  C   UNL     1      17.963 -18.125  11.172  1.00  0.00     0.006 C 
BRANCH   6   7
ATOM      7  C   UNL     1      17.298 -17.622   9.887  1.00  0.00     0.053 C 
BRANCH   7   8
ATOM      8  C   UNL     1      18.101 -16.515   9.280  1.00  0.00     0.041 C 
ATOM      9  O   UNL     1      17.570 -15.727   8.454  1.00  0.00    -0.550 OA
ATOM     10  O   UNL     1      19.421 -16.323   9.663  1.00  0.00    -0.550 OA
ENDBRANCH   7   8
ENDBRANCH   6   7
ENDBRANCH   5   6
ENDBRANCH   4   5
ENDBRANCH   3   4
ENDBRANCH   2   3
ENDBRANCH   1   2
BRANCH   1  11
ATOM     11  C   UNL     1      22.025 -17.103  13.176  1.00  0.00     0.000 C 
BRANCH  11  12
ATOM     12  C   UNL     1      22.240 -17.723  14.568  1.00  0.00    -0.000 C 
BRANCH  12  13
ATOM     13  C   UNL     1      22.535 -16.716  15.699  1.00  0.00    -0.000 C 
BRANCH  13  14
ATOM     14  C   UNL     1      21.697 -16.901  16.977  1.00  0.00    -0.000 C 
BRANCH  14  15
ATOM     15  C   UNL     1      20.587 -15.849  17.120  1.00  0.00    -0.000 C 
BRANCH  15  16
ATOM     16  C   UNL     1      19.201 -16.488  16.951  1.00  0.00    -0.000 C 
BRANCH  16  17
ATOM     17  C   UNL     1      18.096 -15.447  16.715  1.00  0.00    -0.003 C 
ATOM     18  C   UNL     1      16.702 -15.978  17.049  1.00  0.00     0.004 C 
ENDBRANCH  16  17
ENDBRANCH  15  16
ENDBRANCH  14  15
ENDBRANCH  13  14
ENDBRANCH  12  13
ENDBRANCH  11  12
ENDBRANCH   1  11
TORSDOF 14
ENDMDL
MODEL 5
REMARK VINA RESULT:    -1.972      1.505      4.259
REMARK INTER + INTRA:          -5.555
REMARK INTER:                  -3.881
REMARK INTRA:                  -1.674
REMARK UNBOUND:                -1.969
REMARK SMILES CCCCCCCCCCCCCCCC(=O)[O-]
REMARK SMILES IDX 9 1 10 2 11 3 12 4 13 5 14 6 15 7 16 8 17 9 18 10 8 11 7 12
REMARK SMILES IDX 6 13 5 14 4 15 3 16 2 17 1 18
REMARK H PARENT
REMARK Flexibility Score: inf
ROOT
ATOM      1  C   UNL     1      16.196 -18.125  15.179  1.00  0.00     0.000 C 
ENDROOT
BRANCH   1   2
ATOM      2  C   UNL     1      15.424 -17.821  13.884  1.00  0.00     0.000 C 
BRANCH   2   3
ATOM      3  C   UNL     1      16.351 -17.571  12.685  1.00  0.00     0.000 C 
BRANCH   3   4
ATOM      4  C   UNL     1      17.781 -18.042  12.988  1.00  0.00     0.000 C 
BRANCH   4   5
ATOM      5  C   UNL     1      18.720 -16.886  13.368  1.00  0.00     0.000 C 
BRANCH   5   6
ATOM      6  C   UNL     1      18.897 -15.869  12.229  1.00  0.00     0.006 C 
BRANCH   6   7
ATOM      7  C   UNL     1      19.484 -16.539  10.984  1.00  0.00     0.053 C 
BRANCH   7   8
ATOM      8  C   UNL     1      18.561 -16.378   9.817  1.00  0.00     0.041 C 
ATOM      9  O   UNL     1      18.685 -15.393   9.043  1.00  0.00    -0.550 OA
ATOM     10  O   UNL     1      17.597 -17.342   9.556  1.00  0.00    -0.550 OA
ENDBRANCH   7   8
ENDBRANCH   6   7
ENDBRANCH   5   6
ENDBRANCH   4   5
ENDBRANCH   3   4
ENDBRANCH   2   3
ENDBRANCH   1   2
BRANCH   1  11
ATOM     11  C   UNL     1      16.280 -16.907  16.116  1.00  0.00     0.000 C 
BRANCH  11  12
ATOM     12  C   UNL     1      17.438 -17.010  17.125  1.00  0.00    -0.000 C 
BRANCH  12  13
ATOM     13  C   UNL     1      18.640 -17.859  16.663  1.00  0.00    -0.000 C 
BRANCH  13  14
ATOM     14  C   UNL     1      20.018 -17.349  17.121  1.00  0.00    -0.000 C 
BRANCH  14  15
ATOM     15  C   UNL     1      20.346 -15.949  16.581  1.00  0.00    -0.000 C 
BRANCH  15  16
ATOM     16  C   UNL     1      21.727 -15.931  15.909  1.00  0.00    -0.000 C 
BRANCH  16  17
ATOM     17  C   UNL     1      22.032 -17.231  15.150  1.00  0.00    -0.003 C 
ATOM     18  C   UNL     1      22.311 -16.997  13.665  1.00  0.00     0.004 C 
ENDBRANCH  16  17
ENDBRANCH  15  16
ENDBRANCH  14  15
ENDBRANCH  13  14
ENDBRANCH  12  13
ENDBRANCH  11  12
ENDBRANCH   1  11
TORSDOF 14
ENDMDL
MODEL 6
REMARK VINA RESULT:    -1.956     23.812     26.168
REMARK INTER + INTRA:          -5.526
REMARK INTER:                  -4.486
REMARK INTRA:                  -1.040
REMARK UNBOUND:                -1.969
REMARK SMILES CCCCCCCCCCCCCCCC(=O)[O-]
REMARK SMILES IDX 9 1 10 2 11 3 12 4 13 5 14 6 15 7 16 8 17 9 18 10 8 11 7 12
REMARK SMILES IDX 6 13 5 14 4 15 3 16 2 17 1 18
REMARK H PARENT
REMARK Flexibility Score: inf
ROOT
ATOM      1  C   UNL     1       6.956   0.366  -2.132  1.00  0.00     0.000 C 
ENDROOT
BRANCH   1   2
ATOM      2  C   UNL     1       8.108   1.238  -2.656  1.00  0.00     0.000 C 
BRANCH   2   3
ATOM      3  C   UNL     1       9.356   0.419  -3.018  1.00  0.00     0.000 C 
BRANCH   3   4
ATOM      4  C   UNL     1      10.563   0.856  -2.175  1.00  0.00     0.000 C 
BRANCH   4   5
ATOM      5  C   UNL     1      11.401   1.949  -2.857  1.00  0.00     0.000 C 
BRANCH   5   6
ATOM      6  C   UNL     1      12.895   1.597  -2.921  1.00  0.00     0.006 C 
BRANCH   6   7
ATOM      7  C   UNL     1      13.228   0.450  -1.962  1.00  0.00     0.053 C 
BRANCH   7   8
ATOM      8  C   UNL     1      14.709   0.316  -1.799  1.00  0.00     0.041 C 
ATOM      9  O   UNL     1      15.216  -0.798  -1.504  1.00  0.00    -0.550 OA
ATOM     10  O   UNL     1      15.535   1.410  -2.022  1.00  0.00    -0.550 OA
ENDBRANCH   7   8
ENDBRANCH   6   7
ENDBRANCH   5   6
ENDBRANCH   4   5
ENDBRANCH   3   4
ENDBRANCH   2   3
ENDBRANCH   1   2
BRANCH   1  11
ATOM     11  C   UNL     1       6.646   0.628  -0.647  1.00  0.00     0.000 C 
BRANCH  11  12
ATOM     12  C   UNL     1       5.297   0.033  -0.205  1.00  0.00    -0.000 C 
BRANCH  12  13
ATOM     13  C   UNL     1       4.212  -0.022  -1.300  1.00  0.00    -0.000 C 
BRANCH  13  14
ATOM     14  C   UNL     1       3.088  -1.045  -1.058  1.00  0.00    -0.000 C 
BRANCH  14  15
ATOM     15  C   UNL     1       3.522  -2.489  -1.351  1.00  0.00    -0.000 C 
BRANCH  15  16
ATOM     16  C   UNL     1       3.785  -2.689  -2.851  1.00  0.00    -0.000 C 
BRANCH  16  17
ATOM     17  C   UNL     1       4.881  -3.729  -3.125  1.00  0.00    -0.003 C 
ATOM     18  C   UNL     1       6.291  -3.154  -2.986  1.00  0.00     0.004 C 
ENDBRANCH  16  17
ENDBRANCH  15  16
ENDBRANCH  14  15
ENDBRANCH  13  14
ENDBRANCH  12  13
ENDBRANCH  11  12
ENDBRANCH   1  11
TORSDOF 14
ENDMDL
MODEL 7
REMARK VINA RESULT:    -1.794      3.026      6.141
REMARK INTER + INTRA:          -5.232
REMARK INTER:                  -3.600
REMARK INTRA:                  -1.632
REMARK UNBOUND:                -1.969
REMARK SMILES CCCCCCCCCCCCCCCC(=O)[O-]
REMARK SMILES IDX 9 1 10 2 11 3 12 4 13 5 14 6 15 7 16 8 17 9 18 10 8 11 7 12
REMARK SMILES IDX 6 13 5 14 4 15 3 16 2 17 1 18
REMARK H PARENT
REMARK Flexibility Score: inf
ROOT
ATOM      1  C   UNL     1      18.563 -16.529  12.249  1.00  0.00     0.000 C 
ENDROOT
BRANCH   1   2
ATOM      2  C   UNL     1      18.239 -16.327  13.737  1.00  0.00     0.000 C 
BRANCH   2   3
ATOM      3  C   UNL     1      18.635 -17.534  14.602  1.00  0.00     0.000 C 
BRANCH   3   4
ATOM      4  C   UNL     1      18.030 -17.423  16.009  1.00  0.00     0.000 C 
BRANCH   4   5
ATOM      5  C   UNL     1      16.881 -16.404  16.083  1.00  0.00     0.000 C 
BRANCH   5   6
ATOM      6  C   UNL     1      15.795 -16.808  17.093  1.00  0.00     0.006 C 
BRANCH   6   7
ATOM      7  C   UNL     1      15.129 -18.125  16.682  1.00  0.00     0.053 C 
BRANCH   7   8
ATOM      8  C   UNL     1      13.725 -17.882  16.227  1.00  0.00     0.041 C 
ATOM      9  O   UNL     1      12.846 -17.517  17.052  1.00  0.00    -0.550 OA
ATOM     10  O   UNL     1      13.397 -18.009  14.884  1.00  0.00    -0.550 OA
ENDBRANCH   7   8
ENDBRANCH   6   7
ENDBRANCH   5   6
ENDBRANCH   4   5
ENDBRANCH   3   4
ENDBRANCH   2   3
ENDBRANCH   1   2
BRANCH   1  11
ATOM     11  C   UNL     1      19.429 -17.777  11.997  1.00  0.00     0.000 C 
BRANCH  11  12
ATOM     12  C   UNL     1      20.364 -17.619  10.785  1.00  0.00    -0.000 C 
BRANCH  12  13
ATOM     13  C   UNL     1      21.806 -18.125  10.996  1.00  0.00    -0.000 C 
BRANCH  13  14
ATOM     14  C   UNL     1      22.757 -17.127  11.683  1.00  0.00    -0.000 C 
BRANCH  14  15
ATOM     15  C   UNL     1      22.517 -17.020  13.196  1.00  0.00    -0.000 C 
BRANCH  15  16
ATOM     16  C   UNL     1      22.027 -15.615  13.576  1.00  0.00    -0.000 C 
BRANCH  16  17
ATOM     17  C   UNL     1      21.611 -15.513  15.051  1.00  0.00    -0.003 C 
ATOM     18  C   UNL     1      22.016 -16.741  15.866  1.00  0.00     0.004 C 
ENDBRANCH  16  17
ENDBRANCH  15  16
ENDBRANCH  14  15
ENDBRANCH  13  14
ENDBRANCH  12  13
ENDBRANCH  11  12
ENDBRANCH   1  11
TORSDOF 14
ENDMDL
MODEL 8
REMARK VINA RESULT:    -0.210      2.374      5.448
REMARK INTER + INTRA:          -2.351
REMARK INTER:                  -0.671
REMARK INTRA:                  -1.680
REMARK UNBOUND:                -1.969
REMARK SMILES CCCCCCCCCCCCCCCC(=O)[O-]
REMARK SMILES IDX 9 1 10 2 11 3 12 4 13 5 14 6 15 7 16 8 17 9 18 10 8 11 7 12
REMARK SMILES IDX 6 13 5 14 4 15 3 16 2 17 1 18
REMARK H PARENT
REMARK Flexibility Score: inf
ROOT
ATOM      1  C   UNL     1      16.411 -16.373  16.177  1.00  0.00     0.000 C 
ENDROOT
BRANCH   1   2
ATOM      2  C   UNL     1      17.692 -16.121  16.989  1.00  0.00     0.000 C 
BRANCH   2   3
ATOM      3  C   UNL     1      18.568 -17.375  17.122  1.00  0.00     0.000 C 
BRANCH   3   4
ATOM      4  C   UNL     1      19.898 -17.199  16.373  1.00  0.00     0.000 C 
BRANCH   4   5
ATOM      5  C   UNL     1      20.458 -15.772  16.486  1.00  0.00     0.000 C 
BRANCH   5   6
ATOM      6  C   UNL     1      21.993 -15.732  16.433  1.00  0.00     0.006 C 
BRANCH   6   7
ATOM      7  C   UNL     1      22.535 -16.794  15.472  1.00  0.00     0.053 C 
BRANCH   7   8
ATOM      8  C   UNL     1      22.613 -16.250  14.080  1.00  0.00     0.041 C 
ATOM      9  O   UNL     1      22.448 -17.012  13.092  1.00  0.00    -0.550 OA
ATOM     10  O   UNL     1      22.820 -14.892  13.875  1.00  0.00    -0.550 OA
ENDBRANCH   7   8
ENDBRANCH   6   7
ENDBRANCH   5   6
ENDBRANCH   4   5
ENDBRANCH   3   4
ENDBRANCH   2   3
ENDBRANCH   1   2
BRANCH   1  11
ATOM     11  C   UNL     1      16.161 -17.869  15.918  1.00  0.00     0.000 C 
BRANCH  11  12
ATOM     12  C   UNL     1      15.323 -18.124  14.653  1.00  0.00    -0.000 C 
BRANCH  12  13
ATOM     13  C   UNL     1      16.066 -17.908  13.318  1.00  0.00    -0.000 C 
BRANCH  13  14
ATOM     14  C   UNL     1      17.589 -18.125  13.372  1.00  0.00    -0.000 C 
BRANCH  14  15
ATOM     15  C   UNL     1      18.385 -16.863  13.009  1.00  0.00    -0.000 C 
BRANCH  15  16
ATOM     16  C   UNL     1      19.249 -17.100  11.761  1.00  0.00    -0.000 C 
BRANCH  16  17
ATOM     17  C   UNL     1      18.799 -16.254  10.561  1.00  0.00    -0.003 C 
ATOM     18  C   UNL     1      17.889 -17.022   9.602  1.00  0.00     0.004 C 
ENDBRANCH  16  17
ENDBRANCH  15  16
ENDBRANCH  14  15
ENDBRANCH  13  14
ENDBRANCH  12  13
ENDBRANCH  11  12
ENDBRANCH   1  11
TORSDOF 14
ENDMDL
