MODEL 1
REMARK VINA RESULT:    -4.206      0.000      0.000
REMARK INTER + INTRA:          -8.868
REMARK INTER:                  -8.139
REMARK INTRA:                  -0.729
REMARK UNBOUND:                -0.729
REMARK SMILES CCCCCCCCCCCCCCCCCC(=O)[O-]
REMARK SMILES IDX 10 1 11 2 12 3 13 4 14 5 15 6 16 7 17 8 18 9 19 10 20 11
REMARK SMILES IDX 9 12 8 13 7 14 6 15 5 16 4 17 3 18 2 19 1 20
REMARK H PARENT
REMARK Flexibility Score: inf
ROOT
ATOM      1  C   UNL     1      41.630  29.123  30.125  1.00  0.00     0.000 C 
ENDROOT
BRANCH   1   2
ATOM      2  C   UNL     1      40.128  28.773  30.118  1.00  0.00     0.000 C 
BRANCH   2   3
ATOM      3  C   UNL     1      39.203  29.854  29.524  1.00  0.00     0.000 C 
BRANCH   3   4
ATOM      4  C   UNL     1      37.785  29.894  30.122  1.00  0.00     0.000 C 
BRANCH   4   5
ATOM      5  C   UNL     1      36.869  28.800  29.554  1.00  0.00     0.000 C 
BRANCH   5   6
ATOM      6  C   UNL     1      35.736  29.411  28.720  1.00  0.00     0.000 C 
BRANCH   6   7
ATOM      7  C   UNL     1      34.366  28.915  29.205  1.00  0.00     0.006 C 
BRANCH   7   8
ATOM      8  C   UNL     1      34.085  27.470  28.772  1.00  0.00     0.053 C 
BRANCH   8   9
ATOM      9  C   UNL     1      32.654  27.280  28.373  1.00  0.00     0.041 C 
ATOM     10  O   UNL     1      31.734  27.846  29.020  1.00  0.00    -0.550 OA
ATOM     11  O   UNL     1      32.339  26.502  27.266  1.00  0.00    -0.550 OA
ENDBRANCH   8   9
ENDBRANCH   7   8
ENDBRANCH   6   7
ENDBRANCH   5   6
ENDBRANCH   4   5
ENDBRANCH   3   4
ENDBRANCH   2   3
ENDBRANCH   1   2
BRANCH   1  12
ATOM     12  C   UNL     1      41.948  30.624  29.997  1.00  0.00     0.000 C 
BRANCH  12  13
ATOM     13  C   UNL     1      43.442  30.900  29.777  1.00  0.00    -0.000 C 
BRANCH  13  14
ATOM     14  C   UNL     1      43.654  32.273  29.122  1.00  0.00    -0.000 C 
BRANCH  14  15
ATOM     15  C   UNL     1      43.450  33.444  30.101  1.00  0.00    -0.000 C 
BRANCH  15  16
ATOM     16  C   UNL     1      44.459  34.600  29.954  1.00  0.00    -0.000 C 
BRANCH  16  17
ATOM     17  C   UNL     1      43.919  35.851  29.237  1.00  0.00    -0.000 C 
BRANCH  17  18
ATOM     18  C   UNL     1      44.735  36.254  27.990  1.00  0.00    -0.000 C 
BRANCH  18  19
ATOM     19  C   UNL     1      43.884  36.276  26.711  1.00  0.00    -0.003 C 
ATOM     20  C   UNL     1      43.981  34.950  25.964  1.00  0.00     0.004 C 
ENDBRANCH  18  19
ENDBRANCH  17  18
ENDBRANCH  16  17
ENDBRANCH  15  16
ENDBRANCH  14  15
ENDBRANCH  13  14
ENDBRANCH  12  13
ENDBRANCH   1  12
TORSDOF 16
ENDMDL
MODEL 2
REMARK VINA RESULT:    -3.922     13.440     16.514
REMARK INTER + INTRA:          -8.320
REMARK INTER:                  -7.588
REMARK INTRA:                  -0.732
REMARK UNBOUND:                -0.729
REMARK SMILES CCCCCCCCCCCCCCCCCC(=O)[O-]
REMARK SMILES IDX 10 1 11 2 12 3 13 4 14 5 15 6 16 7 17 8 18 9 19 10 20 11
REMARK SMILES IDX 9 12 8 13 7 14 6 15 5 16 4 17 3 18 2 19 1 20
REMARK H PARENT
REMARK Flexibility Score: inf
ROOT
ATOM      1  C   UNL     1      40.599  26.648  18.212  1.00  0.00     0.000 C 
ENDROOT
BRANCH   1   2
ATOM      2  C   UNL     1      41.794  27.582  17.930  1.00  0.00     0.000 C 
BRANCH   2   3
ATOM      3  C   UNL     1      41.666  28.450  16.663  1.00  0.00     0.000 C 
BRANCH   3   4
ATOM      4  C   UNL     1      41.965  29.946  16.868  1.00  0.00     0.000 C 
BRANCH   4   5
ATOM      5  C   UNL     1      42.549  30.614  15.615  1.00  0.00     0.000 C 
BRANCH   5   6
ATOM      6  C   UNL     1      43.315  31.892  15.981  1.00  0.00     0.000 C 
BRANCH   6   7
ATOM      7  C   UNL     1      44.728  31.877  15.381  1.00  0.00     0.006 C 
BRANCH   7   8
ATOM      8  C   UNL     1      45.733  31.148  16.284  1.00  0.00     0.053 C 
BRANCH   8   9
ATOM      9  C   UNL     1      46.803  30.468  15.486  1.00  0.00     0.041 C 
ATOM     10  O   UNL     1      46.699  30.375  14.234  1.00  0.00    -0.550 OA
ATOM     11  O   UNL     1      47.931  29.965  16.121  1.00  0.00    -0.550 OA
ENDBRANCH   8   9
ENDBRANCH   7   8
ENDBRANCH   6   7
ENDBRANCH   5   6
ENDBRANCH   4   5
ENDBRANCH   3   4
ENDBRANCH   2   3
ENDBRANCH   1   2
BRANCH   1  12
ATOM     12  C   UNL     1      39.754  26.284  16.978  1.00  0.00     0.000 C 
BRANCH  12  13
ATOM     13  C   UNL     1      38.246  26.293  17.264  1.00  0.00    -0.000 C 
BRANCH  13  14
ATOM     14  C   UNL     1      37.448  25.922  16.006  1.00  0.00    -0.000 C 
BRANCH  14  15
ATOM     15  C   UNL     1      35.964  25.632  16.299  1.00  0.00    -0.000 C 
BRANCH  15  16
ATOM     16  C   UNL     1      34.962  26.445  15.456  1.00  0.00    -0.000 C 
BRANCH  16  17
ATOM     17  C   UNL     1      34.994  27.966  15.690  1.00  0.00    -0.000 C 
BRANCH  17  18
ATOM     18  C   UNL     1      35.045  28.796  14.389  1.00  0.00    -0.000 C 
BRANCH  18  19
ATOM     19  C   UNL     1      34.898  30.303  14.646  1.00  0.00    -0.003 C 
ATOM     20  C   UNL     1      34.141  30.982  13.508  1.00  0.00     0.004 C 
ENDBRANCH  18  19
ENDBRANCH  17  18
ENDBRANCH  16  17
ENDBRANCH  15  16
ENDBRANCH  14  15
ENDBRANCH  13  14
ENDBRANCH  12  13
ENDBRANCH   1  12
TORSDOF 16
ENDMDL
MODEL 3
REMARK VINA RESULT:    -3.908     12.590     13.562
REMARK INTER + INTRA:          -8.293
REMARK INTER:                  -7.529
REMARK INTRA:                  -0.764
REMARK UNBOUND:                -0.729
REMARK SMILES CCCCCCCCCCCCCCCCCC(=O)[O-]
REMARK SMILES IDX 10 1 11 2 12 3 13 4 14 5 15 6 16 7 17 8 18 9 19 10 20 11
REMARK SMILES IDX 9 12 8 13 7 14 6 15 5 16 4 17 3 18 2 19 1 20
REMARK H PARENT
REMARK Flexibility Score: inf
ROOT
ATOM      1  C   UNL     1      41.443  26.846  17.953  1.00  0.00     0.000 C 
ENDROOT
BRANCH   1   2
ATOM      2  C   UNL     1      39.947  26.660  18.278  1.00  0.00     0.000 C 
BRANCH   2   3
ATOM      3  C   UNL     1      39.012  26.585  17.054  1.00  0.00     0.000 C 
BRANCH   3   4
ATOM      4  C   UNL     1      37.733  25.755  17.265  1.00  0.00     0.000 C 
BRANCH   4   5
ATOM      5  C   UNL     1      36.969  25.496  15.958  1.00  0.00     0.000 C 
BRANCH   5   6
ATOM      6  C   UNL     1      35.463  25.715  16.149  1.00  0.00     0.000 C 
BRANCH   6   7
ATOM      7  C   UNL     1      34.937  26.791  15.189  1.00  0.00     0.006 C 
BRANCH   7   8
ATOM      8  C   UNL     1      34.917  28.184  15.833  1.00  0.00     0.053 C 
BRANCH   8   9
ATOM      9  C   UNL     1      34.985  29.271  14.804  1.00  0.00     0.041 C 
ATOM     10  O   UNL     1      34.919  30.479  15.154  1.00  0.00    -0.550 OA
ATOM     11  O   UNL     1      35.154  28.951  13.464  1.00  0.00    -0.550 OA
ENDBRANCH   8   9
ENDBRANCH   7   8
ENDBRANCH   6   7
ENDBRANCH   5   6
ENDBRANCH   4   5
ENDBRANCH   3   4
ENDBRANCH   2   3
ENDBRANCH   1   2
BRANCH   1  12
ATOM     12  C   UNL     1      41.735  27.654  16.676  1.00  0.00     0.000 C 
BRANCH  12  13
ATOM     13  C   UNL     1      41.823  29.165  16.933  1.00  0.00    -0.000 C 
BRANCH  13  14
ATOM     14  C   UNL     1      42.648  29.860  15.840  1.00  0.00    -0.000 C 
BRANCH  14  15
ATOM     15  C   UNL     1      42.827  31.370  16.090  1.00  0.00    -0.000 C 
BRANCH  15  16
ATOM     16  C   UNL     1      44.191  31.944  15.661  1.00  0.00    -0.000 C 
BRANCH  16  17
ATOM     17  C   UNL     1      45.418  31.210  16.232  1.00  0.00    -0.000 C 
BRANCH  17  18
ATOM     18  C   UNL     1      46.376  30.661  15.152  1.00  0.00    -0.000 C 
BRANCH  18  19
ATOM     19  C   UNL     1      47.656  30.059  15.751  1.00  0.00    -0.003 C 
ATOM     20  C   UNL     1      48.848  30.270  14.823  1.00  0.00     0.004 C 
ENDBRANCH  18  19
ENDBRANCH  17  18
ENDBRANCH  16  17
ENDBRANCH  15  16
ENDBRANCH  14  15
ENDBRANCH  13  14
ENDBRANCH  12  13
ENDBRANCH   1  12
TORSDOF 16
ENDMDL
MODEL 4
REMARK VINA RESULT:    -3.830     14.029     16.849
REMARK INTER + INTRA:          -8.141
REMARK INTER:                  -7.328
REMARK INTRA:                  -0.813
REMARK UNBOUND:                -0.729
REMARK SMILES CCCCCCCCCCCCCCCCCC(=O)[O-]
REMARK SMILES IDX 10 1 11 2 12 3 13 4 14 5 15 6 16 7 17 8 18 9 19 10 20 11
REMARK SMILES IDX 9 12 8 13 7 14 6 15 5 16 4 17 3 18 2 19 1 20
REMARK H PARENT
REMARK Flexibility Score: inf
ROOT
ATOM      1  C   UNL     1      41.364  26.201  18.441  1.00  0.00     0.000 C 
ENDROOT
BRANCH   1   2
ATOM      2  C   UNL     1      41.129  27.712  18.239  1.00  0.00     0.000 C 
BRANCH   2   3
ATOM      3  C   UNL     1      41.776  28.315  16.976  1.00  0.00     0.000 C 
BRANCH   3   4
ATOM      4  C   UNL     1      41.914  29.848  16.987  1.00  0.00     0.000 C 
BRANCH   4   5
ATOM      5  C   UNL     1      42.553  30.397  15.703  1.00  0.00     0.000 C 
BRANCH   5   6
ATOM      6  C   UNL     1      43.204  31.763  15.955  1.00  0.00     0.000 C 
BRANCH   6   7
ATOM      7  C   UNL     1      44.636  31.800  15.402  1.00  0.00     0.006 C 
BRANCH   7   8
ATOM      8  C   UNL     1      45.649  31.180  16.372  1.00  0.00     0.053 C 
BRANCH   8   9
ATOM      9  C   UNL     1      46.779  30.516  15.645  1.00  0.00     0.041 C 
ATOM     10  O   UNL     1      47.775  30.083  16.282  1.00  0.00    -0.550 OA
ATOM     11  O   UNL     1      46.715  30.347  14.268  1.00  0.00    -0.550 OA
ENDBRANCH   8   9
ENDBRANCH   7   8
ENDBRANCH   6   7
ENDBRANCH   5   6
ENDBRANCH   4   5
ENDBRANCH   3   4
ENDBRANCH   2   3
ENDBRANCH   1   2
BRANCH   1  12
ATOM     12  C   UNL     1      42.080  25.493  17.277  1.00  0.00     0.000 C 
BRANCH  12  13
ATOM     13  C   UNL     1      43.289  24.665  17.735  1.00  0.00    -0.000 C 
BRANCH  13  14
ATOM     14  C   UNL     1      43.578  23.525  16.748  1.00  0.00    -0.000 C 
BRANCH  14  15
ATOM     15  C   UNL     1      44.436  22.402  17.360  1.00  0.00    -0.000 C 
BRANCH  15  16
ATOM     16  C   UNL     1      43.988  20.971  17.004  1.00  0.00    -0.000 C 
BRANCH  16  17
ATOM     17  C   UNL     1      43.176  20.250  18.096  1.00  0.00    -0.000 C 
BRANCH  17  18
ATOM     18  C   UNL     1      41.807  19.727  17.611  1.00  0.00    -0.000 C 
BRANCH  18  19
ATOM     19  C   UNL     1      41.769  19.497  16.093  1.00  0.00    -0.003 C 
ATOM     20  C   UNL     1      40.990  18.230  15.749  1.00  0.00     0.004 C 
ENDBRANCH  18  19
ENDBRANCH  17  18
ENDBRANCH  16  17
ENDBRANCH  15  16
ENDBRANCH  14  15
ENDBRANCH  13  14
ENDBRANCH  12  13
ENDBRANCH   1  12
TORSDOF 16
ENDMDL
MODEL 5
REMARK VINA RESULT:    -3.815      6.936      8.396
REMARK INTER + INTRA:          -8.113
REMARK INTER:                  -7.453
REMARK INTRA:                  -0.659
REMARK UNBOUND:                -0.729
REMARK SMILES CCCCCCCCCCCCCCCCCC(=O)[O-]
REMARK SMILES IDX 10 1 11 2 12 3 13 4 14 5 15 6 16 7 17 8 18 9 19 10 20 11
REMARK SMILES IDX 9 12 8 13 7 14 6 15 5 16 4 17 3 18 2 19 1 20
REMARK H PARENT
REMARK Flexibility Score: inf
ROOT
ATOM      1  C   UNL     1      37.553  25.859  29.519  1.00  0.00     0.000 C 
ENDROOT
BRANCH   1   2
ATOM      2  C   UNL     1      36.206  26.497  29.916  1.00  0.00     0.000 C 
BRANCH   2   3
ATOM      3  C   UNL     1      36.197  28.038  29.960  1.00  0.00     0.000 C 
BRANCH   3   4
ATOM      4  C   UNL     1      34.847  28.688  29.605  1.00  0.00     0.000 C 
BRANCH   4   5
ATOM      5  C   UNL     1      33.650  27.768  29.885  1.00  0.00     0.000 C 
BRANCH   5   6
ATOM      6  C   UNL     1      32.329  28.465  29.539  1.00  0.00     0.000 C 
BRANCH   6   7
ATOM      7  C   UNL     1      31.692  27.846  28.287  1.00  0.00     0.006 C 
BRANCH   7   8
ATOM      8  C   UNL     1      32.636  27.884  27.077  1.00  0.00     0.053 C 
BRANCH   8   9
ATOM      9  C   UNL     1      32.522  26.643  26.246  1.00  0.00     0.041 C 
ATOM     10  O   UNL     1      32.824  26.669  25.024  1.00  0.00    -0.550 OA
ATOM     11  O   UNL     1      32.112  25.451  26.828  1.00  0.00    -0.550 OA
ENDBRANCH   8   9
ENDBRANCH   7   8
ENDBRANCH   6   7
ENDBRANCH   5   6
ENDBRANCH   4   5
ENDBRANCH   3   4
ENDBRANCH   2   3
ENDBRANCH   1   2
BRANCH   1  12
ATOM     12  C   UNL     1      37.549  24.321  29.449  1.00  0.00     0.000 C 
BRANCH  12  13
ATOM     13  C   UNL     1      38.850  23.696  29.972  1.00  0.00    -0.000 C 
BRANCH  13  14
ATOM     14  C   UNL     1      40.048  24.126  29.113  1.00  0.00    -0.000 C 
BRANCH  14  15
ATOM     15  C   UNL     1      41.384  24.079  29.879  1.00  0.00    -0.000 C 
BRANCH  15  16
ATOM     16  C   UNL     1      41.952  22.666  30.112  1.00  0.00    -0.000 C 
BRANCH  16  17
ATOM     17  C   UNL     1      43.485  22.554  30.014  1.00  0.00    -0.000 C 
BRANCH  17  18
ATOM     18  C   UNL     1      44.002  22.321  28.578  1.00  0.00    -0.000 C 
BRANCH  18  19
ATOM     19  C   UNL     1      45.250  21.425  28.540  1.00  0.00    -0.003 C 
ATOM     20  C   UNL     1      45.324  20.534  29.776  1.00  0.00     0.004 C 
ENDBRANCH  18  19
ENDBRANCH  17  18
ENDBRANCH  16  17
ENDBRANCH  15  16
ENDBRANCH  14  15
ENDBRANCH  13  14
ENDBRANCH  12  13
ENDBRANCH   1  12
TORSDOF 16
ENDMDL
MODEL 6
REMARK VINA RESULT:    -3.786     14.074     15.987
REMARK INTER + INTRA:          -8.057
REMARK INTER:                  -7.303
REMARK INTRA:                  -0.754
REMARK UNBOUND:                -0.729
REMARK SMILES CCCCCCCCCCCCCCCCCC(=O)[O-]
REMARK SMILES IDX 10 1 11 2 12 3 13 4 14 5 15 6 16 7 17 8 18 9 19 10 20 11
REMARK SMILES IDX 9 12 8 13 7 14 6 15 5 16 4 17 3 18 2 19 1 20
REMARK H PARENT
REMARK Flexibility Score: inf
ROOT
ATOM      1  C   UNL     1      41.159  26.630  18.166  1.00  0.00     0.000 C 
ENDROOT
BRANCH   1   2
ATOM      2  C   UNL     1      41.935  25.753  17.162  1.00  0.00     0.000 C 
BRANCH   2   3
ATOM      3  C   UNL     1      42.955  24.782  17.790  1.00  0.00     0.000 C 
BRANCH   3   4
ATOM      4  C   UNL     1      43.368  23.604  16.889  1.00  0.00     0.000 C 
BRANCH   4   5
ATOM      5  C   UNL     1      44.593  22.847  17.423  1.00  0.00     0.000 C 
BRANCH   5   6
ATOM      6  C   UNL     1      44.547  21.370  17.012  1.00  0.00     0.000 C 
BRANCH   6   7
ATOM      7  C   UNL     1      43.219  20.723  17.430  1.00  0.00     0.006 C 
BRANCH   7   8
ATOM      8  C   UNL     1      42.505  20.049  16.251  1.00  0.00     0.053 C 
BRANCH   8   9
ATOM      9  C   UNL     1      41.358  19.200  16.709  1.00  0.00     0.041 C 
ATOM     10  O   UNL     1      40.910  19.319  17.880  1.00  0.00    -0.550 OA
ATOM     11  O   UNL     1      40.765  18.301  15.833  1.00  0.00    -0.550 OA
ENDBRANCH   8   9
ENDBRANCH   7   8
ENDBRANCH   6   7
ENDBRANCH   5   6
ENDBRANCH   4   5
ENDBRANCH   3   4
ENDBRANCH   2   3
ENDBRANCH   1   2
BRANCH   1  12
ATOM     12  C   UNL     1      39.729  27.001  17.735  1.00  0.00     0.000 C 
BRANCH  12  13
ATOM     13  C   UNL     1      39.032  25.879  16.952  1.00  0.00    -0.000 C 
BRANCH  13  14
ATOM     14  C   UNL     1      37.783  26.408  16.231  1.00  0.00    -0.000 C 
BRANCH  14  15
ATOM     15  C   UNL     1      36.592  25.434  16.301  1.00  0.00    -0.000 C 
BRANCH  15  16
ATOM     16  C   UNL     1      35.245  26.017  15.831  1.00  0.00    -0.000 C 
BRANCH  16  17
ATOM     17  C   UNL     1      35.076  27.531  16.053  1.00  0.00    -0.000 C 
BRANCH  17  18
ATOM     18  C   UNL     1      34.971  28.345  14.745  1.00  0.00    -0.000 C 
BRANCH  18  19
ATOM     19  C   UNL     1      34.935  29.860  14.995  1.00  0.00    -0.003 C 
ATOM     20  C   UNL     1      34.520  30.615  13.736  1.00  0.00     0.004 C 
ENDBRANCH  18  19
ENDBRANCH  17  18
ENDBRANCH  16  17
ENDBRANCH  15  16
ENDBRANCH  14  15
ENDBRANCH  13  14
ENDBRANCH  12  13
ENDBRANCH   1  12
TORSDOF 16
ENDMDL
MODEL 7
REMARK VINA RESULT:    -3.446      4.968      9.356
REMARK INTER + INTRA:          -7.398
REMARK INTER:                  -6.142
REMARK INTRA:                  -1.256
REMARK UNBOUND:                -0.729
REMARK SMILES CCCCCCCCCCCCCCCCCC(=O)[O-]
REMARK SMILES IDX 10 1 11 2 12 3 13 4 14 5 15 6 16 7 17 8 18 9 19 10 20 11
REMARK SMILES IDX 9 12 8 13 7 14 6 15 5 16 4 17 3 18 2 19 1 20
REMARK H PARENT
REMARK Flexibility Score: inf
ROOT
ATOM      1  C   UNL     1      42.778  30.845  29.567  1.00  0.00     0.000 C 
ENDROOT
BRANCH   1   2
ATOM      2  C   UNL     1      43.587  32.148  29.726  1.00  0.00     0.000 C 
BRANCH   2   3
ATOM      3  C   UNL     1      42.966  33.393  29.061  1.00  0.00     0.000 C 
BRANCH   3   4
ATOM      4  C   UNL     1      43.261  34.724  29.775  1.00  0.00     0.000 C 
BRANCH   4   5
ATOM      5  C   UNL     1      44.749  34.903  30.111  1.00  0.00     0.000 C 
BRANCH   5   6
ATOM      6  C   UNL     1      45.248  36.286  29.672  1.00  0.00     0.000 C 
BRANCH   6   7
ATOM      7  C   UNL     1      44.242  36.961  28.730  1.00  0.00     0.006 C 
BRANCH   7   8
ATOM      8  C   UNL     1      44.735  36.988  27.277  1.00  0.00     0.053 C 
BRANCH   8   9
ATOM      9  C   UNL     1      43.989  36.012  26.419  1.00  0.00     0.041 C 
ATOM     10  O   UNL     1      44.504  34.900  26.130  1.00  0.00    -0.550 OA
ATOM     11  O   UNL     1      42.713  36.319  25.966  1.00  0.00    -0.550 OA
ENDBRANCH   8   9
ENDBRANCH   7   8
ENDBRANCH   6   7
ENDBRANCH   5   6
ENDBRANCH   4   5
ENDBRANCH   3   4
ENDBRANCH   2   3
ENDBRANCH   1   2
BRANCH   1  12
ATOM     12  C   UNL     1      43.552  29.671  28.942  1.00  0.00     0.000 C 
BRANCH  12  13
ATOM     13  C   UNL     1      42.784  28.343  29.015  1.00  0.00    -0.000 C 
BRANCH  13  14
ATOM     14  C   UNL     1      41.712  28.391  30.114  1.00  0.00    -0.000 C 
BRANCH  14  15
ATOM     15  C   UNL     1      40.349  27.844  29.648  1.00  0.00    -0.000 C 
BRANCH  15  16
ATOM     16  C   UNL     1      39.130  28.686  30.071  1.00  0.00    -0.000 C 
BRANCH  16  17
ATOM     17  C   UNL     1      38.998  30.046  29.362  1.00  0.00    -0.000 C 
BRANCH  17  18
ATOM     18  C   UNL     1      37.657  30.237  28.622  1.00  0.00    -0.000 C 
BRANCH  18  19
ATOM     19  C   UNL     1      37.211  31.706  28.579  1.00  0.00    -0.003 C 
ATOM     20  C   UNL     1      38.222  32.608  29.281  1.00  0.00     0.004 C 
ENDBRANCH  18  19
ENDBRANCH  17  18
ENDBRANCH  16  17
ENDBRANCH  15  16
ENDBRANCH  14  15
ENDBRANCH  13  14
ENDBRANCH  12  13
ENDBRANCH   1  12
TORSDOF 16
ENDMDL
MODEL 8
REMARK VINA RESULT:    -3.403      5.175      9.399
REMARK INTER + INTRA:          -7.314
REMARK INTER:                  -5.929
REMARK INTRA:                  -1.386
REMARK UNBOUND:                -0.729
REMARK SMILES CCCCCCCCCCCCCCCCCC(=O)[O-]
REMARK SMILES IDX 10 1 11 2 12 3 13 4 14 5 15 6 16 7 17 8 18 9 19 10 20 11
REMARK SMILES IDX 9 12 8 13 7 14 6 15 5 16 4 17 3 18 2 19 1 20
REMARK H PARENT
REMARK Flexibility Score: inf
ROOT
ATOM      1  C   UNL     1      39.772  27.006  29.246  1.00  0.00     0.000 C 
ENDROOT
BRANCH   1   2
ATOM      2  C   UNL     1      40.811  27.783  30.080  1.00  0.00     0.000 C 
BRANCH   2   3
ATOM      3  C   UNL     1      40.608  29.311  30.125  1.00  0.00     0.000 C 
BRANCH   3   4
ATOM      4  C   UNL     1      41.868  30.142  29.824  1.00  0.00     0.000 C 
BRANCH   4   5
ATOM      5  C   UNL     1      41.681  31.637  30.123  1.00  0.00     0.000 C 
BRANCH   5   6
ATOM      6  C   UNL     1      43.003  32.399  29.961  1.00  0.00     0.000 C 
BRANCH   6   7
ATOM      7  C   UNL     1      42.758  33.819  29.434  1.00  0.00     0.006 C 
BRANCH   7   8
ATOM      8  C   UNL     1      43.886  34.785  29.821  1.00  0.00     0.053 C 
BRANCH   8   9
ATOM      9  C   UNL     1      44.386  35.556  28.638  1.00  0.00     0.041 C 
ATOM     10  O   UNL     1      45.184  36.516  28.799  1.00  0.00    -0.550 OA
ATOM     11  O   UNL     1      43.994  35.195  27.356  1.00  0.00    -0.550 OA
ENDBRANCH   8   9
ENDBRANCH   7   8
ENDBRANCH   6   7
ENDBRANCH   5   6
ENDBRANCH   4   5
ENDBRANCH   3   4
ENDBRANCH   2   3
ENDBRANCH   1   2
BRANCH   1  12
ATOM     12  C   UNL     1      39.621  25.520  29.617  1.00  0.00     0.000 C 
BRANCH  12  13
ATOM     13  C   UNL     1      38.284  24.923  29.155  1.00  0.00    -0.000 C 
BRANCH  13  14
ATOM     14  C   UNL     1      37.150  25.309  30.116  1.00  0.00    -0.000 C 
BRANCH  14  15
ATOM     15  C   UNL     1      36.205  26.377  29.533  1.00  0.00    -0.000 C 
BRANCH  15  16
ATOM     16  C   UNL     1      36.372  27.789  30.125  1.00  0.00    -0.000 C 
BRANCH  16  17
ATOM     17  C   UNL     1      36.248  28.942  29.111  1.00  0.00    -0.000 C 
BRANCH  17  18
ATOM     18  C   UNL     1      36.980  30.231  29.541  1.00  0.00    -0.000 C 
BRANCH  18  19
ATOM     19  C   UNL     1      37.782  30.863  28.394  1.00  0.00    -0.003 C 
ATOM     20  C   UNL     1      38.219  32.282  28.746  1.00  0.00     0.004 C 
ENDBRANCH  18  19
ENDBRANCH  17  18
ENDBRANCH  16  17
ENDBRANCH  15  16
ENDBRANCH  14  15
ENDBRANCH  13  14
ENDBRANCH  12  13
ENDBRANCH   1  12
TORSDOF 16
ENDMDL
