MODEL 1
REMARK VINA RESULT:    -4.786      0.000      0.000
REMARK INTER + INTRA:          -8.058
REMARK INTER:                  -7.584
REMARK INTRA:                  -0.474
REMARK UNBOUND:                -0.474
REMARK SMILES CCCCCCCCCCCC(=O)[O-]
REMARK SMILES IDX 7 1 8 2 9 3 10 4 11 5 12 6 13 7 14 8 6 9 5 10 4 11 3 12 2 13
REMARK SMILES IDX 1 14
REMARK H PARENT
REMARK Flexibility Score: inf
ROOT
ATOM      1  C   UNL     1      12.929   5.462  10.612  1.00  0.00     0.000 C 
ENDROOT
BRANCH   1   2
ATOM      2  C   UNL     1      11.820   6.501  10.373  1.00  0.00     0.000 C 
BRANCH   2   3
ATOM      3  C   UNL     1      11.453   7.290  11.644  1.00  0.00     0.000 C 
BRANCH   3   4
ATOM      4  C   UNL     1      11.437   8.824  11.487  1.00  0.00     0.006 C 
BRANCH   4   5
ATOM      5  C   UNL     1      12.092   9.342  10.197  1.00  0.00     0.053 C 
BRANCH   5   6
ATOM      6  C   UNL     1      12.439  10.796  10.291  1.00  0.00     0.041 C 
ATOM      7  O   UNL     1      12.710  11.451   9.250  1.00  0.00    -0.550 OA
ATOM      8  O   UNL     1      12.432  11.435  11.524  1.00  0.00    -0.550 OA
ENDBRANCH   5   6
ENDBRANCH   4   5
ENDBRANCH   3   4
ENDBRANCH   2   3
ENDBRANCH   1   2
BRANCH   1   9
ATOM      9  C   UNL     1      12.486   4.312  11.534  1.00  0.00     0.000 C 
BRANCH   9  10
ATOM     10  C   UNL     1      13.399   3.072  11.522  1.00  0.00    -0.000 C 
BRANCH  10  11
ATOM     11  C   UNL     1      13.046   2.054  12.617  1.00  0.00    -0.000 C 
BRANCH  11  12
ATOM     12  C   UNL     1      12.227   2.709  13.734  1.00  0.00    -0.000 C 
BRANCH  12  13
ATOM     13  C   UNL     1      12.537   2.067  15.092  1.00  0.00    -0.003 C 
ATOM     14  C   UNL     1      14.033   2.099  15.389  1.00  0.00     0.004 C 
ENDBRANCH  12  13
ENDBRANCH  11  12
ENDBRANCH  10  11
ENDBRANCH   9  10
ENDBRANCH   1   9
TORSDOF 10
ENDMDL
MODEL 2
REMARK VINA RESULT:    -4.552      3.581      6.864
REMARK INTER + INTRA:          -7.687
REMARK INTER:                  -6.917
REMARK INTRA:                  -0.769
REMARK UNBOUND:                -0.474
REMARK SMILES CCCCCCCCCCCC(=O)[O-]
REMARK SMILES IDX 7 1 8 2 9 3 10 4 11 5 12 6 13 7 14 8 6 9 5 10 4 11 3 12 2 13
REMARK SMILES IDX 1 14
REMARK H PARENT
REMARK Flexibility Score: inf
ROOT
ATOM      1  C   UNL     1      12.792   5.462  10.439  1.00  0.00     0.000 C 
ENDROOT
BRANCH   1   2
ATOM      2  C   UNL     1      12.252   4.470  11.484  1.00  0.00     0.000 C 
BRANCH   2   3
ATOM      3  C   UNL     1      12.272   3.011  10.992  1.00  0.00     0.000 C 
BRANCH   3   4
ATOM      4  C   UNL     1      11.935   2.812   9.500  1.00  0.00     0.006 C 
BRANCH   4   5
ATOM      5  C   UNL     1      10.494   2.356   9.225  1.00  0.00     0.053 C 
BRANCH   5   6
ATOM      6  C   UNL     1       9.555   3.516   9.092  1.00  0.00     0.041 C 
ATOM      7  O   UNL     1       9.890   4.528   8.423  1.00  0.00    -0.550 OA
ATOM      8  O   UNL     1       8.298   3.464   9.681  1.00  0.00    -0.550 OA
ENDBRANCH   5   6
ENDBRANCH   4   5
ENDBRANCH   3   4
ENDBRANCH   2   3
ENDBRANCH   1   2
BRANCH   1   9
ATOM      9  C   UNL     1      11.900   6.706  10.273  1.00  0.00     0.000 C 
BRANCH   9  10
ATOM     10  C   UNL     1      11.334   7.286  11.582  1.00  0.00    -0.000 C 
BRANCH  10  11
ATOM     11  C   UNL     1      11.394   8.819  11.637  1.00  0.00    -0.000 C 
BRANCH  11  12
ATOM     12  C   UNL     1      11.982   9.393  10.343  1.00  0.00    -0.000 C 
BRANCH  12  13
ATOM     13  C   UNL     1      12.491  10.823  10.557  1.00  0.00    -0.003 C 
ATOM     14  C   UNL     1      11.818  11.473  11.763  1.00  0.00     0.004 C 
ENDBRANCH  12  13
ENDBRANCH  11  12
ENDBRANCH  10  11
ENDBRANCH   9  10
ENDBRANCH   1   9
TORSDOF 10
ENDMDL
MODEL 3
REMARK VINA RESULT:    -4.540      1.828      2.754
REMARK INTER + INTRA:          -7.668
REMARK INTER:                  -6.909
REMARK INTRA:                  -0.759
REMARK UNBOUND:                -0.474
REMARK SMILES CCCCCCCCCCCC(=O)[O-]
REMARK SMILES IDX 7 1 8 2 9 3 10 4 11 5 12 6 13 7 14 8 6 9 5 10 4 11 3 12 2 13
REMARK SMILES IDX 1 14
REMARK H PARENT
REMARK Flexibility Score: inf
ROOT
ATOM      1  C   UNL     1      10.119   4.990  10.611  1.00  0.00     0.000 C 
ENDROOT
BRANCH   1   2
ATOM      2  C   UNL     1      11.279   5.992  10.741  1.00  0.00     0.000 C 
BRANCH   2   3
ATOM      3  C   UNL     1      11.244   6.783  12.062  1.00  0.00     0.000 C 
BRANCH   3   4
ATOM      4  C   UNL     1      11.274   8.318  11.913  1.00  0.00     0.006 C 
BRANCH   4   5
ATOM      5  C   UNL     1      11.843   8.820  10.577  1.00  0.00     0.053 C 
BRANCH   5   6
ATOM      6  C   UNL     1      12.207  10.272  10.634  1.00  0.00     0.041 C 
ATOM      7  O   UNL     1      12.060  10.920  11.703  1.00  0.00    -0.550 OA
ATOM      8  O   UNL     1      12.740  10.900   9.515  1.00  0.00    -0.550 OA
ENDBRANCH   5   6
ENDBRANCH   4   5
ENDBRANCH   3   4
ENDBRANCH   2   3
ENDBRANCH   1   2
BRANCH   1   9
ATOM      9  C   UNL     1      10.024   4.359   9.209  1.00  0.00     0.000 C 
BRANCH   9  10
ATOM     10  C   UNL     1      10.356   2.858   9.142  1.00  0.00    -0.000 C 
BRANCH  10  11
ATOM     11  C   UNL     1      11.851   2.563   9.330  1.00  0.00    -0.000 C 
BRANCH  11  12
ATOM     12  C   UNL     1      12.061   1.238  10.072  1.00  0.00    -0.000 C 
BRANCH  12  13
ATOM     13  C   UNL     1      12.741   1.468  11.427  1.00  0.00    -0.003 C 
ATOM     14  C   UNL     1      13.249   2.902  11.552  1.00  0.00     0.004 C 
ENDBRANCH  12  13
ENDBRANCH  11  12
ENDBRANCH  10  11
ENDBRANCH   9  10
ENDBRANCH   1   9
TORSDOF 10
ENDMDL
MODEL 4
REMARK VINA RESULT:    -4.535      4.130      7.474
REMARK INTER + INTRA:          -7.660
REMARK INTER:                  -6.853
REMARK INTRA:                  -0.806
REMARK UNBOUND:                -0.474
REMARK SMILES CCCCCCCCCCCC(=O)[O-]
REMARK SMILES IDX 7 1 8 2 9 3 10 4 11 5 12 6 13 7 14 8 6 9 5 10 4 11 3 12 2 13
REMARK SMILES IDX 1 14
REMARK H PARENT
REMARK Flexibility Score: inf
ROOT
ATOM      1  C   UNL     1      12.078   9.379  10.225  1.00  0.00     0.000 C 
ENDROOT
BRANCH   1   2
ATOM      2  C   UNL     1      11.351   9.146  11.560  1.00  0.00     0.000 C 
BRANCH   2   3
ATOM      3  C   UNL     1      11.327   7.664  11.980  1.00  0.00     0.000 C 
BRANCH   3   4
ATOM      4  C   UNL     1      11.631   6.655  10.854  1.00  0.00     0.006 C 
BRANCH   4   5
ATOM      5  C   UNL     1      10.866   5.327  10.962  1.00  0.00     0.053 C 
BRANCH   5   6
ATOM      6  C   UNL     1      10.968   4.519   9.704  1.00  0.00     0.041 C 
ATOM      7  O   UNL     1      11.927   3.720   9.541  1.00  0.00    -0.550 OA
ATOM      8  O   UNL     1       9.986   4.624   8.728  1.00  0.00    -0.550 OA
ENDBRANCH   5   6
ENDBRANCH   4   5
ENDBRANCH   3   4
ENDBRANCH   2   3
ENDBRANCH   1   2
BRANCH   1   9
ATOM      9  C   UNL     1      12.592  10.822  10.064  1.00  0.00     0.000 C 
BRANCH   9  10
ATOM     10  C   UNL     1      12.455  11.710  11.314  1.00  0.00    -0.000 C 
BRANCH  10  11
ATOM     11  C   UNL     1      11.547  12.928  11.091  1.00  0.00    -0.000 C 
BRANCH  11  12
ATOM     12  C   UNL     1      10.401  12.954  12.108  1.00  0.00    -0.000 C 
BRANCH  12  13
ATOM     13  C   UNL     1      10.816  12.280  13.421  1.00  0.00    -0.003 C 
ATOM     14  C   UNL     1       9.699  11.391  13.962  1.00  0.00     0.004 C 
ENDBRANCH  12  13
ENDBRANCH  11  12
ENDBRANCH  10  11
ENDBRANCH   9  10
ENDBRANCH   1   9
TORSDOF 10
ENDMDL
MODEL 5
REMARK VINA RESULT:    -4.529      3.983      6.971
REMARK INTER + INTRA:          -7.651
REMARK INTER:                  -6.817
REMARK INTRA:                  -0.834
REMARK UNBOUND:                -0.474
REMARK SMILES CCCCCCCCCCCC(=O)[O-]
REMARK SMILES IDX 7 1 8 2 9 3 10 4 11 5 12 6 13 7 14 8 6 9 5 10 4 11 3 12 2 13
REMARK SMILES IDX 1 14
REMARK H PARENT
REMARK Flexibility Score: inf
ROOT
ATOM      1  C   UNL     1       9.636   4.743  10.568  1.00  0.00     0.000 C 
ENDROOT
BRANCH   1   2
ATOM      2  C   UNL     1      10.102   4.285   9.175  1.00  0.00     0.000 C 
BRANCH   2   3
ATOM      3  C   UNL     1      10.485   2.794   9.132  1.00  0.00     0.000 C 
BRANCH   3   4
ATOM      4  C   UNL     1      11.984   2.491   9.329  1.00  0.00     0.006 C 
BRANCH   4   5
ATOM      5  C   UNL     1      12.285   1.398  10.366  1.00  0.00     0.053 C 
BRANCH   5   6
ATOM      6  C   UNL     1      12.897   1.961  11.612  1.00  0.00     0.041 C 
ATOM      7  O   UNL     1      12.843   1.315  12.692  1.00  0.00    -0.550 OA
ATOM      8  O   UNL     1      13.555   3.184  11.573  1.00  0.00    -0.550 OA
ENDBRANCH   5   6
ENDBRANCH   4   5
ENDBRANCH   3   4
ENDBRANCH   2   3
ENDBRANCH   1   2
BRANCH   1   9
ATOM      9  C   UNL     1      10.684   5.604  11.299  1.00  0.00     0.000 C 
BRANCH   9  10
ATOM     10  C   UNL     1      11.893   6.030  10.446  1.00  0.00    -0.000 C 
BRANCH  10  11
ATOM     11  C   UNL     1      12.032   7.554  10.318  1.00  0.00    -0.000 C 
BRANCH  11  12
ATOM     12  C   UNL     1      11.488   8.262  11.564  1.00  0.00    -0.000 C 
BRANCH  12  13
ATOM     13  C   UNL     1      11.409   9.778  11.344  1.00  0.00    -0.003 C 
ATOM     14  C   UNL     1      12.347  10.222  10.225  1.00  0.00     0.004 C 
ENDBRANCH  12  13
ENDBRANCH  11  12
ENDBRANCH  10  11
ENDBRANCH   9  10
ENDBRANCH   1   9
TORSDOF 10
ENDMDL
MODEL 6
REMARK VINA RESULT:    -4.507      3.435      4.461
REMARK INTER + INTRA:          -7.616
REMARK INTER:                  -6.742
REMARK INTRA:                  -0.874
REMARK UNBOUND:                -0.474
REMARK SMILES CCCCCCCCCCCC(=O)[O-]
REMARK SMILES IDX 7 1 8 2 9 3 10 4 11 5 12 6 13 7 14 8 6 9 5 10 4 11 3 12 2 13
REMARK SMILES IDX 1 14
REMARK H PARENT
REMARK Flexibility Score: inf
ROOT
ATOM      1  C   UNL     1      10.456   6.639  14.040  1.00  0.00     0.000 C 
ENDROOT
BRANCH   1   2
ATOM      2  C   UNL     1      10.534   6.136  12.588  1.00  0.00     0.000 C 
BRANCH   2   3
ATOM      3  C   UNL     1      11.253   7.122  11.649  1.00  0.00     0.000 C 
BRANCH   3   4
ATOM      4  C   UNL     1      12.003   6.478  10.466  1.00  0.00     0.006 C 
BRANCH   4   5
ATOM      5  C   UNL     1      12.340   4.991  10.655  1.00  0.00     0.053 C 
BRANCH   5   6
ATOM      6  C   UNL     1      11.584   4.121   9.698  1.00  0.00     0.041 C 
ATOM      7  O   UNL     1      11.990   2.956   9.445  1.00  0.00    -0.550 OA
ATOM      8  O   UNL     1      10.414   4.584   9.111  1.00  0.00    -0.550 OA
ENDBRANCH   5   6
ENDBRANCH   4   5
ENDBRANCH   3   4
ENDBRANCH   2   3
ENDBRANCH   1   2
BRANCH   1   9
ATOM      9  C   UNL     1      10.185   5.511  15.053  1.00  0.00     0.000 C 
BRANCH   9  10
ATOM     10  C   UNL     1      10.115   4.094  14.455  1.00  0.00    -0.000 C 
BRANCH  10  11
ATOM     11  C   UNL     1      11.326   3.224  14.824  1.00  0.00    -0.000 C 
BRANCH  11  12
ATOM     12  C   UNL     1      11.961   2.606  13.574  1.00  0.00    -0.000 C 
BRANCH  12  13
ATOM     13  C   UNL     1      13.390   2.129  13.861  1.00  0.00    -0.003 C 
ATOM     14  C   UNL     1      13.624   1.963  15.360  1.00  0.00     0.004 C 
ENDBRANCH  12  13
ENDBRANCH  11  12
ENDBRANCH  10  11
ENDBRANCH   9  10
ENDBRANCH   1   9
TORSDOF 10
ENDMDL
MODEL 7
REMARK VINA RESULT:    -4.483      1.474      2.867
REMARK INTER + INTRA:          -7.578
REMARK INTER:                  -7.079
REMARK INTRA:                  -0.499
REMARK UNBOUND:                -0.474
REMARK SMILES CCCCCCCCCCCC(=O)[O-]
REMARK SMILES IDX 7 1 8 2 9 3 10 4 11 5 12 6 13 7 14 8 6 9 5 10 4 11 3 12 2 13
REMARK SMILES IDX 1 14
REMARK H PARENT
REMARK Flexibility Score: inf
ROOT
ATOM      1  C   UNL     1      11.267   7.691  11.923  1.00  0.00     0.000 C 
ENDROOT
BRANCH   1   2
ATOM      2  C   UNL     1      11.899   8.417  10.723  1.00  0.00     0.000 C 
BRANCH   2   3
ATOM      3  C   UNL     1      11.808   9.951  10.833  1.00  0.00     0.000 C 
BRANCH   3   4
ATOM      4  C   UNL     1      12.710  10.737   9.861  1.00  0.00     0.006 C 
BRANCH   4   5
ATOM      5  C   UNL     1      12.315  12.210   9.670  1.00  0.00     0.053 C 
BRANCH   5   6
ATOM      6  C   UNL     1      11.974  12.871  10.970  1.00  0.00     0.041 C 
ATOM      7  O   UNL     1      10.810  13.304  11.175  1.00  0.00    -0.550 OA
ATOM      8  O   UNL     1      12.935  12.979  11.968  1.00  0.00    -0.550 OA
ENDBRANCH   5   6
ENDBRANCH   4   5
ENDBRANCH   3   4
ENDBRANCH   2   3
ENDBRANCH   1   2
BRANCH   1   9
ATOM      9  C   UNL     1      11.024   6.194  11.659  1.00  0.00     0.000 C 
BRANCH   9  10
ATOM     10  C   UNL     1      11.320   5.724  10.223  1.00  0.00    -0.000 C 
BRANCH  10  11
ATOM     11  C   UNL     1      11.992   4.345  10.167  1.00  0.00    -0.000 C 
BRANCH  11  12
ATOM     12  C   UNL     1      13.030   4.193  11.285  1.00  0.00    -0.000 C 
BRANCH  12  13
ATOM     13  C   UNL     1      13.245   2.717  11.640  1.00  0.00    -0.003 C 
ATOM     14  C   UNL     1      13.089   2.483  13.140  1.00  0.00     0.004 C 
ENDBRANCH  12  13
ENDBRANCH  11  12
ENDBRANCH  10  11
ENDBRANCH   9  10
ENDBRANCH   1   9
TORSDOF 10
ENDMDL
MODEL 8
REMARK VINA RESULT:    -4.460      3.869      7.871
REMARK INTER + INTRA:          -7.541
REMARK INTER:                  -7.114
REMARK INTRA:                  -0.427
REMARK UNBOUND:                -0.474
REMARK SMILES CCCCCCCCCCCC(=O)[O-]
REMARK SMILES IDX 7 1 8 2 9 3 10 4 11 5 12 6 13 7 14 8 6 9 5 10 4 11 3 12 2 13
REMARK SMILES IDX 1 14
REMARK H PARENT
REMARK Flexibility Score: inf
ROOT
ATOM      1  C   UNL     1      11.401   6.668  11.959  1.00  0.00     0.000 C 
ENDROOT
BRANCH   1   2
ATOM      2  C   UNL     1      11.979   6.123  10.642  1.00  0.00     0.000 C 
BRANCH   2   3
ATOM      3  C   UNL     1      11.048   5.109   9.952  1.00  0.00     0.000 C 
BRANCH   3   4
ATOM      4  C   UNL     1      11.097   3.675  10.519  1.00  0.00     0.006 C 
BRANCH   4   5
ATOM      5  C   UNL     1      12.431   2.946  10.298  1.00  0.00     0.053 C 
BRANCH   5   6
ATOM      6  C   UNL     1      12.881   2.218  11.528  1.00  0.00     0.041 C 
ATOM      7  O   UNL     1      12.914   0.959  11.543  1.00  0.00    -0.550 OA
ATOM      8  O   UNL     1      13.296   2.931  12.646  1.00  0.00    -0.550 OA
ENDBRANCH   5   6
ENDBRANCH   4   5
ENDBRANCH   3   4
ENDBRANCH   2   3
ENDBRANCH   1   2
BRANCH   1   9
ATOM      9  C   UNL     1      11.185   8.193  11.934  1.00  0.00     0.000 C 
BRANCH   9  10
ATOM     10  C   UNL     1      11.671   8.904  10.658  1.00  0.00    -0.000 C 
BRANCH  10  11
ATOM     11  C   UNL     1      12.251  10.299  10.931  1.00  0.00    -0.000 C 
BRANCH  11  12
ATOM     12  C   UNL     1      12.806  10.924   9.645  1.00  0.00    -0.000 C 
BRANCH  12  13
ATOM     13  C   UNL     1      12.346  12.380   9.499  1.00  0.00    -0.003 C 
ATOM     14  C   UNL     1      12.857  12.990   8.197  1.00  0.00     0.004 C 
ENDBRANCH  12  13
ENDBRANCH  11  12
ENDBRANCH  10  11
ENDBRANCH   9  10
ENDBRANCH   1   9
TORSDOF 10
ENDMDL
MODEL 9
REMARK VINA RESULT:    -4.443      3.944      5.822
REMARK INTER + INTRA:          -7.514
REMARK INTER:                  -5.964
REMARK INTRA:                  -1.550
REMARK UNBOUND:                -0.474
REMARK SMILES CCCCCCCCCCCC(=O)[O-]
REMARK SMILES IDX 7 1 8 2 9 3 10 4 11 5 12 6 13 7 14 8 6 9 5 10 4 11 3 12 2 13
REMARK SMILES IDX 1 14
REMARK H PARENT
REMARK Flexibility Score: inf
ROOT
ATOM      1  C   UNL     1      13.530   4.566  11.341  1.00  0.00     0.000 C 
ENDROOT
BRANCH   1   2
ATOM      2  C   UNL     1      13.204   3.066  11.444  1.00  0.00     0.000 C 
BRANCH   2   3
ATOM      3  C   UNL     1      12.243   2.584  10.341  1.00  0.00     0.000 C 
BRANCH   3   4
ATOM      4  C   UNL     1      10.909   1.993  10.839  1.00  0.00     0.006 C 
BRANCH   4   5
ATOM      5  C   UNL     1       9.668   2.826  10.484  1.00  0.00     0.053 C 
BRANCH   5   6
ATOM      6  C   UNL     1       9.572   3.088   9.012  1.00  0.00     0.041 C 
ATOM      7  O   UNL     1       9.283   2.154   8.220  1.00  0.00    -0.550 OA
ATOM      8  O   UNL     1       9.770   4.372   8.520  1.00  0.00    -0.550 OA
ENDBRANCH   5   6
ENDBRANCH   4   5
ENDBRANCH   3   4
ENDBRANCH   2   3
ENDBRANCH   1   2
BRANCH   1   9
ATOM      9  C   UNL     1      12.730   5.281  10.237  1.00  0.00     0.000 C 
BRANCH   9  10
ATOM     10  C   UNL     1      11.915   6.501  10.703  1.00  0.00    -0.000 C 
BRANCH  10  11
ATOM     11  C   UNL     1      10.693   6.121  11.552  1.00  0.00    -0.000 C 
BRANCH  11  12
ATOM     12  C   UNL     1      10.709   6.854  12.898  1.00  0.00    -0.000 C 
BRANCH  12  13
ATOM     13  C   UNL     1      10.198   5.947  14.024  1.00  0.00    -0.003 C 
ATOM     14  C   UNL     1      10.518   4.482  13.740  1.00  0.00     0.004 C 
ENDBRANCH  12  13
ENDBRANCH  11  12
ENDBRANCH  10  11
ENDBRANCH   9  10
ENDBRANCH   1   9
TORSDOF 10
ENDMDL
