MODEL 1
REMARK VINA RESULT:    -5.112      0.000      0.000
REMARK INTER + INTRA:         -16.242
REMARK INTER:                 -13.480
REMARK INTRA:                  -2.761
REMARK UNBOUND:                -2.761
REMARK SMILES CCCCCCCCCCCCCCCCCCCCCCCCCCCCCC(=O)[O-]
REMARK SMILES IDX 16 1 17 2 18 3 19 4 20 5 21 6 22 7 23 8 24 9 25 10 26 11
REMARK SMILES IDX 27 12 28 13 29 14 30 15 31 16 32 17 15 18 14 19 13 20 12 21
REMARK SMILES IDX 11 22 10 23 9 24 8 25 7 26 6 27 5 28 4 29 3 30 2 31 1 32
REMARK H PARENT
REMARK Flexibility Score: inf
ROOT
ATOM      1  C   UNL     1      -5.640  32.154   6.470  1.00  0.00     0.000 C 
ENDROOT
BRANCH   1   2
ATOM      2  C   UNL     1      -4.643  30.988   6.312  1.00  0.00     0.000 C 
BRANCH   2   3
ATOM      3  C   UNL     1      -3.715  30.786   7.528  1.00  0.00     0.000 C 
BRANCH   3   4
ATOM      4  C   UNL     1      -3.183  29.347   7.644  1.00  0.00     0.000 C 
BRANCH   4   5
ATOM      5  C   UNL     1      -3.474  28.497   6.392  1.00  0.00     0.000 C 
BRANCH   5   6
ATOM      6  C   UNL     1      -4.522  27.387   6.589  1.00  0.00     0.000 C 
BRANCH   6   7
ATOM      7  C   UNL     1      -5.938  27.815   6.169  1.00  0.00     0.000 C 
BRANCH   7   8
ATOM      8  C   UNL     1      -6.238  27.494   4.696  1.00  0.00     0.000 C 
BRANCH   8   9
ATOM      9  C   UNL     1      -5.421  28.360   3.724  1.00  0.00     0.000 C 
BRANCH   9  10
ATOM     10  C   UNL     1      -4.414  27.510   2.939  1.00  0.00     0.000 C 
BRANCH  10  11
ATOM     11  C   UNL     1      -3.522  28.395   2.054  1.00  0.00     0.000 C 
BRANCH  11  12
ATOM     12  C   UNL     1      -2.527  27.584   1.204  1.00  0.00     0.000 C 
BRANCH  12  13
ATOM     13  C   UNL     1      -1.433  28.420   0.508  1.00  0.00     0.006 C 
BRANCH  13  14
ATOM     14  C   UNL     1      -0.120  28.538   1.298  1.00  0.00     0.053 C 
BRANCH  14  15
ATOM     15  C   UNL     1       0.848  29.473   0.642  1.00  0.00     0.041 C 
ATOM     16  O   UNL     1       1.028  29.429  -0.603  1.00  0.00    -0.550 OA
ATOM     17  O   UNL     1       1.531  30.414   1.403  1.00  0.00    -0.550 OA
ENDBRANCH  14  15
ENDBRANCH  13  14
ENDBRANCH  12  13
ENDBRANCH  11  12
ENDBRANCH  10  11
ENDBRANCH   9  10
ENDBRANCH   8   9
ENDBRANCH   7   8
ENDBRANCH   6   7
ENDBRANCH   5   6
ENDBRANCH   4   5
ENDBRANCH   3   4
ENDBRANCH   2   3
ENDBRANCH   1   2
BRANCH   1  18
ATOM     18  C   UNL     1      -7.082  31.746   6.829  1.00  0.00     0.000 C 
BRANCH  18  19
ATOM     19  C   UNL     1      -8.044  31.629   5.632  1.00  0.00     0.000 C 
BRANCH  19  20
ATOM     20  C   UNL     1      -8.142  32.935   4.823  1.00  0.00     0.000 C 
BRANCH  20  21
ATOM     21  C   UNL     1      -9.064  33.978   5.478  1.00  0.00     0.000 C 
BRANCH  21  22
ATOM     22  C   UNL     1      -8.344  35.217   6.053  1.00  0.00     0.000 C 
BRANCH  22  23
ATOM     23  C   UNL     1      -8.796  36.570   5.468  1.00  0.00     0.000 C 
BRANCH  23  24
ATOM     24  C   UNL     1      -7.984  37.791   5.943  1.00  0.00    -0.000 C 
BRANCH  24  25
ATOM     25  C   UNL     1      -8.826  38.939   6.525  1.00  0.00    -0.000 C 
BRANCH  25  26
ATOM     26  C   UNL     1     -10.311  38.837   6.148  1.00  0.00    -0.000 C 
BRANCH  26  27
ATOM     27  C   UNL     1     -11.208  39.257   7.323  1.00  0.00    -0.000 C 
BRANCH  27  28
ATOM     28  C   UNL     1     -12.237  38.173   7.700  1.00  0.00    -0.000 C 
BRANCH  28  29
ATOM     29  C   UNL     1     -11.656  36.745   7.751  1.00  0.00    -0.000 C 
BRANCH  29  30
ATOM     30  C   UNL     1     -10.727  36.487   8.958  1.00  0.00    -0.000 C 
BRANCH  30  31
ATOM     31  C   UNL     1     -10.929  35.102   9.601  1.00  0.00    -0.003 C 
ATOM     32  C   UNL     1     -11.152  34.006   8.560  1.00  0.00     0.004 C 
ENDBRANCH  30  31
ENDBRANCH  29  30
ENDBRANCH  28  29
ENDBRANCH  27  28
ENDBRANCH  26  27
ENDBRANCH  25  26
ENDBRANCH  24  25
ENDBRANCH  23  24
ENDBRANCH  22  23
ENDBRANCH  21  22
ENDBRANCH  20  21
ENDBRANCH  19  20
ENDBRANCH  18  19
ENDBRANCH   1  18
TORSDOF 28
ENDMDL
MODEL 2
REMARK VINA RESULT:    -5.022      4.524     11.910
REMARK INTER + INTRA:         -16.003
REMARK INTER:                 -13.458
REMARK INTRA:                  -2.544
REMARK UNBOUND:                -2.761
REMARK SMILES CCCCCCCCCCCCCCCCCCCCCCCCCCCCCC(=O)[O-]
REMARK SMILES IDX 16 1 17 2 18 3 19 4 20 5 21 6 22 7 23 8 24 9 25 10 26 11
REMARK SMILES IDX 27 12 28 13 29 14 30 15 31 16 32 17 15 18 14 19 13 20 12 21
REMARK SMILES IDX 11 22 10 23 9 24 8 25 7 26 6 27 5 28 4 29 3 30 2 31 1 32
REMARK H PARENT
REMARK Flexibility Score: inf
ROOT
ATOM      1  C   UNL     1      -5.320  31.885   6.591  1.00  0.00     0.000 C 
ENDROOT
BRANCH   1   2
ATOM      2  C   UNL     1      -6.812  31.546   6.787  1.00  0.00     0.000 C 
BRANCH   2   3
ATOM      3  C   UNL     1      -7.672  31.743   5.522  1.00  0.00     0.000 C 
BRANCH   3   4
ATOM      4  C   UNL     1      -9.121  32.154   5.839  1.00  0.00     0.000 C 
BRANCH   4   5
ATOM      5  C   UNL     1      -9.308  32.616   7.297  1.00  0.00     0.000 C 
BRANCH   5   6
ATOM      6  C   UNL     1     -10.379  33.701   7.503  1.00  0.00     0.000 C 
BRANCH   6   7
ATOM      7  C   UNL     1      -9.839  35.127   7.299  1.00  0.00     0.000 C 
BRANCH   7   8
ATOM      8  C   UNL     1     -10.327  35.761   5.987  1.00  0.00     0.000 C 
BRANCH   8   9
ATOM      9  C   UNL     1      -9.239  36.599   5.297  1.00  0.00     0.000 C 
BRANCH   9  10
ATOM     10  C   UNL     1      -8.549  37.539   6.294  1.00  0.00     0.000 C 
BRANCH  10  11
ATOM     11  C   UNL     1      -9.135  38.957   6.207  1.00  0.00     0.000 C 
BRANCH  11  12
ATOM     12  C   UNL     1     -10.538  38.988   5.576  1.00  0.00     0.000 C 
BRANCH  12  13
ATOM     13  C   UNL     1     -11.687  39.291   6.559  1.00  0.00     0.006 C 
BRANCH  13  14
ATOM     14  C   UNL     1     -11.307  39.166   8.043  1.00  0.00     0.053 C 
BRANCH  14  15
ATOM     15  C   UNL     1     -11.963  37.987   8.694  1.00  0.00     0.041 C 
ATOM     16  O   UNL     1     -12.768  37.270   8.044  1.00  0.00    -0.550 OA
ATOM     17  O   UNL     1     -11.660  37.662  10.010  1.00  0.00    -0.550 OA
ENDBRANCH  14  15
ENDBRANCH  13  14
ENDBRANCH  12  13
ENDBRANCH  11  12
ENDBRANCH  10  11
ENDBRANCH   9  10
ENDBRANCH   8   9
ENDBRANCH   7   8
ENDBRANCH   6   7
ENDBRANCH   5   6
ENDBRANCH   4   5
ENDBRANCH   3   4
ENDBRANCH   2   3
ENDBRANCH   1   2
BRANCH   1  18
ATOM     18  C   UNL     1      -4.383  30.672   6.434  1.00  0.00     0.000 C 
BRANCH  18  19
ATOM     19  C   UNL     1      -3.384  30.466   7.589  1.00  0.00     0.000 C 
BRANCH  19  20
ATOM     20  C   UNL     1      -3.187  28.981   7.941  1.00  0.00     0.000 C 
BRANCH  20  21
ATOM     21  C   UNL     1      -3.410  28.044   6.741  1.00  0.00     0.000 C 
BRANCH  21  22
ATOM     22  C   UNL     1      -4.603  27.075   6.882  1.00  0.00     0.000 C 
BRANCH  22  23
ATOM     23  C   UNL     1      -5.841  27.430   6.035  1.00  0.00     0.000 C 
BRANCH  23  24
ATOM     24  C   UNL     1      -5.716  27.112   4.531  1.00  0.00    -0.000 C 
BRANCH  24  25
ATOM     25  C   UNL     1      -5.424  28.328   3.636  1.00  0.00    -0.000 C 
BRANCH  25  26
ATOM     26  C   UNL     1      -3.966  28.377   3.158  1.00  0.00    -0.000 C 
BRANCH  26  27
ATOM     27  C   UNL     1      -3.887  28.740   1.667  1.00  0.00    -0.000 C 
BRANCH  27  28
ATOM     28  C   UNL     1      -2.837  27.903   0.908  1.00  0.00    -0.000 C 
BRANCH  28  29
ATOM     29  C   UNL     1      -1.408  28.021   1.477  1.00  0.00    -0.000 C 
BRANCH  29  30
ATOM     30  C   UNL     1      -0.393  28.655   0.501  1.00  0.00    -0.000 C 
BRANCH  30  31
ATOM     31  C   UNL     1       0.873  29.190   1.196  1.00  0.00    -0.003 C 
ATOM     32  C   UNL     1       1.555  30.295   0.390  1.00  0.00     0.004 C 
ENDBRANCH  30  31
ENDBRANCH  29  30
ENDBRANCH  28  29
ENDBRANCH  27  28
ENDBRANCH  26  27
ENDBRANCH  25  26
ENDBRANCH  24  25
ENDBRANCH  23  24
ENDBRANCH  22  23
ENDBRANCH  21  22
ENDBRANCH  20  21
ENDBRANCH  19  20
ENDBRANCH  18  19
ENDBRANCH   1  18
TORSDOF 28
ENDMDL
MODEL 3
REMARK VINA RESULT:    -5.008      2.983      6.282
REMARK INTER + INTRA:         -15.968
REMARK INTER:                 -14.169
REMARK INTRA:                  -1.799
REMARK UNBOUND:                -2.761
REMARK SMILES CCCCCCCCCCCCCCCCCCCCCCCCCCCCCC(=O)[O-]
REMARK SMILES IDX 16 1 17 2 18 3 19 4 20 5 21 6 22 7 23 8 24 9 25 10 26 11
REMARK SMILES IDX 27 12 28 13 29 14 30 15 31 16 32 17 15 18 14 19 13 20 12 21
REMARK SMILES IDX 11 22 10 23 9 24 8 25 7 26 6 27 5 28 4 29 3 30 2 31 1 32
REMARK H PARENT
REMARK Flexibility Score: inf
ROOT
ATOM      1  C   UNL     1      -3.997  28.460   3.355  1.00  0.00     0.000 C 
ENDROOT
BRANCH   1   2
ATOM      2  C   UNL     1      -3.772  28.588   1.835  1.00  0.00     0.000 C 
BRANCH   2   3
ATOM      3  C   UNL     1      -2.888  27.476   1.235  1.00  0.00     0.000 C 
BRANCH   3   4
ATOM      4  C   UNL     1      -1.586  28.013   0.615  1.00  0.00     0.000 C 
BRANCH   4   5
ATOM      5  C   UNL     1      -0.504  28.322   1.667  1.00  0.00     0.000 C 
BRANCH   5   6
ATOM      6  C   UNL     1       0.732  29.066   1.131  1.00  0.00     0.000 C 
BRANCH   6   7
ATOM      7  C   UNL     1       0.481  29.747  -0.225  1.00  0.00     0.000 C 
BRANCH   7   8
ATOM      8  C   UNL     1       1.513  29.339  -1.289  1.00  0.00     0.000 C 
BRANCH   8   9
ATOM      9  C   UNL     1       0.872  28.617  -2.486  1.00  0.00     0.000 C 
BRANCH   9  10
ATOM     10  C   UNL     1       1.922  28.270  -3.549  1.00  0.00     0.000 C 
BRANCH  10  11
ATOM     11  C   UNL     1       2.597  29.540  -4.088  1.00  0.00     0.000 C 
BRANCH  11  12
ATOM     12  C   UNL     1       4.131  29.427  -4.141  1.00  0.00     0.000 C 
BRANCH  12  13
ATOM     13  C   UNL     1       4.811  29.154  -2.784  1.00  0.00     0.006 C 
BRANCH  13  14
ATOM     14  C   UNL     1       5.781  30.253  -2.323  1.00  0.00     0.053 C 
BRANCH  14  15
ATOM     15  C   UNL     1       5.451  31.583  -2.927  1.00  0.00     0.041 C 
ATOM     16  O   UNL     1       6.053  31.977  -3.960  1.00  0.00    -0.550 OA
ATOM     17  O   UNL     1       4.457  32.375  -2.366  1.00  0.00    -0.550 OA
ENDBRANCH  14  15
ENDBRANCH  13  14
ENDBRANCH  12  13
ENDBRANCH  11  12
ENDBRANCH  10  11
ENDBRANCH   9  10
ENDBRANCH   8   9
ENDBRANCH   7   8
ENDBRANCH   6   7
ENDBRANCH   5   6
ENDBRANCH   4   5
ENDBRANCH   3   4
ENDBRANCH   2   3
ENDBRANCH   1   2
BRANCH   1  18
ATOM     18  C   UNL     1      -5.453  28.202   3.789  1.00  0.00     0.000 C 
BRANCH  18  19
ATOM     19  C   UNL     1      -5.716  28.330   5.301  1.00  0.00     0.000 C 
BRANCH  19  20
ATOM     20  C   UNL     1      -6.403  29.655   5.672  1.00  0.00     0.000 C 
BRANCH  20  21
ATOM     21  C   UNL     1      -5.407  30.753   6.086  1.00  0.00     0.000 C 
BRANCH  21  22
ATOM     22  C   UNL     1      -6.020  32.160   6.256  1.00  0.00     0.000 C 
BRANCH  22  23
ATOM     23  C   UNL     1      -7.448  32.188   6.835  1.00  0.00     0.000 C 
BRANCH  23  24
ATOM     24  C   UNL     1      -8.481  32.959   5.990  1.00  0.00    -0.000 C 
BRANCH  24  25
ATOM     25  C   UNL     1      -7.887  34.044   5.076  1.00  0.00    -0.000 C 
BRANCH  25  26
ATOM     26  C   UNL     1      -8.343  35.459   5.461  1.00  0.00    -0.000 C 
BRANCH  26  27
ATOM     27  C   UNL     1      -9.351  35.418   6.619  1.00  0.00    -0.000 C 
BRANCH  27  28
ATOM     28  C   UNL     1     -10.449  36.492   6.488  1.00  0.00    -0.000 C 
BRANCH  28  29
ATOM     29  C   UNL     1     -10.164  37.553   5.404  1.00  0.00    -0.000 C 
BRANCH  29  30
ATOM     30  C   UNL     1     -10.319  39.009   5.894  1.00  0.00    -0.000 C 
BRANCH  30  31
ATOM     31  C   UNL     1     -11.581  39.238   6.747  1.00  0.00    -0.003 C 
ATOM     32  C   UNL     1     -12.597  40.141   6.049  1.00  0.00     0.004 C 
ENDBRANCH  30  31
ENDBRANCH  29  30
ENDBRANCH  28  29
ENDBRANCH  27  28
ENDBRANCH  26  27
ENDBRANCH  25  26
ENDBRANCH  24  25
ENDBRANCH  23  24
ENDBRANCH  22  23
ENDBRANCH  21  22
ENDBRANCH  20  21
ENDBRANCH  19  20
ENDBRANCH  18  19
ENDBRANCH   1  18
TORSDOF 28
ENDMDL
MODEL 4
REMARK VINA RESULT:    -4.876      1.495      3.416
REMARK INTER + INTRA:         -15.617
REMARK INTER:                 -12.620
REMARK INTRA:                  -2.997
REMARK UNBOUND:                -2.761
REMARK SMILES CCCCCCCCCCCCCCCCCCCCCCCCCCCCCC(=O)[O-]
REMARK SMILES IDX 16 1 17 2 18 3 19 4 20 5 21 6 22 7 23 8 24 9 25 10 26 11
REMARK SMILES IDX 27 12 28 13 29 14 30 15 31 16 32 17 15 18 14 19 13 20 12 21
REMARK SMILES IDX 11 22 10 23 9 24 8 25 7 26 6 27 5 28 4 29 3 30 2 31 1 32
REMARK H PARENT
REMARK Flexibility Score: inf
ROOT
ATOM      1  C   UNL     1      -6.846  32.990   5.808  1.00  0.00     0.000 C 
ENDROOT
BRANCH   1   2
ATOM      2  C   UNL     1      -7.034  31.467   5.964  1.00  0.00     0.000 C 
BRANCH   2   3
ATOM      3  C   UNL     1      -8.354  30.933   5.372  1.00  0.00     0.000 C 
BRANCH   3   4
ATOM      4  C   UNL     1      -8.220  29.515   4.789  1.00  0.00     0.000 C 
BRANCH   4   5
ATOM      5  C   UNL     1      -8.141  28.425   5.874  1.00  0.00     0.000 C 
BRANCH   5   6
ATOM      6  C   UNL     1      -6.993  27.416   5.700  1.00  0.00     0.000 C 
BRANCH   6   7
ATOM      7  C   UNL     1      -5.749  27.771   6.531  1.00  0.00     0.000 C 
BRANCH   7   8
ATOM      8  C   UNL     1      -4.460  27.769   5.694  1.00  0.00     0.000 C 
BRANCH   8   9
ATOM      9  C   UNL     1      -4.554  28.684   4.463  1.00  0.00     0.000 C 
BRANCH   9  10
ATOM     10  C   UNL     1      -4.586  27.865   3.166  1.00  0.00     0.000 C 
BRANCH  10  11
ATOM     11  C   UNL     1      -3.857  28.603   2.033  1.00  0.00     0.000 C 
BRANCH  11  12
ATOM     12  C   UNL     1      -2.858  27.707   1.279  1.00  0.00     0.000 C 
BRANCH  12  13
ATOM     13  C   UNL     1      -1.399  28.208   1.288  1.00  0.00     0.006 C 
BRANCH  13  14
ATOM     14  C   UNL     1      -0.377  27.208   0.723  1.00  0.00     0.053 C 
BRANCH  14  15
ATOM     15  C   UNL     1       0.093  27.598  -0.644  1.00  0.00     0.041 C 
ATOM     16  O   UNL     1       0.890  28.561  -0.791  1.00  0.00    -0.550 OA
ATOM     17  O   UNL     1      -0.326  26.876  -1.755  1.00  0.00    -0.550 OA
ENDBRANCH  14  15
ENDBRANCH  13  14
ENDBRANCH  12  13
ENDBRANCH  11  12
ENDBRANCH  10  11
ENDBRANCH   9  10
ENDBRANCH   8   9
ENDBRANCH   7   8
ENDBRANCH   6   7
ENDBRANCH   5   6
ENDBRANCH   4   5
ENDBRANCH   3   4
ENDBRANCH   2   3
ENDBRANCH   1   2
BRANCH   1  18
ATOM     18  C   UNL     1      -8.062  33.751   5.244  1.00  0.00     0.000 C 
BRANCH  18  19
ATOM     19  C   UNL     1      -8.734  34.726   6.228  1.00  0.00     0.000 C 
BRANCH  19  20
ATOM     20  C   UNL     1     -10.121  35.188   5.748  1.00  0.00     0.000 C 
BRANCH  20  21
ATOM     21  C   UNL     1     -11.112  35.414   6.903  1.00  0.00     0.000 C 
BRANCH  21  22
ATOM     22  C   UNL     1     -10.463  35.654   8.283  1.00  0.00     0.000 C 
BRANCH  22  23
ATOM     23  C   UNL     1     -11.403  35.472   9.491  1.00  0.00     0.000 C 
BRANCH  23  24
ATOM     24  C   UNL     1     -12.255  36.706   9.848  1.00  0.00    -0.000 C 
BRANCH  24  25
ATOM     25  C   UNL     1     -11.521  38.052   9.735  1.00  0.00    -0.000 C 
BRANCH  25  26
ATOM     26  C   UNL     1     -12.468  39.256   9.837  1.00  0.00    -0.000 C 
BRANCH  26  27
ATOM     27  C   UNL     1     -12.652  39.930   8.468  1.00  0.00    -0.000 C 
BRANCH  27  28
ATOM     28  C   UNL     1     -12.323  38.986   7.294  1.00  0.00    -0.000 C 
BRANCH  28  29
ATOM     29  C   UNL     1     -11.583  39.669   6.126  1.00  0.00    -0.000 C 
BRANCH  29  30
ATOM     30  C   UNL     1     -10.338  38.898   5.633  1.00  0.00    -0.000 C 
BRANCH  30  31
ATOM     31  C   UNL     1      -9.191  38.867   6.660  1.00  0.00    -0.003 C 
ATOM     32  C   UNL     1      -7.923  38.230   6.093  1.00  0.00     0.004 C 
ENDBRANCH  30  31
ENDBRANCH  29  30
ENDBRANCH  28  29
ENDBRANCH  27  28
ENDBRANCH  26  27
ENDBRANCH  25  26
ENDBRANCH  24  25
ENDBRANCH  23  24
ENDBRANCH  22  23
ENDBRANCH  21  22
ENDBRANCH  20  21
ENDBRANCH  19  20
ENDBRANCH  18  19
ENDBRANCH   1  18
TORSDOF 28
ENDMDL
MODEL 5
REMARK VINA RESULT:    -4.870      4.566     13.018
REMARK INTER + INTRA:         -15.603
REMARK INTER:                 -13.129
REMARK INTRA:                  -2.474
REMARK UNBOUND:                -2.761
REMARK SMILES CCCCCCCCCCCCCCCCCCCCCCCCCCCCCC(=O)[O-]
REMARK SMILES IDX 16 1 17 2 18 3 19 4 20 5 21 6 22 7 23 8 24 9 25 10 26 11
REMARK SMILES IDX 27 12 28 13 29 14 30 15 31 16 32 17 15 18 14 19 13 20 12 21
REMARK SMILES IDX 11 22 10 23 9 24 8 25 7 26 6 27 5 28 4 29 3 30 2 31 1 32
REMARK H PARENT
REMARK Flexibility Score: inf
ROOT
ATOM      1  C   UNL     1      -4.541  28.062   3.152  1.00  0.00     0.000 C 
ENDROOT
BRANCH   1   2
ATOM      2  C   UNL     1      -4.119  28.505   4.567  1.00  0.00     0.000 C 
BRANCH   2   3
ATOM      3  C   UNL     1      -5.287  29.000   5.445  1.00  0.00     0.000 C 
BRANCH   3   4
ATOM      4  C   UNL     1      -6.322  27.900   5.741  1.00  0.00     0.000 C 
BRANCH   4   5
ATOM      5  C   UNL     1      -7.743  28.274   5.280  1.00  0.00     0.000 C 
BRANCH   5   6
ATOM      6  C   UNL     1      -7.880  29.678   4.666  1.00  0.00     0.000 C 
BRANCH   6   7
ATOM      7  C   UNL     1      -8.860  30.579   5.436  1.00  0.00     0.000 C 
BRANCH   7   8
ATOM      8  C   UNL     1      -8.151  31.485   6.455  1.00  0.00     0.000 C 
BRANCH   8   9
ATOM      9  C   UNL     1      -7.133  32.430   5.797  1.00  0.00     0.000 C 
BRANCH   9  10
ATOM     10  C   UNL     1      -7.512  33.899   6.027  1.00  0.00     0.000 C 
BRANCH  10  11
ATOM     11  C   UNL     1      -8.751  34.281   5.203  1.00  0.00     0.000 C 
BRANCH  11  12
ATOM     12  C   UNL     1      -9.839  34.975   6.042  1.00  0.00     0.000 C 
BRANCH  12  13
ATOM     13  C   UNL     1      -9.313  35.993   7.075  1.00  0.00     0.006 C 
BRANCH  13  14
ATOM     14  C   UNL     1     -10.123  37.296   7.156  1.00  0.00     0.053 C 
BRANCH  14  15
ATOM     15  C   UNL     1      -9.624  38.328   6.192  1.00  0.00     0.041 C 
ATOM     16  O   UNL     1      -8.390  38.548   6.080  1.00  0.00    -0.550 OA
ATOM     17  O   UNL     1     -10.522  39.027   5.394  1.00  0.00    -0.550 OA
ENDBRANCH  14  15
ENDBRANCH  13  14
ENDBRANCH  12  13
ENDBRANCH  11  12
ENDBRANCH  10  11
ENDBRANCH   9  10
ENDBRANCH   8   9
ENDBRANCH   7   8
ENDBRANCH   6   7
ENDBRANCH   5   6
ENDBRANCH   4   5
ENDBRANCH   3   4
ENDBRANCH   2   3
ENDBRANCH   1   2
BRANCH   1  18
ATOM     18  C   UNL     1      -3.659  28.589   2.003  1.00  0.00     0.000 C 
BRANCH  18  19
ATOM     19  C   UNL     1      -2.846  27.514   1.259  1.00  0.00     0.000 C 
BRANCH  19  20
ATOM     20  C   UNL     1      -1.533  28.063   0.676  1.00  0.00     0.000 C 
BRANCH  20  21
ATOM     21  C   UNL     1      -0.454  28.302   1.747  1.00  0.00     0.000 C 
BRANCH  21  22
ATOM     22  C   UNL     1       0.776  29.102   1.267  1.00  0.00     0.000 C 
BRANCH  22  23
ATOM     23  C   UNL     1       0.589  29.860  -0.062  1.00  0.00     0.000 C 
BRANCH  23  24
ATOM     24  C   UNL     1       1.605  29.504  -1.166  1.00  0.00    -0.000 C 
BRANCH  24  25
ATOM     25  C   UNL     1       1.014  28.746  -2.367  1.00  0.00    -0.000 C 
BRANCH  25  26
ATOM     26  C   UNL     1       2.077  27.978  -3.165  1.00  0.00    -0.000 C 
BRANCH  26  27
ATOM     27  C   UNL     1       3.421  28.722  -3.152  1.00  0.00    -0.000 C 
BRANCH  27  28
ATOM     28  C   UNL     1       3.653  29.548  -4.433  1.00  0.00    -0.000 C 
BRANCH  28  29
ATOM     29  C   UNL     1       3.416  31.062  -4.256  1.00  0.00    -0.000 C 
BRANCH  29  30
ATOM     30  C   UNL     1       4.663  31.844  -3.790  1.00  0.00    -0.000 C 
BRANCH  30  31
ATOM     31  C   UNL     1       4.496  32.494  -2.404  1.00  0.00    -0.003 C 
ATOM     32  C   UNL     1       4.789  31.517  -1.266  1.00  0.00     0.004 C 
ENDBRANCH  30  31
ENDBRANCH  29  30
ENDBRANCH  28  29
ENDBRANCH  27  28
ENDBRANCH  26  27
ENDBRANCH  25  26
ENDBRANCH  24  25
ENDBRANCH  23  24
ENDBRANCH  22  23
ENDBRANCH  21  22
ENDBRANCH  20  21
ENDBRANCH  19  20
ENDBRANCH  18  19
ENDBRANCH   1  18
TORSDOF 28
ENDMDL
MODEL 6
REMARK VINA RESULT:    -4.867      4.032      5.698
REMARK INTER + INTRA:         -15.595
REMARK INTER:                 -11.888
REMARK INTRA:                  -3.707
REMARK UNBOUND:                -2.761
REMARK SMILES CCCCCCCCCCCCCCCCCCCCCCCCCCCCCC(=O)[O-]
REMARK SMILES IDX 16 1 17 2 18 3 19 4 20 5 21 6 22 7 23 8 24 9 25 10 26 11
REMARK SMILES IDX 27 12 28 13 29 14 30 15 31 16 32 17 15 18 14 19 13 20 12 21
REMARK SMILES IDX 11 22 10 23 9 24 8 25 7 26 6 27 5 28 4 29 3 30 2 31 1 32
REMARK H PARENT
REMARK Flexibility Score: inf
ROOT
ATOM      1  C   UNL     1      -7.975  34.071   5.046  1.00  0.00     0.000 C 
ENDROOT
BRANCH   1   2
ATOM      2  C   UNL     1      -6.697  33.594   5.767  1.00  0.00     0.000 C 
BRANCH   2   3
ATOM      3  C   UNL     1      -6.802  32.172   6.356  1.00  0.00     0.000 C 
BRANCH   3   4
ATOM      4  C   UNL     1      -5.595  31.796   7.234  1.00  0.00     0.000 C 
BRANCH   4   5
ATOM      5  C   UNL     1      -4.496  31.049   6.455  1.00  0.00     0.000 C 
BRANCH   5   6
ATOM      6  C   UNL     1      -3.662  30.062   7.292  1.00  0.00     0.000 C 
BRANCH   6   7
ATOM      7  C   UNL     1      -3.260  28.801   6.510  1.00  0.00     0.000 C 
BRANCH   7   8
ATOM      8  C   UNL     1      -4.056  27.560   6.943  1.00  0.00     0.000 C 
BRANCH   8   9
ATOM      9  C   UNL     1      -5.428  27.469   6.255  1.00  0.00     0.000 C 
BRANCH   9  10
ATOM     10  C   UNL     1      -5.312  27.753   4.752  1.00  0.00     0.000 C 
BRANCH  10  11
ATOM     11  C   UNL     1      -6.365  28.779   4.305  1.00  0.00     0.000 C 
BRANCH  11  12
ATOM     12  C   UNL     1      -7.588  28.130   3.633  1.00  0.00     0.000 C 
BRANCH  12  13
ATOM     13  C   UNL     1      -8.898  28.219   4.442  1.00  0.00     0.006 C 
BRANCH  13  14
ATOM     14  C   UNL     1      -8.924  29.337   5.495  1.00  0.00     0.053 C 
BRANCH  14  15
ATOM     15  C   UNL     1      -9.774  28.979   6.675  1.00  0.00     0.041 C 
ATOM     16  O   UNL     1     -10.959  29.399   6.755  1.00  0.00    -0.550 OA
ATOM     17  O   UNL     1      -9.269  28.154   7.672  1.00  0.00    -0.550 OA
ENDBRANCH  14  15
ENDBRANCH  13  14
ENDBRANCH  12  13
ENDBRANCH  11  12
ENDBRANCH  10  11
ENDBRANCH   9  10
ENDBRANCH   8   9
ENDBRANCH   7   8
ENDBRANCH   6   7
ENDBRANCH   5   6
ENDBRANCH   4   5
ENDBRANCH   3   4
ENDBRANCH   2   3
ENDBRANCH   1   2
BRANCH   1  18
ATOM     18  C   UNL     1      -8.800  35.133   5.798  1.00  0.00     0.000 C 
BRANCH  18  19
ATOM     19  C   UNL     1      -8.485  36.592   5.420  1.00  0.00     0.000 C 
BRANCH  19  20
ATOM     20  C   UNL     1      -9.287  37.605   6.253  1.00  0.00     0.000 C 
BRANCH  20  21
ATOM     21  C   UNL     1     -10.508  38.167   5.504  1.00  0.00     0.000 C 
BRANCH  21  22
ATOM     22  C   UNL     1     -10.909  39.606   5.893  1.00  0.00     0.000 C 
BRANCH  22  23
ATOM     23  C   UNL     1     -12.414  39.821   6.149  1.00  0.00     0.000 C 
BRANCH  23  24
ATOM     24  C   UNL     1     -12.849  39.707   7.623  1.00  0.00    -0.000 C 
BRANCH  24  25
ATOM     25  C   UNL     1     -11.699  39.494   8.622  1.00  0.00    -0.000 C 
BRANCH  25  26
ATOM     26  C   UNL     1     -12.180  38.960   9.978  1.00  0.00    -0.000 C 
BRANCH  26  27
ATOM     27  C   UNL     1     -12.562  37.474   9.881  1.00  0.00    -0.000 C 
BRANCH  27  28
ATOM     28  C   UNL     1     -11.600  36.673   8.981  1.00  0.00    -0.000 C 
BRANCH  28  29
ATOM     29  C   UNL     1     -12.288  35.977   7.788  1.00  0.00    -0.000 C 
BRANCH  29  30
ATOM     30  C   UNL     1     -11.988  34.466   7.683  1.00  0.00    -0.000 C 
BRANCH  30  31
ATOM     31  C   UNL     1     -10.792  34.017   8.542  1.00  0.00    -0.003 C 
ATOM     32  C   UNL     1     -10.286  32.629   8.153  1.00  0.00     0.004 C 
ENDBRANCH  30  31
ENDBRANCH  29  30
ENDBRANCH  28  29
ENDBRANCH  27  28
ENDBRANCH  26  27
ENDBRANCH  25  26
ENDBRANCH  24  25
ENDBRANCH  23  24
ENDBRANCH  22  23
ENDBRANCH  21  22
ENDBRANCH  20  21
ENDBRANCH  19  20
ENDBRANCH  18  19
ENDBRANCH   1  18
TORSDOF 28
ENDMDL
MODEL 7
REMARK VINA RESULT:    -4.861      1.594      2.786
REMARK INTER + INTRA:         -15.579
REMARK INTER:                 -13.175
REMARK INTRA:                  -2.404
REMARK UNBOUND:                -2.761
REMARK SMILES CCCCCCCCCCCCCCCCCCCCCCCCCCCCCC(=O)[O-]
REMARK SMILES IDX 16 1 17 2 18 3 19 4 20 5 21 6 22 7 23 8 24 9 25 10 26 11
REMARK SMILES IDX 27 12 28 13 29 14 30 15 31 16 32 17 15 18 14 19 13 20 12 21
REMARK SMILES IDX 11 22 10 23 9 24 8 25 7 26 6 27 5 28 4 29 3 30 2 31 1 32
REMARK H PARENT
REMARK Flexibility Score: inf
ROOT
ATOM      1  C   UNL     1      -7.133  33.577   5.752  1.00  0.00     0.000 C 
ENDROOT
BRANCH   1   2
ATOM      2  C   UNL     1      -6.477  32.234   6.129  1.00  0.00     0.000 C 
BRANCH   2   3
ATOM      3  C   UNL     1      -7.470  31.057   6.232  1.00  0.00     0.000 C 
BRANCH   3   4
ATOM      4  C   UNL     1      -7.437  30.135   5.001  1.00  0.00     0.000 C 
BRANCH   4   5
ATOM      5  C   UNL     1      -7.530  28.641   5.367  1.00  0.00     0.000 C 
BRANCH   5   6
ATOM      6  C   UNL     1      -6.202  27.868   5.284  1.00  0.00     0.000 C 
BRANCH   6   7
ATOM      7  C   UNL     1      -5.672  27.735   3.847  1.00  0.00     0.000 C 
BRANCH   7   8
ATOM      8  C   UNL     1      -4.315  28.430   3.652  1.00  0.00     0.000 C 
BRANCH   8   9
ATOM      9  C   UNL     1      -4.013  28.730   2.175  1.00  0.00     0.000 C 
BRANCH   9  10
ATOM     10  C   UNL     1      -3.148  27.627   1.552  1.00  0.00     0.000 C 
BRANCH  10  11
ATOM     11  C   UNL     1      -1.949  28.227   0.802  1.00  0.00     0.000 C 
BRANCH  11  12
ATOM     12  C   UNL     1      -0.600  27.890   1.461  1.00  0.00     0.000 C 
BRANCH  12  13
ATOM     13  C   UNL     1       0.540  28.882   1.154  1.00  0.00     0.006 C 
BRANCH  13  14
ATOM     14  C   UNL     1       0.376  29.656  -0.163  1.00  0.00     0.053 C 
BRANCH  14  15
ATOM     15  C   UNL     1       1.235  29.097  -1.255  1.00  0.00     0.041 C 
ATOM     16  O   UNL     1       1.044  27.926  -1.676  1.00  0.00    -0.550 OA
ATOM     17  O   UNL     1       2.228  29.880  -1.829  1.00  0.00    -0.550 OA
ENDBRANCH  14  15
ENDBRANCH  13  14
ENDBRANCH  12  13
ENDBRANCH  11  12
ENDBRANCH  10  11
ENDBRANCH   9  10
ENDBRANCH   8   9
ENDBRANCH   7   8
ENDBRANCH   6   7
ENDBRANCH   5   6
ENDBRANCH   4   5
ENDBRANCH   3   4
ENDBRANCH   2   3
ENDBRANCH   1   2
BRANCH   1  18
ATOM     18  C   UNL     1      -8.646  33.517   5.465  1.00  0.00     0.000 C 
BRANCH  18  19
ATOM     19  C   UNL     1      -9.359  34.882   5.442  1.00  0.00     0.000 C 
BRANCH  19  20
ATOM     20  C   UNL     1      -8.712  35.904   6.393  1.00  0.00     0.000 C 
BRANCH  20  21
ATOM     21  C   UNL     1      -8.266  37.191   5.677  1.00  0.00     0.000 C 
BRANCH  21  22
ATOM     22  C   UNL     1      -8.717  38.503   6.353  1.00  0.00     0.000 C 
BRANCH  22  23
ATOM     23  C   UNL     1     -10.112  39.010   5.938  1.00  0.00     0.000 C 
BRANCH  23  24
ATOM     24  C   UNL     1     -11.278  38.500   6.807  1.00  0.00    -0.000 C 
BRANCH  24  25
ATOM     25  C   UNL     1     -12.225  39.596   7.325  1.00  0.00    -0.000 C 
BRANCH  25  26
ATOM     26  C   UNL     1     -11.929  40.000   8.776  1.00  0.00    -0.000 C 
BRANCH  26  27
ATOM     27  C   UNL     1     -12.766  39.169   9.761  1.00  0.00    -0.000 C 
BRANCH  27  28
ATOM     28  C   UNL     1     -11.977  37.987  10.358  1.00  0.00    -0.000 C 
BRANCH  28  29
ATOM     29  C   UNL     1     -12.390  36.609   9.800  1.00  0.00    -0.000 C 
BRANCH  29  30
ATOM     30  C   UNL     1     -11.207  35.753   9.298  1.00  0.00    -0.000 C 
BRANCH  30  31
ATOM     31  C   UNL     1     -11.611  34.705   8.245  1.00  0.00    -0.003 C 
ATOM     32  C   UNL     1     -10.777  33.429   8.346  1.00  0.00     0.004 C 
ENDBRANCH  30  31
ENDBRANCH  29  30
ENDBRANCH  28  29
ENDBRANCH  27  28
ENDBRANCH  26  27
ENDBRANCH  25  26
ENDBRANCH  24  25
ENDBRANCH  23  24
ENDBRANCH  22  23
ENDBRANCH  21  22
ENDBRANCH  20  21
ENDBRANCH  19  20
ENDBRANCH  18  19
ENDBRANCH   1  18
TORSDOF 28
ENDMDL
MODEL 8
REMARK VINA RESULT:    -4.825      4.500     13.587
REMARK INTER + INTRA:         -15.484
REMARK INTER:                 -13.587
REMARK INTRA:                  -1.897
REMARK UNBOUND:                -2.761
REMARK SMILES CCCCCCCCCCCCCCCCCCCCCCCCCCCCCC(=O)[O-]
REMARK SMILES IDX 16 1 17 2 18 3 19 4 20 5 21 6 22 7 23 8 24 9 25 10 26 11
REMARK SMILES IDX 27 12 28 13 29 14 30 15 31 16 32 17 15 18 14 19 13 20 12 21
REMARK SMILES IDX 11 22 10 23 9 24 8 25 7 26 6 27 5 28 4 29 3 30 2 31 1 32
REMARK H PARENT
REMARK Flexibility Score: inf
ROOT
ATOM      1  C   UNL     1      -4.580  30.491   6.397  1.00  0.00     0.000 C 
ENDROOT
BRANCH   1   2
ATOM      2  C   UNL     1      -5.570  31.669   6.493  1.00  0.00     0.000 C 
BRANCH   2   3
ATOM      3  C   UNL     1      -7.025  31.297   6.139  1.00  0.00     0.000 C 
BRANCH   3   4
ATOM      4  C   UNL     1      -8.026  32.424   6.452  1.00  0.00     0.000 C 
BRANCH   4   5
ATOM      5  C   UNL     1      -7.532  33.809   5.993  1.00  0.00     0.000 C 
BRANCH   5   6
ATOM      6  C   UNL     1      -8.618  34.723   5.399  1.00  0.00     0.000 C 
BRANCH   6   7
ATOM      7  C   UNL     1      -8.221  36.209   5.400  1.00  0.00     0.000 C 
BRANCH   7   8
ATOM      8  C   UNL     1      -9.188  37.077   6.221  1.00  0.00     0.000 C 
BRANCH   8   9
ATOM      9  C   UNL     1     -10.204  37.822   5.342  1.00  0.00     0.000 C 
BRANCH   9  10
ATOM     10  C   UNL     1     -10.943  38.902   6.144  1.00  0.00     0.000 C 
BRANCH  10  11
ATOM     11  C   UNL     1     -10.455  38.934   7.600  1.00  0.00     0.000 C 
BRANCH  11  12
ATOM     12  C   UNL     1     -11.596  39.145   8.611  1.00  0.00     0.000 C 
BRANCH  12  13
ATOM     13  C   UNL     1     -11.903  37.929   9.509  1.00  0.00     0.006 C 
BRANCH  13  14
ATOM     14  C   UNL     1     -10.791  36.870   9.552  1.00  0.00     0.053 C 
BRANCH  14  15
ATOM     15  C   UNL     1     -11.249  35.552   9.008  1.00  0.00     0.041 C 
ATOM     16  O   UNL     1     -11.829  35.493   7.892  1.00  0.00    -0.550 OA
ATOM     17  O   UNL     1     -11.007  34.383   9.719  1.00  0.00    -0.550 OA
ENDBRANCH  14  15
ENDBRANCH  13  14
ENDBRANCH  12  13
ENDBRANCH  11  12
ENDBRANCH  10  11
ENDBRANCH   9  10
ENDBRANCH   8   9
ENDBRANCH   7   8
ENDBRANCH   6   7
ENDBRANCH   5   6
ENDBRANCH   4   5
ENDBRANCH   3   4
ENDBRANCH   2   3
ENDBRANCH   1   2
BRANCH   1  18
ATOM     18  C   UNL     1      -5.084  29.267   5.608  1.00  0.00     0.000 C 
BRANCH  18  19
ATOM     19  C   UNL     1      -4.047  28.624   4.668  1.00  0.00     0.000 C 
BRANCH  19  20
ATOM     20  C   UNL     1      -4.627  28.303   3.280  1.00  0.00     0.000 C 
BRANCH  20  21
ATOM     21  C   UNL     1      -3.652  28.624   2.133  1.00  0.00     0.000 C 
BRANCH  21  22
ATOM     22  C   UNL     1      -3.030  27.392   1.441  1.00  0.00     0.000 C 
BRANCH  22  23
ATOM     23  C   UNL     1      -1.599  27.594   0.904  1.00  0.00     0.000 C 
BRANCH  23  24
ATOM     24  C   UNL     1      -1.421  28.797  -0.044  1.00  0.00    -0.000 C 
BRANCH  24  25
ATOM     25  C   UNL     1      -0.159  28.745  -0.922  1.00  0.00    -0.000 C 
BRANCH  25  26
ATOM     26  C   UNL     1       0.457  27.341  -0.994  1.00  0.00    -0.000 C 
BRANCH  26  27
ATOM     27  C   UNL     1       1.112  27.096  -2.362  1.00  0.00    -0.000 C 
BRANCH  27  28
ATOM     28  C   UNL     1       1.320  28.398  -3.161  1.00  0.00    -0.000 C 
BRANCH  28  29
ATOM     29  C   UNL     1       2.798  28.817  -3.308  1.00  0.00    -0.000 C 
BRANCH  29  30
ATOM     30  C   UNL     1       3.270  29.842  -2.254  1.00  0.00    -0.000 C 
BRANCH  30  31
ATOM     31  C   UNL     1       4.776  30.153  -2.333  1.00  0.00    -0.003 C 
ATOM     32  C   UNL     1       5.600  28.932  -2.742  1.00  0.00     0.004 C 
ENDBRANCH  30  31
ENDBRANCH  29  30
ENDBRANCH  28  29
ENDBRANCH  27  28
ENDBRANCH  26  27
ENDBRANCH  25  26
ENDBRANCH  24  25
ENDBRANCH  23  24
ENDBRANCH  22  23
ENDBRANCH  21  22
ENDBRANCH  20  21
ENDBRANCH  19  20
ENDBRANCH  18  19
ENDBRANCH   1  18
TORSDOF 28
ENDMDL
MODEL 9
REMARK VINA RESULT:    -4.721      2.912      6.776
REMARK INTER + INTRA:         -15.209
REMARK INTER:                 -10.787
REMARK INTRA:                  -4.423
REMARK UNBOUND:                -2.761
REMARK SMILES CCCCCCCCCCCCCCCCCCCCCCCCCCCCCC(=O)[O-]
REMARK SMILES IDX 16 1 17 2 18 3 19 4 20 5 21 6 22 7 23 8 24 9 25 10 26 11
REMARK SMILES IDX 27 12 28 13 29 14 30 15 31 16 32 17 15 18 14 19 13 20 12 21
REMARK SMILES IDX 11 22 10 23 9 24 8 25 7 26 6 27 5 28 4 29 3 30 2 31 1 32
REMARK H PARENT
REMARK Flexibility Score: inf
ROOT
ATOM      1  C   UNL     1     -12.507  34.558   8.803  1.00  0.00     0.000 C 
ENDROOT
BRANCH   1   2
ATOM      2  C   UNL     1     -11.160  34.553   9.555  1.00  0.00     0.000 C 
BRANCH   2   3
ATOM      3  C   UNL     1     -10.968  33.340  10.490  1.00  0.00     0.000 C 
BRANCH   3   4
ATOM      4  C   UNL     1     -12.299  32.723  10.954  1.00  0.00     0.000 C 
BRANCH   4   5
ATOM      5  C   UNL     1     -12.479  31.265  10.489  1.00  0.00     0.000 C 
BRANCH   5   6
ATOM      6  C   UNL     1     -11.516  30.813   9.377  1.00  0.00     0.000 C 
BRANCH   6   7
ATOM      7  C   UNL     1     -12.124  30.931   7.970  1.00  0.00     0.000 C 
BRANCH   7   8
ATOM      8  C   UNL     1     -12.153  29.587   7.226  1.00  0.00     0.000 C 
BRANCH   8   9
ATOM      9  C   UNL     1     -10.748  29.093   6.845  1.00  0.00     0.000 C 
BRANCH   9  10
ATOM     10  C   UNL     1     -10.610  28.933   5.325  1.00  0.00     0.000 C 
BRANCH  10  11
ATOM     11  C   UNL     1      -9.196  28.466   4.948  1.00  0.00     0.000 C 
BRANCH  11  12
ATOM     12  C   UNL     1      -8.296  28.231   6.174  1.00  0.00     0.000 C 
BRANCH  12  13
ATOM     13  C   UNL     1      -6.861  27.765   5.848  1.00  0.00     0.006 C 
BRANCH  13  14
ATOM     14  C   UNL     1      -6.303  28.301   4.520  1.00  0.00     0.053 C 
BRANCH  14  15
ATOM     15  C   UNL     1      -4.815  28.465   4.561  1.00  0.00     0.041 C 
ATOM     16  O   UNL     1      -4.222  28.605   5.663  1.00  0.00    -0.550 OA
ATOM     17  O   UNL     1      -4.078  28.431   3.384  1.00  0.00    -0.550 OA
ENDBRANCH  14  15
ENDBRANCH  13  14
ENDBRANCH  12  13
ENDBRANCH  11  12
ENDBRANCH  10  11
ENDBRANCH   9  10
ENDBRANCH   8   9
ENDBRANCH   7   8
ENDBRANCH   6   7
ENDBRANCH   5   6
ENDBRANCH   4   5
ENDBRANCH   3   4
ENDBRANCH   2   3
ENDBRANCH   1   2
BRANCH   1  18
ATOM     18  C   UNL     1     -12.960  35.930   8.270  1.00  0.00     0.000 C 
BRANCH  18  19
ATOM     19  C   UNL     1     -12.263  37.143   8.914  1.00  0.00     0.000 C 
BRANCH  19  20
ATOM     20  C   UNL     1     -12.774  38.483   8.357  1.00  0.00     0.000 C 
BRANCH  20  21
ATOM     21  C   UNL     1     -11.656  39.345   7.744  1.00  0.00     0.000 C 
BRANCH  21  22
ATOM     22  C   UNL     1     -11.738  39.529   6.214  1.00  0.00     0.000 C 
BRANCH  22  23
ATOM     23  C   UNL     1     -10.575  38.909   5.415  1.00  0.00     0.000 C 
BRANCH  23  24
ATOM     24  C   UNL     1      -9.222  38.872   6.152  1.00  0.00    -0.000 C 
BRANCH  24  25
ATOM     25  C   UNL     1      -8.525  37.501   6.155  1.00  0.00    -0.000 C 
BRANCH  25  26
ATOM     26  C   UNL     1      -9.380  36.401   6.801  1.00  0.00    -0.000 C 
BRANCH  26  27
ATOM     27  C   UNL     1      -9.657  35.263   5.807  1.00  0.00    -0.000 C 
BRANCH  27  28
ATOM     28  C   UNL     1      -8.653  34.101   5.942  1.00  0.00    -0.000 C 
BRANCH  28  29
ATOM     29  C   UNL     1      -9.095  33.000   6.928  1.00  0.00    -0.000 C 
BRANCH  29  30
ATOM     30  C   UNL     1      -8.264  31.701   6.834  1.00  0.00    -0.000 C 
BRANCH  30  31
ATOM     31  C   UNL     1      -7.068  31.808   5.870  1.00  0.00    -0.003 C 
ATOM     32  C   UNL     1      -5.729  31.837   6.606  1.00  0.00     0.004 C 
ENDBRANCH  30  31
ENDBRANCH  29  30
ENDBRANCH  28  29
ENDBRANCH  27  28
ENDBRANCH  26  27
ENDBRANCH  25  26
ENDBRANCH  24  25
ENDBRANCH  23  24
ENDBRANCH  22  23
ENDBRANCH  21  22
ENDBRANCH  20  21
ENDBRANCH  19  20
ENDBRANCH  18  19
ENDBRANCH   1  18
TORSDOF 28
ENDMDL
