MODEL 1
REMARK VINA RESULT:    -6.515      0.000      0.000
REMARK INTER + INTRA:         -11.286
REMARK INTER:                  -9.562
REMARK INTRA:                  -1.724
REMARK UNBOUND:                -1.724
REMARK SMILES O=c1c(O[C@H]2O[C@@H](CO)[C@H](O)[C@H](O)[C@H]2O)c(-c2ccc(O)c(O)c2)oc2cc(O)cc(O)c12
REMARK SMILES IDX 4 1 3 2 16 3 25 4 2 5 26 6 1 7 33 8 27 9 31 10 28 11 30 12
REMARK SMILES IDX 17 13 18 14 19 15 20 16 24 17 22 18 21 19 23 21 32 23 29 25
REMARK SMILES IDX 5 27 14 28 6 29 12 30 7 31 10 32 15 33 13 35 8 37 9 38 11 40
REMARK H PARENT 21 20 23 22 32 24 29 26 15 34 13 36 9 39 11 41
REMARK Flexibility Score: inf
ROOT
ATOM      1  O   UNL     1      56.804   4.242  79.300  1.00  0.00    -0.454 OA
ENDROOT
BRANCH   1   2
ATOM      2  C   UNL     1      55.579   4.197  79.983  1.00  0.00     0.214 A 
ATOM      3  C   UNL     1      55.421   4.667  81.306  1.00  0.00     0.180 A 
ATOM      4  O   UNL     1      54.229   4.595  81.883  1.00  0.00    -0.452 OA
ATOM      5  C   UNL     1      54.451   3.746  79.292  1.00  0.00     0.239 A 
ATOM      6  C   UNL     1      53.129   4.181  81.264  1.00  0.00     0.146 A 
ATOM      7  O   UNL     1      54.598   3.363  78.104  1.00  0.00    -0.285 OA
ATOM      8  C   UNL     1      53.181   3.764  79.908  1.00  0.00     0.111 A 
ATOM      9  C   UNL     1      51.914   4.251  81.948  1.00  0.00     0.094 A 
ATOM     10  C   UNL     1      51.948   3.465  79.246  1.00  0.00     0.134 A 
ATOM     11  C   UNL     1      50.719   4.060  81.265  1.00  0.00     0.123 A 
ATOM     12  C   UNL     1      50.743   3.677  79.919  1.00  0.00     0.093 A 
BRANCH   3  13
ATOM     13  C   UNL     1      56.507   5.340  82.065  1.00  0.00     0.025 A 
ATOM     14  C   UNL     1      56.645   6.739  81.975  1.00  0.00     0.016 A 
ATOM     15  C   UNL     1      57.703   7.385  82.612  1.00  0.00     0.051 A 
ATOM     16  C   UNL     1      58.655   6.651  83.324  1.00  0.00     0.157 A 
ATOM     17  C   UNL     1      57.469   4.600  82.775  1.00  0.00     0.062 A 
ATOM     18  C   UNL     1      58.540   5.251  83.408  1.00  0.00     0.158 A 
BRANCH  16  19
ATOM     19  O   UNL     1      59.706   7.326  83.941  1.00  0.00    -0.504 OA
ATOM     20  H   UNL     1      59.840   8.326  83.824  1.00  0.00     0.293 HD
ENDBRANCH  16  19
BRANCH  18  21
ATOM     21  O   UNL     1      59.490   4.510  84.111  1.00  0.00    -0.504 OA
ATOM     22  H   UNL     1      59.228   3.729  84.695  1.00  0.00     0.293 HD
ENDBRANCH  18  21
ENDBRANCH   3  13
BRANCH  10  23
ATOM     23  O   UNL     1      51.848   2.965  77.940  1.00  0.00    -0.507 OA
ATOM     24  H   UNL     1      51.111   3.201  77.301  1.00  0.00     0.293 HD
ENDBRANCH  10  23
BRANCH  11  25
ATOM     25  O   UNL     1      49.511   4.266  81.920  1.00  0.00    -0.508 OA
ATOM     26  H   UNL     1      49.088   5.187  81.954  1.00  0.00     0.293 HD
ENDBRANCH  11  25
ENDBRANCH   1   2
BRANCH   1  27
ATOM     27  C   UNL     1      57.284   5.284  78.447  1.00  0.00     0.339 C 
ATOM     28  C   UNL     1      58.788   5.589  78.709  1.00  0.00     0.214 C 
ATOM     29  O   UNL     1      56.490   6.458  78.534  1.00  0.00    -0.332 OA
ATOM     30  C   UNL     1      58.991   7.091  79.015  1.00  0.00     0.180 C 
ATOM     31  C   UNL     1      56.916   7.383  77.549  1.00  0.00     0.179 C 
ATOM     32  C   UNL     1      58.275   8.010  77.981  1.00  0.00     0.177 C 
BRANCH  28  33
ATOM     33  O   UNL     1      59.277   4.822  79.784  1.00  0.00    -0.384 OA
ATOM     34  H   UNL     1      60.073   4.324  79.451  1.00  0.00     0.211 HD
ENDBRANCH  28  33
BRANCH  30  35
ATOM     35  O   UNL     1      60.357   7.413  79.149  1.00  0.00    -0.387 OA
ATOM     36  H   UNL     1      60.799   6.637  79.603  1.00  0.00     0.211 HD
ENDBRANCH  30  35
BRANCH  31  37
ATOM     37  C   UNL     1      55.815   8.432  77.306  1.00  0.00     0.191 C 
BRANCH  37  38
ATOM     38  O   UNL     1      56.279   9.544  76.572  1.00  0.00    -0.394 OA
ATOM     39  H   UNL     1      56.929  10.050  77.130  1.00  0.00     0.210 HD
ENDBRANCH  37  38
ENDBRANCH  31  37
BRANCH  32  40
ATOM     40  O   UNL     1      59.089   8.202  76.849  1.00  0.00    -0.387 OA
ATOM     41  H   UNL     1      59.956   7.759  77.036  1.00  0.00     0.211 HD
ENDBRANCH  32  40
ENDBRANCH   1  27
TORSDOF 12
ENDMDL
MODEL 2
REMARK VINA RESULT:    -6.320      2.437      6.562
REMARK INTER + INTRA:         -11.000
REMARK INTER:                  -9.720
REMARK INTRA:                  -1.280
REMARK UNBOUND:                -1.724
REMARK SMILES O=c1c(O[C@H]2O[C@@H](CO)[C@H](O)[C@H](O)[C@H]2O)c(-c2ccc(O)c(O)c2)oc2cc(O)cc(O)c12
REMARK SMILES IDX 4 1 3 2 16 3 25 4 2 5 26 6 1 7 33 8 27 9 31 10 28 11 30 12
REMARK SMILES IDX 17 13 18 14 19 15 20 16 24 17 22 18 21 19 23 21 32 23 29 25
REMARK SMILES IDX 5 27 14 28 6 29 12 30 7 31 10 32 15 33 13 35 8 37 9 38 11 40
REMARK H PARENT 21 20 23 22 32 24 29 26 15 34 13 36 9 39 11 41
REMARK Flexibility Score: inf
ROOT
ATOM      1  O   UNL     1      54.352   5.603  77.056  1.00  0.00    -0.454 OA
ENDROOT
BRANCH   1   2
ATOM      2  C   UNL     1      54.959   5.284  78.280  1.00  0.00     0.214 A 
ATOM      3  C   UNL     1      54.278   4.620  79.325  1.00  0.00     0.180 A 
ATOM      4  O   UNL     1      54.923   4.348  80.452  1.00  0.00    -0.452 OA
ATOM      5  C   UNL     1      56.321   5.560  78.437  1.00  0.00     0.239 A 
ATOM      6  C   UNL     1      56.216   4.586  80.641  1.00  0.00     0.146 A 
ATOM      7  O   UNL     1      56.925   6.120  77.486  1.00  0.00    -0.285 OA
ATOM      8  C   UNL     1      56.997   5.179  79.615  1.00  0.00     0.111 A 
ATOM      9  C   UNL     1      56.803   4.157  81.833  1.00  0.00     0.094 A 
ATOM     10  C   UNL     1      58.410   5.281  79.816  1.00  0.00     0.134 A 
ATOM     11  C   UNL     1      58.186   4.166  81.971  1.00  0.00     0.123 A 
ATOM     12  C   UNL     1      58.980   4.719  80.960  1.00  0.00     0.093 A 
BRANCH   3  13
ATOM     13  C   UNL     1      52.888   4.111  79.195  1.00  0.00     0.025 A 
ATOM     14  C   UNL     1      52.488   3.502  77.989  1.00  0.00     0.016 A 
ATOM     15  C   UNL     1      51.169   3.089  77.812  1.00  0.00     0.051 A 
ATOM     16  C   UNL     1      50.220   3.299  78.817  1.00  0.00     0.157 A 
ATOM     17  C   UNL     1      51.933   4.331  80.202  1.00  0.00     0.062 A 
ATOM     18  C   UNL     1      50.601   3.924  80.019  1.00  0.00     0.158 A 
BRANCH  16  19
ATOM     19  O   UNL     1      48.908   2.884  78.605  1.00  0.00    -0.504 OA
ATOM     20  H   UNL     1      48.173   3.541  78.360  1.00  0.00     0.293 HD
ENDBRANCH  16  19
BRANCH  18  21
ATOM     21  O   UNL     1      49.660   4.144  81.025  1.00  0.00    -0.504 OA
ATOM     22  H   UNL     1      48.690   3.884  80.911  1.00  0.00     0.293 HD
ENDBRANCH  18  21
ENDBRANCH   3  13
BRANCH  10  23
ATOM     23  O   UNL     1      59.294   5.915  78.931  1.00  0.00    -0.507 OA
ATOM     24  H   UNL     1      59.122   6.808  78.505  1.00  0.00     0.293 HD
ENDBRANCH  10  23
BRANCH  11  25
ATOM     25  O   UNL     1      58.769   3.613  83.104  1.00  0.00    -0.508 OA
ATOM     26  H   UNL     1      59.698   3.207  83.066  1.00  0.00     0.293 HD
ENDBRANCH  11  25
ENDBRANCH   1   2
BRANCH   1  27
ATOM     27  C   UNL     1      53.524   6.733  76.766  1.00  0.00     0.339 C 
ATOM     28  C   UNL     1      54.213   7.704  75.764  1.00  0.00     0.214 C 
ATOM     29  O   UNL     1      53.105   7.407  77.944  1.00  0.00    -0.332 OA
ATOM     30  C   UNL     1      54.268   9.135  76.347  1.00  0.00     0.180 C 
ATOM     31  C   UNL     1      52.160   8.405  77.597  1.00  0.00     0.179 C 
ATOM     32  C   UNL     1      52.895   9.598  76.915  1.00  0.00     0.177 C 
BRANCH  28  33
ATOM     33  O   UNL     1      55.519   7.271  75.462  1.00  0.00    -0.384 OA
ATOM     34  H   UNL     1      55.435   6.426  74.940  1.00  0.00     0.211 HD
ENDBRANCH  28  33
BRANCH  30  35
ATOM     35  O   UNL     1      54.790  10.055  75.415  1.00  0.00    -0.387 OA
ATOM     36  H   UNL     1      55.144   9.523  74.643  1.00  0.00     0.211 HD
ENDBRANCH  30  35
BRANCH  31  37
ATOM     37  C   UNL     1      51.358   8.821  78.845  1.00  0.00     0.191 C 
BRANCH  37  38
ATOM     38  O   UNL     1      50.307   9.713  78.540  1.00  0.00    -0.394 OA
ATOM     39  H   UNL     1      49.999   9.542  77.610  1.00  0.00     0.210 HD
ENDBRANCH  37  38
ENDBRANCH  31  37
BRANCH  32  40
ATOM     40  O   UNL     1      52.089  10.123  75.886  1.00  0.00    -0.387 OA
ATOM     41  H   UNL     1      51.843  11.045  76.153  1.00  0.00     0.211 HD
ENDBRANCH  32  40
ENDBRANCH   1  27
TORSDOF 12
ENDMDL
MODEL 3
REMARK VINA RESULT:    -6.192      2.020      7.768
REMARK INTER + INTRA:         -10.812
REMARK INTER:                  -9.955
REMARK INTRA:                  -0.857
REMARK UNBOUND:                -1.724
REMARK SMILES O=c1c(O[C@H]2O[C@@H](CO)[C@H](O)[C@H](O)[C@H]2O)c(-c2ccc(O)c(O)c2)oc2cc(O)cc(O)c12
REMARK SMILES IDX 4 1 3 2 16 3 25 4 2 5 26 6 1 7 33 8 27 9 31 10 28 11 30 12
REMARK SMILES IDX 17 13 18 14 19 15 20 16 24 17 22 18 21 19 23 21 32 23 29 25
REMARK SMILES IDX 5 27 14 28 6 29 12 30 7 31 10 32 15 33 13 35 8 37 9 38 11 40
REMARK H PARENT 21 20 23 22 32 24 29 26 15 34 13 36 9 39 11 41
REMARK Flexibility Score: inf
ROOT
ATOM      1  O   UNL     1      55.576   3.373  81.981  1.00  0.00    -0.454 OA
ENDROOT
BRANCH   1   2
ATOM      2  C   UNL     1      56.344   4.431  81.473  1.00  0.00     0.214 A 
ATOM      3  C   UNL     1      56.145   4.974  80.184  1.00  0.00     0.180 A 
ATOM      4  O   UNL     1      56.910   5.979  79.777  1.00  0.00    -0.452 OA
ATOM      5  C   UNL     1      57.288   5.029  82.314  1.00  0.00     0.239 A 
ATOM      6  C   UNL     1      57.812   6.581  80.543  1.00  0.00     0.146 A 
ATOM      7  O   UNL     1      57.431   4.559  83.472  1.00  0.00    -0.285 OA
ATOM      8  C   UNL     1      58.024   6.152  81.880  1.00  0.00     0.111 A 
ATOM      9  C   UNL     1      58.479   7.697  80.034  1.00  0.00     0.094 A 
ATOM     10  C   UNL     1      58.901   6.923  82.706  1.00  0.00     0.134 A 
ATOM     11  C   UNL     1      59.245   8.495  80.875  1.00  0.00     0.123 A 
ATOM     12  C   UNL     1      59.444   8.108  82.205  1.00  0.00     0.093 A 
BRANCH   3  13
ATOM     13  C   UNL     1      55.046   4.544  79.281  1.00  0.00     0.025 A 
ATOM     14  C   UNL     1      54.018   5.454  78.967  1.00  0.00     0.016 A 
ATOM     15  C   UNL     1      52.935   5.051  78.188  1.00  0.00     0.051 A 
ATOM     16  C   UNL     1      52.841   3.733  77.733  1.00  0.00     0.157 A 
ATOM     17  C   UNL     1      54.948   3.216  78.832  1.00  0.00     0.062 A 
ATOM     18  C   UNL     1      53.851   2.808  78.056  1.00  0.00     0.158 A 
BRANCH  16  19
ATOM     19  O   UNL     1      51.740   3.359  76.966  1.00  0.00    -0.504 OA
ATOM     20  H   UNL     1      50.804   3.691  77.178  1.00  0.00     0.293 HD
ENDBRANCH  16  19
BRANCH  18  21
ATOM     21  O   UNL     1      53.762   1.488  77.612  1.00  0.00    -0.504 OA
ATOM     22  H   UNL     1      53.290   0.777  78.152  1.00  0.00     0.293 HD
ENDBRANCH  18  21
ENDBRANCH   3  13
BRANCH  10  23
ATOM     23  O   UNL     1      59.269   6.577  84.014  1.00  0.00    -0.507 OA
ATOM     24  H   UNL     1      58.618   6.307  84.729  1.00  0.00     0.293 HD
ENDBRANCH  10  23
BRANCH  11  25
ATOM     25  O   UNL     1      59.794   9.676  80.392  1.00  0.00    -0.508 OA
ATOM     26  H   UNL     1      59.266  10.278  79.770  1.00  0.00     0.293 HD
ENDBRANCH  11  25
ENDBRANCH   1   2
BRANCH   1  27
ATOM     27  C   UNL     1      54.243   3.436  82.496  1.00  0.00     0.339 C 
ATOM     28  C   UNL     1      53.980   2.310  83.539  1.00  0.00     0.214 C 
ATOM     29  O   UNL     1      53.268   3.432  81.464  1.00  0.00    -0.332 OA
ATOM     30  C   UNL     1      52.734   1.484  83.141  1.00  0.00     0.180 C 
ATOM     31  C   UNL     1      51.990   3.664  82.030  1.00  0.00     0.179 C 
ATOM     32  C   UNL     1      51.516   2.384  82.780  1.00  0.00     0.177 C 
BRANCH  28  33
ATOM     33  O   UNL     1      55.093   1.455  83.648  1.00  0.00    -0.384 OA
ATOM     34  H   UNL     1      54.750   0.559  83.915  1.00  0.00     0.211 HD
ENDBRANCH  28  33
BRANCH  30  35
ATOM     35  O   UNL     1      52.411   0.527  84.124  1.00  0.00    -0.387 OA
ATOM     36  H   UNL     1      52.099   1.030  84.932  1.00  0.00     0.211 HD
ENDBRANCH  30  35
BRANCH  31  37
ATOM     37  C   UNL     1      51.009   4.123  80.935  1.00  0.00     0.191 C 
BRANCH  37  38
ATOM     38  O   UNL     1      49.702   4.324  81.428  1.00  0.00    -0.394 OA
ATOM     39  H   UNL     1      49.287   5.083  80.938  1.00  0.00     0.210 HD
ENDBRANCH  37  38
ENDBRANCH  31  37
BRANCH  32  40
ATOM     40  O   UNL     1      50.814   2.751  83.945  1.00  0.00    -0.387 OA
ATOM     41  H   UNL     1      51.157   3.639  84.221  1.00  0.00     0.211 HD
ENDBRANCH  32  40
ENDBRANCH   1  27
TORSDOF 12
ENDMDL
MODEL 4
REMARK VINA RESULT:    -6.135      2.706      7.144
REMARK INTER + INTRA:         -10.729
REMARK INTER:                  -9.475
REMARK INTRA:                  -1.254
REMARK UNBOUND:                -1.724
REMARK SMILES O=c1c(O[C@H]2O[C@@H](CO)[C@H](O)[C@H](O)[C@H]2O)c(-c2ccc(O)c(O)c2)oc2cc(O)cc(O)c12
REMARK SMILES IDX 4 1 3 2 16 3 25 4 2 5 26 6 1 7 33 8 27 9 31 10 28 11 30 12
REMARK SMILES IDX 17 13 18 14 19 15 20 16 24 17 22 18 21 19 23 21 32 23 29 25
REMARK SMILES IDX 5 27 14 28 6 29 12 30 7 31 10 32 15 33 13 35 8 37 9 38 11 40
REMARK H PARENT 21 20 23 22 32 24 29 26 15 34 13 36 9 39 11 41
REMARK Flexibility Score: inf
ROOT
ATOM      1  O   UNL     1      53.054   5.500  81.125  1.00  0.00    -0.454 OA
ENDROOT
BRANCH   1   2
ATOM      2  C   UNL     1      54.239   5.656  81.860  1.00  0.00     0.214 A 
ATOM      3  C   UNL     1      54.652   4.738  82.852  1.00  0.00     0.180 A 
ATOM      4  O   UNL     1      55.789   4.951  83.501  1.00  0.00    -0.452 OA
ATOM      5  C   UNL     1      55.087   6.719  81.535  1.00  0.00     0.239 A 
ATOM      6  C   UNL     1      56.628   5.943  83.221  1.00  0.00     0.146 A 
ATOM      7  O   UNL     1      54.724   7.509  80.626  1.00  0.00    -0.285 OA
ATOM      8  C   UNL     1      56.330   6.867  82.186  1.00  0.00     0.111 A 
ATOM      9  C   UNL     1      57.844   5.998  83.905  1.00  0.00     0.094 A 
ATOM     10  C   UNL     1      57.330   7.826  81.829  1.00  0.00     0.134 A 
ATOM     11  C   UNL     1      58.844   6.865  83.479  1.00  0.00     0.123 A 
ATOM     12  C   UNL     1      58.584   7.765  82.440  1.00  0.00     0.093 A 
BRANCH   3  13
ATOM     13  C   UNL     1      53.926   3.475  83.144  1.00  0.00     0.025 A 
ATOM     14  C   UNL     1      54.594   2.245  82.987  1.00  0.00     0.016 A 
ATOM     15  C   UNL     1      53.913   1.044  83.177  1.00  0.00     0.051 A 
ATOM     16  C   UNL     1      52.553   1.045  83.499  1.00  0.00     0.157 A 
ATOM     17  C   UNL     1      52.557   3.477  83.459  1.00  0.00     0.062 A 
ATOM     18  C   UNL     1      51.868   2.266  83.640  1.00  0.00     0.158 A 
BRANCH  16  19
ATOM     19  O   UNL     1      51.899  -0.173  83.672  1.00  0.00    -0.504 OA
ATOM     20  H   UNL     1      52.334  -0.948  84.163  1.00  0.00     0.293 HD
ENDBRANCH  16  19
BRANCH  18  21
ATOM     21  O   UNL     1      50.509   2.276  83.954  1.00  0.00    -0.504 OA
ATOM     22  H   UNL     1      49.861   2.894  83.488  1.00  0.00     0.293 HD
ENDBRANCH  18  21
ENDBRANCH   3  13
BRANCH  10  23
ATOM     23  O   UNL     1      57.149   8.849  80.887  1.00  0.00    -0.507 OA
ATOM     24  H   UNL     1      56.420   9.538  80.936  1.00  0.00     0.293 HD
ENDBRANCH  10  23
BRANCH  11  25
ATOM     25  O   UNL     1      60.096   6.818  84.078  1.00  0.00    -0.508 OA
ATOM     26  H   UNL     1      60.352   6.051  84.691  1.00  0.00     0.293 HD
ENDBRANCH  11  25
ENDBRANCH   1   2
BRANCH   1  27
ATOM     27  C   UNL     1      52.894   4.841  79.866  1.00  0.00     0.339 C 
ATOM     28  C   UNL     1      51.406   4.466  79.603  1.00  0.00     0.214 C 
ATOM     29  O   UNL     1      53.748   3.714  79.738  1.00  0.00    -0.332 OA
ATOM     30  C   UNL     1      51.274   2.955  79.297  1.00  0.00     0.180 C 
ATOM     31  C   UNL     1      53.661   3.212  78.416  1.00  0.00     0.179 C 
ATOM     32  C   UNL     1      52.301   2.474  78.231  1.00  0.00     0.177 C 
BRANCH  28  33
ATOM     33  O   UNL     1      50.602   4.790  80.713  1.00  0.00    -0.384 OA
ATOM     34  H   UNL     1      49.749   4.284  80.616  1.00  0.00     0.211 HD
ENDBRANCH  28  33
BRANCH  30  35
ATOM     35  O   UNL     1      49.952   2.610  78.950  1.00  0.00    -0.387 OA
ATOM     36  H   UNL     1      49.374   2.832  79.737  1.00  0.00     0.211 HD
ENDBRANCH  30  35
BRANCH  31  37
ATOM     37  C   UNL     1      54.880   2.320  78.114  1.00  0.00     0.191 C 
BRANCH  37  38
ATOM     38  O   UNL     1      54.526   1.121  77.458  1.00  0.00    -0.394 OA
ATOM     39  H   UNL     1      55.000   1.080  76.585  1.00  0.00     0.210 HD
ENDBRANCH  37  38
ENDBRANCH  31  37
BRANCH  32  40
ATOM     40  O   UNL     1      51.809   2.709  76.933  1.00  0.00    -0.387 OA
ATOM     41  H   UNL     1      52.408   2.231  76.305  1.00  0.00     0.211 HD
ENDBRANCH  32  40
ENDBRANCH   1  27
TORSDOF 12
ENDMDL
MODEL 5
REMARK VINA RESULT:    -6.102      1.881      7.404
REMARK INTER + INTRA:         -10.680
REMARK INTER:                  -9.591
REMARK INTRA:                  -1.089
REMARK UNBOUND:                -1.724
REMARK SMILES O=c1c(O[C@H]2O[C@@H](CO)[C@H](O)[C@H](O)[C@H]2O)c(-c2ccc(O)c(O)c2)oc2cc(O)cc(O)c12
REMARK SMILES IDX 4 1 3 2 16 3 25 4 2 5 26 6 1 7 33 8 27 9 31 10 28 11 30 12
REMARK SMILES IDX 17 13 18 14 19 15 20 16 24 17 22 18 21 19 23 21 32 23 29 25
REMARK SMILES IDX 5 27 14 28 6 29 12 30 7 31 10 32 15 33 13 35 8 37 9 38 11 40
REMARK H PARENT 21 20 23 22 32 24 29 26 15 34 13 36 9 39 11 41
REMARK Flexibility Score: inf
ROOT
ATOM      1  O   UNL     1      55.411   4.077  80.185  1.00  0.00    -0.454 OA
ENDROOT
BRANCH   1   2
ATOM      2  C   UNL     1      56.376   5.045  80.502  1.00  0.00     0.214 A 
ATOM      3  C   UNL     1      56.516   6.253  79.783  1.00  0.00     0.180 A 
ATOM      4  O   UNL     1      57.452   7.121  80.147  1.00  0.00    -0.452 OA
ATOM      5  C   UNL     1      57.176   4.839  81.630  1.00  0.00     0.239 A 
ATOM      6  C   UNL     1      58.227   6.970  81.215  1.00  0.00     0.146 A 
ATOM      7  O   UNL     1      57.017   3.776  82.282  1.00  0.00    -0.285 OA
ATOM      8  C   UNL     1      58.101   5.823  82.040  1.00  0.00     0.111 A 
ATOM      9  C   UNL     1      59.101   8.005  81.553  1.00  0.00     0.094 A 
ATOM     10  C   UNL     1      58.857   5.778  83.254  1.00  0.00     0.134 A 
ATOM     11  C   UNL     1      59.748   7.996  82.783  1.00  0.00     0.123 A 
ATOM     12  C   UNL     1      59.616   6.889  83.627  1.00  0.00     0.093 A 
BRANCH   3  13
ATOM     13  C   UNL     1      55.598   6.659  78.688  1.00  0.00     0.025 A 
ATOM     14  C   UNL     1      55.904   6.297  77.362  1.00  0.00     0.016 A 
ATOM     15  C   UNL     1      55.103   6.733  76.309  1.00  0.00     0.051 A 
ATOM     16  C   UNL     1      54.002   7.559  76.552  1.00  0.00     0.157 A 
ATOM     17  C   UNL     1      54.496   7.497  78.933  1.00  0.00     0.062 A 
ATOM     18  C   UNL     1      53.695   7.946  77.870  1.00  0.00     0.158 A 
BRANCH  16  19
ATOM     19  O   UNL     1      53.227   7.987  75.477  1.00  0.00    -0.504 OA
ATOM     20  H   UNL     1      53.357   8.902  75.056  1.00  0.00     0.293 HD
ENDBRANCH  16  19
BRANCH  18  21
ATOM     21  O   UNL     1      52.602   8.775  78.121  1.00  0.00    -0.504 OA
ATOM     22  H   UNL     1      52.088   8.729  78.989  1.00  0.00     0.293 HD
ENDBRANCH  18  21
ENDBRANCH   3  13
BRANCH  10  23
ATOM     23  O   UNL     1      58.897   4.679  84.125  1.00  0.00    -0.507 OA
ATOM     24  H   UNL     1      59.727   4.361  84.593  1.00  0.00     0.293 HD
ENDBRANCH  10  23
BRANCH  11  25
ATOM     25  O   UNL     1      60.509   9.093  83.168  1.00  0.00    -0.508 OA
ATOM     26  H   UNL     1      60.175   9.732  83.882  1.00  0.00     0.293 HD
ENDBRANCH  11  25
ENDBRANCH   1   2
BRANCH   1  27
ATOM     27  C   UNL     1      53.993   4.254  80.122  1.00  0.00     0.339 C 
ATOM     28  C   UNL     1      53.328   4.042  81.513  1.00  0.00     0.214 C 
ATOM     29  O   UNL     1      53.394   3.438  79.125  1.00  0.00    -0.332 OA
ATOM     30  C   UNL     1      52.210   2.977  81.422  1.00  0.00     0.180 C 
ATOM     31  C   UNL     1      52.025   3.783  79.002  1.00  0.00     0.179 C 
ATOM     32  C   UNL     1      51.241   3.234  80.232  1.00  0.00     0.177 C 
BRANCH  28  33
ATOM     33  O   UNL     1      54.280   3.640  82.469  1.00  0.00    -0.384 OA
ATOM     34  H   UNL     1      55.161   3.594  82.005  1.00  0.00     0.211 HD
ENDBRANCH  28  33
BRANCH  30  35
ATOM     35  O   UNL     1      51.520   2.843  82.644  1.00  0.00    -0.387 OA
ATOM     36  H   UNL     1      50.838   2.121  82.520  1.00  0.00     0.211 HD
ENDBRANCH  30  35
BRANCH  31  37
ATOM     37  C   UNL     1      51.477   3.273  77.657  1.00  0.00     0.191 C 
BRANCH  37  38
ATOM     38  O   UNL     1      50.098   2.976  77.711  1.00  0.00    -0.394 OA
ATOM     39  H   UNL     1      49.583   3.807  77.524  1.00  0.00     0.210 HD
ENDBRANCH  37  38
ENDBRANCH  31  37
BRANCH  32  40
ATOM     40  O   UNL     1      50.240   4.153  80.602  1.00  0.00    -0.387 OA
ATOM     41  H   UNL     1      49.462   3.987  80.011  1.00  0.00     0.211 HD
ENDBRANCH  32  40
ENDBRANCH   1  27
TORSDOF 12
ENDMDL
MODEL 6
REMARK VINA RESULT:    -6.099      1.901      7.413
REMARK INTER + INTRA:         -10.675
REMARK INTER:                  -9.048
REMARK INTRA:                  -1.628
REMARK UNBOUND:                -1.724
REMARK SMILES O=c1c(O[C@H]2O[C@@H](CO)[C@H](O)[C@H](O)[C@H]2O)c(-c2ccc(O)c(O)c2)oc2cc(O)cc(O)c12
REMARK SMILES IDX 4 1 3 2 16 3 25 4 2 5 26 6 1 7 33 8 27 9 31 10 28 11 30 12
REMARK SMILES IDX 17 13 18 14 19 15 20 16 24 17 22 18 21 19 23 21 32 23 29 25
REMARK SMILES IDX 5 27 14 28 6 29 12 30 7 31 10 32 15 33 13 35 8 37 9 38 11 40
REMARK H PARENT 21 20 23 22 32 24 29 26 15 34 13 36 9 39 11 41
REMARK Flexibility Score: inf
ROOT
ATOM      1  O   UNL     1      55.879   3.977  80.046  1.00  0.00    -0.454 OA
ENDROOT
BRANCH   1   2
ATOM      2  C   UNL     1      56.703   5.039  80.447  1.00  0.00     0.214 A 
ATOM      3  C   UNL     1      56.704   6.296  79.801  1.00  0.00     0.180 A 
ATOM      4  O   UNL     1      57.509   7.253  80.243  1.00  0.00    -0.452 OA
ATOM      5  C   UNL     1      57.494   4.871  81.588  1.00  0.00     0.239 A 
ATOM      6  C   UNL     1      58.271   7.140  81.326  1.00  0.00     0.146 A 
ATOM      7  O   UNL     1      57.458   3.759  82.175  1.00  0.00    -0.285 OA
ATOM      8  C   UNL     1      58.273   5.939  82.082  1.00  0.00     0.111 A 
ATOM      9  C   UNL     1      58.995   8.256  81.749  1.00  0.00     0.094 A 
ATOM     10  C   UNL     1      58.998   5.919  83.316  1.00  0.00     0.134 A 
ATOM     11  C   UNL     1      59.606   8.257  82.997  1.00  0.00     0.123 A 
ATOM     12  C   UNL     1      59.597   7.094  83.774  1.00  0.00     0.093 A 
BRANCH   3  13
ATOM     13  C   UNL     1      55.768   6.645  78.701  1.00  0.00     0.025 A 
ATOM     14  C   UNL     1      56.183   6.477  77.366  1.00  0.00     0.016 A 
ATOM     15  C   UNL     1      55.355   6.872  76.316  1.00  0.00     0.051 A 
ATOM     16  C   UNL     1      54.117   7.466  76.576  1.00  0.00     0.157 A 
ATOM     17  C   UNL     1      54.527   7.251  78.963  1.00  0.00     0.062 A 
ATOM     18  C   UNL     1      53.698   7.659  77.905  1.00  0.00     0.158 A 
BRANCH  16  19
ATOM     19  O   UNL     1      53.319   7.860  75.504  1.00  0.00    -0.504 OA
ATOM     20  H   UNL     1      52.804   8.735  75.516  1.00  0.00     0.293 HD
ENDBRANCH  16  19
BRANCH  18  21
ATOM     21  O   UNL     1      52.467   8.257  78.173  1.00  0.00    -0.504 OA
ATOM     22  H   UNL     1      51.601   7.741  78.111  1.00  0.00     0.293 HD
ENDBRANCH  18  21
ENDBRANCH   3  13
BRANCH  10  23
ATOM     23  O   UNL     1      59.158   4.785  84.125  1.00  0.00    -0.507 OA
ATOM     24  H   UNL     1      59.503   4.810  85.068  1.00  0.00     0.293 HD
ENDBRANCH  10  23
BRANCH  11  25
ATOM     25  O   UNL     1      60.208   9.418  83.467  1.00  0.00    -0.508 OA
ATOM     26  H   UNL     1      61.125   9.389  83.901  1.00  0.00     0.293 HD
ENDBRANCH  11  25
ENDBRANCH   1   2
BRANCH   1  27
ATOM     27  C   UNL     1      54.614   3.603  80.599  1.00  0.00     0.339 C 
ATOM     28  C   UNL     1      53.523   3.476  79.496  1.00  0.00     0.214 C 
ATOM     29  O   UNL     1      54.205   4.476  81.642  1.00  0.00    -0.332 OA
ATOM     30  C   UNL     1      52.302   4.361  79.837  1.00  0.00     0.180 C 
ATOM     31  C   UNL     1      53.037   3.956  82.253  1.00  0.00     0.179 C 
ATOM     32  C   UNL     1      51.819   4.166  81.304  1.00  0.00     0.177 C 
BRANCH  28  33
ATOM     33  O   UNL     1      54.035   3.849  78.238  1.00  0.00    -0.384 OA
ATOM     34  H   UNL     1      54.201   4.831  78.268  1.00  0.00     0.211 HD
ENDBRANCH  28  33
BRANCH  30  35
ATOM     35  O   UNL     1      51.256   4.182  78.910  1.00  0.00    -0.387 OA
ATOM     36  H   UNL     1      51.643   3.706  78.118  1.00  0.00     0.211 HD
ENDBRANCH  30  35
BRANCH  31  37
ATOM     37  C   UNL     1      52.843   4.597  83.639  1.00  0.00     0.191 C 
BRANCH  37  38
ATOM     38  O   UNL     1      51.526   4.451  84.125  1.00  0.00    -0.394 OA
ATOM     39  H   UNL     1      51.342   3.484  84.268  1.00  0.00     0.210 HD
ENDBRANCH  37  38
ENDBRANCH  31  37
BRANCH  32  40
ATOM     40  O   UNL     1      50.954   3.059  81.394  1.00  0.00    -0.387 OA
ATOM     41  H   UNL     1      50.053   3.372  81.122  1.00  0.00     0.211 HD
ENDBRANCH  32  40
ENDBRANCH   1  27
TORSDOF 12
ENDMDL
MODEL 7
REMARK VINA RESULT:    -6.093      2.300      5.004
REMARK INTER + INTRA:         -10.667
REMARK INTER:                  -9.427
REMARK INTRA:                  -1.240
REMARK UNBOUND:                -1.724
REMARK SMILES O=c1c(O[C@H]2O[C@@H](CO)[C@H](O)[C@H](O)[C@H]2O)c(-c2ccc(O)c(O)c2)oc2cc(O)cc(O)c12
REMARK SMILES IDX 4 1 3 2 16 3 25 4 2 5 26 6 1 7 33 8 27 9 31 10 28 11 30 12
REMARK SMILES IDX 17 13 18 14 19 15 20 16 24 17 22 18 21 19 23 21 32 23 29 25
REMARK SMILES IDX 5 27 14 28 6 29 12 30 7 31 10 32 15 33 13 35 8 37 9 38 11 40
REMARK H PARENT 21 20 23 22 32 24 29 26 15 34 13 36 9 39 11 41
REMARK Flexibility Score: inf
ROOT
ATOM      1  O   UNL     1      56.350   5.165  80.151  1.00  0.00    -0.454 OA
ENDROOT
BRANCH   1   2
ATOM      2  C   UNL     1      55.180   4.799  80.833  1.00  0.00     0.214 A 
ATOM      3  C   UNL     1      53.895   5.234  80.439  1.00  0.00     0.180 A 
ATOM      4  O   UNL     1      52.835   4.840  81.133  1.00  0.00    -0.452 OA
ATOM      5  C   UNL     1      55.286   3.897  81.896  1.00  0.00     0.239 A 
ATOM      6  C   UNL     1      52.888   3.980  82.143  1.00  0.00     0.146 A 
ATOM      7  O   UNL     1      56.432   3.490  82.215  1.00  0.00    -0.285 OA
ATOM      8  C   UNL     1      54.129   3.431  82.557  1.00  0.00     0.111 A 
ATOM      9  C   UNL     1      51.689   3.563  82.725  1.00  0.00     0.094 A 
ATOM     10  C   UNL     1      54.115   2.403  83.552  1.00  0.00     0.134 A 
ATOM     11  C   UNL     1      51.681   2.493  83.612  1.00  0.00     0.123 A 
ATOM     12  C   UNL     1      52.891   1.916  84.012  1.00  0.00     0.093 A 
BRANCH   3  13
ATOM     13  C   UNL     1      53.648   6.038  79.214  1.00  0.00     0.025 A 
ATOM     14  C   UNL     1      54.137   5.574  77.976  1.00  0.00     0.016 A 
ATOM     15  C   UNL     1      53.989   6.347  76.827  1.00  0.00     0.051 A 
ATOM     16  C   UNL     1      53.381   7.604  76.891  1.00  0.00     0.157 A 
ATOM     17  C   UNL     1      53.044   7.305  79.281  1.00  0.00     0.062 A 
ATOM     18  C   UNL     1      52.905   8.088  78.124  1.00  0.00     0.158 A 
BRANCH  16  19
ATOM     19  O   UNL     1      53.258   8.356  75.726  1.00  0.00    -0.504 OA
ATOM     20  H   UNL     1      52.367   8.464  75.251  1.00  0.00     0.293 HD
ENDBRANCH  16  19
BRANCH  18  21
ATOM     21  O   UNL     1      52.302   9.344  78.199  1.00  0.00    -0.504 OA
ATOM     22  H   UNL     1      52.042   9.757  79.083  1.00  0.00     0.293 HD
ENDBRANCH  18  21
ENDBRANCH   3  13
BRANCH  10  23
ATOM     23  O   UNL     1      55.263   1.827  84.116  1.00  0.00    -0.507 OA
ATOM     24  H   UNL     1      55.554   0.880  83.957  1.00  0.00     0.293 HD
ENDBRANCH  10  23
BRANCH  11  25
ATOM     25  O   UNL     1      50.471   1.997  84.081  1.00  0.00    -0.508 OA
ATOM     26  H   UNL     1      49.879   2.556  84.686  1.00  0.00     0.293 HD
ENDBRANCH  11  25
ENDBRANCH   1   2
BRANCH   1  27
ATOM     27  C   UNL     1      57.122   6.356  80.329  1.00  0.00     0.339 C 
ATOM     28  C   UNL     1      57.864   6.756  79.020  1.00  0.00     0.214 C 
ATOM     29  O   UNL     1      58.016   6.256  81.428  1.00  0.00    -0.332 OA
ATOM     30  C   UNL     1      59.380   6.911  79.283  1.00  0.00     0.180 C 
ATOM     31  C   UNL     1      58.623   7.518  81.649  1.00  0.00     0.179 C 
ATOM     32  C   UNL     1      59.679   7.787  80.535  1.00  0.00     0.177 C 
BRANCH  28  33
ATOM     33  O   UNL     1      57.660   5.794  78.012  1.00  0.00    -0.384 OA
ATOM     34  H   UNL     1      56.680   5.614  77.972  1.00  0.00     0.211 HD
ENDBRANCH  28  33
BRANCH  30  35
ATOM     35  O   UNL     1      60.059   7.378  78.139  1.00  0.00    -0.387 OA
ATOM     36  H   UNL     1      59.793   6.786  77.376  1.00  0.00     0.211 HD
ENDBRANCH  30  35
BRANCH  31  37
ATOM     37  C   UNL     1      59.215   7.571  83.070  1.00  0.00     0.191 C 
BRANCH  37  38
ATOM     38  O   UNL     1      60.480   8.195  83.107  1.00  0.00    -0.394 OA
ATOM     39  H   UNL     1      60.726   8.480  82.186  1.00  0.00     0.210 HD
ENDBRANCH  37  38
ENDBRANCH  31  37
BRANCH  32  40
ATOM     40  O   UNL     1      59.668   9.153  80.194  1.00  0.00    -0.387 OA
ATOM     41  H   UNL     1      59.868   9.659  81.022  1.00  0.00     0.211 HD
ENDBRANCH  32  40
ENDBRANCH   1  27
TORSDOF 12
ENDMDL
MODEL 8
REMARK VINA RESULT:    -6.056      2.412      7.936
REMARK INTER + INTRA:         -10.613
REMARK INTER:                  -9.578
REMARK INTRA:                  -1.035
REMARK UNBOUND:                -1.724
REMARK SMILES O=c1c(O[C@H]2O[C@@H](CO)[C@H](O)[C@H](O)[C@H]2O)c(-c2ccc(O)c(O)c2)oc2cc(O)cc(O)c12
REMARK SMILES IDX 4 1 3 2 16 3 25 4 2 5 26 6 1 7 33 8 27 9 31 10 28 11 30 12
REMARK SMILES IDX 17 13 18 14 19 15 20 16 24 17 22 18 21 19 23 21 32 23 29 25
REMARK SMILES IDX 5 27 14 28 6 29 12 30 7 31 10 32 15 33 13 35 8 37 9 38 11 40
REMARK H PARENT 21 20 23 22 32 24 29 26 15 34 13 36 9 39 11 41
REMARK Flexibility Score: inf
ROOT
ATOM      1  O   UNL     1      54.201   4.904  77.807  1.00  0.00    -0.454 OA
ENDROOT
BRANCH   1   2
ATOM      2  C   UNL     1      55.280   5.797  77.880  1.00  0.00     0.214 A 
ATOM      3  C   UNL     1      55.172   7.160  77.523  1.00  0.00     0.180 A 
ATOM      4  O   UNL     1      56.238   7.944  77.624  1.00  0.00    -0.452 OA
ATOM      5  C   UNL     1      56.489   5.336  78.411  1.00  0.00     0.239 A 
ATOM      6  C   UNL     1      57.402   7.552  78.129  1.00  0.00     0.146 A 
ATOM      7  O   UNL     1      56.561   4.130  78.758  1.00  0.00    -0.285 OA
ATOM      8  C   UNL     1      57.576   6.219  78.586  1.00  0.00     0.111 A 
ATOM      9  C   UNL     1      58.415   8.500  78.280  1.00  0.00     0.094 A 
ATOM     10  C   UNL     1      58.799   5.888  79.250  1.00  0.00     0.134 A 
ATOM     11  C   UNL     1      59.552   8.193  79.018  1.00  0.00     0.123 A 
ATOM     12  C   UNL     1      59.732   6.894  79.505  1.00  0.00     0.093 A 
BRANCH   3  13
ATOM     13  C   UNL     1      53.890   7.799  77.129  1.00  0.00     0.025 A 
ATOM     14  C   UNL     1      53.773   8.377  75.850  1.00  0.00     0.016 A 
ATOM     15  C   UNL     1      52.610   9.052  75.485  1.00  0.00     0.051 A 
ATOM     16  C   UNL     1      51.557   9.190  76.393  1.00  0.00     0.157 A 
ATOM     17  C   UNL     1      52.835   7.945  78.046  1.00  0.00     0.062 A 
ATOM     18  C   UNL     1      51.667   8.635  77.682  1.00  0.00     0.158 A 
BRANCH  16  19
ATOM     19  O   UNL     1      50.412   9.879  76.001  1.00  0.00    -0.504 OA
ATOM     20  H   UNL     1      49.499   9.436  75.991  1.00  0.00     0.293 HD
ENDBRANCH  16  19
BRANCH  18  21
ATOM     21  O   UNL     1      50.623   8.773  78.597  1.00  0.00    -0.504 OA
ATOM     22  H   UNL     1      50.742   9.273  79.466  1.00  0.00     0.293 HD
ENDBRANCH  18  21
ENDBRANCH   3  13
BRANCH  10  23
ATOM     23  O   UNL     1      59.144   4.598  79.681  1.00  0.00    -0.507 OA
ATOM     24  H   UNL     1      58.809   3.753  79.255  1.00  0.00     0.293 HD
ENDBRANCH  10  23
BRANCH  11  25
ATOM     25  O   UNL     1      60.492   9.183  79.279  1.00  0.00    -0.508 OA
ATOM     26  H   UNL     1      60.257   9.984  79.855  1.00  0.00     0.293 HD
ENDBRANCH  11  25
ENDBRANCH   1   2
BRANCH   1  27
ATOM     27  C   UNL     1      53.628   4.145  78.876  1.00  0.00     0.339 C 
ATOM     28  C   UNL     1      52.384   3.339  78.401  1.00  0.00     0.214 C 
ATOM     29  O   UNL     1      53.329   4.952  80.006  1.00  0.00    -0.332 OA
ATOM     30  C   UNL     1      51.158   3.664  79.287  1.00  0.00     0.180 C 
ATOM     31  C   UNL     1      52.925   4.119  81.079  1.00  0.00     0.179 C 
ATOM     32  C   UNL     1      51.486   3.586  80.807  1.00  0.00     0.177 C 
BRANCH  28  33
ATOM     33  O   UNL     1      52.080   3.628  77.057  1.00  0.00    -0.384 OA
ATOM     34  H   UNL     1      52.943   3.824  76.597  1.00  0.00     0.211 HD
ENDBRANCH  28  33
BRANCH  30  35
ATOM     35  O   UNL     1      50.047   2.867  78.946  1.00  0.00    -0.387 OA
ATOM     36  H   UNL     1      50.378   1.927  78.847  1.00  0.00     0.211 HD
ENDBRANCH  30  35
BRANCH  31  37
ATOM     37  C   UNL     1      53.046   4.884  82.409  1.00  0.00     0.191 C 
BRANCH  37  38
ATOM     38  O   UNL     1      52.499   4.171  83.497  1.00  0.00    -0.394 OA
ATOM     39  H   UNL     1      51.932   3.433  83.145  1.00  0.00     0.210 HD
ENDBRANCH  37  38
ENDBRANCH  31  37
BRANCH  32  40
ATOM     40  O   UNL     1      51.379   2.259  81.265  1.00  0.00    -0.387 OA
ATOM     41  H   UNL     1      50.550   2.206  81.805  1.00  0.00     0.211 HD
ENDBRANCH  32  40
ENDBRANCH   1  27
TORSDOF 12
ENDMDL
MODEL 9
REMARK VINA RESULT:    -5.849      2.410      4.742
REMARK INTER + INTRA:         -10.308
REMARK INTER:                  -8.938
REMARK INTRA:                  -1.370
REMARK UNBOUND:                -1.724
REMARK SMILES O=c1c(O[C@H]2O[C@@H](CO)[C@H](O)[C@H](O)[C@H]2O)c(-c2ccc(O)c(O)c2)oc2cc(O)cc(O)c12
REMARK SMILES IDX 4 1 3 2 16 3 25 4 2 5 26 6 1 7 33 8 27 9 31 10 28 11 30 12
REMARK SMILES IDX 17 13 18 14 19 15 20 16 24 17 22 18 21 19 23 21 32 23 29 25
REMARK SMILES IDX 5 27 14 28 6 29 12 30 7 31 10 32 15 33 13 35 8 37 9 38 11 40
REMARK H PARENT 21 20 23 22 32 24 29 26 15 34 13 36 9 39 11 41
REMARK Flexibility Score: inf
ROOT
ATOM      1  O   UNL     1      56.097   7.120  80.590  1.00  0.00    -0.454 OA
ENDROOT
BRANCH   1   2
ATOM      2  C   UNL     1      55.110   6.193  80.954  1.00  0.00     0.214 A 
ATOM      3  C   UNL     1      53.808   6.203  80.406  1.00  0.00     0.180 A 
ATOM      4  O   UNL     1      52.931   5.288  80.799  1.00  0.00    -0.452 OA
ATOM      5  C   UNL     1      55.460   5.163  81.833  1.00  0.00     0.239 A 
ATOM      6  C   UNL     1      53.221   4.290  81.625  1.00  0.00     0.146 A 
ATOM      7  O   UNL     1      56.633   5.144  82.287  1.00  0.00    -0.285 OA
ATOM      8  C   UNL     1      54.527   4.156  82.162  1.00  0.00     0.111 A 
ATOM      9  C   UNL     1      52.239   3.330  81.879  1.00  0.00     0.094 A 
ATOM     10  C   UNL     1      54.825   2.986  82.930  1.00  0.00     0.134 A 
ATOM     11  C   UNL     1      52.570   2.151  82.535  1.00  0.00     0.123 A 
ATOM     12  C   UNL     1      53.861   1.983  83.048  1.00  0.00     0.093 A 
BRANCH   3  13
ATOM     13  C   UNL     1      53.387   7.132  79.326  1.00  0.00     0.025 A 
ATOM     14  C   UNL     1      52.508   8.189  79.630  1.00  0.00     0.016 A 
ATOM     15  C   UNL     1      52.035   9.025  78.621  1.00  0.00     0.051 A 
ATOM     16  C   UNL     1      52.405   8.808  77.291  1.00  0.00     0.157 A 
ATOM     17  C   UNL     1      53.753   6.908  77.987  1.00  0.00     0.062 A 
ATOM     18  C   UNL     1      53.268   7.744  76.969  1.00  0.00     0.158 A 
BRANCH  16  19
ATOM     19  O   UNL     1      51.907   9.656  76.304  1.00  0.00    -0.504 OA
ATOM     20  H   UNL     1      51.487  10.552  76.532  1.00  0.00     0.293 HD
ENDBRANCH  16  19
BRANCH  18  21
ATOM     21  O   UNL     1      53.636   7.517  75.643  1.00  0.00    -0.504 OA
ATOM     22  H   UNL     1      53.850   8.276  75.013  1.00  0.00     0.293 HD
ENDBRANCH  18  21
ENDBRANCH   3  13
BRANCH  10  23
ATOM     23  O   UNL     1      56.042   2.757  83.589  1.00  0.00    -0.507 OA
ATOM     24  H   UNL     1      56.853   3.341  83.494  1.00  0.00     0.293 HD
ENDBRANCH  10  23
BRANCH  11  25
ATOM     25  O   UNL     1      51.622   1.144  82.664  1.00  0.00    -0.508 OA
ATOM     26  H   UNL     1      50.892   1.025  81.969  1.00  0.00     0.293 HD
ENDBRANCH  11  25
ENDBRANCH   1   2
BRANCH   1  27
ATOM     27  C   UNL     1      56.659   7.325  79.290  1.00  0.00     0.339 C 
ATOM     28  C   UNL     1      58.109   6.768  79.200  1.00  0.00     0.214 C 
ATOM     29  O   UNL     1      56.594   8.685  78.887  1.00  0.00    -0.332 OA
ATOM     30  C   UNL     1      59.083   7.867  78.715  1.00  0.00     0.180 C 
ATOM     31  C   UNL     1      57.009   8.790  77.536  1.00  0.00     0.179 C 
ATOM     32  C   UNL     1      58.555   8.613  77.454  1.00  0.00     0.177 C 
BRANCH  28  33
ATOM     33  O   UNL     1      58.539   6.281  80.449  1.00  0.00    -0.384 OA
ATOM     34  H   UNL     1      59.432   5.861  80.310  1.00  0.00     0.211 HD
ENDBRANCH  28  33
BRANCH  30  35
ATOM     35  O   UNL     1      60.384   7.360  78.522  1.00  0.00    -0.387 OA
ATOM     36  H   UNL     1      60.550   7.346  77.534  1.00  0.00     0.211 HD
ENDBRANCH  30  35
BRANCH  31  37
ATOM     37  C   UNL     1      56.520  10.123  76.940  1.00  0.00     0.191 C 
BRANCH  37  38
ATOM     38  O   UNL     1      55.620   9.940  75.868  1.00  0.00    -0.394 OA
ATOM     39  H   UNL     1      54.945   9.256  76.128  1.00  0.00     0.210 HD
ENDBRANCH  37  38
ENDBRANCH  31  37
BRANCH  32  40
ATOM     40  O   UNL     1      58.888   7.900  76.286  1.00  0.00    -0.387 OA
ATOM     41  H   UNL     1      59.874   7.941  76.193  1.00  0.00     0.211 HD
ENDBRANCH  32  40
ENDBRANCH   1  27
TORSDOF 12
ENDMDL
