MODEL 1
REMARK VINA RESULT:    27.540      0.000      0.000
REMARK INTER + INTRA:          32.853
REMARK INTER:                  33.175
REMARK INTRA:                  -0.321
REMARK UNBOUND:                -0.321
REMARK SMILES Oc1cc(O)c2cc(O)c(-c3ccc(O)c(O)c3)[o+]c2c1
REMARK SMILES IDX 10 1 19 2 20 3 21 4 2 5 3 6 4 7 6 8 7 9 8 10 11 11 12 12
REMARK SMILES IDX 13 13 14 14 18 15 16 16 15 17 17 19 9 21 1 23 5 25
REMARK H PARENT 15 18 17 20 9 22 1 24 5 26
REMARK Flexibility Score: inf
ROOT
ATOM      1  C   UNL     1       9.431   2.177   8.558  1.00  0.00     0.402 A 
ATOM      2  O   UNL     1      10.247   1.294   7.987  1.00  0.00    -0.202 OA
ATOM      3  C   UNL     1      11.243   1.639   7.176  1.00  0.00     0.368 A 
ATOM      4  C   UNL     1      12.044   0.638   6.621  1.00  0.00     0.162 A 
ATOM      5  C   UNL     1      13.094   0.969   5.763  1.00  0.00     0.128 A 
ATOM      6  C   UNL     1      13.345   2.311   5.456  1.00  0.00     0.093 A 
ATOM      7  C   UNL     1      12.555   3.333   5.998  1.00  0.00     0.136 A 
ATOM      8  C   UNL     1      11.488   2.999   6.872  1.00  0.00     0.125 A 
ATOM      9  C   UNL     1      10.654   3.957   7.473  1.00  0.00     0.078 A 
ATOM     10  C   UNL     1       9.625   3.552   8.328  1.00  0.00     0.223 A 
ENDROOT
BRANCH   1  11
ATOM     11  C   UNL     1       8.353   1.669   9.435  1.00  0.00     0.087 A 
ATOM     12  C   UNL     1       8.603   1.315  10.773  1.00  0.00     0.022 A 
ATOM     13  C   UNL     1       7.564   0.860  11.589  1.00  0.00     0.051 A 
ATOM     14  C   UNL     1       6.259   0.765  11.087  1.00  0.00     0.157 A 
ATOM     15  C   UNL     1       7.040   1.593   8.943  1.00  0.00     0.068 A 
ATOM     16  C   UNL     1       5.997   1.137   9.758  1.00  0.00     0.158 A 
BRANCH  14  17
ATOM     17  O   UNL     1       5.225   0.309  11.903  1.00  0.00    -0.504 OA
ATOM     18  H   UNL     1       4.603  -0.433  11.607  1.00  0.00     0.293 HD
ENDBRANCH  14  17
BRANCH  16  19
ATOM     19  O   UNL     1       4.708   1.061   9.230  1.00  0.00    -0.504 OA
ATOM     20  H   UNL     1       4.340   0.208   8.828  1.00  0.00     0.293 HD
ENDBRANCH  16  19
ENDBRANCH   1  11
BRANCH  10  21
ATOM     21  O   UNL     1       8.828   4.505   8.964  1.00  0.00    -0.500 OA
ATOM     22  H   UNL     1       8.169   5.076   8.449  1.00  0.00     0.294 HD
ENDBRANCH  10  21
BRANCH   5  23
ATOM     23  O   UNL     1      13.882  -0.043   5.221  1.00  0.00    -0.507 OA
ATOM     24  H   UNL     1      13.683  -1.021   5.395  1.00  0.00     0.293 HD
ENDBRANCH   5  23
BRANCH   7  25
ATOM     25  O   UNL     1      12.867   4.647   5.639  1.00  0.00    -0.507 OA
ATOM     26  H   UNL     1      13.499   5.244   6.152  1.00  0.00     0.293 HD
ENDBRANCH   7  25
TORSDOF 6
ENDMDL
MODEL 2
REMARK VINA RESULT:    28.306      4.637      8.113
REMARK INTER + INTRA:          33.776
REMARK INTER:                  34.038
REMARK INTRA:                  -0.262
REMARK UNBOUND:                -0.321
REMARK SMILES Oc1cc(O)c2cc(O)c(-c3ccc(O)c(O)c3)[o+]c2c1
REMARK SMILES IDX 10 1 19 2 20 3 21 4 2 5 3 6 4 7 6 8 7 9 8 10 11 11 12 12
REMARK SMILES IDX 13 13 14 14 18 15 16 16 15 17 17 19 9 21 1 23 5 25
REMARK H PARENT 15 18 17 20 9 22 1 24 5 26
REMARK Flexibility Score: inf
ROOT
ATOM      1  C   UNL     1      15.033   2.956   8.413  1.00  0.00     0.402 A 
ATOM      2  O   UNL     1      14.115   3.819   7.988  1.00  0.00    -0.202 OA
ATOM      3  C   UNL     1      13.098   3.477   7.201  1.00  0.00     0.368 A 
ATOM      4  C   UNL     1      12.186   4.457   6.804  1.00  0.00     0.162 A 
ATOM      5  C   UNL     1      11.111   4.128   5.977  1.00  0.00     0.128 A 
ATOM      6  C   UNL     1      10.949   2.808   5.541  1.00  0.00     0.093 A 
ATOM      7  C   UNL     1      11.850   1.807   5.923  1.00  0.00     0.136 A 
ATOM      8  C   UNL     1      12.942   2.139   6.767  1.00  0.00     0.125 A 
ATOM      9  C   UNL     1      13.887   1.199   7.212  1.00  0.00     0.078 A 
ATOM     10  C   UNL     1      14.934   1.600   8.047  1.00  0.00     0.223 A 
ENDROOT
BRANCH   1  11
ATOM     11  C   UNL     1      16.122   3.461   9.278  1.00  0.00     0.087 A 
ATOM     12  C   UNL     1      15.888   3.818  10.617  1.00  0.00     0.022 A 
ATOM     13  C   UNL     1      16.938   4.270  11.421  1.00  0.00     0.051 A 
ATOM     14  C   UNL     1      18.238   4.358  10.905  1.00  0.00     0.157 A 
ATOM     15  C   UNL     1      17.430   3.530   8.772  1.00  0.00     0.068 A 
ATOM     16  C   UNL     1      18.484   3.983   9.574  1.00  0.00     0.158 A 
BRANCH  14  17
ATOM     17  O   UNL     1      19.282   4.811  11.710  1.00  0.00    -0.504 OA
ATOM     18  H   UNL     1      20.040   5.368  11.333  1.00  0.00     0.293 HD
ENDBRANCH  14  17
BRANCH  16  19
ATOM     19  O   UNL     1      19.767   4.052   9.032  1.00  0.00    -0.504 OA
ATOM     20  H   UNL     1      19.934   4.004   8.034  1.00  0.00     0.293 HD
ENDBRANCH  16  19
ENDBRANCH   1  11
BRANCH  10  21
ATOM     21  O   UNL     1      15.844   0.659   8.530  1.00  0.00    -0.500 OA
ATOM     22  H   UNL     1      15.537  -0.208   8.956  1.00  0.00     0.294 HD
ENDBRANCH  10  21
BRANCH   5  23
ATOM     23  O   UNL     1      10.212   5.119   5.593  1.00  0.00    -0.507 OA
ATOM     24  H   UNL     1      10.270   6.060   5.965  1.00  0.00     0.293 HD
ENDBRANCH   5  23
BRANCH   7  25
ATOM     25  O   UNL     1      11.620   0.515   5.442  1.00  0.00    -0.507 OA
ATOM     26  H   UNL     1      10.812  -0.044   5.672  1.00  0.00     0.293 HD
ENDBRANCH   7  25
TORSDOF 6
ENDMDL
MODEL 3
REMARK VINA RESULT:    28.338      1.084      2.615
REMARK INTER + INTRA:          33.814
REMARK INTER:                  34.137
REMARK INTRA:                  -0.323
REMARK UNBOUND:                -0.321
REMARK SMILES Oc1cc(O)c2cc(O)c(-c3ccc(O)c(O)c3)[o+]c2c1
REMARK SMILES IDX 10 1 19 2 20 3 21 4 2 5 3 6 4 7 6 8 7 9 8 10 11 11 12 12
REMARK SMILES IDX 13 13 14 14 18 15 16 16 15 17 17 19 9 21 1 23 5 25
REMARK H PARENT 15 18 17 20 9 22 1 24 5 26
REMARK Flexibility Score: inf
ROOT
ATOM      1  C   UNL     1       9.354   1.375   8.727  1.00  0.00     0.402 A 
ATOM      2  O   UNL     1       9.618   2.586   8.245  1.00  0.00    -0.202 OA
ATOM      3  C   UNL     1      10.600   2.831   7.383  1.00  0.00     0.368 A 
ATOM      4  C   UNL     1      10.801   4.139   6.936  1.00  0.00     0.162 A 
ATOM      5  C   UNL     1      11.827   4.427   6.034  1.00  0.00     0.128 A 
ATOM      6  C   UNL     1      12.660   3.399   5.577  1.00  0.00     0.093 A 
ATOM      7  C   UNL     1      12.480   2.080   6.012  1.00  0.00     0.136 A 
ATOM      8  C   UNL     1      11.436   1.784   6.926  1.00  0.00     0.125 A 
ATOM      9  C   UNL     1      11.173   0.490   7.405  1.00  0.00     0.078 A 
ATOM     10  C   UNL     1      10.122   0.275   8.301  1.00  0.00     0.223 A 
ENDROOT
BRANCH   1  11
ATOM     11  C   UNL     1       8.238   1.231   9.688  1.00  0.00     0.087 A 
ATOM     12  C   UNL     1       8.472   1.088  11.067  1.00  0.00     0.022 A 
ATOM     13  C   UNL     1       7.400   0.978  11.957  1.00  0.00     0.051 A 
ATOM     14  C   UNL     1       6.081   1.023  11.487  1.00  0.00     0.157 A 
ATOM     15  C   UNL     1       6.914   1.297   9.224  1.00  0.00     0.068 A 
ATOM     16  C   UNL     1       5.838   1.187  10.113  1.00  0.00     0.158 A 
BRANCH  14  17
ATOM     17  O   UNL     1       5.015   0.911  12.378  1.00  0.00    -0.504 OA
ATOM     18  H   UNL     1       4.879   1.577  13.129  1.00  0.00     0.293 HD
ENDBRANCH  14  17
BRANCH  16  19
ATOM     19  O   UNL     1       4.537   1.243   9.614  1.00  0.00    -0.504 OA
ATOM     20  H   UNL     1       3.812   1.791  10.061  1.00  0.00     0.293 HD
ENDBRANCH  16  19
ENDBRANCH   1  11
BRANCH  10  21
ATOM     21  O   UNL     1       9.829  -1.018   8.739  1.00  0.00    -0.500 OA
ATOM     22  H   UNL     1       9.554  -1.749   8.093  1.00  0.00     0.294 HD
ENDBRANCH  10  21
BRANCH   5  23
ATOM     23  O   UNL     1      12.011   5.736   5.599  1.00  0.00    -0.507 OA
ATOM     24  H   UNL     1      12.011   5.972   4.614  1.00  0.00     0.293 HD
ENDBRANCH   5  23
BRANCH   7  25
ATOM     25  O   UNL     1      13.356   1.112   5.512  1.00  0.00    -0.507 OA
ATOM     26  H   UNL     1      14.112   0.701   6.038  1.00  0.00     0.293 HD
ENDBRANCH   7  25
TORSDOF 6
ENDMDL
MODEL 4
REMARK VINA RESULT:    28.986      4.814      7.840
REMARK INTER + INTRA:          34.595
REMARK INTER:                  34.887
REMARK INTRA:                  -0.292
REMARK UNBOUND:                -0.321
REMARK SMILES Oc1cc(O)c2cc(O)c(-c3ccc(O)c(O)c3)[o+]c2c1
REMARK SMILES IDX 10 1 19 2 20 3 21 4 2 5 3 6 4 7 6 8 7 9 8 10 11 11 12 12
REMARK SMILES IDX 13 13 14 14 18 15 16 16 15 17 17 19 9 21 1 23 5 25
REMARK H PARENT 15 18 17 20 9 22 1 24 5 26
REMARK Flexibility Score: inf
ROOT
ATOM      1  C   UNL     1      15.082   3.797   8.609  1.00  0.00     0.402 A 
ATOM      2  O   UNL     1      14.819   2.605   8.080  1.00  0.00    -0.202 OA
ATOM      3  C   UNL     1      13.785   2.374   7.276  1.00  0.00     0.368 A 
ATOM      4  C   UNL     1      13.590   1.086   6.772  1.00  0.00     0.162 A 
ATOM      5  C   UNL     1      12.512   0.813   5.929  1.00  0.00     0.128 A 
ATOM      6  C   UNL     1      11.619   1.837   5.589  1.00  0.00     0.093 A 
ATOM      7  C   UNL     1      11.792   3.135   6.083  1.00  0.00     0.136 A 
ATOM      8  C   UNL     1      12.889   3.416   6.937  1.00  0.00     0.125 A 
ATOM      9  C   UNL     1      13.148   4.691   7.468  1.00  0.00     0.078 A 
ATOM     10  C   UNL     1      14.253   4.892   8.300  1.00  0.00     0.223 A 
ENDROOT
BRANCH   1  11
ATOM     11  C   UNL     1      16.259   3.925   9.496  1.00  0.00     0.087 A 
ATOM     12  C   UNL     1      16.115   4.093  10.885  1.00  0.00     0.022 A 
ATOM     13  C   UNL     1      17.242   4.188  11.705  1.00  0.00     0.051 A 
ATOM     14  C   UNL     1      18.528   4.103  11.154  1.00  0.00     0.157 A 
ATOM     15  C   UNL     1      17.549   3.819   8.952  1.00  0.00     0.068 A 
ATOM     16  C   UNL     1      18.680   3.914   9.771  1.00  0.00     0.158 A 
BRANCH  14  17
ATOM     17  O   UNL     1      19.650   4.200  11.976  1.00  0.00    -0.504 OA
ATOM     18  H   UNL     1      20.058   3.385  12.417  1.00  0.00     0.293 HD
ENDBRANCH  14  17
BRANCH  16  19
ATOM     19  O   UNL     1      19.946   3.818   9.192  1.00  0.00    -0.504 OA
ATOM     20  H   UNL     1      20.642   4.546   9.297  1.00  0.00     0.293 HD
ENDBRANCH  16  19
ENDBRANCH   1  11
BRANCH  10  21
ATOM     21  O   UNL     1      14.540   6.168   8.787  1.00  0.00    -0.500 OA
ATOM     22  H   UNL     1      15.463   6.576   8.701  1.00  0.00     0.294 HD
ENDBRANCH  10  21
BRANCH   5  23
ATOM     23  O   UNL     1      12.335  -0.476   5.436  1.00  0.00    -0.507 OA
ATOM     24  H   UNL     1      11.667  -1.115   5.852  1.00  0.00     0.293 HD
ENDBRANCH   5  23
BRANCH   7  25
ATOM     25  O   UNL     1      10.854   4.100   5.700  1.00  0.00    -0.507 OA
ATOM     26  H   UNL     1      10.034   3.908   5.144  1.00  0.00     0.293 HD
ENDBRANCH   7  25
TORSDOF 6
ENDMDL
