MODEL 1
REMARK VINA RESULT:    -5.633      0.000      0.000
REMARK INTER + INTRA:         -19.847
REMARK INTER:                 -14.853
REMARK INTRA:                  -4.995
REMARK UNBOUND:                -4.995
REMARK SMILES CCCCCCCCCCCCCCCCCCCCCCCCCCCCCC(=O)[O-]
REMARK SMILES IDX 16 1 17 2 18 3 19 4 20 5 21 6 22 7 23 8 24 9 25 10 26 11
REMARK SMILES IDX 27 12 28 13 29 14 30 15 31 16 32 17 15 18 14 19 13 20 12 21
REMARK SMILES IDX 11 22 10 23 9 24 8 25 7 26 6 27 5 28 4 29 3 30 2 31 1 32
REMARK H PARENT
REMARK Flexibility Score: inf
ROOT
ATOM      1  C   UNL     1     -24.958 -28.253  24.958  1.00  0.00     0.000 C 
ENDROOT
BRANCH   1   2
ATOM      2  C   UNL     1     -25.445 -29.373  25.891  1.00  0.00     0.000 C 
BRANCH   2   3
ATOM      3  C   UNL     1     -26.279 -30.430  25.152  1.00  0.00     0.000 C 
BRANCH   3   4
ATOM      4  C   UNL     1     -27.106 -31.265  26.139  1.00  0.00     0.000 C 
BRANCH   4   5
ATOM      5  C   UNL     1     -27.108 -32.767  25.798  1.00  0.00     0.000 C 
BRANCH   5   6
ATOM      6  C   UNL     1     -26.733 -33.104  24.343  1.00  0.00     0.000 C 
BRANCH   6   7
ATOM      7  C   UNL     1     -27.935 -33.571  23.508  1.00  0.00     0.000 C 
BRANCH   7   8
ATOM      8  C   UNL     1     -28.057 -32.746  22.218  1.00  0.00     0.000 C 
BRANCH   8   9
ATOM      9  C   UNL     1     -29.335 -31.891  22.173  1.00  0.00     0.000 C 
BRANCH   9  10
ATOM     10  C   UNL     1     -29.297 -30.622  23.045  1.00  0.00     0.000 C 
BRANCH  10  11
ATOM     11  C   UNL     1     -30.619 -30.333  23.789  1.00  0.00     0.000 C 
BRANCH  11  12
ATOM     12  C   UNL     1     -30.382 -29.752  25.196  1.00  0.00     0.000 C 
BRANCH  12  13
ATOM     13  C   UNL     1     -29.348 -28.611  25.201  1.00  0.00     0.006 C 
BRANCH  13  14
ATOM     14  C   UNL     1     -29.761 -27.398  26.051  1.00  0.00     0.053 C 
BRANCH  14  15
ATOM     15  C   UNL     1     -30.077 -26.201  25.207  1.00  0.00     0.041 C 
ATOM     16  O   UNL     1     -29.285 -25.224  25.173  1.00  0.00    -0.550 OA
ATOM     17  O   UNL     1     -31.253 -26.161  24.469  1.00  0.00    -0.550 OA
ENDBRANCH  14  15
ENDBRANCH  13  14
ENDBRANCH  12  13
ENDBRANCH  11  12
ENDBRANCH  10  11
ENDBRANCH   9  10
ENDBRANCH   8   9
ENDBRANCH   7   8
ENDBRANCH   6   7
ENDBRANCH   5   6
ENDBRANCH   4   5
ENDBRANCH   3   4
ENDBRANCH   2   3
ENDBRANCH   1   2
BRANCH   1  18
ATOM     18  C   UNL     1     -25.947 -27.077  24.883  1.00  0.00     0.000 C 
BRANCH  18  19
ATOM     19  C   UNL     1     -26.540 -26.899  23.477  1.00  0.00     0.000 C 
BRANCH  19  20
ATOM     20  C   UNL     1     -25.613 -27.443  22.377  1.00  0.00     0.000 C 
BRANCH  20  21
ATOM     21  C   UNL     1     -26.358 -28.286  21.329  1.00  0.00     0.000 C 
BRANCH  21  22
ATOM     22  C   UNL     1     -25.953 -29.776  21.326  1.00  0.00     0.000 C 
BRANCH  22  23
ATOM     23  C   UNL     1     -24.492 -29.990  21.761  1.00  0.00     0.000 C 
BRANCH  23  24
ATOM     24  C   UNL     1     -24.270 -31.390  22.375  1.00  0.00    -0.000 C 
BRANCH  24  25
ATOM     25  C   UNL     1     -22.817 -31.643  22.810  1.00  0.00    -0.000 C 
BRANCH  25  26
ATOM     26  C   UNL     1     -22.538 -31.185  24.250  1.00  0.00    -0.000 C 
BRANCH  26  27
ATOM     27  C   UNL     1     -21.273 -30.317  24.371  1.00  0.00    -0.000 C 
BRANCH  27  28
ATOM     28  C   UNL     1     -19.973 -30.978  23.877  1.00  0.00    -0.000 C 
BRANCH  28  29
ATOM     29  C   UNL     1     -18.705 -30.287  24.403  1.00  0.00    -0.000 C 
BRANCH  29  30
ATOM     30  C   UNL     1     -17.417 -30.850  23.778  1.00  0.00    -0.000 C 
BRANCH  30  31
ATOM     31  C   UNL     1     -16.848 -29.979  22.640  1.00  0.00    -0.003 C 
ATOM     32  C   UNL     1     -16.445 -30.807  21.420  1.00  0.00     0.004 C 
ENDBRANCH  30  31
ENDBRANCH  29  30
ENDBRANCH  28  29
ENDBRANCH  27  28
ENDBRANCH  26  27
ENDBRANCH  25  26
ENDBRANCH  24  25
ENDBRANCH  23  24
ENDBRANCH  22  23
ENDBRANCH  21  22
ENDBRANCH  20  21
ENDBRANCH  19  20
ENDBRANCH  18  19
ENDBRANCH   1  18
TORSDOF 28
ENDMDL
MODEL 2
REMARK VINA RESULT:    -5.631      2.542      7.945
REMARK INTER + INTRA:         -19.844
REMARK INTER:                 -14.657
REMARK INTRA:                  -5.187
REMARK UNBOUND:                -4.995
REMARK SMILES CCCCCCCCCCCCCCCCCCCCCCCCCCCCCC(=O)[O-]
REMARK SMILES IDX 16 1 17 2 18 3 19 4 20 5 21 6 22 7 23 8 24 9 25 10 26 11
REMARK SMILES IDX 27 12 28 13 29 14 30 15 31 16 32 17 15 18 14 19 13 20 12 21
REMARK SMILES IDX 11 22 10 23 9 24 8 25 7 26 6 27 5 28 4 29 3 30 2 31 1 32
REMARK H PARENT
REMARK Flexibility Score: inf
ROOT
ATOM      1  C   UNL     1     -24.271 -31.472  25.103  1.00  0.00     0.000 C 
ENDROOT
BRANCH   1   2
ATOM      2  C   UNL     1     -23.883 -31.513  23.616  1.00  0.00     0.000 C 
BRANCH   2   3
ATOM      3  C   UNL     1     -22.378 -31.740  23.410  1.00  0.00     0.000 C 
BRANCH   3   4
ATOM      4  C   UNL     1     -21.553 -30.795  24.296  1.00  0.00     0.000 C 
BRANCH   4   5
ATOM      5  C   UNL     1     -20.049 -30.831  23.970  1.00  0.00     0.000 C 
BRANCH   5   6
ATOM      6  C   UNL     1     -19.186 -29.836  24.768  1.00  0.00     0.000 C 
BRANCH   6   7
ATOM      7  C   UNL     1     -19.942 -29.195  25.942  1.00  0.00     0.000 C 
BRANCH   7   8
ATOM      8  C   UNL     1     -19.958 -27.665  25.812  1.00  0.00     0.000 C 
BRANCH   8   9
ATOM      9  C   UNL     1     -19.410 -27.173  24.461  1.00  0.00     0.000 C 
BRANCH   9  10
ATOM     10  C   UNL     1     -20.439 -26.454  23.568  1.00  0.00     0.000 C 
BRANCH  10  11
ATOM     11  C   UNL     1     -21.227 -27.399  22.635  1.00  0.00     0.000 C 
BRANCH  11  12
ATOM     12  C   UNL     1     -22.692 -27.569  23.077  1.00  0.00     0.000 C 
BRANCH  12  13
ATOM     13  C   UNL     1     -23.593 -28.113  21.953  1.00  0.00     0.006 C 
BRANCH  13  14
ATOM     14  C   UNL     1     -24.864 -27.282  21.712  1.00  0.00     0.053 C 
BRANCH  14  15
ATOM     15  C   UNL     1     -24.918 -26.727  20.322  1.00  0.00     0.041 C 
ATOM     16  O   UNL     1     -24.031 -25.928  19.924  1.00  0.00    -0.550 OA
ATOM     17  O   UNL     1     -25.955 -27.084  19.469  1.00  0.00    -0.550 OA
ENDBRANCH  14  15
ENDBRANCH  13  14
ENDBRANCH  12  13
ENDBRANCH  11  12
ENDBRANCH  10  11
ENDBRANCH   9  10
ENDBRANCH   8   9
ENDBRANCH   7   8
ENDBRANCH   6   7
ENDBRANCH   5   6
ENDBRANCH   4   5
ENDBRANCH   3   4
ENDBRANCH   2   3
ENDBRANCH   1   2
BRANCH   1  18
ATOM     18  C   UNL     1     -24.162 -32.851  25.777  1.00  0.00     0.000 C 
BRANCH  18  19
ATOM     19  C   UNL     1     -25.519 -33.365  26.282  1.00  0.00     0.000 C 
BRANCH  19  20
ATOM     20  C   UNL     1     -26.631 -32.309  26.154  1.00  0.00     0.000 C 
BRANCH  20  21
ATOM     21  C   UNL     1     -27.848 -32.813  25.363  1.00  0.00     0.000 C 
BRANCH  21  22
ATOM     22  C   UNL     1     -27.483 -33.510  24.035  1.00  0.00     0.000 C 
BRANCH  22  23
ATOM     23  C   UNL     1     -27.310 -32.515  22.875  1.00  0.00     0.000 C 
BRANCH  23  24
ATOM     24  C   UNL     1     -28.614 -32.332  22.068  1.00  0.00    -0.000 C 
BRANCH  24  25
ATOM     25  C   UNL     1     -29.226 -30.927  22.206  1.00  0.00    -0.000 C 
BRANCH  25  26
ATOM     26  C   UNL     1     -30.563 -30.933  22.965  1.00  0.00    -0.000 C 
BRANCH  26  27
ATOM     27  C   UNL     1     -30.694 -29.767  23.961  1.00  0.00    -0.000 C 
BRANCH  27  28
ATOM     28  C   UNL     1     -30.360 -30.114  25.424  1.00  0.00    -0.000 C 
BRANCH  28  29
ATOM     29  C   UNL     1     -28.989 -29.584  25.873  1.00  0.00    -0.000 C 
BRANCH  29  30
ATOM     30  C   UNL     1     -28.441 -28.488  24.943  1.00  0.00    -0.000 C 
BRANCH  30  31
ATOM     31  C   UNL     1     -27.070 -28.830  24.323  1.00  0.00    -0.003 C 
ATOM     32  C   UNL     1     -25.905 -28.384  25.206  1.00  0.00     0.004 C 
ENDBRANCH  30  31
ENDBRANCH  29  30
ENDBRANCH  28  29
ENDBRANCH  27  28
ENDBRANCH  26  27
ENDBRANCH  25  26
ENDBRANCH  24  25
ENDBRANCH  23  24
ENDBRANCH  22  23
ENDBRANCH  21  22
ENDBRANCH  20  21
ENDBRANCH  19  20
ENDBRANCH  18  19
ENDBRANCH   1  18
TORSDOF 28
ENDMDL
MODEL 3
REMARK VINA RESULT:    -5.545      2.736      8.593
REMARK INTER + INTRA:         -19.615
REMARK INTER:                 -15.405
REMARK INTRA:                  -4.210
REMARK UNBOUND:                -4.995
REMARK SMILES CCCCCCCCCCCCCCCCCCCCCCCCCCCCCC(=O)[O-]
REMARK SMILES IDX 16 1 17 2 18 3 19 4 20 5 21 6 22 7 23 8 24 9 25 10 26 11
REMARK SMILES IDX 27 12 28 13 29 14 30 15 31 16 32 17 15 18 14 19 13 20 12 21
REMARK SMILES IDX 11 22 10 23 9 24 8 25 7 26 6 27 5 28 4 29 3 30 2 31 1 32
REMARK H PARENT
REMARK Flexibility Score: inf
ROOT
ATOM      1  C   UNL     1     -19.220 -31.433  23.465  1.00  0.00     0.000 C 
ENDROOT
BRANCH   1   2
ATOM      2  C   UNL     1     -18.097 -30.493  23.932  1.00  0.00     0.000 C 
BRANCH   2   3
ATOM      3  C   UNL     1     -16.700 -31.049  23.622  1.00  0.00     0.000 C 
BRANCH   3   4
ATOM      4  C   UNL     1     -16.186 -30.520  22.275  1.00  0.00     0.000 C 
BRANCH   4   5
ATOM      5  C   UNL     1     -16.969 -29.292  21.776  1.00  0.00     0.000 C 
BRANCH   5   6
ATOM      6  C   UNL     1     -16.102 -28.080  21.389  1.00  0.00     0.000 C 
BRANCH   6   7
ATOM      7  C   UNL     1     -16.689 -26.745  21.870  1.00  0.00     0.000 C 
BRANCH   7   8
ATOM      8  C   UNL     1     -18.090 -26.521  21.283  1.00  0.00     0.000 C 
BRANCH   8   9
ATOM      9  C   UNL     1     -19.150 -26.227  22.358  1.00  0.00     0.000 C 
BRANCH   9  10
ATOM     10  C   UNL     1     -20.077 -27.411  22.694  1.00  0.00     0.000 C 
BRANCH  10  11
ATOM     11  C   UNL     1     -21.524 -26.994  23.039  1.00  0.00     0.000 C 
BRANCH  11  12
ATOM     12  C   UNL     1     -22.548 -27.553  22.032  1.00  0.00     0.000 C 
BRANCH  12  13
ATOM     13  C   UNL     1     -23.058 -26.483  21.050  1.00  0.00     0.006 C 
BRANCH  13  14
ATOM     14  C   UNL     1     -23.870 -27.051  19.874  1.00  0.00     0.053 C 
BRANCH  14  15
ATOM     15  C   UNL     1     -25.233 -26.435  19.782  1.00  0.00     0.041 C 
ATOM     16  O   UNL     1     -25.367 -25.184  19.833  1.00  0.00    -0.550 OA
ATOM     17  O   UNL     1     -26.355 -27.243  19.650  1.00  0.00    -0.550 OA
ENDBRANCH  14  15
ENDBRANCH  13  14
ENDBRANCH  12  13
ENDBRANCH  11  12
ENDBRANCH  10  11
ENDBRANCH   9  10
ENDBRANCH   8   9
ENDBRANCH   7   8
ENDBRANCH   6   7
ENDBRANCH   5   6
ENDBRANCH   4   5
ENDBRANCH   3   4
ENDBRANCH   2   3
ENDBRANCH   1   2
BRANCH   1  18
ATOM     18  C   UNL     1     -20.618 -30.909  23.834  1.00  0.00     0.000 C 
BRANCH  18  19
ATOM     19  C   UNL     1     -21.737 -31.646  23.081  1.00  0.00     0.000 C 
BRANCH  19  20
ATOM     20  C   UNL     1     -23.010 -31.803  23.930  1.00  0.00     0.000 C 
BRANCH  20  21
ATOM     21  C   UNL     1     -23.168 -30.695  24.984  1.00  0.00     0.000 C 
BRANCH  21  22
ATOM     22  C   UNL     1     -23.904 -29.442  24.465  1.00  0.00     0.000 C 
BRANCH  22  23
ATOM     23  C   UNL     1     -25.421 -29.660  24.336  1.00  0.00     0.000 C 
BRANCH  23  24
ATOM     24  C   UNL     1     -25.976 -29.103  23.007  1.00  0.00    -0.000 C 
BRANCH  24  25
ATOM     25  C   UNL     1     -25.587 -29.945  21.781  1.00  0.00    -0.000 C 
BRANCH  25  26
ATOM     26  C   UNL     1     -25.921 -31.436  21.953  1.00  0.00    -0.000 C 
BRANCH  26  27
ATOM     27  C   UNL     1     -27.427 -31.697  22.135  1.00  0.00    -0.000 C 
BRANCH  27  28
ATOM     28  C   UNL     1     -27.799 -33.134  22.546  1.00  0.00    -0.000 C 
BRANCH  28  29
ATOM     29  C   UNL     1     -27.457 -33.450  24.011  1.00  0.00    -0.000 C 
BRANCH  29  30
ATOM     30  C   UNL     1     -27.905 -32.343  24.979  1.00  0.00    -0.000 C 
BRANCH  30  31
ATOM     31  C   UNL     1     -27.044 -32.249  26.256  1.00  0.00    -0.003 C 
ATOM     32  C   UNL     1     -25.745 -33.047  26.141  1.00  0.00     0.004 C 
ENDBRANCH  30  31
ENDBRANCH  29  30
ENDBRANCH  28  29
ENDBRANCH  27  28
ENDBRANCH  26  27
ENDBRANCH  25  26
ENDBRANCH  24  25
ENDBRANCH  23  24
ENDBRANCH  22  23
ENDBRANCH  21  22
ENDBRANCH  20  21
ENDBRANCH  19  20
ENDBRANCH  18  19
ENDBRANCH   1  18
TORSDOF 28
ENDMDL
MODEL 4
REMARK VINA RESULT:    -5.536      1.813      5.797
REMARK INTER + INTRA:         -19.593
REMARK INTER:                 -14.975
REMARK INTRA:                  -4.619
REMARK UNBOUND:                -4.995
REMARK SMILES CCCCCCCCCCCCCCCCCCCCCCCCCCCCCC(=O)[O-]
REMARK SMILES IDX 16 1 17 2 18 3 19 4 20 5 21 6 22 7 23 8 24 9 25 10 26 11
REMARK SMILES IDX 27 12 28 13 29 14 30 15 31 16 32 17 15 18 14 19 13 20 12 21
REMARK SMILES IDX 11 22 10 23 9 24 8 25 7 26 6 27 5 28 4 29 3 30 2 31 1 32
REMARK H PARENT
REMARK Flexibility Score: inf
ROOT
ATOM      1  C   UNL     1     -20.565 -31.323  23.627  1.00  0.00     0.000 C 
ENDROOT
BRANCH   1   2
ATOM      2  C   UNL     1     -21.555 -32.222  22.868  1.00  0.00     0.000 C 
BRANCH   2   3
ATOM      3  C   UNL     1     -23.000 -32.043  23.357  1.00  0.00     0.000 C 
BRANCH   3   4
ATOM      4  C   UNL     1     -23.048 -31.177  24.624  1.00  0.00     0.000 C 
BRANCH   4   5
ATOM      5  C   UNL     1     -24.485 -30.839  25.063  1.00  0.00     0.000 C 
BRANCH   5   6
ATOM      6  C   UNL     1     -25.593 -31.577  24.289  1.00  0.00     0.000 C 
BRANCH   6   7
ATOM      7  C   UNL     1     -26.278 -32.671  25.122  1.00  0.00     0.000 C 
BRANCH   7   8
ATOM      8  C   UNL     1     -27.496 -33.240  24.379  1.00  0.00     0.000 C 
BRANCH   8   9
ATOM      9  C   UNL     1     -27.486 -32.915  22.876  1.00  0.00     0.000 C 
BRANCH   9  10
ATOM     10  C   UNL     1     -28.780 -32.268  22.345  1.00  0.00     0.000 C 
BRANCH  10  11
ATOM     11  C   UNL     1     -28.931 -30.776  22.714  1.00  0.00     0.000 C 
BRANCH  11  12
ATOM     12  C   UNL     1     -30.103 -30.530  23.682  1.00  0.00     0.000 C 
BRANCH  12  13
ATOM     13  C   UNL     1     -29.677 -30.594  25.160  1.00  0.00     0.006 C 
BRANCH  13  14
ATOM     14  C   UNL     1     -28.533 -29.634  25.522  1.00  0.00     0.053 C 
BRANCH  14  15
ATOM     15  C   UNL     1     -28.977 -28.203  25.518  1.00  0.00     0.041 C 
ATOM     16  O   UNL     1     -28.329 -27.342  24.869  1.00  0.00    -0.550 OA
ATOM     17  O   UNL     1     -30.100 -27.820  26.241  1.00  0.00    -0.550 OA
ENDBRANCH  14  15
ENDBRANCH  13  14
ENDBRANCH  12  13
ENDBRANCH  11  12
ENDBRANCH  10  11
ENDBRANCH   9  10
ENDBRANCH   8   9
ENDBRANCH   7   8
ENDBRANCH   6   7
ENDBRANCH   5   6
ENDBRANCH   4   5
ENDBRANCH   3   4
ENDBRANCH   2   3
ENDBRANCH   1   2
BRANCH   1  18
ATOM     18  C   UNL     1     -19.098 -31.695  23.345  1.00  0.00     0.000 C 
BRANCH  18  19
ATOM     19  C   UNL     1     -18.113 -30.663  23.914  1.00  0.00     0.000 C 
BRANCH  19  20
ATOM     20  C   UNL     1     -16.648 -31.021  23.610  1.00  0.00     0.000 C 
BRANCH  20  21
ATOM     21  C   UNL     1     -16.095 -30.285  22.379  1.00  0.00     0.000 C 
BRANCH  21  22
ATOM     22  C   UNL     1     -17.048 -29.211  21.814  1.00  0.00     0.000 C 
BRANCH  22  23
ATOM     23  C   UNL     1     -16.373 -27.834  21.683  1.00  0.00     0.000 C 
BRANCH  23  24
ATOM     24  C   UNL     1     -17.288 -26.690  22.172  1.00  0.00    -0.000 C 
BRANCH  24  25
ATOM     25  C   UNL     1     -18.426 -27.169  23.090  1.00  0.00    -0.000 C 
BRANCH  25  26
ATOM     26  C   UNL     1     -19.819 -26.895  22.501  1.00  0.00    -0.000 C 
BRANCH  26  27
ATOM     27  C   UNL     1     -20.858 -27.960  22.894  1.00  0.00    -0.000 C 
BRANCH  27  28
ATOM     28  C   UNL     1     -21.751 -27.596  24.094  1.00  0.00    -0.000 C 
BRANCH  28  29
ATOM     29  C   UNL     1     -23.248 -27.567  23.747  1.00  0.00    -0.000 C 
BRANCH  29  30
ATOM     30  C   UNL     1     -23.512 -27.711  22.239  1.00  0.00    -0.000 C 
BRANCH  30  31
ATOM     31  C   UNL     1     -24.478 -28.861  21.885  1.00  0.00    -0.003 C 
ATOM     32  C   UNL     1     -25.907 -28.583  22.350  1.00  0.00     0.004 C 
ENDBRANCH  30  31
ENDBRANCH  29  30
ENDBRANCH  28  29
ENDBRANCH  27  28
ENDBRANCH  26  27
ENDBRANCH  25  26
ENDBRANCH  24  25
ENDBRANCH  23  24
ENDBRANCH  22  23
ENDBRANCH  21  22
ENDBRANCH  20  21
ENDBRANCH  19  20
ENDBRANCH  18  19
ENDBRANCH   1  18
TORSDOF 28
ENDMDL
MODEL 5
REMARK VINA RESULT:    -5.518      2.334      8.623
REMARK INTER + INTRA:         -19.544
REMARK INTER:                 -15.290
REMARK INTRA:                  -4.254
REMARK UNBOUND:                -4.995
REMARK SMILES CCCCCCCCCCCCCCCCCCCCCCCCCCCCCC(=O)[O-]
REMARK SMILES IDX 16 1 17 2 18 3 19 4 20 5 21 6 22 7 23 8 24 9 25 10 26 11
REMARK SMILES IDX 27 12 28 13 29 14 30 15 31 16 32 17 15 18 14 19 13 20 12 21
REMARK SMILES IDX 11 22 10 23 9 24 8 25 7 26 6 27 5 28 4 29 3 30 2 31 1 32
REMARK H PARENT
REMARK Flexibility Score: inf
ROOT
ATOM      1  C   UNL     1     -19.137 -30.481  23.620  1.00  0.00     0.000 C 
ENDROOT
BRANCH   1   2
ATOM      2  C   UNL     1     -18.004 -31.511  23.489  1.00  0.00     0.000 C 
BRANCH   2   3
ATOM      3  C   UNL     1     -16.635 -30.851  23.264  1.00  0.00     0.000 C 
BRANCH   3   4
ATOM      4  C   UNL     1     -16.219 -30.938  21.789  1.00  0.00     0.000 C 
BRANCH   4   5
ATOM      5  C   UNL     1     -16.394 -29.605  21.038  1.00  0.00     0.000 C 
BRANCH   5   6
ATOM      6  C   UNL     1     -16.616 -28.376  21.937  1.00  0.00     0.000 C 
BRANCH   6   7
ATOM      7  C   UNL     1     -17.391 -27.251  21.234  1.00  0.00     0.000 C 
BRANCH   7   8
ATOM      8  C   UNL     1     -18.081 -26.339  22.259  1.00  0.00     0.000 C 
BRANCH   8   9
ATOM      9  C   UNL     1     -19.424 -26.904  22.753  1.00  0.00     0.000 C 
BRANCH   9  10
ATOM     10  C   UNL     1     -20.649 -26.489  21.916  1.00  0.00     0.000 C 
BRANCH  10  11
ATOM     11  C   UNL     1     -21.986 -27.064  22.435  1.00  0.00     0.000 C 
BRANCH  11  12
ATOM     12  C   UNL     1     -22.965 -27.388  21.291  1.00  0.00     0.000 C 
BRANCH  12  13
ATOM     13  C   UNL     1     -23.616 -28.775  21.442  1.00  0.00     0.006 C 
BRANCH  13  14
ATOM     14  C   UNL     1     -24.959 -28.756  22.190  1.00  0.00     0.053 C 
BRANCH  14  15
ATOM     15  C   UNL     1     -25.932 -27.797  21.575  1.00  0.00     0.041 C 
ATOM     16  O   UNL     1     -26.385 -28.008  20.420  1.00  0.00    -0.550 OA
ATOM     17  O   UNL     1     -26.329 -26.664  22.274  1.00  0.00    -0.550 OA
ENDBRANCH  14  15
ENDBRANCH  13  14
ENDBRANCH  12  13
ENDBRANCH  11  12
ENDBRANCH  10  11
ENDBRANCH   9  10
ENDBRANCH   8   9
ENDBRANCH   7   8
ENDBRANCH   6   7
ENDBRANCH   5   6
ENDBRANCH   4   5
ENDBRANCH   3   4
ENDBRANCH   2   3
ENDBRANCH   1   2
BRANCH   1  18
ATOM     18  C   UNL     1     -19.195 -29.845  25.020  1.00  0.00     0.000 C 
BRANCH  18  19
ATOM     19  C   UNL     1     -20.625 -29.466  25.432  1.00  0.00     0.000 C 
BRANCH  19  20
ATOM     20  C   UNL     1     -21.673 -29.925  24.405  1.00  0.00     0.000 C 
BRANCH  20  21
ATOM     21  C   UNL     1     -22.967 -30.440  25.057  1.00  0.00     0.000 C 
BRANCH  21  22
ATOM     22  C   UNL     1     -23.490 -31.757  24.448  1.00  0.00     0.000 C 
BRANCH  22  23
ATOM     23  C   UNL     1     -25.018 -31.895  24.564  1.00  0.00     0.000 C 
BRANCH  23  24
ATOM     24  C   UNL     1     -25.429 -32.857  25.700  1.00  0.00    -0.000 C 
BRANCH  24  25
ATOM     25  C   UNL     1     -26.832 -32.575  26.262  1.00  0.00    -0.000 C 
BRANCH  25  26
ATOM     26  C   UNL     1     -27.156 -31.074  26.328  1.00  0.00    -0.000 C 
BRANCH  26  27
ATOM     27  C   UNL     1     -28.397 -30.689  25.503  1.00  0.00    -0.000 C 
BRANCH  27  28
ATOM     28  C   UNL     1     -28.130 -29.745  24.317  1.00  0.00    -0.000 C 
BRANCH  28  29
ATOM     29  C   UNL     1     -28.041 -30.479  22.969  1.00  0.00    -0.000 C 
BRANCH  29  30
ATOM     30  C   UNL     1     -29.152 -31.527  22.788  1.00  0.00    -0.000 C 
BRANCH  30  31
ATOM     31  C   UNL     1     -28.682 -32.813  22.076  1.00  0.00    -0.003 C 
ATOM     32  C   UNL     1     -27.966 -33.774  23.024  1.00  0.00     0.004 C 
ENDBRANCH  30  31
ENDBRANCH  29  30
ENDBRANCH  28  29
ENDBRANCH  27  28
ENDBRANCH  26  27
ENDBRANCH  25  26
ENDBRANCH  24  25
ENDBRANCH  23  24
ENDBRANCH  22  23
ENDBRANCH  21  22
ENDBRANCH  20  21
ENDBRANCH  19  20
ENDBRANCH  18  19
ENDBRANCH   1  18
TORSDOF 28
ENDMDL
MODEL 6
REMARK VINA RESULT:    -5.508      2.538      5.679
REMARK INTER + INTRA:         -19.518
REMARK INTER:                 -15.148
REMARK INTRA:                  -4.370
REMARK UNBOUND:                -4.995
REMARK SMILES CCCCCCCCCCCCCCCCCCCCCCCCCCCCCC(=O)[O-]
REMARK SMILES IDX 16 1 17 2 18 3 19 4 20 5 21 6 22 7 23 8 24 9 25 10 26 11
REMARK SMILES IDX 27 12 28 13 29 14 30 15 31 16 32 17 15 18 14 19 13 20 12 21
REMARK SMILES IDX 11 22 10 23 9 24 8 25 7 26 6 27 5 28 4 29 3 30 2 31 1 32
REMARK H PARENT
REMARK Flexibility Score: inf
ROOT
ATOM      1  C   UNL     1     -23.809 -30.873  25.115  1.00  0.00     0.000 C 
ENDROOT
BRANCH   1   2
ATOM      2  C   UNL     1     -24.552 -32.179  24.790  1.00  0.00     0.000 C 
BRANCH   2   3
ATOM      3  C   UNL     1     -25.047 -32.900  26.053  1.00  0.00     0.000 C 
BRANCH   3   4
ATOM      4  C   UNL     1     -26.576 -32.821  26.166  1.00  0.00     0.000 C 
BRANCH   4   5
ATOM      5  C   UNL     1     -27.280 -32.866  24.797  1.00  0.00     0.000 C 
BRANCH   5   6
ATOM      6  C   UNL     1     -28.258 -31.708  24.529  1.00  0.00     0.000 C 
BRANCH   6   7
ATOM      7  C   UNL     1     -27.724 -30.350  25.009  1.00  0.00     0.000 C 
BRANCH   7   8
ATOM      8  C   UNL     1     -27.206 -29.518  23.827  1.00  0.00     0.000 C 
BRANCH   8   9
ATOM      9  C   UNL     1     -27.148 -30.316  22.513  1.00  0.00     0.000 C 
BRANCH   9  10
ATOM     10  C   UNL     1     -25.867 -30.105  21.683  1.00  0.00     0.000 C 
BRANCH  10  11
ATOM     11  C   UNL     1     -24.949 -28.986  22.222  1.00  0.00     0.000 C 
BRANCH  11  12
ATOM     12  C   UNL     1     -23.660 -28.838  21.392  1.00  0.00     0.000 C 
BRANCH  12  13
ATOM     13  C   UNL     1     -23.283 -27.366  21.140  1.00  0.00     0.006 C 
BRANCH  13  14
ATOM     14  C   UNL     1     -23.913 -26.768  19.872  1.00  0.00     0.053 C 
BRANCH  14  15
ATOM     15  C   UNL     1     -25.123 -25.939  20.182  1.00  0.00     0.041 C 
ATOM     16  O   UNL     1     -25.988 -25.725  19.294  1.00  0.00    -0.550 OA
ATOM     17  O   UNL     1     -25.287 -25.394  21.450  1.00  0.00    -0.550 OA
ENDBRANCH  14  15
ENDBRANCH  13  14
ENDBRANCH  12  13
ENDBRANCH  11  12
ENDBRANCH  10  11
ENDBRANCH   9  10
ENDBRANCH   8   9
ENDBRANCH   7   8
ENDBRANCH   6   7
ENDBRANCH   5   6
ENDBRANCH   4   5
ENDBRANCH   3   4
ENDBRANCH   2   3
ENDBRANCH   1   2
BRANCH   1  18
ATOM     18  C   UNL     1     -22.477 -30.748  24.354  1.00  0.00     0.000 C 
BRANCH  18  19
ATOM     19  C   UNL     1     -22.387 -31.722  23.169  1.00  0.00     0.000 C 
BRANCH  19  20
ATOM     20  C   UNL     1     -20.959 -32.251  22.953  1.00  0.00     0.000 C 
BRANCH  20  21
ATOM     21  C   UNL     1     -19.882 -31.328  23.544  1.00  0.00     0.000 C 
BRANCH  21  22
ATOM     22  C   UNL     1     -18.438 -31.770  23.225  1.00  0.00     0.000 C 
BRANCH  22  23
ATOM     23  C   UNL     1     -17.384 -30.835  23.844  1.00  0.00     0.000 C 
BRANCH  23  24
ATOM     24  C   UNL     1     -16.374 -30.325  22.794  1.00  0.00    -0.000 C 
BRANCH  24  25
ATOM     25  C   UNL     1     -17.021 -29.483  21.681  1.00  0.00    -0.000 C 
BRANCH  25  26
ATOM     26  C   UNL     1     -16.529 -28.027  21.675  1.00  0.00    -0.000 C 
BRANCH  26  27
ATOM     27  C   UNL     1     -17.626 -27.020  22.069  1.00  0.00    -0.000 C 
BRANCH  27  28
ATOM     28  C   UNL     1     -18.912 -27.642  22.642  1.00  0.00    -0.000 C 
BRANCH  28  29
ATOM     29  C   UNL     1     -19.677 -26.692  23.578  1.00  0.00    -0.000 C 
BRANCH  29  30
ATOM     30  C   UNL     1     -19.419 -26.986  25.065  1.00  0.00    -0.000 C 
BRANCH  30  31
ATOM     31  C   UNL     1     -20.360 -28.056  25.658  1.00  0.00    -0.003 C 
ATOM     32  C   UNL     1     -19.600 -29.139  26.424  1.00  0.00     0.004 C 
ENDBRANCH  30  31
ENDBRANCH  29  30
ENDBRANCH  28  29
ENDBRANCH  27  28
ENDBRANCH  26  27
ENDBRANCH  25  26
ENDBRANCH  24  25
ENDBRANCH  23  24
ENDBRANCH  22  23
ENDBRANCH  21  22
ENDBRANCH  20  21
ENDBRANCH  19  20
ENDBRANCH  18  19
ENDBRANCH   1  18
TORSDOF 28
ENDMDL
MODEL 7
REMARK VINA RESULT:    -5.483      2.428      6.935
REMARK INTER + INTRA:         -19.452
REMARK INTER:                 -14.402
REMARK INTRA:                  -5.050
REMARK UNBOUND:                -4.995
REMARK SMILES CCCCCCCCCCCCCCCCCCCCCCCCCCCCCC(=O)[O-]
REMARK SMILES IDX 16 1 17 2 18 3 19 4 20 5 21 6 22 7 23 8 24 9 25 10 26 11
REMARK SMILES IDX 27 12 28 13 29 14 30 15 31 16 32 17 15 18 14 19 13 20 12 21
REMARK SMILES IDX 11 22 10 23 9 24 8 25 7 26 6 27 5 28 4 29 3 30 2 31 1 32
REMARK H PARENT
REMARK Flexibility Score: inf
ROOT
ATOM      1  C   UNL     1     -19.565 -29.247  25.737  1.00  0.00     0.000 C 
ENDROOT
BRANCH   1   2
ATOM      2  C   UNL     1     -18.853 -29.276  24.375  1.00  0.00     0.000 C 
BRANCH   2   3
ATOM      3  C   UNL     1     -18.139 -30.610  24.116  1.00  0.00     0.000 C 
BRANCH   3   4
ATOM      4  C   UNL     1     -19.075 -31.607  23.417  1.00  0.00     0.000 C 
BRANCH   4   5
ATOM      5  C   UNL     1     -20.502 -31.059  23.233  1.00  0.00     0.000 C 
BRANCH   5   6
ATOM      6  C   UNL     1     -21.611 -32.127  23.209  1.00  0.00     0.000 C 
BRANCH   6   7
ATOM      7  C   UNL     1     -22.884 -31.686  23.946  1.00  0.00     0.000 C 
BRANCH   7   8
ATOM      8  C   UNL     1     -24.103 -31.741  23.013  1.00  0.00     0.000 C 
BRANCH   8   9
ATOM      9  C   UNL     1     -23.866 -31.019  21.676  1.00  0.00     0.000 C 
BRANCH   9  10
ATOM     10  C   UNL     1     -24.200 -29.515  21.683  1.00  0.00     0.000 C 
BRANCH  10  11
ATOM     11  C   UNL     1     -25.604 -29.183  21.131  1.00  0.00     0.000 C 
BRANCH  11  12
ATOM     12  C   UNL     1     -26.218 -27.942  21.806  1.00  0.00     0.000 C 
BRANCH  12  13
ATOM     13  C   UNL     1     -25.589 -26.626  21.313  1.00  0.00     0.006 C 
BRANCH  13  14
ATOM     14  C   UNL     1     -25.616 -26.454  19.786  1.00  0.00     0.053 C 
BRANCH  14  15
ATOM     15  C   UNL     1     -25.992 -25.060  19.383  1.00  0.00     0.041 C 
ATOM     16  O   UNL     1     -27.189 -24.780  19.117  1.00  0.00    -0.550 OA
ATOM     17  O   UNL     1     -25.017 -24.075  19.291  1.00  0.00    -0.550 OA
ENDBRANCH  14  15
ENDBRANCH  13  14
ENDBRANCH  12  13
ENDBRANCH  11  12
ENDBRANCH  10  11
ENDBRANCH   9  10
ENDBRANCH   8   9
ENDBRANCH   7   8
ENDBRANCH   6   7
ENDBRANCH   5   6
ENDBRANCH   4   5
ENDBRANCH   3   4
ENDBRANCH   2   3
ENDBRANCH   1   2
BRANCH   1  18
ATOM     18  C   UNL     1     -20.849 -28.400  25.712  1.00  0.00     0.000 C 
BRANCH  18  19
ATOM     19  C   UNL     1     -20.974 -27.564  24.429  1.00  0.00     0.000 C 
BRANCH  19  20
ATOM     20  C   UNL     1     -22.429 -27.449  23.944  1.00  0.00     0.000 C 
BRANCH  20  21
ATOM     21  C   UNL     1     -23.438 -28.072  24.921  1.00  0.00     0.000 C 
BRANCH  21  22
ATOM     22  C   UNL     1     -24.724 -27.239  25.104  1.00  0.00     0.000 C 
BRANCH  22  23
ATOM     23  C   UNL     1     -25.918 -28.091  25.571  1.00  0.00     0.000 C 
BRANCH  23  24
ATOM     24  C   UNL     1     -25.823 -29.548  25.066  1.00  0.00    -0.000 C 
BRANCH  24  25
ATOM     25  C   UNL     1     -26.705 -30.527  25.857  1.00  0.00    -0.000 C 
BRANCH  25  26
ATOM     26  C   UNL     1     -26.040 -31.899  26.056  1.00  0.00    -0.000 C 
BRANCH  26  27
ATOM     27  C   UNL     1     -27.002 -33.075  25.807  1.00  0.00    -0.000 C 
BRANCH  27  28
ATOM     28  C   UNL     1     -28.028 -32.856  24.680  1.00  0.00    -0.000 C 
BRANCH  28  29
ATOM     29  C   UNL     1     -27.511 -33.294  23.300  1.00  0.00    -0.000 C 
BRANCH  29  30
ATOM     30  C   UNL     1     -27.513 -32.149  22.273  1.00  0.00    -0.000 C 
BRANCH  30  31
ATOM     31  C   UNL     1     -28.500 -31.013  22.613  1.00  0.00    -0.003 C 
ATOM     32  C   UNL     1     -29.906 -31.285  22.079  1.00  0.00     0.004 C 
ENDBRANCH  30  31
ENDBRANCH  29  30
ENDBRANCH  28  29
ENDBRANCH  27  28
ENDBRANCH  26  27
ENDBRANCH  25  26
ENDBRANCH  24  25
ENDBRANCH  23  24
ENDBRANCH  22  23
ENDBRANCH  21  22
ENDBRANCH  20  21
ENDBRANCH  19  20
ENDBRANCH  18  19
ENDBRANCH   1  18
TORSDOF 28
ENDMDL
MODEL 8
REMARK VINA RESULT:    -5.451      2.078      4.930
REMARK INTER + INTRA:         -19.367
REMARK INTER:                 -15.213
REMARK INTRA:                  -4.155
REMARK UNBOUND:                -4.995
REMARK SMILES CCCCCCCCCCCCCCCCCCCCCCCCCCCCCC(=O)[O-]
REMARK SMILES IDX 16 1 17 2 18 3 19 4 20 5 21 6 22 7 23 8 24 9 25 10 26 11
REMARK SMILES IDX 27 12 28 13 29 14 30 15 31 16 32 17 15 18 14 19 13 20 12 21
REMARK SMILES IDX 11 22 10 23 9 24 8 25 7 26 6 27 5 28 4 29 3 30 2 31 1 32
REMARK H PARENT
REMARK Flexibility Score: inf
ROOT
ATOM      1  C   UNL     1     -28.354 -33.153  23.126  1.00  0.00     0.000 C 
ENDROOT
BRANCH   1   2
ATOM      2  C   UNL     1     -28.080 -32.025  22.118  1.00  0.00     0.000 C 
BRANCH   2   3
ATOM      3  C   UNL     1     -29.180 -30.954  22.125  1.00  0.00     0.000 C 
BRANCH   3   4
ATOM      4  C   UNL     1     -30.253 -31.275  23.175  1.00  0.00     0.000 C 
BRANCH   4   5
ATOM      5  C   UNL     1     -30.671 -30.042  23.998  1.00  0.00     0.000 C 
BRANCH   5   6
ATOM      6  C   UNL     1     -29.898 -29.845  25.314  1.00  0.00     0.000 C 
BRANCH   6   7
ATOM      7  C   UNL     1     -28.728 -28.859  25.180  1.00  0.00     0.000 C 
BRANCH   7   8
ATOM      8  C   UNL     1     -27.390 -29.556  25.465  1.00  0.00     0.000 C 
BRANCH   8   9
ATOM      9  C   UNL     1     -26.462 -29.598  24.238  1.00  0.00     0.000 C 
BRANCH   9  10
ATOM     10  C   UNL     1     -26.318 -28.260  23.489  1.00  0.00     0.000 C 
BRANCH  10  11
ATOM     11  C   UNL     1     -25.947 -28.414  21.998  1.00  0.00     0.000 C 
BRANCH  11  12
ATOM     12  C   UNL     1     -24.684 -27.614  21.626  1.00  0.00     0.000 C 
BRANCH  12  13
ATOM     13  C   UNL     1     -24.868 -26.096  21.806  1.00  0.00     0.006 C 
BRANCH  13  14
ATOM     14  C   UNL     1     -24.900 -25.310  20.485  1.00  0.00     0.053 C 
BRANCH  14  15
ATOM     15  C   UNL     1     -26.298 -25.107  19.985  1.00  0.00     0.041 C 
ATOM     16  O   UNL     1     -27.251 -24.989  20.799  1.00  0.00    -0.550 OA
ATOM     17  O   UNL     1     -26.549 -25.060  18.619  1.00  0.00    -0.550 OA
ENDBRANCH  14  15
ENDBRANCH  13  14
ENDBRANCH  12  13
ENDBRANCH  11  12
ENDBRANCH  10  11
ENDBRANCH   9  10
ENDBRANCH   8   9
ENDBRANCH   7   8
ENDBRANCH   6   7
ENDBRANCH   5   6
ENDBRANCH   4   5
ENDBRANCH   3   4
ENDBRANCH   2   3
ENDBRANCH   1   2
BRANCH   1  18
ATOM     18  C   UNL     1     -27.202 -33.339  24.129  1.00  0.00     0.000 C 
BRANCH  18  19
ATOM     19  C   UNL     1     -27.649 -33.122  25.582  1.00  0.00     0.000 C 
BRANCH  19  20
ATOM     20  C   UNL     1     -26.463 -32.878  26.531  1.00  0.00     0.000 C 
BRANCH  20  21
ATOM     21  C   UNL     1     -25.109 -33.246  25.903  1.00  0.00     0.000 C 
BRANCH  21  22
ATOM     22  C   UNL     1     -24.245 -32.024  25.525  1.00  0.00     0.000 C 
BRANCH  22  23
ATOM     23  C   UNL     1     -23.773 -32.067  24.061  1.00  0.00     0.000 C 
BRANCH  23  24
ATOM     24  C   UNL     1     -22.976 -30.802  23.671  1.00  0.00    -0.000 C 
BRANCH  24  25
ATOM     25  C   UNL     1     -22.016 -30.322  24.772  1.00  0.00    -0.000 C 
BRANCH  25  26
ATOM     26  C   UNL     1     -22.057 -28.799  24.975  1.00  0.00    -0.000 C 
BRANCH  26  27
ATOM     27  C   UNL     1     -20.768 -28.242  25.607  1.00  0.00    -0.000 C 
BRANCH  27  28
ATOM     28  C   UNL     1     -19.595 -29.235  25.688  1.00  0.00    -0.000 C 
BRANCH  28  29
ATOM     29  C   UNL     1     -18.784 -29.320  24.385  1.00  0.00    -0.000 C 
BRANCH  29  30
ATOM     30  C   UNL     1     -18.488 -30.769  23.961  1.00  0.00    -0.000 C 
BRANCH  30  31
ATOM     31  C   UNL     1     -17.010 -31.019  23.596  1.00  0.00    -0.003 C 
ATOM     32  C   UNL     1     -16.509 -30.064  22.513  1.00  0.00     0.004 C 
ENDBRANCH  30  31
ENDBRANCH  29  30
ENDBRANCH  28  29
ENDBRANCH  27  28
ENDBRANCH  26  27
ENDBRANCH  25  26
ENDBRANCH  24  25
ENDBRANCH  23  24
ENDBRANCH  22  23
ENDBRANCH  21  22
ENDBRANCH  20  21
ENDBRANCH  19  20
ENDBRANCH  18  19
ENDBRANCH   1  18
TORSDOF 28
ENDMDL
MODEL 9
REMARK VINA RESULT:    -5.432      2.519      6.530
REMARK INTER + INTRA:         -19.319
REMARK INTER:                 -14.638
REMARK INTRA:                  -4.681
REMARK UNBOUND:                -4.995
REMARK SMILES CCCCCCCCCCCCCCCCCCCCCCCCCCCCCC(=O)[O-]
REMARK SMILES IDX 16 1 17 2 18 3 19 4 20 5 21 6 22 7 23 8 24 9 25 10 26 11
REMARK SMILES IDX 27 12 28 13 29 14 30 15 31 16 32 17 15 18 14 19 13 20 12 21
REMARK SMILES IDX 11 22 10 23 9 24 8 25 7 26 6 27 5 28 4 29 3 30 2 31 1 32
REMARK H PARENT
REMARK Flexibility Score: inf
ROOT
ATOM      1  C   UNL     1     -20.168 -29.938  24.692  1.00  0.00     0.000 C 
ENDROOT
BRANCH   1   2
ATOM      2  C   UNL     1     -20.866 -30.839  23.660  1.00  0.00     0.000 C 
BRANCH   2   3
ATOM      3  C   UNL     1     -22.380 -30.587  23.592  1.00  0.00     0.000 C 
BRANCH   3   4
ATOM      4  C   UNL     1     -23.165 -31.861  23.933  1.00  0.00     0.000 C 
BRANCH   4   5
ATOM      5  C   UNL     1     -24.130 -31.670  25.117  1.00  0.00     0.000 C 
BRANCH   5   6
ATOM      6  C   UNL     1     -24.515 -32.963  25.859  1.00  0.00     0.000 C 
BRANCH   6   7
ATOM      7  C   UNL     1     -25.972 -32.963  26.345  1.00  0.00     0.000 C 
BRANCH   7   8
ATOM      8  C   UNL     1     -26.803 -31.921  25.583  1.00  0.00     0.000 C 
BRANCH   8   9
ATOM      9  C   UNL     1     -27.852 -32.555  24.653  1.00  0.00     0.000 C 
BRANCH   9  10
ATOM     10  C   UNL     1     -27.305 -33.043  23.299  1.00  0.00     0.000 C 
BRANCH  10  11
ATOM     11  C   UNL     1     -27.467 -32.021  22.152  1.00  0.00     0.000 C 
BRANCH  11  12
ATOM     12  C   UNL     1     -26.142 -31.318  21.805  1.00  0.00     0.000 C 
BRANCH  12  13
ATOM     13  C   UNL     1     -26.123 -29.839  22.235  1.00  0.00     0.006 C 
BRANCH  13  14
ATOM     14  C   UNL     1     -25.149 -28.966  21.428  1.00  0.00     0.053 C 
BRANCH  14  15
ATOM     15  C   UNL     1     -25.853 -27.856  20.708  1.00  0.00     0.041 C 
ATOM     16  O   UNL     1     -26.395 -28.070  19.592  1.00  0.00    -0.550 OA
ATOM     17  O   UNL     1     -25.900 -26.584  21.264  1.00  0.00    -0.550 OA
ENDBRANCH  14  15
ENDBRANCH  13  14
ENDBRANCH  12  13
ENDBRANCH  11  12
ENDBRANCH  10  11
ENDBRANCH   9  10
ENDBRANCH   8   9
ENDBRANCH   7   8
ENDBRANCH   6   7
ENDBRANCH   5   6
ENDBRANCH   4   5
ENDBRANCH   3   4
ENDBRANCH   2   3
ENDBRANCH   1   2
BRANCH   1  18
ATOM     18  C   UNL     1     -18.636 -30.069  24.645  1.00  0.00     0.000 C 
BRANCH  18  19
ATOM     19  C   UNL     1     -18.152 -30.857  23.418  1.00  0.00     0.000 C 
BRANCH  19  20
ATOM     20  C   UNL     1     -16.619 -30.975  23.363  1.00  0.00     0.000 C 
BRANCH  20  21
ATOM     21  C   UNL     1     -16.039 -30.603  21.989  1.00  0.00     0.000 C 
BRANCH  21  22
ATOM     22  C   UNL     1     -15.936 -29.082  21.747  1.00  0.00     0.000 C 
BRANCH  22  23
ATOM     23  C   UNL     1     -16.729 -28.627  20.509  1.00  0.00     0.000 C 
BRANCH  23  24
ATOM     24  C   UNL     1     -17.403 -27.255  20.725  1.00  0.00    -0.000 C 
BRANCH  24  25
ATOM     25  C   UNL     1     -17.006 -26.580  22.048  1.00  0.00    -0.000 C 
BRANCH  25  26
ATOM     26  C   UNL     1     -18.126 -26.627  23.100  1.00  0.00    -0.000 C 
BRANCH  26  27
ATOM     27  C   UNL     1     -19.490 -27.026  22.508  1.00  0.00    -0.000 C 
BRANCH  27  28
ATOM     28  C   UNL     1     -20.713 -26.643  23.361  1.00  0.00    -0.000 C 
BRANCH  28  29
ATOM     29  C   UNL     1     -22.049 -27.056  22.722  1.00  0.00    -0.000 C 
BRANCH  29  30
ATOM     30  C   UNL     1     -23.265 -26.448  23.442  1.00  0.00    -0.000 C 
BRANCH  30  31
ATOM     31  C   UNL     1     -23.936 -27.410  24.445  1.00  0.00    -0.003 C 
ATOM     32  C   UNL     1     -25.378 -27.013  24.757  1.00  0.00     0.004 C 
ENDBRANCH  30  31
ENDBRANCH  29  30
ENDBRANCH  28  29
ENDBRANCH  27  28
ENDBRANCH  26  27
ENDBRANCH  25  26
ENDBRANCH  24  25
ENDBRANCH  23  24
ENDBRANCH  22  23
ENDBRANCH  21  22
ENDBRANCH  20  21
ENDBRANCH  19  20
ENDBRANCH  18  19
ENDBRANCH   1  18
TORSDOF 28
ENDMDL
