MODEL 1
REMARK VINA RESULT:    -4.577      0.000      0.000
REMARK INTER + INTRA:          -5.029
REMARK INTER:                  -4.978
REMARK INTRA:                  -0.051
REMARK UNBOUND:                -0.051
REMARK SMILES COc1cc2ccc(=O)oc2cc1O
REMARK SMILES IDX 3 1 13 2 12 3 11 4 5 5 4 6 6 7 7 8 8 9 9 10 10 11 2 12 1 13
REMARK SMILES IDX 14 14
REMARK H PARENT 14 15
REMARK Flexibility Score: inf
ROOT
ATOM      1  C   UNL     1      31.001  10.661  31.991  1.00  0.00     0.161 A 
ATOM      2  C   UNL     1      30.428  11.608  31.119  1.00  0.00     0.161 A 
ATOM      3  C   UNL     1      29.894  11.202  29.891  1.00  0.00     0.098 A 
ATOM      4  C   UNL     1      29.923   9.857  29.516  1.00  0.00     0.142 A 
ATOM      5  C   UNL     1      30.494   8.901  30.382  1.00  0.00     0.022 A 
ATOM      6  C   UNL     1      31.030   9.303  31.613  1.00  0.00     0.062 A 
ATOM      7  C   UNL     1      30.508   7.561  29.980  1.00  0.00     0.019 A 
ATOM      8  C   UNL     1      29.962   7.211  28.745  1.00  0.00     0.094 A 
ATOM      9  C   UNL     1      29.412   8.214  27.939  1.00  0.00     0.336 A 
ATOM     10  O   UNL     1      28.914   7.919  26.821  1.00  0.00    -0.246 OA
ATOM     11  O   UNL     1      29.412   9.480  28.346  1.00  0.00    -0.423 OA
ENDROOT
BRANCH   1  12
ATOM     12  O   UNL     1      31.529  11.101  33.215  1.00  0.00    -0.493 OA
ATOM     13  C   UNL     1      32.805  10.731  33.726  1.00  0.00     0.278 C 
ENDBRANCH   1  12
BRANCH   2  14
ATOM     14  O   UNL     1      30.382  12.959  31.457  1.00  0.00    -0.504 OA
ATOM     15  H   UNL     1      31.116  13.608  31.199  1.00  0.00     0.293 HD
ENDBRANCH   2  14
TORSDOF 2
ENDMDL
MODEL 2
REMARK VINA RESULT:    -4.524      1.883      3.896
REMARK INTER + INTRA:          -4.972
REMARK INTER:                  -4.907
REMARK INTRA:                  -0.065
REMARK UNBOUND:                -0.051
REMARK SMILES COc1cc2ccc(=O)oc2cc1O
REMARK SMILES IDX 3 1 13 2 12 3 11 4 5 5 4 6 6 7 7 8 8 9 9 10 10 11 2 12 1 13
REMARK SMILES IDX 14 14
REMARK H PARENT 14 15
REMARK Flexibility Score: inf
ROOT
ATOM      1  C   UNL     1      29.788  11.137  29.831  1.00  0.00     0.161 A 
ATOM      2  C   UNL     1      30.237  11.681  31.050  1.00  0.00     0.161 A 
ATOM      3  C   UNL     1      30.807  10.852  32.024  1.00  0.00     0.098 A 
ATOM      4  C   UNL     1      30.935   9.480  31.799  1.00  0.00     0.142 A 
ATOM      5  C   UNL     1      30.487   8.926  30.581  1.00  0.00     0.022 A 
ATOM      6  C   UNL     1      29.917   9.751  29.603  1.00  0.00     0.062 A 
ATOM      7  C   UNL     1      30.629   7.547  30.385  1.00  0.00     0.019 A 
ATOM      8  C   UNL     1      31.203   6.768  31.389  1.00  0.00     0.094 A 
ATOM      9  C   UNL     1      31.624   7.388  32.570  1.00  0.00     0.336 A 
ATOM     10  O   UNL     1      32.145   6.702  33.489  1.00  0.00    -0.246 OA
ATOM     11  O   UNL     1      31.477   8.700  32.731  1.00  0.00    -0.423 OA
ENDROOT
BRANCH   1  12
ATOM     12  O   UNL     1      29.222  11.995  28.875  1.00  0.00    -0.493 OA
ATOM     13  C   UNL     1      29.918  12.529  27.753  1.00  0.00     0.278 C 
ENDBRANCH   1  12
BRANCH   2  14
ATOM     14  O   UNL     1      30.126  13.045  31.312  1.00  0.00    -0.504 OA
ATOM     15  H   UNL     1      30.316  13.438  32.227  1.00  0.00     0.293 HD
ENDBRANCH   2  14
TORSDOF 2
ENDMDL
MODEL 3
REMARK VINA RESULT:    -4.510      1.751      5.458
REMARK INTER + INTRA:          -4.956
REMARK INTER:                  -4.897
REMARK INTRA:                  -0.059
REMARK UNBOUND:                -0.051
REMARK SMILES COc1cc2ccc(=O)oc2cc1O
REMARK SMILES IDX 3 1 13 2 12 3 11 4 5 5 4 6 6 7 7 8 8 9 9 10 10 11 2 12 1 13
REMARK SMILES IDX 14 14
REMARK H PARENT 14 15
REMARK Flexibility Score: inf
ROOT
ATOM      1  C   UNL     1      29.357   7.148  26.851  1.00  0.00     0.161 A 
ATOM      2  C   UNL     1      28.951   8.481  26.639  1.00  0.00     0.161 A 
ATOM      3  C   UNL     1      29.140   9.442  27.638  1.00  0.00     0.098 A 
ATOM      4  C   UNL     1      29.731   9.092  28.855  1.00  0.00     0.142 A 
ATOM      5  C   UNL     1      30.139   7.760  29.076  1.00  0.00     0.022 A 
ATOM      6  C   UNL     1      29.953   6.795  28.078  1.00  0.00     0.062 A 
ATOM      7  C   UNL     1      30.728   7.440  30.305  1.00  0.00     0.019 A 
ATOM      8  C   UNL     1      30.892   8.437  31.266  1.00  0.00     0.094 A 
ATOM      9  C   UNL     1      30.462   9.736  30.975  1.00  0.00     0.336 A 
ATOM     10  O   UNL     1      30.602  10.650  31.830  1.00  0.00    -0.246 OA
ATOM     11  O   UNL     1      29.906  10.013  29.799  1.00  0.00    -0.423 OA
ENDROOT
BRANCH   1  12
ATOM     12  O   UNL     1      29.153   6.209  25.827  1.00  0.00    -0.493 OA
ATOM     13  C   UNL     1      30.114   5.875  24.832  1.00  0.00     0.278 C 
ENDBRANCH   1  12
BRANCH   2  14
ATOM     14  O   UNL     1      28.358   8.869  25.439  1.00  0.00    -0.504 OA
ATOM     15  H   UNL     1      28.134   8.206  24.706  1.00  0.00     0.293 HD
ENDBRANCH   2  14
TORSDOF 2
ENDMDL
MODEL 4
REMARK VINA RESULT:    -4.486      1.765      2.925
REMARK INTER + INTRA:          -4.931
REMARK INTER:                  -4.867
REMARK INTRA:                  -0.064
REMARK UNBOUND:                -0.051
REMARK SMILES COc1cc2ccc(=O)oc2cc1O
REMARK SMILES IDX 3 1 13 2 12 3 11 4 5 5 4 6 6 7 7 8 8 9 9 10 10 11 2 12 1 13
REMARK SMILES IDX 14 14
REMARK H PARENT 14 15
REMARK Flexibility Score: inf
ROOT
ATOM      1  C   UNL     1      31.087   8.780  31.863  1.00  0.00     0.161 A 
ATOM      2  C   UNL     1      31.270   7.392  31.704  1.00  0.00     0.161 A 
ATOM      3  C   UNL     1      30.881   6.762  30.516  1.00  0.00     0.098 A 
ATOM      4  C   UNL     1      30.308   7.500  29.478  1.00  0.00     0.142 A 
ATOM      5  C   UNL     1      30.121   8.890  29.628  1.00  0.00     0.022 A 
ATOM      6  C   UNL     1      30.509   9.525  30.815  1.00  0.00     0.062 A 
ATOM      7  C   UNL     1      29.545   9.603  28.570  1.00  0.00     0.019 A 
ATOM      8  C   UNL     1      29.176   8.925  27.409  1.00  0.00     0.094 A 
ATOM      9  C   UNL     1      29.392   7.545  27.332  1.00  0.00     0.336 A 
ATOM     10  O   UNL     1      29.066   6.915  26.292  1.00  0.00    -0.246 OA
ATOM     11  O   UNL     1      29.942   6.892  28.352  1.00  0.00    -0.423 OA
ENDROOT
BRANCH   1  12
ATOM     12  O   UNL     1      31.488   9.381  33.067  1.00  0.00    -0.493 OA
ATOM     13  C   UNL     1      32.631  10.218  33.212  1.00  0.00     0.278 C 
ENDBRANCH   1  12
BRANCH   2  14
ATOM     14  O   UNL     1      31.837   6.622  32.717  1.00  0.00    -0.504 OA
ATOM     15  H   UNL     1      31.837   5.609  32.691  1.00  0.00     0.293 HD
ENDBRANCH   2  14
TORSDOF 2
ENDMDL
MODEL 5
REMARK VINA RESULT:    -4.389      1.411      4.818
REMARK INTER + INTRA:          -4.825
REMARK INTER:                  -4.780
REMARK INTRA:                  -0.045
REMARK UNBOUND:                -0.051
REMARK SMILES COc1cc2ccc(=O)oc2cc1O
REMARK SMILES IDX 3 1 13 2 12 3 11 4 5 5 4 6 6 7 7 8 8 9 9 10 10 11 2 12 1 13
REMARK SMILES IDX 14 14
REMARK H PARENT 14 15
REMARK Flexibility Score: inf
ROOT
ATOM      1  C   UNL     1      29.753   8.555  28.590  1.00  0.00     0.161 A 
ATOM      2  C   UNL     1      29.579   9.915  28.910  1.00  0.00     0.161 A 
ATOM      3  C   UNL     1      29.982  10.402  30.159  1.00  0.00     0.098 A 
ATOM      4  C   UNL     1      30.560   9.547  31.100  1.00  0.00     0.142 A 
ATOM      5  C   UNL     1      30.737   8.182  30.788  1.00  0.00     0.022 A 
ATOM      6  C   UNL     1      30.336   7.691  29.539  1.00  0.00     0.062 A 
ATOM      7  C   UNL     1      31.319   7.350  31.751  1.00  0.00     0.019 A 
ATOM      8  C   UNL     1      31.702   7.887  32.979  1.00  0.00     0.094 A 
ATOM      9  C   UNL     1      31.494   9.250  33.218  1.00  0.00     0.336 A 
ATOM     10  O   UNL     1      31.833   9.754  34.320  1.00  0.00    -0.246 OA
ATOM     11  O   UNL     1      30.940  10.019  32.285  1.00  0.00    -0.423 OA
ENDROOT
BRANCH   1  12
ATOM     12  O   UNL     1      29.338   8.099  27.329  1.00  0.00    -0.493 OA
ATOM     13  C   UNL     1      28.941   6.761  27.042  1.00  0.00     0.278 C 
ENDBRANCH   1  12
BRANCH   2  14
ATOM     14  O   UNL     1      29.006  10.801  27.999  1.00  0.00    -0.504 OA
ATOM     15  H   UNL     1      28.340  11.511  28.279  1.00  0.00     0.293 HD
ENDBRANCH   2  14
TORSDOF 2
ENDMDL
MODEL 6
REMARK VINA RESULT:    -4.380      2.086      4.794
REMARK INTER + INTRA:          -4.815
REMARK INTER:                  -4.764
REMARK INTRA:                  -0.050
REMARK UNBOUND:                -0.051
REMARK SMILES COc1cc2ccc(=O)oc2cc1O
REMARK SMILES IDX 3 1 13 2 12 3 11 4 5 5 4 6 6 7 7 8 8 9 9 10 10 11 2 12 1 13
REMARK SMILES IDX 14 14
REMARK H PARENT 14 15
REMARK Flexibility Score: inf
ROOT
ATOM      1  C   UNL     1      29.670   9.783  28.982  1.00  0.00     0.161 A 
ATOM      2  C   UNL     1      29.771   8.420  28.641  1.00  0.00     0.161 A 
ATOM      3  C   UNL     1      30.317   7.506  29.550  1.00  0.00     0.098 A 
ATOM      4  C   UNL     1      30.767   7.934  30.800  1.00  0.00     0.142 A 
ATOM      5  C   UNL     1      30.671   9.297  31.150  1.00  0.00     0.022 A 
ATOM      6  C   UNL     1      30.124  10.216  30.244  1.00  0.00     0.062 A 
ATOM      7  C   UNL     1      31.129   9.695  32.411  1.00  0.00     0.019 A 
ATOM      8  C   UNL     1      31.665   8.743  33.277  1.00  0.00     0.094 A 
ATOM      9  C   UNL     1      31.729   7.409  32.861  1.00  0.00     0.336 A 
ATOM     10  O   UNL     1      32.209   6.533  33.629  1.00  0.00    -0.246 OA
ATOM     11  O   UNL     1      31.285   7.057  31.657  1.00  0.00    -0.423 OA
ENDROOT
BRANCH   1  12
ATOM     12  O   UNL     1      29.118  10.674  28.048  1.00  0.00    -0.493 OA
ATOM     13  C   UNL     1      29.676  11.940  27.708  1.00  0.00     0.278 C 
ENDBRANCH   1  12
BRANCH   2  14
ATOM     14  O   UNL     1      29.334   7.955  27.402  1.00  0.00    -0.504 OA
ATOM     15  H   UNL     1      28.456   8.250  26.992  1.00  0.00     0.293 HD
ENDBRANCH   2  14
TORSDOF 2
ENDMDL
MODEL 7
REMARK VINA RESULT:    -4.366      4.587      6.399
REMARK INTER + INTRA:          -4.800
REMARK INTER:                  -4.755
REMARK INTRA:                  -0.045
REMARK UNBOUND:                -0.051
REMARK SMILES COc1cc2ccc(=O)oc2cc1O
REMARK SMILES IDX 3 1 13 2 12 3 11 4 5 5 4 6 6 7 7 8 8 9 9 10 10 11 2 12 1 13
REMARK SMILES IDX 14 14
REMARK H PARENT 14 15
REMARK Flexibility Score: inf
ROOT
ATOM      1  C   UNL     1      30.897   8.518  38.218  1.00  0.00     0.161 A 
ATOM      2  C   UNL     1      31.394   9.763  37.786  1.00  0.00     0.161 A 
ATOM      3  C   UNL     1      31.656   9.985  36.430  1.00  0.00     0.098 A 
ATOM      4  C   UNL     1      31.430   8.977  35.491  1.00  0.00     0.142 A 
ATOM      5  C   UNL     1      30.933   7.726  35.913  1.00  0.00     0.022 A 
ATOM      6  C   UNL     1      30.668   7.499  37.270  1.00  0.00     0.062 A 
ATOM      7  C   UNL     1      30.716   6.735  34.949  1.00  0.00     0.019 A 
ATOM      8  C   UNL     1      30.994   7.009  33.611  1.00  0.00     0.094 A 
ATOM      9  C   UNL     1      31.486   8.273  33.266  1.00  0.00     0.336 A 
ATOM     10  O   UNL     1      31.743   8.540  32.063  1.00  0.00    -0.246 OA
ATOM     11  O   UNL     1      31.683   9.197  34.202  1.00  0.00    -0.423 OA
ENDROOT
BRANCH   1  12
ATOM     12  O   UNL     1      30.645   8.328  39.586  1.00  0.00    -0.493 OA
ATOM     13  C   UNL     1      29.669   7.435  40.113  1.00  0.00     0.278 C 
ENDBRANCH   1  12
BRANCH   2  14
ATOM     14  O   UNL     1      31.634  10.795  38.693  1.00  0.00    -0.504 OA
ATOM     15  H   UNL     1      31.601  10.652  39.696  1.00  0.00     0.293 HD
ENDBRANCH   2  14
TORSDOF 2
ENDMDL
MODEL 8
REMARK VINA RESULT:    -4.348      2.327      5.592
REMARK INTER + INTRA:          -4.780
REMARK INTER:                  -4.715
REMARK INTRA:                  -0.065
REMARK UNBOUND:                -0.051
REMARK SMILES COc1cc2ccc(=O)oc2cc1O
REMARK SMILES IDX 3 1 13 2 12 3 11 4 5 5 4 6 6 7 7 8 8 9 9 10 10 11 2 12 1 13
REMARK SMILES IDX 14 14
REMARK H PARENT 14 15
REMARK Flexibility Score: inf
ROOT
ATOM      1  C   UNL     1      28.731   9.204  26.645  1.00  0.00     0.161 A 
ATOM      2  C   UNL     1      29.129   7.853  26.660  1.00  0.00     0.161 A 
ATOM      3  C   UNL     1      29.764   7.318  27.787  1.00  0.00     0.098 A 
ATOM      4  C   UNL     1      30.011   8.117  28.906  1.00  0.00     0.142 A 
ATOM      5  C   UNL     1      29.617   9.471  28.900  1.00  0.00     0.022 A 
ATOM      6  C   UNL     1      28.980  10.010  27.774  1.00  0.00     0.062 A 
ATOM      7  C   UNL     1      29.877  10.246  30.036  1.00  0.00     0.019 A 
ATOM      8  C   UNL     1      30.513   9.663  31.131  1.00  0.00     0.094 A 
ATOM      9  C   UNL     1      30.875   8.313  31.065  1.00  0.00     0.336 A 
ATOM     10  O   UNL     1      31.450   7.768  32.044  1.00  0.00    -0.246 OA
ATOM     11  O   UNL     1      30.615   7.599  29.973  1.00  0.00    -0.423 OA
ENDROOT
BRANCH   1  12
ATOM     12  O   UNL     1      28.097   9.709  25.498  1.00  0.00    -0.493 OA
ATOM     13  C   UNL     1      28.752  10.439  24.466  1.00  0.00     0.278 C 
ENDBRANCH   1  12
BRANCH   2  14
ATOM     14  O   UNL     1      28.901   7.024  25.563  1.00  0.00    -0.504 OA
ATOM     15  H   UNL     1      29.628   6.441  25.164  1.00  0.00     0.293 HD
ENDBRANCH   2  14
TORSDOF 2
ENDMDL
MODEL 9
REMARK VINA RESULT:    -4.345      3.265      6.085
REMARK INTER + INTRA:          -4.777
REMARK INTER:                  -4.733
REMARK INTRA:                  -0.043
REMARK UNBOUND:                -0.051
REMARK SMILES COc1cc2ccc(=O)oc2cc1O
REMARK SMILES IDX 3 1 13 2 12 3 11 4 5 5 4 6 6 7 7 8 8 9 9 10 10 11 2 12 1 13
REMARK SMILES IDX 14 14
REMARK H PARENT 14 15
REMARK Flexibility Score: inf
ROOT
ATOM      1  C   UNL     1      31.261   8.161  31.958  1.00  0.00     0.161 A 
ATOM      2  C   UNL     1      31.227   9.523  32.317  1.00  0.00     0.161 A 
ATOM      3  C   UNL     1      31.241   9.896  33.666  1.00  0.00     0.098 A 
ATOM      4  C   UNL     1      31.288   8.926  34.669  1.00  0.00     0.142 A 
ATOM      5  C   UNL     1      31.321   7.560  34.319  1.00  0.00     0.022 A 
ATOM      6  C   UNL     1      31.307   7.181  32.970  1.00  0.00     0.062 A 
ATOM      7  C   UNL     1      31.367   6.610  35.346  1.00  0.00     0.019 A 
ATOM      8  C   UNL     1      31.379   7.037  36.673  1.00  0.00     0.094 A 
ATOM      9  C   UNL     1      31.344   8.409  36.944  1.00  0.00     0.336 A 
ATOM     10  O   UNL     1      31.354   8.815  38.136  1.00  0.00    -0.246 OA
ATOM     11  O   UNL     1      31.301   9.291  35.949  1.00  0.00    -0.423 OA
ENDROOT
BRANCH   1  12
ATOM     12  O   UNL     1      31.245   7.821  30.596  1.00  0.00    -0.493 OA
ATOM     13  C   UNL     1      31.306   6.490  30.094  1.00  0.00     0.278 C 
ENDBRANCH   1  12
BRANCH   2  14
ATOM     14  O   UNL     1      31.180  10.521  31.346  1.00  0.00    -0.504 OA
ATOM     15  H   UNL     1      31.059  11.500  31.580  1.00  0.00     0.293 HD
ENDBRANCH   2  14
TORSDOF 2
ENDMDL
