MODEL 1
REMARK VINA RESULT:    -3.135      0.000      0.000
REMARK INTER + INTRA:         -11.010
REMARK INTER:                  -6.801
REMARK INTRA:                  -4.209
REMARK UNBOUND:                -4.209
REMARK SMILES CCCCCCCCCCCCCCCCCCCCCC(=O)[O-]
REMARK SMILES IDX 12 1 11 2 10 3 9 4 8 5 7 6 6 7 5 8 4 9 3 10 2 11 1 12 13 13
REMARK SMILES IDX 14 14 15 15 16 16 17 17 18 18 19 19 20 20 21 21 22 22 23 23
REMARK SMILES IDX 24 24
REMARK H PARENT
REMARK Flexibility Score: inf
ROOT
ATOM      1  C   UNL     1     -18.771  22.834  46.504  1.00  0.00     0.000 C 
ENDROOT
BRANCH   1   2
ATOM      2  C   UNL     1     -18.095  24.179  46.159  1.00  0.00     0.000 C 
BRANCH   2   3
ATOM      3  C   UNL     1     -16.557  24.108  46.115  1.00  0.00     0.000 C 
BRANCH   3   4
ATOM      4  C   UNL     1     -15.944  22.896  46.839  1.00  0.00    -0.000 C 
BRANCH   4   5
ATOM      5  C   UNL     1     -14.795  22.194  46.086  1.00  0.00    -0.000 C 
BRANCH   5   6
ATOM      6  C   UNL     1     -14.237  22.957  44.872  1.00  0.00    -0.000 C 
BRANCH   6   7
ATOM      7  C   UNL     1     -13.742  22.023  43.755  1.00  0.00    -0.000 C 
BRANCH   7   8
ATOM      8  C   UNL     1     -13.305  22.780  42.487  1.00  0.00    -0.000 C 
BRANCH   8   9
ATOM      9  C   UNL     1     -12.971  24.269  42.689  1.00  0.00    -0.000 C 
BRANCH   9  10
ATOM     10  C   UNL     1     -13.857  25.206  41.851  1.00  0.00    -0.000 C 
BRANCH  10  11
ATOM     11  C   UNL     1     -14.011  26.596  42.486  1.00  0.00    -0.003 C 
ATOM     12  C   UNL     1     -14.622  26.543  43.886  1.00  0.00     0.004 C 
ENDBRANCH  10  11
ENDBRANCH   9  10
ENDBRANCH   8   9
ENDBRANCH   7   8
ENDBRANCH   6   7
ENDBRANCH   5   6
ENDBRANCH   4   5
ENDBRANCH   3   4
ENDBRANCH   2   3
ENDBRANCH   1   2
BRANCH   1  13
ATOM     13  C   UNL     1     -19.253  22.081  45.253  1.00  0.00     0.000 C 
BRANCH  13  14
ATOM     14  C   UNL     1     -18.384  20.855  44.928  1.00  0.00     0.000 C 
BRANCH  14  15
ATOM     15  C   UNL     1     -17.451  21.094  43.729  1.00  0.00     0.000 C 
BRANCH  15  16
ATOM     16  C   UNL     1     -17.971  22.185  42.776  1.00  0.00     0.000 C 
BRANCH  16  17
ATOM     17  C   UNL     1     -16.983  23.338  42.501  1.00  0.00     0.000 C 
BRANCH  17  18
ATOM     18  C   UNL     1     -17.586  24.754  42.592  1.00  0.00     0.000 C 
BRANCH  18  19
ATOM     19  C   UNL     1     -19.103  24.834  42.349  1.00  0.00     0.000 C 
BRANCH  19  20
ATOM     20  C   UNL     1     -19.804  25.836  43.282  1.00  0.00     0.006 C 
BRANCH  20  21
ATOM     21  C   UNL     1     -20.494  26.965  42.504  1.00  0.00     0.053 C 
BRANCH  21  22
ATOM     22  C   UNL     1     -19.661  28.211  42.475  1.00  0.00     0.041 C 
ATOM     23  O   UNL     1     -18.562  28.223  41.860  1.00  0.00    -0.550 OA
ATOM     24  O   UNL     1     -20.112  29.365  43.103  1.00  0.00    -0.550 OA
ENDBRANCH  21  22
ENDBRANCH  20  21
ENDBRANCH  19  20
ENDBRANCH  18  19
ENDBRANCH  17  18
ENDBRANCH  16  17
ENDBRANCH  15  16
ENDBRANCH  14  15
ENDBRANCH  13  14
ENDBRANCH   1  13
TORSDOF 20
ENDMDL
MODEL 2
REMARK VINA RESULT:    -3.038      2.847      6.345
REMARK INTER + INTRA:         -10.798
REMARK INTER:                  -8.144
REMARK INTRA:                  -2.655
REMARK UNBOUND:                -4.209
REMARK SMILES CCCCCCCCCCCCCCCCCCCCCC(=O)[O-]
REMARK SMILES IDX 12 1 11 2 10 3 9 4 8 5 7 6 6 7 5 8 4 9 3 10 2 11 1 12 13 13
REMARK SMILES IDX 14 14 15 15 16 16 17 17 18 18 19 19 20 20 21 21 22 22 23 23
REMARK SMILES IDX 24 24
REMARK H PARENT
REMARK Flexibility Score: inf
ROOT
ATOM      1  C   UNL     1     -19.138  20.358  45.861  1.00  0.00     0.000 C 
ENDROOT
BRANCH   1   2
ATOM      2  C   UNL     1     -19.689  21.754  45.494  1.00  0.00     0.000 C 
BRANCH   2   3
ATOM      3  C   UNL     1     -20.928  22.167  46.310  1.00  0.00     0.000 C 
BRANCH   3   4
ATOM      4  C   UNL     1     -20.965  23.649  46.725  1.00  0.00    -0.000 C 
BRANCH   4   5
ATOM      5  C   UNL     1     -20.558  24.650  45.622  1.00  0.00    -0.000 C 
BRANCH   5   6
ATOM      6  C   UNL     1     -21.643  25.663  45.216  1.00  0.00    -0.000 C 
BRANCH   6   7
ATOM      7  C   UNL     1     -22.446  25.216  43.983  1.00  0.00    -0.000 C 
BRANCH   7   8
ATOM      8  C   UNL     1     -23.690  24.383  44.345  1.00  0.00    -0.000 C 
BRANCH   8   9
ATOM      9  C   UNL     1     -24.417  24.808  45.634  1.00  0.00    -0.000 C 
BRANCH   9  10
ATOM     10  C   UNL     1     -24.853  23.615  46.501  1.00  0.00    -0.000 C 
BRANCH  10  11
ATOM     11  C   UNL     1     -25.123  22.351  45.671  1.00  0.00    -0.003 C 
ATOM     12  C   UNL     1     -24.558  21.086  46.317  1.00  0.00     0.004 C 
ENDBRANCH  10  11
ENDBRANCH   9  10
ENDBRANCH   8   9
ENDBRANCH   7   8
ENDBRANCH   6   7
ENDBRANCH   5   6
ENDBRANCH   4   5
ENDBRANCH   3   4
ENDBRANCH   2   3
ENDBRANCH   1   2
BRANCH   1  13
ATOM     13  C   UNL     1     -17.860  20.007  45.081  1.00  0.00     0.000 C 
BRANCH  13  14
ATOM     14  C   UNL     1     -17.658  20.899  43.844  1.00  0.00     0.000 C 
BRANCH  14  15
ATOM     15  C   UNL     1     -16.298  21.617  43.851  1.00  0.00     0.000 C 
BRANCH  15  16
ATOM     16  C   UNL     1     -16.354  23.008  43.195  1.00  0.00     0.000 C 
BRANCH  16  17
ATOM     17  C   UNL     1     -17.773  23.544  42.919  1.00  0.00     0.000 C 
BRANCH  17  18
ATOM     18  C   UNL     1     -17.874  25.072  42.739  1.00  0.00     0.000 C 
BRANCH  18  19
ATOM     19  C   UNL     1     -19.139  25.561  42.012  1.00  0.00     0.000 C 
BRANCH  19  20
ATOM     20  C   UNL     1     -19.566  26.974  42.443  1.00  0.00     0.006 C 
BRANCH  20  21
ATOM     21  C   UNL     1     -18.612  28.054  41.914  1.00  0.00     0.053 C 
BRANCH  21  22
ATOM     22  C   UNL     1     -19.285  29.388  41.806  1.00  0.00     0.041 C 
ATOM     23  O   UNL     1     -18.973  30.181  40.879  1.00  0.00    -0.550 OA
ATOM     24  O   UNL     1     -20.275  29.745  42.713  1.00  0.00    -0.550 OA
ENDBRANCH  21  22
ENDBRANCH  20  21
ENDBRANCH  19  20
ENDBRANCH  18  19
ENDBRANCH  17  18
ENDBRANCH  16  17
ENDBRANCH  15  16
ENDBRANCH  14  15
ENDBRANCH  13  14
ENDBRANCH   1  13
TORSDOF 20
ENDMDL
MODEL 3
REMARK VINA RESULT:    -3.020      2.239      5.633
REMARK INTER + INTRA:         -10.759
REMARK INTER:                  -7.313
REMARK INTRA:                  -3.446
REMARK UNBOUND:                -4.209
REMARK SMILES CCCCCCCCCCCCCCCCCCCCCC(=O)[O-]
REMARK SMILES IDX 12 1 11 2 10 3 9 4 8 5 7 6 6 7 5 8 4 9 3 10 2 11 1 12 13 13
REMARK SMILES IDX 14 14 15 15 16 16 17 17 18 18 19 19 20 20 21 21 22 22 23 23
REMARK SMILES IDX 24 24
REMARK H PARENT
REMARK Flexibility Score: inf
ROOT
ATOM      1  C   UNL     1     -20.563  21.955  46.621  1.00  0.00     0.000 C 
ENDROOT
BRANCH   1   2
ATOM      2  C   UNL     1     -21.097  23.403  46.681  1.00  0.00     0.000 C 
BRANCH   2   3
ATOM      3  C   UNL     1     -21.512  23.970  45.310  1.00  0.00     0.000 C 
BRANCH   3   4
ATOM      4  C   UNL     1     -22.244  25.323  45.363  1.00  0.00    -0.000 C 
BRANCH   4   5
ATOM      5  C   UNL     1     -21.477  26.509  44.740  1.00  0.00    -0.000 C 
BRANCH   5   6
ATOM      6  C   UNL     1     -21.439  26.535  43.202  1.00  0.00    -0.000 C 
BRANCH   6   7
ATOM      7  C   UNL     1     -20.071  26.968  42.646  1.00  0.00    -0.000 C 
BRANCH   7   8
ATOM      8  C   UNL     1     -19.267  25.797  42.050  1.00  0.00    -0.000 C 
BRANCH   8   9
ATOM      9  C   UNL     1     -18.672  24.815  43.075  1.00  0.00    -0.000 C 
BRANCH   9  10
ATOM     10  C   UNL     1     -17.731  25.493  44.084  1.00  0.00    -0.000 C 
BRANCH  10  11
ATOM     11  C   UNL     1     -17.912  24.956  45.512  1.00  0.00    -0.003 C 
ATOM     12  C   UNL     1     -18.326  26.041  46.505  1.00  0.00     0.004 C 
ENDBRANCH  10  11
ENDBRANCH   9  10
ENDBRANCH   8   9
ENDBRANCH   7   8
ENDBRANCH   6   7
ENDBRANCH   5   6
ENDBRANCH   4   5
ENDBRANCH   3   4
ENDBRANCH   2   3
ENDBRANCH   1   2
BRANCH   1  13
ATOM     13  C   UNL     1     -19.567  21.744  45.468  1.00  0.00     0.000 C 
BRANCH  13  14
ATOM     14  C   UNL     1     -18.942  20.339  45.475  1.00  0.00     0.000 C 
BRANCH  14  15
ATOM     15  C   UNL     1     -17.690  20.245  44.587  1.00  0.00     0.000 C 
BRANCH  15  16
ATOM     16  C   UNL     1     -17.622  21.363  43.531  1.00  0.00     0.000 C 
BRANCH  16  17
ATOM     17  C   UNL     1     -16.239  22.029  43.373  1.00  0.00     0.000 C 
BRANCH  17  18
ATOM     18  C   UNL     1     -15.500  22.328  44.692  1.00  0.00     0.000 C 
BRANCH  18  19
ATOM     19  C   UNL     1     -13.965  22.351  44.588  1.00  0.00     0.000 C 
BRANCH  19  20
ATOM     20  C   UNL     1     -13.465  22.318  43.134  1.00  0.00     0.006 C 
BRANCH  20  21
ATOM     21  C   UNL     1     -12.838  23.651  42.707  1.00  0.00     0.053 C 
BRANCH  21  22
ATOM     22  C   UNL     1     -13.747  24.433  41.809  1.00  0.00     0.041 C 
ATOM     23  O   UNL     1     -14.669  25.136  42.300  1.00  0.00    -0.550 OA
ATOM     24  O   UNL     1     -13.560  24.406  40.432  1.00  0.00    -0.550 OA
ENDBRANCH  21  22
ENDBRANCH  20  21
ENDBRANCH  19  20
ENDBRANCH  18  19
ENDBRANCH  17  18
ENDBRANCH  16  17
ENDBRANCH  15  16
ENDBRANCH  14  15
ENDBRANCH  13  14
ENDBRANCH   1  13
TORSDOF 20
ENDMDL
MODEL 4
REMARK VINA RESULT:    -2.991      2.531      6.023
REMARK INTER + INTRA:         -10.697
REMARK INTER:                  -7.505
REMARK INTRA:                  -3.192
REMARK UNBOUND:                -4.209
REMARK SMILES CCCCCCCCCCCCCCCCCCCCCC(=O)[O-]
REMARK SMILES IDX 12 1 11 2 10 3 9 4 8 5 7 6 6 7 5 8 4 9 3 10 2 11 1 12 13 13
REMARK SMILES IDX 14 14 15 15 16 16 17 17 18 18 19 19 20 20 21 21 22 22 23 23
REMARK SMILES IDX 24 24
REMARK H PARENT
REMARK Flexibility Score: inf
ROOT
ATOM      1  C   UNL     1     -15.763  22.696  44.891  1.00  0.00     0.000 C 
ENDROOT
BRANCH   1   2
ATOM      2  C   UNL     1     -15.857  21.446  43.988  1.00  0.00     0.000 C 
BRANCH   2   3
ATOM      3  C   UNL     1     -17.301  21.022  43.663  1.00  0.00     0.000 C 
BRANCH   3   4
ATOM      4  C   UNL     1     -18.030  20.281  44.799  1.00  0.00    -0.000 C 
BRANCH   4   5
ATOM      5  C   UNL     1     -19.156  21.081  45.488  1.00  0.00    -0.000 C 
BRANCH   5   6
ATOM      6  C   UNL     1     -19.985  20.299  46.522  1.00  0.00    -0.000 C 
BRANCH   6   7
ATOM      7  C   UNL     1     -21.243  21.058  46.977  1.00  0.00    -0.000 C 
BRANCH   7   8
ATOM      8  C   UNL     1     -21.441  22.393  46.234  1.00  0.00    -0.000 C 
BRANCH   8   9
ATOM      9  C   UNL     1     -22.777  23.108  46.507  1.00  0.00    -0.000 C 
BRANCH   9  10
ATOM     10  C   UNL     1     -23.428  23.675  45.234  1.00  0.00    -0.000 C 
BRANCH  10  11
ATOM     11  C   UNL     1     -24.901  23.264  45.093  1.00  0.00    -0.003 C 
ATOM     12  C   UNL     1     -25.158  21.822  45.530  1.00  0.00     0.004 C 
ENDBRANCH  10  11
ENDBRANCH   9  10
ENDBRANCH   8   9
ENDBRANCH   7   8
ENDBRANCH   6   7
ENDBRANCH   5   6
ENDBRANCH   4   5
ENDBRANCH   3   4
ENDBRANCH   2   3
ENDBRANCH   1   2
BRANCH   1  13
ATOM     13  C   UNL     1     -14.929  23.819  44.253  1.00  0.00     0.000 C 
BRANCH  13  14
ATOM     14  C   UNL     1     -15.473  24.255  42.882  1.00  0.00     0.000 C 
BRANCH  14  15
ATOM     15  C   UNL     1     -16.754  25.098  42.997  1.00  0.00     0.000 C 
BRANCH  15  16
ATOM     16  C   UNL     1     -17.994  24.379  42.437  1.00  0.00     0.000 C 
BRANCH  16  17
ATOM     17  C   UNL     1     -19.165  24.226  43.429  1.00  0.00     0.000 C 
BRANCH  17  18
ATOM     18  C   UNL     1     -18.909  24.795  44.839  1.00  0.00     0.000 C 
BRANCH  18  19
ATOM     19  C   UNL     1     -20.042  25.668  45.406  1.00  0.00     0.000 C 
BRANCH  19  20
ATOM     20  C   UNL     1     -20.949  26.252  44.310  1.00  0.00     0.006 C 
BRANCH  20  21
ATOM     21  C   UNL     1     -20.867  27.783  44.246  1.00  0.00     0.053 C 
BRANCH  21  22
ATOM     22  C   UNL     1     -20.120  28.251  43.034  1.00  0.00     0.041 C 
ATOM     23  O   UNL     1     -20.715  28.906  42.139  1.00  0.00    -0.550 OA
ATOM     24  O   UNL     1     -18.762  27.986  42.906  1.00  0.00    -0.550 OA
ENDBRANCH  21  22
ENDBRANCH  20  21
ENDBRANCH  19  20
ENDBRANCH  18  19
ENDBRANCH  17  18
ENDBRANCH  16  17
ENDBRANCH  15  16
ENDBRANCH  14  15
ENDBRANCH  13  14
ENDBRANCH   1  13
TORSDOF 20
ENDMDL
MODEL 5
REMARK VINA RESULT:    -2.983      1.419      4.428
REMARK INTER + INTRA:         -10.680
REMARK INTER:                  -6.881
REMARK INTRA:                  -3.799
REMARK UNBOUND:                -4.209
REMARK SMILES CCCCCCCCCCCCCCCCCCCCCC(=O)[O-]
REMARK SMILES IDX 12 1 11 2 10 3 9 4 8 5 7 6 6 7 5 8 4 9 3 10 2 11 1 12 13 13
REMARK SMILES IDX 14 14 15 15 16 16 17 17 18 18 19 19 20 20 21 21 22 22 23 23
REMARK SMILES IDX 24 24
REMARK H PARENT
REMARK Flexibility Score: inf
ROOT
ATOM      1  C   UNL     1     -15.534  26.686  42.929  1.00  0.00     0.000 C 
ENDROOT
BRANCH   1   2
ATOM      2  C   UNL     1     -14.013  26.673  42.664  1.00  0.00     0.000 C 
BRANCH   2   3
ATOM      3  C   UNL     1     -13.277  25.496  43.331  1.00  0.00     0.000 C 
BRANCH   3   4
ATOM      4  C   UNL     1     -12.653  24.484  42.352  1.00  0.00    -0.000 C 
BRANCH   4   5
ATOM      5  C   UNL     1     -13.401  23.139  42.234  1.00  0.00    -0.000 C 
BRANCH   5   6
ATOM      6  C   UNL     1     -14.019  22.610  43.540  1.00  0.00    -0.000 C 
BRANCH   6   7
ATOM      7  C   UNL     1     -15.033  21.478  43.305  1.00  0.00    -0.000 C 
BRANCH   7   8
ATOM      8  C   UNL     1     -15.991  21.273  44.494  1.00  0.00    -0.000 C 
BRANCH   8   9
ATOM      9  C   UNL     1     -17.451  20.962  44.119  1.00  0.00    -0.000 C 
BRANCH   9  10
ATOM     10  C   UNL     1     -18.398  20.964  45.332  1.00  0.00    -0.000 C 
BRANCH  10  11
ATOM     11  C   UNL     1     -19.475  22.056  45.237  1.00  0.00    -0.003 C 
ATOM     12  C   UNL     1     -19.330  23.125  46.319  1.00  0.00     0.004 C 
ENDBRANCH  10  11
ENDBRANCH   9  10
ENDBRANCH   8   9
ENDBRANCH   7   8
ENDBRANCH   6   7
ENDBRANCH   5   6
ENDBRANCH   4   5
ENDBRANCH   3   4
ENDBRANCH   2   3
ENDBRANCH   1   2
BRANCH   1  13
ATOM     13  C   UNL     1     -15.900  26.047  44.279  1.00  0.00     0.000 C 
BRANCH  13  14
ATOM     14  C   UNL     1     -16.921  24.905  44.136  1.00  0.00     0.000 C 
BRANCH  14  15
ATOM     15  C   UNL     1     -17.079  24.434  42.681  1.00  0.00     0.000 C 
BRANCH  15  16
ATOM     16  C   UNL     1     -18.550  24.346  42.238  1.00  0.00     0.000 C 
BRANCH  16  17
ATOM     17  C   UNL     1     -19.553  25.087  43.147  1.00  0.00     0.000 C 
BRANCH  17  18
ATOM     18  C   UNL     1     -19.880  26.532  42.723  1.00  0.00     0.000 C 
BRANCH  18  19
ATOM     19  C   UNL     1     -19.546  27.610  43.769  1.00  0.00     0.000 C 
BRANCH  19  20
ATOM     20  C   UNL     1     -18.558  28.665  43.245  1.00  0.00     0.006 C 
BRANCH  20  21
ATOM     21  C   UNL     1     -18.615  28.803  41.717  1.00  0.00     0.053 C 
BRANCH  21  22
ATOM     22  C   UNL     1     -19.297  30.069  41.297  1.00  0.00     0.041 C 
ATOM     23  O   UNL     1     -19.021  30.597  40.187  1.00  0.00    -0.550 OA
ATOM     24  O   UNL     1     -20.255  30.651  42.118  1.00  0.00    -0.550 OA
ENDBRANCH  21  22
ENDBRANCH  20  21
ENDBRANCH  19  20
ENDBRANCH  18  19
ENDBRANCH  17  18
ENDBRANCH  16  17
ENDBRANCH  15  16
ENDBRANCH  14  15
ENDBRANCH  13  14
ENDBRANCH   1  13
TORSDOF 20
ENDMDL
MODEL 6
REMARK VINA RESULT:    -2.978      2.378      5.794
REMARK INTER + INTRA:         -10.668
REMARK INTER:                  -7.305
REMARK INTRA:                  -3.363
REMARK UNBOUND:                -4.209
REMARK SMILES CCCCCCCCCCCCCCCCCCCCCC(=O)[O-]
REMARK SMILES IDX 12 1 11 2 10 3 9 4 8 5 7 6 6 7 5 8 4 9 3 10 2 11 1 12 13 13
REMARK SMILES IDX 14 14 15 15 16 16 17 17 18 18 19 19 20 20 21 21 22 22 23 23
REMARK SMILES IDX 24 24
REMARK H PARENT
REMARK Flexibility Score: inf
ROOT
ATOM      1  C   UNL     1     -16.262  24.181  43.290  1.00  0.00     0.000 C 
ENDROOT
BRANCH   1   2
ATOM      2  C   UNL     1     -17.520  23.994  42.414  1.00  0.00     0.000 C 
BRANCH   2   3
ATOM      3  C   UNL     1     -18.062  22.552  42.406  1.00  0.00     0.000 C 
BRANCH   3   4
ATOM      4  C   UNL     1     -17.439  21.621  43.462  1.00  0.00    -0.000 C 
BRANCH   4   5
ATOM      5  C   UNL     1     -18.359  21.266  44.649  1.00  0.00    -0.000 C 
BRANCH   5   6
ATOM      6  C   UNL     1     -18.622  22.409  45.646  1.00  0.00    -0.000 C 
BRANCH   6   7
ATOM      7  C   UNL     1     -20.115  22.757  45.775  1.00  0.00    -0.000 C 
BRANCH   7   8
ATOM      8  C   UNL     1     -20.527  23.965  44.911  1.00  0.00    -0.000 C 
BRANCH   8   9
ATOM      9  C   UNL     1     -21.000  25.204  45.692  1.00  0.00    -0.000 C 
BRANCH   9  10
ATOM     10  C   UNL     1     -22.396  25.689  45.265  1.00  0.00    -0.000 C 
BRANCH  10  11
ATOM     11  C   UNL     1     -22.989  24.847  44.125  1.00  0.00    -0.003 C 
ATOM     12  C   UNL     1     -24.226  24.059  44.553  1.00  0.00     0.004 C 
ENDBRANCH  10  11
ENDBRANCH   9  10
ENDBRANCH   8   9
ENDBRANCH   7   8
ENDBRANCH   6   7
ENDBRANCH   5   6
ENDBRANCH   4   5
ENDBRANCH   3   4
ENDBRANCH   2   3
ENDBRANCH   1   2
BRANCH   1  13
ATOM     13  C   UNL     1     -16.397  25.361  44.267  1.00  0.00     0.000 C 
BRANCH  13  14
ATOM     14  C   UNL     1     -17.731  26.110  44.110  1.00  0.00     0.000 C 
BRANCH  14  15
ATOM     15  C   UNL     1     -17.567  27.465  43.402  1.00  0.00     0.000 C 
BRANCH  15  16
ATOM     16  C   UNL     1     -18.679  27.742  42.376  1.00  0.00     0.000 C 
BRANCH  16  17
ATOM     17  C   UNL     1     -19.947  26.878  42.537  1.00  0.00     0.000 C 
BRANCH  17  18
ATOM     18  C   UNL     1     -21.280  27.620  42.315  1.00  0.00     0.000 C 
BRANCH  18  19
ATOM     19  C   UNL     1     -21.498  28.851  43.212  1.00  0.00     0.000 C 
BRANCH  19  20
ATOM     20  C   UNL     1     -22.395  29.915  42.556  1.00  0.00     0.006 C 
BRANCH  20  21
ATOM     21  C   UNL     1     -21.813  30.426  41.232  1.00  0.00     0.053 C 
BRANCH  21  22
ATOM     22  C   UNL     1     -20.528  31.170  41.437  1.00  0.00     0.041 C 
ATOM     23  O   UNL     1     -19.471  30.771  40.883  1.00  0.00    -0.550 OA
ATOM     24  O   UNL     1     -20.505  32.318  42.219  1.00  0.00    -0.550 OA
ENDBRANCH  21  22
ENDBRANCH  20  21
ENDBRANCH  19  20
ENDBRANCH  18  19
ENDBRANCH  17  18
ENDBRANCH  16  17
ENDBRANCH  15  16
ENDBRANCH  14  15
ENDBRANCH  13  14
ENDBRANCH   1  13
TORSDOF 20
ENDMDL
MODEL 7
REMARK VINA RESULT:    -2.974      3.088      4.532
REMARK INTER + INTRA:         -10.660
REMARK INTER:                  -7.486
REMARK INTRA:                  -3.174
REMARK UNBOUND:                -4.209
REMARK SMILES CCCCCCCCCCCCCCCCCCCCCC(=O)[O-]
REMARK SMILES IDX 12 1 11 2 10 3 9 4 8 5 7 6 6 7 5 8 4 9 3 10 2 11 1 12 13 13
REMARK SMILES IDX 14 14 15 15 16 16 17 17 18 18 19 19 20 20 21 21 22 22 23 23
REMARK SMILES IDX 24 24
REMARK H PARENT
REMARK Flexibility Score: inf
ROOT
ATOM      1  C   UNL     1     -18.366  20.129  45.068  1.00  0.00     0.000 C 
ENDROOT
BRANCH   1   2
ATOM      2  C   UNL     1     -16.892  20.572  44.937  1.00  0.00     0.000 C 
BRANCH   2   3
ATOM      3  C   UNL     1     -16.590  21.350  43.643  1.00  0.00     0.000 C 
BRANCH   3   4
ATOM      4  C   UNL     1     -17.833  21.787  42.845  1.00  0.00    -0.000 C 
BRANCH   4   5
ATOM      5  C   UNL     1     -17.928  23.300  42.555  1.00  0.00    -0.000 C 
BRANCH   5   6
ATOM      6  C   UNL     1     -16.581  24.040  42.458  1.00  0.00    -0.000 C 
BRANCH   6   7
ATOM      7  C   UNL     1     -16.139  24.653  43.797  1.00  0.00    -0.000 C 
BRANCH   7   8
ATOM      8  C   UNL     1     -14.609  24.668  43.975  1.00  0.00    -0.000 C 
BRANCH   8   9
ATOM      9  C   UNL     1     -13.793  24.376  42.703  1.00  0.00    -0.000 C 
BRANCH   9  10
ATOM     10  C   UNL     1     -13.080  23.014  42.743  1.00  0.00    -0.000 C 
BRANCH  10  11
ATOM     11  C   UNL     1     -13.054  22.404  44.152  1.00  0.00    -0.003 C 
ATOM     12  C   UNL     1     -12.916  20.882  44.135  1.00  0.00     0.004 C 
ENDBRANCH  10  11
ENDBRANCH   9  10
ENDBRANCH   8   9
ENDBRANCH   7   8
ENDBRANCH   6   7
ENDBRANCH   5   6
ENDBRANCH   4   5
ENDBRANCH   3   4
ENDBRANCH   2   3
ENDBRANCH   1   2
BRANCH   1  13
ATOM     13  C   UNL     1     -18.948  20.426  46.460  1.00  0.00     0.000 C 
BRANCH  13  14
ATOM     14  C   UNL     1     -20.248  21.244  46.397  1.00  0.00     0.000 C 
BRANCH  14  15
ATOM     15  C   UNL     1     -20.139  22.454  45.454  1.00  0.00     0.000 C 
BRANCH  15  16
ATOM     16  C   UNL     1     -19.332  23.614  46.063  1.00  0.00     0.000 C 
BRANCH  16  17
ATOM     17  C   UNL     1     -19.567  24.990  45.405  1.00  0.00     0.000 C 
BRANCH  17  18
ATOM     18  C   UNL     1     -20.617  25.006  44.276  1.00  0.00     0.000 C 
BRANCH  18  19
ATOM     19  C   UNL     1     -21.721  26.067  44.428  1.00  0.00     0.000 C 
BRANCH  19  20
ATOM     20  C   UNL     1     -22.970  25.529  45.146  1.00  0.00     0.006 C 
BRANCH  20  21
ATOM     21  C   UNL     1     -23.537  24.279  44.461  1.00  0.00     0.053 C 
BRANCH  21  22
ATOM     22  C   UNL     1     -24.025  23.271  45.458  1.00  0.00     0.041 C 
ATOM     23  O   UNL     1     -23.371  23.056  46.512  1.00  0.00    -0.550 OA
ATOM     24  O   UNL     1     -25.215  22.590  45.234  1.00  0.00    -0.550 OA
ENDBRANCH  21  22
ENDBRANCH  20  21
ENDBRANCH  19  20
ENDBRANCH  18  19
ENDBRANCH  17  18
ENDBRANCH  16  17
ENDBRANCH  15  16
ENDBRANCH  14  15
ENDBRANCH  13  14
ENDBRANCH   1  13
TORSDOF 20
ENDMDL
MODEL 8
REMARK VINA RESULT:    -2.968      2.627      4.049
REMARK INTER + INTRA:         -10.647
REMARK INTER:                  -6.467
REMARK INTRA:                  -4.180
REMARK UNBOUND:                -4.209
REMARK SMILES CCCCCCCCCCCCCCCCCCCCCC(=O)[O-]
REMARK SMILES IDX 12 1 11 2 10 3 9 4 8 5 7 6 6 7 5 8 4 9 3 10 2 11 1 12 13 13
REMARK SMILES IDX 14 14 15 15 16 16 17 17 18 18 19 19 20 20 21 21 22 22 23 23
REMARK SMILES IDX 24 24
REMARK H PARENT
REMARK Flexibility Score: inf
ROOT
ATOM      1  C   UNL     1     -17.462  21.585  43.240  1.00  0.00     0.000 C 
ENDROOT
BRANCH   1   2
ATOM      2  C   UNL     1     -18.259  22.905  43.162  1.00  0.00     0.000 C 
BRANCH   2   3
ATOM      3  C   UNL     1     -17.564  24.002  42.334  1.00  0.00     0.000 C 
BRANCH   3   4
ATOM      4  C   UNL     1     -17.031  25.192  43.153  1.00  0.00    -0.000 C 
BRANCH   4   5
ATOM      5  C   UNL     1     -16.618  24.858  44.603  1.00  0.00    -0.000 C 
BRANCH   5   6
ATOM      6  C   UNL     1     -15.297  25.491  45.076  1.00  0.00    -0.000 C 
BRANCH   6   7
ATOM      7  C   UNL     1     -14.184  24.453  45.297  1.00  0.00    -0.000 C 
BRANCH   7   8
ATOM      8  C   UNL     1     -14.677  23.001  45.151  1.00  0.00    -0.000 C 
BRANCH   8   9
ATOM      9  C   UNL     1     -13.977  22.172  44.060  1.00  0.00    -0.000 C 
BRANCH   9  10
ATOM     10  C   UNL     1     -12.986  22.995  43.220  1.00  0.00    -0.000 C 
BRANCH  10  11
ATOM     11  C   UNL     1     -13.526  23.315  41.817  1.00  0.00    -0.003 C 
ATOM     12  C   UNL     1     -13.719  24.813  41.585  1.00  0.00     0.004 C 
ENDBRANCH  10  11
ENDBRANCH   9  10
ENDBRANCH   8   9
ENDBRANCH   7   8
ENDBRANCH   6   7
ENDBRANCH   5   6
ENDBRANCH   4   5
ENDBRANCH   3   4
ENDBRANCH   2   3
ENDBRANCH   1   2
BRANCH   1  13
ATOM     13  C   UNL     1     -17.948  20.672  44.378  1.00  0.00     0.000 C 
BRANCH  13  14
ATOM     14  C   UNL     1     -18.789  21.424  45.423  1.00  0.00     0.000 C 
BRANCH  14  15
ATOM     15  C   UNL     1     -17.958  21.872  46.637  1.00  0.00     0.000 C 
BRANCH  15  16
ATOM     16  C   UNL     1     -18.433  23.213  47.224  1.00  0.00     0.000 C 
BRANCH  16  17
ATOM     17  C   UNL     1     -19.710  23.793  46.582  1.00  0.00     0.000 C 
BRANCH  17  18
ATOM     18  C   UNL     1     -19.721  25.325  46.411  1.00  0.00     0.000 C 
BRANCH  18  19
ATOM     19  C   UNL     1     -20.277  25.826  45.066  1.00  0.00     0.000 C 
BRANCH  19  20
ATOM     20  C   UNL     1     -21.151  24.780  44.354  1.00  0.00     0.006 C 
BRANCH  20  21
ATOM     21  C   UNL     1     -22.637  25.162  44.367  1.00  0.00     0.053 C 
BRANCH  21  22
ATOM     22  C   UNL     1     -23.492  24.057  44.909  1.00  0.00     0.041 C 
ATOM     23  O   UNL     1     -24.736  24.066  44.711  1.00  0.00    -0.550 OA
ATOM     24  O   UNL     1     -22.913  23.006  45.607  1.00  0.00    -0.550 OA
ENDBRANCH  21  22
ENDBRANCH  20  21
ENDBRANCH  19  20
ENDBRANCH  18  19
ENDBRANCH  17  18
ENDBRANCH  16  17
ENDBRANCH  15  16
ENDBRANCH  14  15
ENDBRANCH  13  14
ENDBRANCH   1  13
TORSDOF 20
ENDMDL
MODEL 9
REMARK VINA RESULT:    -2.907      1.976      2.769
REMARK INTER + INTRA:         -10.515
REMARK INTER:                  -6.706
REMARK INTRA:                  -3.808
REMARK UNBOUND:                -4.209
REMARK SMILES CCCCCCCCCCCCCCCCCCCCCC(=O)[O-]
REMARK SMILES IDX 12 1 11 2 10 3 9 4 8 5 7 6 6 7 5 8 4 9 3 10 2 11 1 12 13 13
REMARK SMILES IDX 14 14 15 15 16 16 17 17 18 18 19 19 20 20 21 21 22 22 23 23
REMARK SMILES IDX 24 24
REMARK H PARENT
REMARK Flexibility Score: inf
ROOT
ATOM      1  C   UNL     1     -19.510  21.755  46.297  1.00  0.00     0.000 C 
ENDROOT
BRANCH   1   2
ATOM      2  C   UNL     1     -19.113  20.492  45.501  1.00  0.00     0.000 C 
BRANCH   2   3
ATOM      3  C   UNL     1     -17.667  20.520  44.972  1.00  0.00     0.000 C 
BRANCH   3   4
ATOM      4  C   UNL     1     -16.627  21.082  45.959  1.00  0.00    -0.000 C 
BRANCH   4   5
ATOM      5  C   UNL     1     -15.461  21.859  45.312  1.00  0.00    -0.000 C 
BRANCH   5   6
ATOM      6  C   UNL     1     -15.376  21.767  43.778  1.00  0.00    -0.000 C 
BRANCH   6   7
ATOM      7  C   UNL     1     -13.943  21.943  43.248  1.00  0.00    -0.000 C 
BRANCH   7   8
ATOM      8  C   UNL     1     -13.709  23.318  42.595  1.00  0.00    -0.000 C 
BRANCH   8   9
ATOM      9  C   UNL     1     -14.974  24.162  42.360  1.00  0.00    -0.000 C 
BRANCH   9  10
ATOM     10  C   UNL     1     -14.904  25.550  43.019  1.00  0.00    -0.000 C 
BRANCH  10  11
ATOM     11  C   UNL     1     -14.072  25.547  44.311  1.00  0.00    -0.003 C 
ATOM     12  C   UNL     1     -14.935  25.610  45.571  1.00  0.00     0.004 C 
ENDBRANCH  10  11
ENDBRANCH   9  10
ENDBRANCH   8   9
ENDBRANCH   7   8
ENDBRANCH   6   7
ENDBRANCH   5   6
ENDBRANCH   4   5
ENDBRANCH   3   4
ENDBRANCH   2   3
ENDBRANCH   1   2
BRANCH   1  13
ATOM     13  C   UNL     1     -20.091  22.858  45.397  1.00  0.00     0.000 C 
BRANCH  13  14
ATOM     14  C   UNL     1     -19.254  24.148  45.426  1.00  0.00     0.000 C 
BRANCH  14  15
ATOM     15  C   UNL     1     -18.138  24.151  44.368  1.00  0.00     0.000 C 
BRANCH  15  16
ATOM     16  C   UNL     1     -18.651  23.816  42.957  1.00  0.00     0.000 C 
BRANCH  16  17
ATOM     17  C   UNL     1     -19.117  25.028  42.125  1.00  0.00     0.000 C 
BRANCH  17  18
ATOM     18  C   UNL     1     -18.482  26.377  42.518  1.00  0.00     0.000 C 
BRANCH  18  19
ATOM     19  C   UNL     1     -19.473  27.544  42.672  1.00  0.00     0.000 C 
BRANCH  19  20
ATOM     20  C   UNL     1     -20.940  27.081  42.699  1.00  0.00     0.006 C 
BRANCH  20  21
ATOM     21  C   UNL     1     -21.632  27.431  44.023  1.00  0.00     0.053 C 
BRANCH  21  22
ATOM     22  C   UNL     1     -22.130  26.209  44.733  1.00  0.00     0.041 C 
ATOM     23  O   UNL     1     -22.158  26.176  45.991  1.00  0.00    -0.550 OA
ATOM     24  O   UNL     1     -22.586  25.117  44.004  1.00  0.00    -0.550 OA
ENDBRANCH  21  22
ENDBRANCH  20  21
ENDBRANCH  19  20
ENDBRANCH  18  19
ENDBRANCH  17  18
ENDBRANCH  16  17
ENDBRANCH  15  16
ENDBRANCH  14  15
ENDBRANCH  13  14
ENDBRANCH   1  13
TORSDOF 20
ENDMDL
