MODEL 1
REMARK VINA RESULT:    -5.204      0.000      0.000
REMARK INTER + INTRA:          -9.470
REMARK INTER:                  -8.855
REMARK INTRA:                  -0.615
REMARK UNBOUND:                -0.615
REMARK SMILES CCCCCCCCCCCCCC(=O)[O-]
REMARK SMILES IDX 8 1 9 2 10 3 11 4 12 5 13 6 14 7 15 8 16 9 7 10 6 11 5 12
REMARK SMILES IDX 4 13 3 14 2 15 1 16
REMARK H PARENT
REMARK Flexibility Score: inf
ROOT
ATOM      1  C   UNL     1       4.799 -13.061  -4.259  1.00  0.00     0.000 C 
ENDROOT
BRANCH   1   2
ATOM      2  C   UNL     1       4.275 -12.617  -5.638  1.00  0.00     0.000 C 
BRANCH   2   3
ATOM      3  C   UNL     1       4.929 -11.342  -6.206  1.00  0.00     0.000 C 
BRANCH   3   4
ATOM      4  C   UNL     1       3.951 -10.319  -6.817  1.00  0.00     0.000 C 
BRANCH   4   5
ATOM      5  C   UNL     1       4.606  -9.029  -7.352  1.00  0.00     0.006 C 
BRANCH   5   6
ATOM      6  C   UNL     1       4.508  -7.827  -6.400  1.00  0.00     0.053 C 
BRANCH   6   7
ATOM      7  C   UNL     1       4.929  -6.552  -7.064  1.00  0.00     0.041 C 
ATOM      8  O   UNL     1       5.286  -5.564  -6.370  1.00  0.00    -0.550 OA
ATOM      9  O   UNL     1       4.958  -6.467  -8.449  1.00  0.00    -0.550 OA
ENDBRANCH   6   7
ENDBRANCH   5   6
ENDBRANCH   4   5
ENDBRANCH   3   4
ENDBRANCH   2   3
ENDBRANCH   1   2
BRANCH   1  10
ATOM     10  C   UNL     1       6.107 -12.355  -3.863  1.00  0.00     0.000 C 
BRANCH  10  11
ATOM     11  C   UNL     1       7.289 -13.329  -3.741  1.00  0.00    -0.000 C 
BRANCH  11  12
ATOM     12  C   UNL     1       7.590 -13.721  -2.287  1.00  0.00    -0.000 C 
BRANCH  12  13
ATOM     13  C   UNL     1       7.422 -12.521  -1.348  1.00  0.00    -0.000 C 
BRANCH  13  14
ATOM     14  C   UNL     1       8.545 -12.479  -0.300  1.00  0.00    -0.000 C 
BRANCH  14  15
ATOM     15  C   UNL     1       8.924 -11.046   0.102  1.00  0.00    -0.003 C 
ATOM     16  C   UNL     1       7.880 -10.016  -0.326  1.00  0.00     0.004 C 
ENDBRANCH  14  15
ENDBRANCH  13  14
ENDBRANCH  12  13
ENDBRANCH  11  12
ENDBRANCH  10  11
ENDBRANCH   1  10
TORSDOF 12
ENDMDL
MODEL 2
REMARK VINA RESULT:    -5.132      1.538      2.854
REMARK INTER + INTRA:          -9.347
REMARK INTER:                  -8.200
REMARK INTRA:                  -1.147
REMARK UNBOUND:                -0.615
REMARK SMILES CCCCCCCCCCCCCC(=O)[O-]
REMARK SMILES IDX 8 1 9 2 10 3 11 4 12 5 13 6 14 7 15 8 16 9 7 10 6 11 5 12
REMARK SMILES IDX 4 13 3 14 2 15 1 16
REMARK H PARENT
REMARK Flexibility Score: inf
ROOT
ATOM      1  C   UNL     1       7.278 -13.342  -3.756  1.00  0.00     0.000 C 
ENDROOT
BRANCH   1   2
ATOM      2  C   UNL     1       5.997 -12.496  -3.639  1.00  0.00     0.000 C 
BRANCH   2   3
ATOM      3  C   UNL     1       4.718 -13.165  -4.181  1.00  0.00     0.000 C 
BRANCH   3   4
ATOM      4  C   UNL     1       4.330 -12.771  -5.621  1.00  0.00     0.000 C 
BRANCH   4   5
ATOM      5  C   UNL     1       5.044 -11.518  -6.167  1.00  0.00     0.006 C 
BRANCH   5   6
ATOM      6  C   UNL     1       4.099 -10.379  -6.579  1.00  0.00     0.053 C 
BRANCH   6   7
ATOM      7  C   UNL     1       4.226  -9.191  -5.675  1.00  0.00     0.041 C 
ATOM      8  O   UNL     1       3.997  -8.034  -6.114  1.00  0.00    -0.550 OA
ATOM      9  O   UNL     1       4.567  -9.367  -4.341  1.00  0.00    -0.550 OA
ENDBRANCH   6   7
ENDBRANCH   5   6
ENDBRANCH   4   5
ENDBRANCH   3   4
ENDBRANCH   2   3
ENDBRANCH   1   2
BRANCH   1  10
ATOM     10  C   UNL     1       7.772 -13.867  -2.398  1.00  0.00     0.000 C 
BRANCH  10  11
ATOM     11  C   UNL     1       7.329 -12.978  -1.225  1.00  0.00    -0.000 C 
BRANCH  11  12
ATOM     12  C   UNL     1       8.510 -12.465  -0.389  1.00  0.00    -0.000 C 
BRANCH  12  13
ATOM     13  C   UNL     1       8.379 -10.961  -0.119  1.00  0.00    -0.000 C 
BRANCH  13  14
ATOM     14  C   UNL     1       7.857 -10.222  -1.360  1.00  0.00    -0.000 C 
BRANCH  14  15
ATOM     15  C   UNL     1       6.675  -9.294  -1.040  1.00  0.00    -0.003 C 
ATOM     16  C   UNL     1       7.006  -8.265   0.040  1.00  0.00     0.004 C 
ENDBRANCH  14  15
ENDBRANCH  13  14
ENDBRANCH  12  13
ENDBRANCH  11  12
ENDBRANCH  10  11
ENDBRANCH   1  10
TORSDOF 12
ENDMDL
MODEL 3
REMARK VINA RESULT:    -5.047      3.347      5.988
REMARK INTER + INTRA:          -9.202
REMARK INTER:                  -8.012
REMARK INTRA:                  -1.191
REMARK UNBOUND:                -0.615
REMARK SMILES CCCCCCCCCCCCCC(=O)[O-]
REMARK SMILES IDX 8 1 9 2 10 3 11 4 12 5 13 6 14 7 15 8 16 9 7 10 6 11 5 12
REMARK SMILES IDX 4 13 3 14 2 15 1 16
REMARK H PARENT
REMARK Flexibility Score: inf
ROOT
ATOM      1  C   UNL     1       7.459 -12.855  -1.282  1.00  0.00     0.000 C 
ENDROOT
BRANCH   1   2
ATOM      2  C   UNL     1       8.701 -12.604  -0.406  1.00  0.00     0.000 C 
BRANCH   2   3
ATOM      3  C   UNL     1       8.988 -11.123  -0.086  1.00  0.00     0.000 C 
BRANCH   3   4
ATOM      4  C   UNL     1       7.821 -10.356   0.567  1.00  0.00     0.000 C 
BRANCH   4   5
ATOM      5  C   UNL     1       7.388  -9.074  -0.174  1.00  0.00     0.006 C 
BRANCH   5   6
ATOM      6  C   UNL     1       6.840  -9.315  -1.589  1.00  0.00     0.053 C 
BRANCH   6   7
ATOM      7  C   UNL     1       5.342  -9.299  -1.619  1.00  0.00     0.041 C 
ATOM      8  O   UNL     1       4.729  -9.434  -2.709  1.00  0.00    -0.550 OA
ATOM      9  O   UNL     1       4.626  -9.167  -0.437  1.00  0.00    -0.550 OA
ENDBRANCH   6   7
ENDBRANCH   5   6
ENDBRANCH   4   5
ENDBRANCH   3   4
ENDBRANCH   2   3
ENDBRANCH   1   2
BRANCH   1  10
ATOM     10  C   UNL     1       7.715 -13.879  -2.400  1.00  0.00     0.000 C 
BRANCH  10  11
ATOM     11  C   UNL     1       7.356 -13.334  -3.792  1.00  0.00    -0.000 C 
BRANCH  11  12
ATOM     12  C   UNL     1       6.050 -12.527  -3.796  1.00  0.00    -0.000 C 
BRANCH  12  13
ATOM     13  C   UNL     1       5.027 -13.142  -4.760  1.00  0.00    -0.000 C 
BRANCH  13  14
ATOM     14  C   UNL     1       3.711 -13.462  -4.035  1.00  0.00    -0.000 C 
BRANCH  14  15
ATOM     15  C   UNL     1       3.920 -13.796  -2.550  1.00  0.00    -0.003 C 
ATOM     16  C   UNL     1       3.173 -15.056  -2.117  1.00  0.00     0.004 C 
ENDBRANCH  14  15
ENDBRANCH  13  14
ENDBRANCH  12  13
ENDBRANCH  11  12
ENDBRANCH  10  11
ENDBRANCH   1  10
TORSDOF 12
ENDMDL
MODEL 4
REMARK VINA RESULT:    -5.038      1.474      1.822
REMARK INTER + INTRA:          -9.187
REMARK INTER:                  -8.093
REMARK INTRA:                  -1.093
REMARK UNBOUND:                -0.615
REMARK SMILES CCCCCCCCCCCCCC(=O)[O-]
REMARK SMILES IDX 8 1 9 2 10 3 11 4 12 5 13 6 14 7 15 8 16 9 7 10 6 11 5 12
REMARK SMILES IDX 4 13 3 14 2 15 1 16
REMARK H PARENT
REMARK Flexibility Score: inf
ROOT
ATOM      1  C   UNL     1       4.803 -13.253  -3.563  1.00  0.00     0.000 C 
ENDROOT
BRANCH   1   2
ATOM      2  C   UNL     1       3.996 -11.942  -3.529  1.00  0.00     0.000 C 
BRANCH   2   3
ATOM      3  C   UNL     1       4.674 -10.738  -4.212  1.00  0.00     0.000 C 
BRANCH   3   4
ATOM      4  C   UNL     1       3.851 -10.068  -5.330  1.00  0.00     0.000 C 
BRANCH   4   5
ATOM      5  C   UNL     1       4.558  -9.985  -6.698  1.00  0.00     0.006 C 
BRANCH   5   6
ATOM      6  C   UNL     1       3.709  -9.356  -7.813  1.00  0.00     0.053 C 
BRANCH   6   7
ATOM      7  C   UNL     1       3.108  -8.051  -7.391  1.00  0.00     0.041 C 
ATOM      8  O   UNL     1       3.848  -7.062  -7.145  1.00  0.00    -0.550 OA
ATOM      9  O   UNL     1       1.729  -7.918  -7.302  1.00  0.00    -0.550 OA
ENDBRANCH   6   7
ENDBRANCH   5   6
ENDBRANCH   4   5
ENDBRANCH   3   4
ENDBRANCH   2   3
ENDBRANCH   1   2
BRANCH   1  10
ATOM     10  C   UNL     1       6.082 -13.144  -4.410  1.00  0.00     0.000 C 
BRANCH  10  11
ATOM     11  C   UNL     1       7.357 -13.115  -3.552  1.00  0.00    -0.000 C 
BRANCH  11  12
ATOM     12  C   UNL     1       7.126 -13.635  -2.126  1.00  0.00    -0.000 C 
BRANCH  12  13
ATOM     13  C   UNL     1       7.774 -12.707  -1.091  1.00  0.00    -0.000 C 
BRANCH  13  14
ATOM     14  C   UNL     1       7.241 -11.273  -1.227  1.00  0.00    -0.000 C 
BRANCH  14  15
ATOM     15  C   UNL     1       8.076 -10.256  -0.434  1.00  0.00    -0.003 C 
ATOM     16  C   UNL     1       9.202 -10.909   0.365  1.00  0.00     0.004 C 
ENDBRANCH  14  15
ENDBRANCH  13  14
ENDBRANCH  12  13
ENDBRANCH  11  12
ENDBRANCH  10  11
ENDBRANCH   1  10
TORSDOF 12
ENDMDL
MODEL 5
REMARK VINA RESULT:    -5.022      4.640      6.205
REMARK INTER + INTRA:          -9.161
REMARK INTER:                  -7.754
REMARK INTRA:                  -1.407
REMARK UNBOUND:                -0.615
REMARK SMILES CCCCCCCCCCCCCC(=O)[O-]
REMARK SMILES IDX 8 1 9 2 10 3 11 4 12 5 13 6 14 7 15 8 16 9 7 10 6 11 5 12
REMARK SMILES IDX 4 13 3 14 2 15 1 16
REMARK H PARENT
REMARK Flexibility Score: inf
ROOT
ATOM      1  C   UNL     1       4.961 -12.102  -4.534  1.00  0.00     0.000 C 
ENDROOT
BRANCH   1   2
ATOM      2  C   UNL     1       4.231 -13.455  -4.441  1.00  0.00     0.000 C 
BRANCH   2   3
ATOM      3  C   UNL     1       3.254 -13.591  -3.256  1.00  0.00     0.000 C 
BRANCH   3   4
ATOM      4  C   UNL     1       3.766 -14.447  -2.079  1.00  0.00     0.000 C 
BRANCH   4   5
ATOM      5  C   UNL     1       3.832 -13.716  -0.723  1.00  0.00     0.006 C 
BRANCH   5   6
ATOM      6  C   UNL     1       2.954 -14.335   0.375  1.00  0.00     0.053 C 
BRANCH   6   7
ATOM      7  C   UNL     1       2.114 -13.306   1.067  1.00  0.00     0.041 C 
ATOM      8  O   UNL     1       2.150 -12.104   0.695  1.00  0.00    -0.550 OA
ATOM      9  O   UNL     1       1.268 -13.681   2.101  1.00  0.00    -0.550 OA
ENDBRANCH   6   7
ENDBRANCH   5   6
ENDBRANCH   4   5
ENDBRANCH   3   4
ENDBRANCH   2   3
ENDBRANCH   1   2
BRANCH   1  10
ATOM     10  C   UNL     1       6.168 -12.010  -3.585  1.00  0.00     0.000 C 
BRANCH  10  11
ATOM     11  C   UNL     1       7.142 -13.186  -3.754  1.00  0.00    -0.000 C 
BRANCH  11  12
ATOM     12  C   UNL     1       7.569 -13.802  -2.413  1.00  0.00    -0.000 C 
BRANCH  12  13
ATOM     13  C   UNL     1       7.353 -12.814  -1.261  1.00  0.00    -0.000 C 
BRANCH  13  14
ATOM     14  C   UNL     1       8.636 -12.646  -0.432  1.00  0.00    -0.000 C 
BRANCH  14  15
ATOM     15  C   UNL     1       8.799 -11.222   0.121  1.00  0.00    -0.003 C 
ATOM     16  C   UNL     1       7.850 -10.221  -0.534  1.00  0.00     0.004 C 
ENDBRANCH  14  15
ENDBRANCH  13  14
ENDBRANCH  12  13
ENDBRANCH  11  12
ENDBRANCH  10  11
ENDBRANCH   1  10
TORSDOF 12
ENDMDL
MODEL 6
REMARK VINA RESULT:    -5.016      4.745      6.079
REMARK INTER + INTRA:          -9.150
REMARK INTER:                  -7.703
REMARK INTRA:                  -1.447
REMARK UNBOUND:                -0.615
REMARK SMILES CCCCCCCCCCCCCC(=O)[O-]
REMARK SMILES IDX 8 1 9 2 10 3 11 4 12 5 13 6 14 7 15 8 16 9 7 10 6 11 5 12
REMARK SMILES IDX 4 13 3 14 2 15 1 16
REMARK H PARENT
REMARK Flexibility Score: inf
ROOT
ATOM      1  C   UNL     1       7.531 -13.727  -2.371  1.00  0.00     0.000 C 
ENDROOT
BRANCH   1   2
ATOM      2  C   UNL     1       7.238 -12.933  -3.658  1.00  0.00     0.000 C 
BRANCH   2   3
ATOM      3  C   UNL     1       5.762 -12.932  -4.104  1.00  0.00     0.000 C 
BRANCH   3   4
ATOM      4  C   UNL     1       4.787 -13.646  -3.147  1.00  0.00     0.000 C 
BRANCH   4   5
ATOM      5  C   UNL     1       3.880 -12.709  -2.323  1.00  0.00     0.006 C 
BRANCH   5   6
ATOM      6  C   UNL     1       3.973 -12.911  -0.803  1.00  0.00     0.053 C 
BRANCH   6   7
ATOM      7  C   UNL     1       2.993 -13.931  -0.312  1.00  0.00     0.041 C 
ATOM      8  O   UNL     1       3.066 -14.364   0.867  1.00  0.00    -0.550 OA
ATOM      9  O   UNL     1       1.978 -14.377  -1.149  1.00  0.00    -0.550 OA
ENDBRANCH   6   7
ENDBRANCH   5   6
ENDBRANCH   4   5
ENDBRANCH   3   4
ENDBRANCH   2   3
ENDBRANCH   1   2
BRANCH   1  10
ATOM     10  C   UNL     1       7.459 -12.858  -1.104  1.00  0.00     0.000 C 
BRANCH  10  11
ATOM     11  C   UNL     1       8.827 -12.691  -0.425  1.00  0.00    -0.000 C 
BRANCH  11  12
ATOM     12  C   UNL     1       9.179 -11.223  -0.146  1.00  0.00    -0.000 C 
BRANCH  12  13
ATOM     13  C   UNL     1       8.074 -10.539   0.668  1.00  0.00    -0.000 C 
BRANCH  13  14
ATOM     14  C   UNL     1       7.507  -9.324  -0.083  1.00  0.00    -0.000 C 
BRANCH  14  15
ATOM     15  C   UNL     1       6.059  -9.541  -0.547  1.00  0.00    -0.003 C 
ATOM     16  C   UNL     1       5.937  -9.674  -2.064  1.00  0.00     0.004 C 
ENDBRANCH  14  15
ENDBRANCH  13  14
ENDBRANCH  12  13
ENDBRANCH  11  12
ENDBRANCH  10  11
ENDBRANCH   1  10
TORSDOF 12
ENDMDL
MODEL 7
REMARK VINA RESULT:    -5.007      2.164      3.848
REMARK INTER + INTRA:          -9.135
REMARK INTER:                  -7.583
REMARK INTRA:                  -1.552
REMARK UNBOUND:                -0.615
REMARK SMILES CCCCCCCCCCCCCC(=O)[O-]
REMARK SMILES IDX 8 1 9 2 10 3 11 4 12 5 13 6 14 7 15 8 16 9 7 10 6 11 5 12
REMARK SMILES IDX 4 13 3 14 2 15 1 16
REMARK H PARENT
REMARK Flexibility Score: inf
ROOT
ATOM      1  C   UNL     1       7.253 -13.400  -1.918  1.00  0.00     0.000 C 
ENDROOT
BRANCH   1   2
ATOM      2  C   UNL     1       7.245 -12.519  -3.181  1.00  0.00     0.000 C 
BRANCH   2   3
ATOM      3  C   UNL     1       6.818 -13.237  -4.477  1.00  0.00     0.000 C 
BRANCH   3   4
ATOM      4  C   UNL     1       5.334 -13.071  -4.861  1.00  0.00     0.000 C 
BRANCH   4   5
ATOM      5  C   UNL     1       4.789 -11.632  -4.748  1.00  0.00     0.006 C 
BRANCH   5   6
ATOM      6  C   UNL     1       3.492 -11.382  -5.532  1.00  0.00     0.053 C 
BRANCH   6   7
ATOM      7  C   UNL     1       3.707 -10.456  -6.689  1.00  0.00     0.041 C 
ATOM      8  O   UNL     1       4.871 -10.100  -7.009  1.00  0.00    -0.550 OA
ATOM      9  O   UNL     1       2.622 -10.013  -7.434  1.00  0.00    -0.550 OA
ENDBRANCH   6   7
ENDBRANCH   5   6
ENDBRANCH   4   5
ENDBRANCH   3   4
ENDBRANCH   2   3
ENDBRANCH   1   2
BRANCH   1  10
ATOM     10  C   UNL     1       8.072 -12.787  -0.769  1.00  0.00     0.000 C 
BRANCH  10  11
ATOM     11  C   UNL     1       8.364 -11.294  -0.984  1.00  0.00    -0.000 C 
BRANCH  11  12
ATOM     12  C   UNL     1       8.127 -10.453   0.279  1.00  0.00    -0.000 C 
BRANCH  12  13
ATOM     13  C   UNL     1       7.142  -9.310   0.002  1.00  0.00    -0.000 C 
BRANCH  13  14
ATOM     14  C   UNL     1       6.666  -9.336  -1.458  1.00  0.00    -0.000 C 
BRANCH  14  15
ATOM     15  C   UNL     1       5.145  -9.521  -1.580  1.00  0.00    -0.003 C 
ATOM     16  C   UNL     1       4.656 -10.824  -0.950  1.00  0.00     0.004 C 
ENDBRANCH  14  15
ENDBRANCH  13  14
ENDBRANCH  12  13
ENDBRANCH  11  12
ENDBRANCH  10  11
ENDBRANCH   1  10
TORSDOF 12
ENDMDL
MODEL 8
REMARK VINA RESULT:    -4.991      5.129      6.441
REMARK INTER + INTRA:          -9.107
REMARK INTER:                  -7.985
REMARK INTRA:                  -1.122
REMARK UNBOUND:                -0.615
REMARK SMILES CCCCCCCCCCCCCC(=O)[O-]
REMARK SMILES IDX 8 1 9 2 10 3 11 4 12 5 13 6 14 7 15 8 16 9 7 10 6 11 5 12
REMARK SMILES IDX 4 13 3 14 2 15 1 16
REMARK H PARENT
REMARK Flexibility Score: inf
ROOT
ATOM      1  C   UNL     1       6.163 -12.324  -4.210  1.00  0.00     0.000 C 
ENDROOT
BRANCH   1   2
ATOM      2  C   UNL     1       5.064 -12.801  -5.177  1.00  0.00     0.000 C 
BRANCH   2   3
ATOM      3  C   UNL     1       3.929 -13.617  -4.526  1.00  0.00     0.000 C 
BRANCH   3   4
ATOM      4  C   UNL     1       3.689 -13.329  -3.030  1.00  0.00     0.000 C 
BRANCH   4   5
ATOM      5  C   UNL     1       3.586 -14.580  -2.134  1.00  0.00     0.006 C 
BRANCH   5   6
ATOM      6  C   UNL     1       2.254 -15.337  -2.253  1.00  0.00     0.053 C 
BRANCH   6   7
ATOM      7  C   UNL     1       1.925 -16.091  -1.002  1.00  0.00     0.041 C 
ATOM      8  O   UNL     1       1.889 -15.496   0.106  1.00  0.00    -0.550 OA
ATOM      9  O   UNL     1       1.626 -17.446  -1.067  1.00  0.00    -0.550 OA
ENDBRANCH   6   7
ENDBRANCH   5   6
ENDBRANCH   4   5
ENDBRANCH   3   4
ENDBRANCH   2   3
ENDBRANCH   1   2
BRANCH   1  10
ATOM     10  C   UNL     1       7.300 -13.347  -4.047  1.00  0.00     0.000 C 
BRANCH  10  11
ATOM     11  C   UNL     1       7.523 -13.753  -2.582  1.00  0.00    -0.000 C 
BRANCH  11  12
ATOM     12  C   UNL     1       7.199 -12.621  -1.596  1.00  0.00    -0.000 C 
BRANCH  12  13
ATOM     13  C   UNL     1       8.298 -12.486  -0.534  1.00  0.00    -0.000 C 
BRANCH  13  14
ATOM     14  C   UNL     1       8.394 -11.041  -0.022  1.00  0.00    -0.000 C 
BRANCH  14  15
ATOM     15  C   UNL     1       7.499 -10.074  -0.811  1.00  0.00    -0.003 C 
ATOM     16  C   UNL     1       7.228  -8.772  -0.059  1.00  0.00     0.004 C 
ENDBRANCH  14  15
ENDBRANCH  13  14
ENDBRANCH  12  13
ENDBRANCH  11  12
ENDBRANCH  10  11
ENDBRANCH   1  10
TORSDOF 12
ENDMDL
MODEL 9
REMARK VINA RESULT:    -4.899      3.703      7.433
REMARK INTER + INTRA:          -8.951
REMARK INTER:                  -7.623
REMARK INTRA:                  -1.328
REMARK UNBOUND:                -0.615
REMARK SMILES CCCCCCCCCCCCCC(=O)[O-]
REMARK SMILES IDX 8 1 9 2 10 3 11 4 12 5 13 6 14 7 15 8 16 9 7 10 6 11 5 12
REMARK SMILES IDX 4 13 3 14 2 15 1 16
REMARK H PARENT
REMARK Flexibility Score: inf
ROOT
ATOM      1  C   UNL     1       3.012 -10.037  -5.777  1.00  0.00     0.000 C 
ENDROOT
BRANCH   1   2
ATOM      2  C   UNL     1       4.477 -10.469  -5.579  1.00  0.00     0.000 C 
BRANCH   2   3
ATOM      3  C   UNL     1       4.822 -11.874  -6.111  1.00  0.00     0.000 C 
BRANCH   3   4
ATOM      4  C   UNL     1       4.926 -12.976  -5.037  1.00  0.00     0.000 C 
BRANCH   4   5
ATOM      5  C   UNL     1       6.362 -13.321  -4.594  1.00  0.00     0.006 C 
BRANCH   5   6
ATOM      6  C   UNL     1       6.927 -12.402  -3.501  1.00  0.00     0.053 C 
BRANCH   6   7
ATOM      7  C   UNL     1       7.050 -13.107  -2.185  1.00  0.00     0.041 C 
ATOM      8  O   UNL     1       7.853 -14.067  -2.053  1.00  0.00    -0.550 OA
ATOM      9  O   UNL     1       6.300 -12.682  -1.097  1.00  0.00    -0.550 OA
ENDBRANCH   6   7
ENDBRANCH   5   6
ENDBRANCH   4   5
ENDBRANCH   3   4
ENDBRANCH   2   3
ENDBRANCH   1   2
BRANCH   1  10
ATOM     10  C   UNL     1       2.515 -10.257  -7.216  1.00  0.00     0.000 C 
BRANCH  10  11
ATOM     11  C   UNL     1       1.959  -8.973  -7.851  1.00  0.00    -0.000 C 
BRANCH  11  12
ATOM     12  C   UNL     1       2.713  -8.565  -9.125  1.00  0.00    -0.000 C 
BRANCH  12  13
ATOM     13  C   UNL     1       4.217  -8.827  -8.981  1.00  0.00    -0.000 C 
BRANCH  13  14
ATOM     14  C   UNL     1       4.985  -7.517  -8.749  1.00  0.00    -0.000 C 
BRANCH  14  15
ATOM     15  C   UNL     1       5.368  -7.310  -7.276  1.00  0.00    -0.003 C 
ATOM     16  C   UNL     1       4.387  -6.406  -6.531  1.00  0.00     0.004 C 
ENDBRANCH  14  15
ENDBRANCH  13  14
ENDBRANCH  12  13
ENDBRANCH  11  12
ENDBRANCH  10  11
ENDBRANCH   1  10
TORSDOF 12
ENDMDL
