MODEL 1
REMARK VINA RESULT:    -4.444      0.000      0.000
REMARK INTER + INTRA:          -9.325
REMARK INTER:                  -7.561
REMARK INTRA:                  -1.764
REMARK UNBOUND:                -1.764
REMARK SMILES CCCCCCCCCCCCCC(=O)[O-]
REMARK SMILES IDX 8 1 9 2 10 3 11 4 12 5 13 6 14 7 15 8 16 9 7 10 6 11 5 12
REMARK SMILES IDX 4 13 3 14 2 15 1 16
REMARK H PARENT
REMARK Flexibility Score: inf
ROOT
ATOM      1  C   UNL     1      41.252  61.137   8.238  1.00  0.00     0.000 C 
ENDROOT
BRANCH   1   2
ATOM      2  C   UNL     1      40.207  62.265   8.289  1.00  0.00     0.000 C 
BRANCH   2   3
ATOM      3  C   UNL     1      40.803  63.616   8.721  1.00  0.00     0.000 C 
BRANCH   3   4
ATOM      4  C   UNL     1      40.538  64.789   7.760  1.00  0.00     0.000 C 
BRANCH   4   5
ATOM      5  C   UNL     1      39.176  64.689   7.051  1.00  0.00     0.006 C 
BRANCH   5   6
ATOM      6  C   UNL     1      39.099  65.591   5.812  1.00  0.00     0.053 C 
BRANCH   6   7
ATOM      7  C   UNL     1      37.868  66.446   5.819  1.00  0.00     0.041 C 
ATOM      8  O   UNL     1      37.048  66.367   6.771  1.00  0.00    -0.550 OA
ATOM      9  O   UNL     1      37.612  67.308   4.761  1.00  0.00    -0.550 OA
ENDBRANCH   6   7
ENDBRANCH   5   6
ENDBRANCH   4   5
ENDBRANCH   3   4
ENDBRANCH   2   3
ENDBRANCH   1   2
BRANCH   1  10
ATOM     10  C   UNL     1      40.860  60.017   7.261  1.00  0.00     0.000 C 
BRANCH  10  11
ATOM     11  C   UNL     1      40.061  60.536   6.052  1.00  0.00    -0.000 C 
BRANCH  11  12
ATOM     12  C   UNL     1      40.797  60.325   4.716  1.00  0.00    -0.000 C 
BRANCH  12  13
ATOM     13  C   UNL     1      40.936  61.589   3.848  1.00  0.00    -0.000 C 
BRANCH  13  14
ATOM     14  C   UNL     1      41.202  62.858   4.678  1.00  0.00    -0.000 C 
BRANCH  14  15
ATOM     15  C   UNL     1      42.671  62.980   5.110  1.00  0.00    -0.003 C 
ATOM     16  C   UNL     1      43.192  64.415   5.023  1.00  0.00     0.004 C 
ENDBRANCH  14  15
ENDBRANCH  13  14
ENDBRANCH  12  13
ENDBRANCH  11  12
ENDBRANCH  10  11
ENDBRANCH   1  10
TORSDOF 12
ENDMDL
MODEL 2
REMARK VINA RESULT:    -4.400      3.297      5.410
REMARK INTER + INTRA:          -9.250
REMARK INTER:                  -8.510
REMARK INTRA:                  -0.741
REMARK UNBOUND:                -1.764
REMARK SMILES CCCCCCCCCCCCCC(=O)[O-]
REMARK SMILES IDX 8 1 9 2 10 3 11 4 12 5 13 6 14 7 15 8 16 9 7 10 6 11 5 12
REMARK SMILES IDX 4 13 3 14 2 15 1 16
REMARK H PARENT
REMARK Flexibility Score: inf
ROOT
ATOM      1  C   UNL     1      42.983  66.468   5.797  1.00  0.00     0.000 C 
ENDROOT
BRANCH   1   2
ATOM      2  C   UNL     1      42.657  66.038   7.238  1.00  0.00     0.000 C 
BRANCH   2   3
ATOM      3  C   UNL     1      41.755  64.793   7.303  1.00  0.00     0.000 C 
BRANCH   3   4
ATOM      4  C   UNL     1      40.258  65.077   7.526  1.00  0.00     0.000 C 
BRANCH   4   5
ATOM      5  C   UNL     1      39.479  65.259   6.212  1.00  0.00     0.006 C 
BRANCH   5   6
ATOM      6  C   UNL     1      38.051  65.767   6.451  1.00  0.00     0.053 C 
BRANCH   6   7
ATOM      7  C   UNL     1      37.689  66.878   5.513  1.00  0.00     0.041 C 
ATOM      8  O   UNL     1      36.995  67.847   5.919  1.00  0.00    -0.550 OA
ATOM      9  O   UNL     1      38.093  66.830   4.186  1.00  0.00    -0.550 OA
ENDBRANCH   6   7
ENDBRANCH   5   6
ENDBRANCH   4   5
ENDBRANCH   3   4
ENDBRANCH   2   3
ENDBRANCH   1   2
BRANCH   1  10
ATOM     10  C   UNL     1      43.786  65.403   5.034  1.00  0.00     0.000 C 
BRANCH  10  11
ATOM     11  C   UNL     1      44.850  66.015   4.104  1.00  0.00    -0.000 C 
BRANCH  11  12
ATOM     12  C   UNL     1      45.019  67.532   4.307  1.00  0.00    -0.000 C 
BRANCH  12  13
ATOM     13  C   UNL     1      45.872  68.236   3.237  1.00  0.00    -0.000 C 
BRANCH  13  14
ATOM     14  C   UNL     1      45.468  69.706   3.022  1.00  0.00    -0.000 C 
BRANCH  14  15
ATOM     15  C   UNL     1      44.012  69.855   2.558  1.00  0.00    -0.003 C 
ATOM     16  C   UNL     1      43.737  69.129   1.242  1.00  0.00     0.004 C 
ENDBRANCH  14  15
ENDBRANCH  13  14
ENDBRANCH  12  13
ENDBRANCH  11  12
ENDBRANCH  10  11
ENDBRANCH   1  10
TORSDOF 12
ENDMDL
MODEL 3
REMARK VINA RESULT:    -4.346      3.890      5.780
REMARK INTER + INTRA:          -9.160
REMARK INTER:                  -7.865
REMARK INTRA:                  -1.295
REMARK UNBOUND:                -1.764
REMARK SMILES CCCCCCCCCCCCCC(=O)[O-]
REMARK SMILES IDX 8 1 9 2 10 3 11 4 12 5 13 6 14 7 15 8 16 9 7 10 6 11 5 12
REMARK SMILES IDX 4 13 3 14 2 15 1 16
REMARK H PARENT
REMARK Flexibility Score: inf
ROOT
ATOM      1  C   UNL     1      39.385  63.533   8.546  1.00  0.00     0.000 C 
ENDROOT
BRANCH   1   2
ATOM      2  C   UNL     1      40.880  63.184   8.647  1.00  0.00     0.000 C 
BRANCH   2   3
ATOM      3  C   UNL     1      41.164  61.689   8.413  1.00  0.00     0.000 C 
BRANCH   3   4
ATOM      4  C   UNL     1      39.934  60.835   8.054  1.00  0.00     0.000 C 
BRANCH   4   5
ATOM      5  C   UNL     1      40.141  59.337   8.334  1.00  0.00     0.006 C 
BRANCH   5   6
ATOM      6  C   UNL     1      39.920  58.477   7.082  1.00  0.00     0.053 C 
BRANCH   6   7
ATOM      7  C   UNL     1      41.136  57.673   6.735  1.00  0.00     0.041 C 
ATOM      8  O   UNL     1      41.547  56.778   7.518  1.00  0.00    -0.550 OA
ATOM      9  O   UNL     1      41.831  57.932   5.561  1.00  0.00    -0.550 OA
ENDBRANCH   6   7
ENDBRANCH   5   6
ENDBRANCH   4   5
ENDBRANCH   3   4
ENDBRANCH   2   3
ENDBRANCH   1   2
BRANCH   1  10
ATOM     10  C   UNL     1      39.149  64.988   8.110  1.00  0.00     0.000 C 
BRANCH  10  11
ATOM     11  C   UNL     1      38.663  65.101   6.654  1.00  0.00    -0.000 C 
BRANCH  11  12
ATOM     12  C   UNL     1      39.790  65.484   5.677  1.00  0.00    -0.000 C 
BRANCH  12  13
ATOM     13  C   UNL     1      40.664  64.308   5.205  1.00  0.00    -0.000 C 
BRANCH  13  14
ATOM     14  C   UNL     1      42.151  64.490   5.555  1.00  0.00    -0.000 C 
BRANCH  14  15
ATOM     15  C   UNL     1      42.488  65.932   5.964  1.00  0.00    -0.003 C 
ATOM     16  C   UNL     1      42.754  66.072   7.462  1.00  0.00     0.004 C 
ENDBRANCH  14  15
ENDBRANCH  13  14
ENDBRANCH  12  13
ENDBRANCH  11  12
ENDBRANCH  10  11
ENDBRANCH   1  10
TORSDOF 12
ENDMDL
MODEL 4
REMARK VINA RESULT:    -4.276      2.303      3.970
REMARK INTER + INTRA:          -9.040
REMARK INTER:                  -7.205
REMARK INTRA:                  -1.835
REMARK UNBOUND:                -1.764
REMARK SMILES CCCCCCCCCCCCCC(=O)[O-]
REMARK SMILES IDX 8 1 9 2 10 3 11 4 12 5 13 6 14 7 15 8 16 9 7 10 6 11 5 12
REMARK SMILES IDX 4 13 3 14 2 15 1 16
REMARK H PARENT
REMARK Flexibility Score: inf
ROOT
ATOM      1  C   UNL     1      41.844  61.281   6.967  1.00  0.00     0.000 C 
ENDROOT
BRANCH   1   2
ATOM      2  C   UNL     1      41.241  61.491   8.367  1.00  0.00     0.000 C 
BRANCH   2   3
ATOM      3  C   UNL     1      39.840  62.126   8.327  1.00  0.00     0.000 C 
BRANCH   3   4
ATOM      4  C   UNL     1      39.735  63.526   8.961  1.00  0.00     0.000 C 
BRANCH   4   5
ATOM      5  C   UNL     1      39.882  64.662   7.934  1.00  0.00     0.006 C 
BRANCH   5   6
ATOM      6  C   UNL     1      41.351  64.965   7.611  1.00  0.00     0.053 C 
BRANCH   6   7
ATOM      7  C   UNL     1      41.584  65.090   6.135  1.00  0.00     0.041 C 
ATOM      8  O   UNL     1      42.671  65.556   5.704  1.00  0.00    -0.550 OA
ATOM      9  O   UNL     1      40.591  64.718   5.239  1.00  0.00    -0.550 OA
ENDBRANCH   6   7
ENDBRANCH   5   6
ENDBRANCH   4   5
ENDBRANCH   3   4
ENDBRANCH   2   3
ENDBRANCH   1   2
BRANCH   1  10
ATOM     10  C   UNL     1      40.778  61.302   5.859  1.00  0.00     0.000 C 
BRANCH  10  11
ATOM     11  C   UNL     1      40.549  59.916   5.230  1.00  0.00    -0.000 C 
BRANCH  11  12
ATOM     12  C   UNL     1      39.280  59.223   5.760  1.00  0.00    -0.000 C 
BRANCH  12  13
ATOM     13  C   UNL     1      39.536  57.956   6.595  1.00  0.00    -0.000 C 
BRANCH  13  14
ATOM     14  C   UNL     1      39.643  58.244   8.103  1.00  0.00    -0.000 C 
BRANCH  14  15
ATOM     15  C   UNL     1      40.879  57.591   8.741  1.00  0.00    -0.003 C 
ATOM     16  C   UNL     1      42.141  57.772   7.898  1.00  0.00     0.004 C 
ENDBRANCH  14  15
ENDBRANCH  13  14
ENDBRANCH  12  13
ENDBRANCH  11  12
ENDBRANCH  10  11
ENDBRANCH   1  10
TORSDOF 12
ENDMDL
MODEL 5
REMARK VINA RESULT:    -4.260      2.065      3.334
REMARK INTER + INTRA:          -9.013
REMARK INTER:                  -7.677
REMARK INTRA:                  -1.335
REMARK UNBOUND:                -1.764
REMARK SMILES CCCCCCCCCCCCCC(=O)[O-]
REMARK SMILES IDX 8 1 9 2 10 3 11 4 12 5 13 6 14 7 15 8 16 9 7 10 6 11 5 12
REMARK SMILES IDX 4 13 3 14 2 15 1 16
REMARK H PARENT
REMARK Flexibility Score: inf
ROOT
ATOM      1  C   UNL     1      41.666  61.052   7.387  1.00  0.00     0.000 C 
ENDROOT
BRANCH   1   2
ATOM      2  C   UNL     1      40.568  61.468   8.381  1.00  0.00     0.000 C 
BRANCH   2   3
ATOM      3  C   UNL     1      39.709  62.638   7.870  1.00  0.00     0.000 C 
BRANCH   3   4
ATOM      4  C   UNL     1      39.687  63.883   8.776  1.00  0.00     0.000 C 
BRANCH   4   5
ATOM      5  C   UNL     1      38.840  65.031   8.200  1.00  0.00     0.006 C 
BRANCH   5   6
ATOM      6  C   UNL     1      38.913  65.093   6.669  1.00  0.00     0.053 C 
BRANCH   6   7
ATOM      7  C   UNL     1      38.010  66.150   6.109  1.00  0.00     0.041 C 
ATOM      8  O   UNL     1      38.286  66.700   5.010  1.00  0.00    -0.550 OA
ATOM      9  O   UNL     1      36.882  66.549   6.813  1.00  0.00    -0.550 OA
ENDBRANCH   6   7
ENDBRANCH   5   6
ENDBRANCH   4   5
ENDBRANCH   3   4
ENDBRANCH   2   3
ENDBRANCH   1   2
BRANCH   1  10
ATOM     10  C   UNL     1      42.537  59.903   7.921  1.00  0.00     0.000 C 
BRANCH  10  11
ATOM     11  C   UNL     1      41.806  58.549   7.912  1.00  0.00    -0.000 C 
BRANCH  11  12
ATOM     12  C   UNL     1      41.587  57.999   6.490  1.00  0.00    -0.000 C 
BRANCH  12  13
ATOM     13  C   UNL     1      40.116  57.749   6.114  1.00  0.00    -0.000 C 
BRANCH  13  14
ATOM     14  C   UNL     1      39.473  58.945   5.388  1.00  0.00    -0.000 C 
BRANCH  14  15
ATOM     15  C   UNL     1      38.319  59.568   6.189  1.00  0.00    -0.003 C 
ATOM     16  C   UNL     1      38.040  58.824   7.494  1.00  0.00     0.004 C 
ENDBRANCH  14  15
ENDBRANCH  13  14
ENDBRANCH  12  13
ENDBRANCH  11  12
ENDBRANCH  10  11
ENDBRANCH   1  10
TORSDOF 12
ENDMDL
MODEL 6
REMARK VINA RESULT:    -4.218      4.290      6.378
REMARK INTER + INTRA:          -8.941
REMARK INTER:                  -7.673
REMARK INTRA:                  -1.268
REMARK UNBOUND:                -1.764
REMARK SMILES CCCCCCCCCCCCCC(=O)[O-]
REMARK SMILES IDX 8 1 9 2 10 3 11 4 12 5 13 6 14 7 15 8 16 9 7 10 6 11 5 12
REMARK SMILES IDX 4 13 3 14 2 15 1 16
REMARK H PARENT
REMARK Flexibility Score: inf
ROOT
ATOM      1  C   UNL     1      40.092  62.319   8.466  1.00  0.00     0.000 C 
ENDROOT
BRANCH   1   2
ATOM      2  C   UNL     1      41.339  61.505   8.079  1.00  0.00     0.000 C 
BRANCH   2   3
ATOM      3  C   UNL     1      40.996  60.193   7.350  1.00  0.00     0.000 C 
BRANCH   3   4
ATOM      4  C   UNL     1      40.163  59.187   8.166  1.00  0.00     0.000 C 
BRANCH   4   5
ATOM      5  C   UNL     1      40.989  57.990   8.668  1.00  0.00     0.006 C 
BRANCH   5   6
ATOM      6  C   UNL     1      42.423  58.006   8.122  1.00  0.00     0.053 C 
BRANCH   6   7
ATOM      7  C   UNL     1      42.623  56.980   7.048  1.00  0.00     0.041 C 
ATOM      8  O   UNL     1      42.104  55.839   7.159  1.00  0.00    -0.550 OA
ATOM      9  O   UNL     1      43.407  57.275   5.940  1.00  0.00    -0.550 OA
ENDBRANCH   6   7
ENDBRANCH   5   6
ENDBRANCH   4   5
ENDBRANCH   3   4
ENDBRANCH   2   3
ENDBRANCH   1   2
BRANCH   1  10
ATOM     10  C   UNL     1      40.424  63.785   8.786  1.00  0.00     0.000 C 
BRANCH  10  11
ATOM     11  C   UNL     1      39.324  64.758   8.325  1.00  0.00    -0.000 C 
BRANCH  11  12
ATOM     12  C   UNL     1      39.028  64.652   6.817  1.00  0.00    -0.000 C 
BRANCH  12  13
ATOM     13  C   UNL     1      40.151  65.167   5.900  1.00  0.00    -0.000 C 
BRANCH  13  14
ATOM     14  C   UNL     1      40.865  64.038   5.136  1.00  0.00    -0.000 C 
BRANCH  14  15
ATOM     15  C   UNL     1      42.373  63.994   5.423  1.00  0.00    -0.003 C 
ATOM     16  C   UNL     1      43.011  62.666   5.016  1.00  0.00     0.004 C 
ENDBRANCH  14  15
ENDBRANCH  13  14
ENDBRANCH  12  13
ENDBRANCH  11  12
ENDBRANCH  10  11
ENDBRANCH   1  10
TORSDOF 12
ENDMDL
MODEL 7
REMARK VINA RESULT:    -4.197      3.379      5.230
REMARK INTER + INTRA:          -8.906
REMARK INTER:                  -7.327
REMARK INTRA:                  -1.579
REMARK UNBOUND:                -1.764
REMARK SMILES CCCCCCCCCCCCCC(=O)[O-]
REMARK SMILES IDX 8 1 9 2 10 3 11 4 12 5 13 6 14 7 15 8 16 9 7 10 6 11 5 12
REMARK SMILES IDX 4 13 3 14 2 15 1 16
REMARK H PARENT
REMARK Flexibility Score: inf
ROOT
ATOM      1  C   UNL     1      39.012  65.091   8.164  1.00  0.00     0.000 C 
ENDROOT
BRANCH   1   2
ATOM      2  C   UNL     1      39.406  63.743   8.792  1.00  0.00     0.000 C 
BRANCH   2   3
ATOM      3  C   UNL     1      40.921  63.476   8.736  1.00  0.00     0.000 C 
BRANCH   3   4
ATOM      4  C   UNL     1      41.323  62.075   8.237  1.00  0.00     0.000 C 
BRANCH   4   5
ATOM      5  C   UNL     1      40.114  61.204   7.856  1.00  0.00     0.006 C 
BRANCH   5   6
ATOM      6  C   UNL     1      40.226  59.780   8.417  1.00  0.00     0.053 C 
BRANCH   6   7
ATOM      7  C   UNL     1      41.111  58.915   7.572  1.00  0.00     0.041 C 
ATOM      8  O   UNL     1      41.721  57.940   8.086  1.00  0.00    -0.550 OA
ATOM      9  O   UNL     1      41.285  59.201   6.225  1.00  0.00    -0.550 OA
ENDBRANCH   6   7
ENDBRANCH   5   6
ENDBRANCH   4   5
ENDBRANCH   3   4
ENDBRANCH   2   3
ENDBRANCH   1   2
BRANCH   1  10
ATOM     10  C   UNL     1      38.609  64.955   6.687  1.00  0.00     0.000 C 
BRANCH  10  11
ATOM     11  C   UNL     1      39.663  65.535   5.727  1.00  0.00    -0.000 C 
BRANCH  11  12
ATOM     12  C   UNL     1      40.756  64.516   5.356  1.00  0.00    -0.000 C 
BRANCH  12  13
ATOM     13  C   UNL     1      42.198  64.997   5.601  1.00  0.00    -0.000 C 
BRANCH  13  14
ATOM     14  C   UNL     1      43.256  64.007   5.080  1.00  0.00    -0.000 C 
BRANCH  14  15
ATOM     15  C   UNL     1      42.710  62.577   4.952  1.00  0.00    -0.003 C 
ATOM     16  C   UNL     1      43.794  61.516   5.141  1.00  0.00     0.004 C 
ENDBRANCH  14  15
ENDBRANCH  13  14
ENDBRANCH  12  13
ENDBRANCH  11  12
ENDBRANCH  10  11
ENDBRANCH   1  10
TORSDOF 12
ENDMDL
MODEL 8
REMARK VINA RESULT:    -4.183      3.649      5.329
REMARK INTER + INTRA:          -8.881
REMARK INTER:                  -6.845
REMARK INTRA:                  -2.035
REMARK UNBOUND:                -1.764
REMARK SMILES CCCCCCCCCCCCCC(=O)[O-]
REMARK SMILES IDX 8 1 9 2 10 3 11 4 12 5 13 6 14 7 15 8 16 9 7 10 6 11 5 12
REMARK SMILES IDX 4 13 3 14 2 15 1 16
REMARK H PARENT
REMARK Flexibility Score: inf
ROOT
ATOM      1  C   UNL     1      40.103  62.913   8.738  1.00  0.00     0.000 C 
ENDROOT
BRANCH   1   2
ATOM      2  C   UNL     1      41.228  61.929   8.372  1.00  0.00     0.000 C 
BRANCH   2   3
ATOM      3  C   UNL     1      40.722  60.490   8.168  1.00  0.00     0.000 C 
BRANCH   3   4
ATOM      4  C   UNL     1      39.268  60.367   7.676  1.00  0.00     0.000 C 
BRANCH   4   5
ATOM      5  C   UNL     1      39.154  60.343   6.142  1.00  0.00     0.006 C 
BRANCH   5   6
ATOM      6  C   UNL     1      40.151  59.368   5.501  1.00  0.00     0.053 C 
BRANCH   6   7
ATOM      7  C   UNL     1      39.722  57.941   5.668  1.00  0.00     0.041 C 
ATOM      8  O   UNL     1      38.576  57.578   5.297  1.00  0.00    -0.550 OA
ATOM      9  O   UNL     1      40.577  57.021   6.260  1.00  0.00    -0.550 OA
ENDBRANCH   6   7
ENDBRANCH   5   6
ENDBRANCH   4   5
ENDBRANCH   3   4
ENDBRANCH   2   3
ENDBRANCH   1   2
BRANCH   1  10
ATOM     10  C   UNL     1      40.084  64.150   7.826  1.00  0.00     0.000 C 
BRANCH  10  11
ATOM     11  C   UNL     1      41.479  64.772   7.638  1.00  0.00    -0.000 C 
BRANCH  11  12
ATOM     12  C   UNL     1      41.942  64.767   6.170  1.00  0.00    -0.000 C 
BRANCH  12  13
ATOM     13  C   UNL     1      41.025  63.992   5.206  1.00  0.00    -0.000 C 
BRANCH  13  14
ATOM     14  C   UNL     1      41.663  62.689   4.691  1.00  0.00    -0.000 C 
BRANCH  14  15
ATOM     15  C   UNL     1      43.127  62.537   5.131  1.00  0.00    -0.003 C 
ATOM     16  C   UNL     1      43.452  61.124   5.614  1.00  0.00     0.004 C 
ENDBRANCH  14  15
ENDBRANCH  13  14
ENDBRANCH  12  13
ENDBRANCH  11  12
ENDBRANCH  10  11
ENDBRANCH   1  10
TORSDOF 12
ENDMDL
MODEL 9
REMARK VINA RESULT:    -4.178     12.921     14.196
REMARK INTER + INTRA:          -8.873
REMARK INTER:                  -6.884
REMARK INTRA:                  -1.988
REMARK UNBOUND:                -1.764
REMARK SMILES CCCCCCCCCCCCCC(=O)[O-]
REMARK SMILES IDX 8 1 9 2 10 3 11 4 12 5 13 6 14 7 15 8 16 9 7 10 6 11 5 12
REMARK SMILES IDX 4 13 3 14 2 15 1 16
REMARK H PARENT
REMARK Flexibility Score: inf
ROOT
ATOM      1  C   UNL     1      26.227  56.765   1.362  1.00  0.00     0.000 C 
ENDROOT
BRANCH   1   2
ATOM      2  C   UNL     1      27.164  55.573   1.623  1.00  0.00     0.000 C 
BRANCH   2   3
ATOM      3  C   UNL     1      28.421  55.961   2.422  1.00  0.00     0.000 C 
BRANCH   3   4
ATOM      4  C   UNL     1      29.618  56.433   1.576  1.00  0.00     0.000 C 
BRANCH   4   5
ATOM      5  C   UNL     1      30.235  57.746   2.087  1.00  0.00     0.006 C 
BRANCH   5   6
ATOM      6  C   UNL     1      29.169  58.808   2.389  1.00  0.00     0.053 C 
BRANCH   6   7
ATOM      7  C   UNL     1      29.292  59.343   3.784  1.00  0.00     0.041 C 
ATOM      8  O   UNL     1      28.986  60.539   4.032  1.00  0.00    -0.550 OA
ATOM      9  O   UNL     1      29.771  58.530   4.803  1.00  0.00    -0.550 OA
ENDBRANCH   6   7
ENDBRANCH   5   6
ENDBRANCH   4   5
ENDBRANCH   3   4
ENDBRANCH   2   3
ENDBRANCH   1   2
BRANCH   1  10
ATOM     10  C   UNL     1      26.176  57.157  -0.123  1.00  0.00     0.000 C 
BRANCH  10  11
ATOM     11  C   UNL     1      26.915  56.156  -1.029  1.00  0.00    -0.000 C 
BRANCH  11  12
ATOM     12  C   UNL     1      28.108  56.789  -1.769  1.00  0.00    -0.000 C 
BRANCH  12  13
ATOM     13  C   UNL     1      28.364  58.269  -1.434  1.00  0.00    -0.000 C 
BRANCH  13  14
ATOM     14  C   UNL     1      29.841  58.672  -1.592  1.00  0.00    -0.000 C 
BRANCH  14  15
ATOM     15  C   UNL     1      30.088  60.148  -1.249  1.00  0.00    -0.003 C 
ATOM     16  C   UNL     1      31.348  60.353  -0.408  1.00  0.00     0.004 C 
ENDBRANCH  14  15
ENDBRANCH  13  14
ENDBRANCH  12  13
ENDBRANCH  11  12
ENDBRANCH  10  11
ENDBRANCH   1  10
TORSDOF 12
ENDMDL
