MODEL 1
REMARK VINA RESULT:    -4.132      0.000      0.000
REMARK INTER + INTRA:          -4.252
REMARK INTER:                  -4.252
REMARK INTRA:                   0.000
REMARK UNBOUND:                 0.000
REMARK SMILES O=c1ccc2ccc(O)cc2o1
REMARK SMILES IDX 6 1 7 2 8 3 10 4 11 5 5 6 4 7 3 8 2 9 1 10 12 11 9 12
REMARK H PARENT 9 13
REMARK Flexibility Score: inf
ROOT
ATOM      1  C   UNL     1      23.535  36.210  12.141  1.00  0.00     0.016 A 
ATOM      2  C   UNL     1      24.603  37.068  11.862  1.00  0.00     0.047 A 
ATOM      3  C   UNL     1      25.117  37.159  10.564  1.00  0.00     0.119 A 
ATOM      4  C   UNL     1      24.561  36.385   9.534  1.00  0.00     0.094 A 
ATOM      5  C   UNL     1      23.492  35.523   9.804  1.00  0.00     0.142 A 
ATOM      6  C   UNL     1      22.975  35.434  11.115  1.00  0.00     0.018 A 
ATOM      7  C   UNL     1      21.907  34.564  11.353  1.00  0.00     0.019 A 
ATOM      8  C   UNL     1      21.388  33.814  10.298  1.00  0.00     0.094 A 
ATOM      9  C   UNL     1      21.950  33.954   9.025  1.00  0.00     0.336 A 
ATOM     10  O   UNL     1      21.494  33.286   8.060  1.00  0.00    -0.246 OA
ATOM     11  O   UNL     1      22.966  34.790   8.826  1.00  0.00    -0.423 OA
ENDROOT
BRANCH   3  12
ATOM     12  O   UNL     1      26.181  38.021  10.305  1.00  0.00    -0.508 OA
ATOM     13  H   UNL     1      27.075  37.676   9.975  1.00  0.00     0.293 HD
ENDBRANCH   3  12
TORSDOF 1
ENDMDL
MODEL 2
REMARK VINA RESULT:    -4.058      1.535      2.304
REMARK INTER + INTRA:          -4.177
REMARK INTER:                  -4.177
REMARK INTRA:                   0.000
REMARK UNBOUND:                 0.000
REMARK SMILES O=c1ccc2ccc(O)cc2o1
REMARK SMILES IDX 6 1 7 2 8 3 10 4 11 5 5 6 4 7 3 8 2 9 1 10 12 11 9 12
REMARK H PARENT 9 13
REMARK Flexibility Score: inf
ROOT
ATOM      1  C   UNL     1      24.737  35.487   8.634  1.00  0.00     0.016 A 
ATOM      2  C   UNL     1      25.369  36.620   9.156  1.00  0.00     0.047 A 
ATOM      3  C   UNL     1      25.003  37.119  10.412  1.00  0.00     0.119 A 
ATOM      4  C   UNL     1      23.998  36.480  11.153  1.00  0.00     0.094 A 
ATOM      5  C   UNL     1      23.361  35.345  10.639  1.00  0.00     0.142 A 
ATOM      6  C   UNL     1      23.732  34.844   9.372  1.00  0.00     0.018 A 
ATOM      7  C   UNL     1      23.078  33.710   8.885  1.00  0.00     0.019 A 
ATOM      8  C   UNL     1      22.084  33.109   9.657  1.00  0.00     0.094 A 
ATOM      9  C   UNL     1      21.769  33.659  10.904  1.00  0.00     0.336 A 
ATOM     10  O   UNL     1      20.875  33.131  11.616  1.00  0.00    -0.246 OA
ATOM     11  O   UNL     1      22.407  34.740  11.344  1.00  0.00    -0.423 OA
ENDROOT
BRANCH   3  12
ATOM     12  O   UNL     1      25.645  38.249  10.915  1.00  0.00    -0.508 OA
ATOM     13  H   UNL     1      25.560  38.517  11.888  1.00  0.00     0.293 HD
ENDBRANCH   3  12
TORSDOF 1
ENDMDL
MODEL 3
REMARK VINA RESULT:    -4.019     12.677     13.053
REMARK INTER + INTRA:          -4.136
REMARK INTER:                  -4.136
REMARK INTRA:                   0.000
REMARK UNBOUND:                 0.000
REMARK SMILES O=c1ccc2ccc(O)cc2o1
REMARK SMILES IDX 6 1 7 2 8 3 10 4 11 5 5 6 4 7 3 8 2 9 1 10 12 11 9 12
REMARK H PARENT 9 13
REMARK Flexibility Score: inf
ROOT
ATOM      1  C   UNL     1      33.466  27.742  13.124  1.00  0.00     0.016 A 
ATOM      2  C   UNL     1      34.659  27.032  13.290  1.00  0.00     0.047 A 
ATOM      3  C   UNL     1      35.522  26.834  12.206  1.00  0.00     0.119 A 
ATOM      4  C   UNL     1      35.190  27.349  10.944  1.00  0.00     0.094 A 
ATOM      5  C   UNL     1      33.997  28.061  10.768  1.00  0.00     0.142 A 
ATOM      6  C   UNL     1      33.130  28.259  11.864  1.00  0.00     0.018 A 
ATOM      7  C   UNL     1      31.946  28.974  11.657  1.00  0.00     0.019 A 
ATOM      8  C   UNL     1      31.658  29.466  10.385  1.00  0.00     0.094 A 
ATOM      9  C   UNL     1      32.565  29.232   9.346  1.00  0.00     0.336 A 
ATOM     10  O   UNL     1      32.323  29.669   8.190  1.00  0.00    -0.246 OA
ATOM     11  O   UNL     1      33.684  28.548   9.570  1.00  0.00    -0.423 OA
ENDROOT
BRANCH   3  12
ATOM     12  O   UNL     1      36.706  26.125  12.392  1.00  0.00    -0.508 OA
ATOM     13  H   UNL     1      36.828  25.189  12.022  1.00  0.00     0.293 HD
ENDBRANCH   3  12
TORSDOF 1
ENDMDL
MODEL 4
REMARK VINA RESULT:    -3.841     15.006     15.497
REMARK INTER + INTRA:          -3.953
REMARK INTER:                  -3.953
REMARK INTRA:                   0.000
REMARK UNBOUND:                 0.000
REMARK SMILES O=c1ccc2ccc(O)cc2o1
REMARK SMILES IDX 6 1 7 2 8 3 10 4 11 5 5 6 4 7 3 8 2 9 1 10 12 11 9 12
REMARK H PARENT 9 13
REMARK Flexibility Score: inf
ROOT
ATOM      1  C   UNL     1      33.879  27.969  12.274  1.00  0.00     0.016 A 
ATOM      2  C   UNL     1      33.480  27.985  13.614  1.00  0.00     0.047 A 
ATOM      3  C   UNL     1      34.082  27.128  14.543  1.00  0.00     0.119 A 
ATOM      4  C   UNL     1      35.093  26.246  14.128  1.00  0.00     0.094 A 
ATOM      5  C   UNL     1      35.498  26.223  12.789  1.00  0.00     0.142 A 
ATOM      6  C   UNL     1      34.888  27.089  11.856  1.00  0.00     0.018 A 
ATOM      7  C   UNL     1      35.315  27.043  10.525  1.00  0.00     0.019 A 
ATOM      8  C   UNL     1      36.321  26.149  10.160  1.00  0.00     0.094 A 
ATOM      9  C   UNL     1      36.880  25.321  11.139  1.00  0.00     0.336 A 
ATOM     10  O   UNL     1      37.790  24.509  10.829  1.00  0.00    -0.246 OA
ATOM     11  O   UNL     1      36.456  25.385  12.398  1.00  0.00    -0.423 OA
ENDROOT
BRANCH   3  12
ATOM     12  O   UNL     1      33.672  27.159  15.873  1.00  0.00    -0.508 OA
ATOM     13  H   UNL     1      34.056  26.523  16.562  1.00  0.00     0.293 HD
ENDBRANCH   3  12
TORSDOF 1
ENDMDL
MODEL 5
REMARK VINA RESULT:    -3.812     14.185     14.647
REMARK INTER + INTRA:          -3.924
REMARK INTER:                  -3.924
REMARK INTRA:                   0.000
REMARK UNBOUND:                 0.000
REMARK SMILES O=c1ccc2ccc(O)cc2o1
REMARK SMILES IDX 6 1 7 2 8 3 10 4 11 5 5 6 4 7 3 8 2 9 1 10 12 11 9 12
REMARK H PARENT 9 13
REMARK Flexibility Score: inf
ROOT
ATOM      1  C   UNL     1      34.530  26.991  13.211  1.00  0.00     0.016 A 
ATOM      2  C   UNL     1      33.472  27.905  13.202  1.00  0.00     0.047 A 
ATOM      3  C   UNL     1      33.075  28.518  12.009  1.00  0.00     0.119 A 
ATOM      4  C   UNL     1      33.741  28.215  10.811  1.00  0.00     0.094 A 
ATOM      5  C   UNL     1      34.801  27.301  10.810  1.00  0.00     0.142 A 
ATOM      6  C   UNL     1      35.198  26.684  12.017  1.00  0.00     0.018 A 
ATOM      7  C   UNL     1      36.260  25.776  11.983  1.00  0.00     0.019 A 
ATOM      8  C   UNL     1      36.892  25.507  10.769  1.00  0.00     0.094 A 
ATOM      9  C   UNL     1      36.444  26.155   9.614  1.00  0.00     0.336 A 
ATOM     10  O   UNL     1      37.002  25.924   8.509  1.00  0.00    -0.246 OA
ATOM     11  O   UNL     1      35.432  27.015   9.673  1.00  0.00    -0.423 OA
ENDROOT
BRANCH   3  12
ATOM     12  O   UNL     1      32.019  29.426  12.021  1.00  0.00    -0.508 OA
ATOM     13  H   UNL     1      31.417  29.550  11.215  1.00  0.00     0.293 HD
ENDBRANCH   3  12
TORSDOF 1
ENDMDL
MODEL 6
REMARK VINA RESULT:    -3.808     13.616     14.062
REMARK INTER + INTRA:          -3.920
REMARK INTER:                  -3.920
REMARK INTRA:                   0.000
REMARK UNBOUND:                 0.000
REMARK SMILES O=c1ccc2ccc(O)cc2o1
REMARK SMILES IDX 6 1 7 2 8 3 10 4 11 5 5 6 4 7 3 8 2 9 1 10 12 11 9 12
REMARK H PARENT 9 13
REMARK Flexibility Score: inf
ROOT
ATOM      1  C   UNL     1      32.701  28.741  12.143  1.00  0.00     0.016 A 
ATOM      2  C   UNL     1      32.974  29.229  10.862  1.00  0.00     0.047 A 
ATOM      3  C   UNL     1      34.085  28.763  10.149  1.00  0.00     0.119 A 
ATOM      4  C   UNL     1      34.931  27.801  10.722  1.00  0.00     0.094 A 
ATOM      5  C   UNL     1      34.665  27.307  12.004  1.00  0.00     0.142 A 
ATOM      6  C   UNL     1      33.543  27.779  12.720  1.00  0.00     0.018 A 
ATOM      7  C   UNL     1      33.304  27.267  13.998  1.00  0.00     0.019 A 
ATOM      8  C   UNL     1      34.173  26.313  14.526  1.00  0.00     0.094 A 
ATOM      9  C   UNL     1      35.265  25.891  13.759  1.00  0.00     0.336 A 
ATOM     10  O   UNL     1      36.060  25.030  14.219  1.00  0.00    -0.246 OA
ATOM     11  O   UNL     1      35.469  26.395  12.545  1.00  0.00    -0.423 OA
ENDROOT
BRANCH   3  12
ATOM     12  O   UNL     1      34.340  29.261   8.873  1.00  0.00    -0.508 OA
ATOM     13  H   UNL     1      35.023  29.993   8.717  1.00  0.00     0.293 HD
ENDBRANCH   3  12
TORSDOF 1
ENDMDL
MODEL 7
REMARK VINA RESULT:    -3.751     13.730     14.250
REMARK INTER + INTRA:          -3.861
REMARK INTER:                  -3.861
REMARK INTRA:                   0.000
REMARK UNBOUND:                 0.000
REMARK SMILES O=c1ccc2ccc(O)cc2o1
REMARK SMILES IDX 6 1 7 2 8 3 10 4 11 5 5 6 4 7 3 8 2 9 1 10 12 11 9 12
REMARK H PARENT 9 13
REMARK Flexibility Score: inf
ROOT
ATOM      1  C   UNL     1      35.439  25.867  13.090  1.00  0.00     0.016 A 
ATOM      2  C   UNL     1      34.975  26.026  14.400  1.00  0.00     0.047 A 
ATOM      3  C   UNL     1      34.077  27.053  14.713  1.00  0.00     0.119 A 
ATOM      4  C   UNL     1      33.638  27.929  13.709  1.00  0.00     0.094 A 
ATOM      5  C   UNL     1      34.097  27.778  12.395  1.00  0.00     0.142 A 
ATOM      6  C   UNL     1      35.003  26.741  12.083  1.00  0.00     0.018 A 
ATOM      7  C   UNL     1      35.443  26.615  10.763  1.00  0.00     0.019 A 
ATOM      8  C   UNL     1      34.980  27.510   9.799  1.00  0.00     0.094 A 
ATOM      9  C   UNL     1      34.083  28.513  10.181  1.00  0.00     0.336 A 
ATOM     10  O   UNL     1      33.653  29.330   9.325  1.00  0.00    -0.246 OA
ATOM     11  O   UNL     1      33.679  28.611  11.445  1.00  0.00    -0.423 OA
ENDROOT
BRANCH   3  12
ATOM     12  O   UNL     1      33.625  27.194  16.023  1.00  0.00    -0.508 OA
ATOM     13  H   UNL     1      32.820  27.767  16.247  1.00  0.00     0.293 HD
ENDBRANCH   3  12
TORSDOF 1
ENDMDL
MODEL 8
REMARK VINA RESULT:    -3.667     12.480     12.932
REMARK INTER + INTRA:          -3.775
REMARK INTER:                  -3.775
REMARK INTRA:                   0.000
REMARK UNBOUND:                 0.000
REMARK SMILES O=c1ccc2ccc(O)cc2o1
REMARK SMILES IDX 6 1 7 2 8 3 10 4 11 5 5 6 4 7 3 8 2 9 1 10 12 11 9 12
REMARK H PARENT 9 13
REMARK Flexibility Score: inf
ROOT
ATOM      1  C   UNL     1      35.010  27.436  10.848  1.00  0.00     0.016 A 
ATOM      2  C   UNL     1      35.545  26.875  12.012  1.00  0.00     0.047 A 
ATOM      3  C   UNL     1      34.826  26.915  13.212  1.00  0.00     0.119 A 
ATOM      4  C   UNL     1      33.561  27.520  13.250  1.00  0.00     0.094 A 
ATOM      5  C   UNL     1      33.018  28.084  12.090  1.00  0.00     0.142 A 
ATOM      6  C   UNL     1      33.746  28.042  10.881  1.00  0.00     0.018 A 
ATOM      7  C   UNL     1      33.177  28.614   9.740  1.00  0.00     0.019 A 
ATOM      8  C   UNL     1      31.917  29.205   9.826  1.00  0.00     0.094 A 
ATOM      9  C   UNL     1      31.253  29.210  11.058  1.00  0.00     0.336 A 
ATOM     10  O   UNL     1      30.115  29.738  11.156  1.00  0.00    -0.246 OA
ATOM     11  O   UNL     1      31.817  28.659  12.129  1.00  0.00    -0.423 OA
ENDROOT
BRANCH   3  12
ATOM     12  O   UNL     1      35.376  26.350  14.361  1.00  0.00    -0.508 OA
ATOM     13  H   UNL     1      36.252  26.680  14.747  1.00  0.00     0.293 HD
ENDBRANCH   3  12
TORSDOF 1
ENDMDL
MODEL 9
REMARK VINA RESULT:    -3.633     14.313     14.833
REMARK INTER + INTRA:          -3.739
REMARK INTER:                  -3.739
REMARK INTRA:                   0.000
REMARK UNBOUND:                 0.000
REMARK SMILES O=c1ccc2ccc(O)cc2o1
REMARK SMILES IDX 6 1 7 2 8 3 10 4 11 5 5 6 4 7 3 8 2 9 1 10 12 11 9 12
REMARK H PARENT 9 13
REMARK Flexibility Score: inf
ROOT
ATOM      1  C   UNL     1      34.897  27.864  10.476  1.00  0.00     0.016 A 
ATOM      2  C   UNL     1      33.793  28.707  10.637  1.00  0.00     0.047 A 
ATOM      3  C   UNL     1      33.015  28.641  11.799  1.00  0.00     0.119 A 
ATOM      4  C   UNL     1      33.343  27.724  12.809  1.00  0.00     0.094 A 
ATOM      5  C   UNL     1      34.446  26.876  12.657  1.00  0.00     0.142 A 
ATOM      6  C   UNL     1      35.229  26.946  11.484  1.00  0.00     0.018 A 
ATOM      7  C   UNL     1      36.324  26.086  11.360  1.00  0.00     0.019 A 
ATOM      8  C   UNL     1      36.610  25.191  12.391  1.00  0.00     0.094 A 
ATOM      9  C   UNL     1      35.791  25.178  13.524  1.00  0.00     0.336 A 
ATOM     10  O   UNL     1      36.033  24.377  14.465  1.00  0.00    -0.246 OA
ATOM     11  O   UNL     1      34.754  26.007  13.617  1.00  0.00    -0.423 OA
ENDROOT
BRANCH   3  12
ATOM     12  O   UNL     1      31.920  29.490  11.941  1.00  0.00    -0.508 OA
ATOM     13  H   UNL     1      31.061  29.177  12.377  1.00  0.00     0.293 HD
ENDBRANCH   3  12
TORSDOF 1
ENDMDL
