MODEL 1
REMARK VINA RESULT:    -4.928      0.000      0.000
REMARK INTER + INTRA:         -10.017
REMARK INTER:                  -8.386
REMARK INTRA:                  -1.631
REMARK UNBOUND:                -1.631
REMARK SMILES CCCCCCCCCCCCCC(=O)[O-]
REMARK SMILES IDX 8 1 9 2 10 3 11 4 12 5 13 6 14 7 15 8 16 9 7 10 6 11 5 12
REMARK SMILES IDX 4 13 3 14 2 15 1 16
REMARK H PARENT
REMARK Flexibility Score: inf
ROOT
ATOM      1  C   UNL     1     113.651 -83.614  20.391  1.00  0.00     0.000 C 
ENDROOT
BRANCH   1   2
ATOM      2  C   UNL     1     115.156 -83.359  20.185  1.00  0.00     0.000 C 
BRANCH   2   3
ATOM      3  C   UNL     1     115.902 -83.069  21.499  1.00  0.00     0.000 C 
BRANCH   3   4
ATOM      4  C   UNL     1     117.410 -83.373  21.414  1.00  0.00     0.000 C 
BRANCH   4   5
ATOM      5  C   UNL     1     118.336 -82.142  21.477  1.00  0.00     0.006 C 
BRANCH   5   6
ATOM      6  C   UNL     1     118.561 -81.584  22.891  1.00  0.00     0.053 C 
BRANCH   6   7
ATOM      7  C   UNL     1     119.613 -82.349  23.633  1.00  0.00     0.041 C 
ATOM      8  O   UNL     1     119.309 -83.399  24.259  1.00  0.00    -0.550 OA
ATOM      9  O   UNL     1     120.922 -81.886  23.661  1.00  0.00    -0.550 OA
ENDBRANCH   6   7
ENDBRANCH   5   6
ENDBRANCH   4   5
ENDBRANCH   3   4
ENDBRANCH   2   3
ENDBRANCH   1   2
BRANCH   1  10
ATOM     10  C   UNL     1     113.125 -83.365  21.817  1.00  0.00     0.000 C 
BRANCH  10  11
ATOM     11  C   UNL     1     111.959 -82.361  21.861  1.00  0.00    -0.000 C 
BRANCH  11  12
ATOM     12  C   UNL     1     112.113 -81.220  20.837  1.00  0.00    -0.000 C 
BRANCH  12  13
ATOM     13  C   UNL     1     112.948 -80.022  21.325  1.00  0.00    -0.000 C 
BRANCH  13  14
ATOM     14  C   UNL     1     113.942 -79.514  20.265  1.00  0.00    -0.000 C 
BRANCH  14  15
ATOM     15  C   UNL     1     115.401 -79.598  20.741  1.00  0.00    -0.003 C 
ATOM     16  C   UNL     1     115.542 -79.430  22.254  1.00  0.00     0.004 C 
ENDBRANCH  14  15
ENDBRANCH  13  14
ENDBRANCH  12  13
ENDBRANCH  11  12
ENDBRANCH  10  11
ENDBRANCH   1  10
TORSDOF 12
ENDMDL
MODEL 2
REMARK VINA RESULT:    -4.902      3.530      6.409
REMARK INTER + INTRA:          -9.973
REMARK INTER:                  -8.531
REMARK INTRA:                  -1.442
REMARK UNBOUND:                -1.631
REMARK SMILES CCCCCCCCCCCCCC(=O)[O-]
REMARK SMILES IDX 8 1 9 2 10 3 11 4 12 5 13 6 14 7 15 8 16 9 7 10 6 11 5 12
REMARK SMILES IDX 4 13 3 14 2 15 1 16
REMARK H PARENT
REMARK Flexibility Score: inf
ROOT
ATOM      1  C   UNL     1     118.117 -79.707  20.807  1.00  0.00     0.000 C 
ENDROOT
BRANCH   1   2
ATOM      2  C   UNL     1     117.594 -78.927  22.027  1.00  0.00     0.000 C 
BRANCH   2   3
ATOM      3  C   UNL     1     116.168 -78.384  21.828  1.00  0.00     0.000 C 
BRANCH   3   4
ATOM      4  C   UNL     1     115.116 -79.499  21.677  1.00  0.00     0.000 C 
BRANCH   4   5
ATOM      5  C   UNL     1     114.523 -79.660  20.263  1.00  0.00     0.006 C 
BRANCH   5   6
ATOM      6  C   UNL     1     113.209 -78.896  20.032  1.00  0.00     0.053 C 
BRANCH   6   7
ATOM      7  C   UNL     1     112.070 -79.499  20.795  1.00  0.00     0.041 C 
ATOM      8  O   UNL     1     111.570 -80.595  20.424  1.00  0.00    -0.550 OA
ATOM      9  O   UNL     1     111.539 -78.837  21.894  1.00  0.00    -0.550 OA
ENDBRANCH   6   7
ENDBRANCH   5   6
ENDBRANCH   4   5
ENDBRANCH   3   4
ENDBRANCH   2   3
ENDBRANCH   1   2
BRANCH   1  10
ATOM     10  C   UNL     1     119.164 -80.795  21.113  1.00  0.00     0.000 C 
BRANCH  10  11
ATOM     11  C   UNL     1     118.911 -81.514  22.450  1.00  0.00    -0.000 C 
BRANCH  11  12
ATOM     12  C   UNL     1     118.597 -83.012  22.273  1.00  0.00    -0.000 C 
BRANCH  12  13
ATOM     13  C   UNL     1     117.595 -83.334  21.150  1.00  0.00    -0.000 C 
BRANCH  13  14
ATOM     14  C   UNL     1     116.135 -83.053  21.552  1.00  0.00    -0.000 C 
BRANCH  14  15
ATOM     15  C   UNL     1     115.140 -83.421  20.440  1.00  0.00    -0.003 C 
ATOM     16  C   UNL     1     113.693 -83.463  20.929  1.00  0.00     0.004 C 
ENDBRANCH  14  15
ENDBRANCH  13  14
ENDBRANCH  12  13
ENDBRANCH  11  12
ENDBRANCH  10  11
ENDBRANCH   1  10
TORSDOF 12
ENDMDL
MODEL 3
REMARK VINA RESULT:    -4.898      3.769      6.297
REMARK INTER + INTRA:          -9.966
REMARK INTER:                  -8.805
REMARK INTRA:                  -1.161
REMARK UNBOUND:                -1.631
REMARK SMILES CCCCCCCCCCCCCC(=O)[O-]
REMARK SMILES IDX 8 1 9 2 10 3 11 4 12 5 13 6 14 7 15 8 16 9 7 10 6 11 5 12
REMARK SMILES IDX 4 13 3 14 2 15 1 16
REMARK H PARENT
REMARK Flexibility Score: inf
ROOT
ATOM      1  C   UNL     1     116.005 -83.423  21.376  1.00  0.00     0.000 C 
ENDROOT
BRANCH   1   2
ATOM      2  C   UNL     1     115.123 -83.405  20.114  1.00  0.00     0.000 C 
BRANCH   2   3
ATOM      3  C   UNL     1     113.618 -83.377  20.432  1.00  0.00     0.000 C 
BRANCH   3   4
ATOM      4  C   UNL     1     113.320 -82.992  21.894  1.00  0.00     0.000 C 
BRANCH   4   5
ATOM      5  C   UNL     1     111.913 -83.367  22.401  1.00  0.00     0.006 C 
BRANCH   5   6
ATOM      6  C   UNL     1     110.912 -82.200  22.427  1.00  0.00     0.053 C 
BRANCH   6   7
ATOM      7  C   UNL     1     109.980 -82.289  23.596  1.00  0.00     0.041 C 
ATOM      8  O   UNL     1     110.224 -81.646  24.651  1.00  0.00    -0.550 OA
ATOM      9  O   UNL     1     108.859 -83.107  23.533  1.00  0.00    -0.550 OA
ENDBRANCH   6   7
ENDBRANCH   5   6
ENDBRANCH   4   5
ENDBRANCH   3   4
ENDBRANCH   2   3
ENDBRANCH   1   2
BRANCH   1  10
ATOM     10  C   UNL     1     117.518 -83.271  21.131  1.00  0.00     0.000 C 
BRANCH  10  11
ATOM     11  C   UNL     1     118.317 -83.032  22.425  1.00  0.00    -0.000 C 
BRANCH  11  12
ATOM     12  C   UNL     1     119.026 -81.664  22.445  1.00  0.00    -0.000 C 
BRANCH  12  13
ATOM     13  C   UNL     1     119.083 -80.945  21.084  1.00  0.00    -0.000 C 
BRANCH  13  14
ATOM     14  C   UNL     1     118.338 -79.598  21.088  1.00  0.00    -0.000 C 
BRANCH  14  15
ATOM     15  C   UNL     1     116.949 -79.698  21.738  1.00  0.00    -0.003 C 
ATOM     16  C   UNL     1     115.818 -79.770  20.713  1.00  0.00     0.004 C 
ENDBRANCH  14  15
ENDBRANCH  13  14
ENDBRANCH  12  13
ENDBRANCH  11  12
ENDBRANCH  10  11
ENDBRANCH   1  10
TORSDOF 12
ENDMDL
MODEL 4
REMARK VINA RESULT:    -4.842      3.287      5.745
REMARK INTER + INTRA:          -9.871
REMARK INTER:                  -8.298
REMARK INTRA:                  -1.572
REMARK UNBOUND:                -1.631
REMARK SMILES CCCCCCCCCCCCCC(=O)[O-]
REMARK SMILES IDX 8 1 9 2 10 3 11 4 12 5 13 6 14 7 15 8 16 9 7 10 6 11 5 12
REMARK SMILES IDX 4 13 3 14 2 15 1 16
REMARK H PARENT
REMARK Flexibility Score: inf
ROOT
ATOM      1  C   UNL     1     117.596 -83.292  21.132  1.00  0.00     0.000 C 
ENDROOT
BRANCH   1   2
ATOM      2  C   UNL     1     116.124 -83.422  21.564  1.00  0.00     0.000 C 
BRANCH   2   3
ATOM      3  C   UNL     1     115.141 -83.334  20.383  1.00  0.00     0.000 C 
BRANCH   3   4
ATOM      4  C   UNL     1     113.730 -83.840  20.737  1.00  0.00     0.000 C 
BRANCH   4   5
ATOM      5  C   UNL     1     112.829 -82.823  21.468  1.00  0.00     0.006 C 
BRANCH   5   6
ATOM      6  C   UNL     1     111.896 -82.020  20.548  1.00  0.00     0.053 C 
BRANCH   6   7
ATOM      7  C   UNL     1     111.814 -80.580  20.954  1.00  0.00     0.041 C 
ATOM      8  O   UNL     1     111.817 -79.675  20.078  1.00  0.00    -0.550 OA
ATOM      9  O   UNL     1     111.766 -80.237  22.298  1.00  0.00    -0.550 OA
ENDBRANCH   6   7
ENDBRANCH   5   6
ENDBRANCH   4   5
ENDBRANCH   3   4
ENDBRANCH   2   3
ENDBRANCH   1   2
BRANCH   1  10
ATOM     10  C   UNL     1     118.600 -83.021  22.270  1.00  0.00     0.000 C 
BRANCH  10  11
ATOM     11  C   UNL     1     119.086 -81.561  22.308  1.00  0.00    -0.000 C 
BRANCH  11  12
ATOM     12  C   UNL     1     118.597 -80.737  21.102  1.00  0.00    -0.000 C 
BRANCH  12  13
ATOM     13  C   UNL     1     117.827 -79.453  21.465  1.00  0.00    -0.000 C 
BRANCH  13  14
ATOM     14  C   UNL     1     116.536 -79.735  22.256  1.00  0.00    -0.000 C 
BRANCH  14  15
ATOM     15  C   UNL     1     115.272 -79.352  21.469  1.00  0.00    -0.003 C 
ATOM     16  C   UNL     1     115.318 -79.810  20.012  1.00  0.00     0.004 C 
ENDBRANCH  14  15
ENDBRANCH  13  14
ENDBRANCH  12  13
ENDBRANCH  11  12
ENDBRANCH  10  11
ENDBRANCH   1  10
TORSDOF 12
ENDMDL
MODEL 5
REMARK VINA RESULT:    -4.829      8.243     10.882
REMARK INTER + INTRA:          -9.849
REMARK INTER:                  -8.627
REMARK INTRA:                  -1.222
REMARK UNBOUND:                -1.631
REMARK SMILES CCCCCCCCCCCCCC(=O)[O-]
REMARK SMILES IDX 8 1 9 2 10 3 11 4 12 5 13 6 14 7 15 8 16 9 7 10 6 11 5 12
REMARK SMILES IDX 4 13 3 14 2 15 1 16
REMARK H PARENT
REMARK Flexibility Score: inf
ROOT
ATOM      1  C   UNL     1     103.828 -82.503  23.032  1.00  0.00     0.000 C 
ENDROOT
BRANCH   1   2
ATOM      2  C   UNL     1     104.310 -83.965  23.068  1.00  0.00     0.000 C 
BRANCH   2   3
ATOM      3  C   UNL     1     105.702 -84.124  23.703  1.00  0.00     0.000 C 
BRANCH   3   4
ATOM      4  C   UNL     1     106.798 -83.345  22.950  1.00  0.00     0.000 C 
BRANCH   4   5
ATOM      5  C   UNL     1     108.191 -83.360  23.611  1.00  0.00     0.006 C 
BRANCH   5   6
ATOM      6  C   UNL     1     108.652 -82.000  24.160  1.00  0.00     0.053 C 
BRANCH   6   7
ATOM      7  C   UNL     1     108.497 -81.915  25.647  1.00  0.00     0.041 C 
ATOM      8  O   UNL     1     109.460 -81.534  26.363  1.00  0.00    -0.550 OA
ATOM      9  O   UNL     1     107.299 -82.286  26.245  1.00  0.00    -0.550 OA
ENDBRANCH   6   7
ENDBRANCH   5   6
ENDBRANCH   4   5
ENDBRANCH   3   4
ENDBRANCH   2   3
ENDBRANCH   1   2
BRANCH   1  10
ATOM     10  C   UNL     1     102.372 -82.295  22.573  1.00  0.00     0.000 C 
BRANCH  10  11
ATOM     11  C   UNL     1     101.746 -83.563  21.966  1.00  0.00    -0.000 C 
BRANCH  11  12
ATOM     12  C   UNL     1     101.620 -83.492  20.432  1.00  0.00    -0.000 C 
BRANCH  12  13
ATOM     13  C   UNL     1     102.873 -83.945  19.659  1.00  0.00    -0.000 C 
BRANCH  13  14
ATOM     14  C   UNL     1     103.792 -82.773  19.270  1.00  0.00    -0.000 C 
BRANCH  14  15
ATOM     15  C   UNL     1     105.276 -83.083  19.523  1.00  0.00    -0.003 C 
ATOM     16  C   UNL     1     106.150 -82.848  18.291  1.00  0.00     0.004 C 
ENDBRANCH  14  15
ENDBRANCH  13  14
ENDBRANCH  12  13
ENDBRANCH  11  12
ENDBRANCH  10  11
ENDBRANCH   1  10
TORSDOF 12
ENDMDL
MODEL 6
REMARK VINA RESULT:    -4.824      0.802      1.528
REMARK INTER + INTRA:          -9.840
REMARK INTER:                  -8.481
REMARK INTRA:                  -1.360
REMARK UNBOUND:                -1.631
REMARK SMILES CCCCCCCCCCCCCC(=O)[O-]
REMARK SMILES IDX 8 1 9 2 10 3 11 4 12 5 13 6 14 7 15 8 16 9 7 10 6 11 5 12
REMARK SMILES IDX 4 13 3 14 2 15 1 16
REMARK H PARENT
REMARK Flexibility Score: inf
ROOT
ATOM      1  C   UNL     1     113.139 -83.390  21.799  1.00  0.00     0.000 C 
ENDROOT
BRANCH   1   2
ATOM      2  C   UNL     1     113.643 -83.656  20.368  1.00  0.00     0.000 C 
BRANCH   2   3
ATOM      3  C   UNL     1     115.144 -83.363  20.195  1.00  0.00     0.000 C 
BRANCH   3   4
ATOM      4  C   UNL     1     115.847 -83.028  21.524  1.00  0.00     0.000 C 
BRANCH   4   5
ATOM      5  C   UNL     1     117.376 -83.233  21.531  1.00  0.00     0.006 C 
BRANCH   5   6
ATOM      6  C   UNL     1     118.184 -81.991  21.941  1.00  0.00     0.053 C 
BRANCH   6   7
ATOM      7  C   UNL     1     119.297 -82.333  22.882  1.00  0.00     0.041 C 
ATOM      8  O   UNL     1     120.028 -81.423  23.356  1.00  0.00    -0.550 OA
ATOM      9  O   UNL     1     119.548 -83.659  23.212  1.00  0.00    -0.550 OA
ENDBRANCH   6   7
ENDBRANCH   5   6
ENDBRANCH   4   5
ENDBRANCH   3   4
ENDBRANCH   2   3
ENDBRANCH   1   2
BRANCH   1  10
ATOM     10  C   UNL     1     111.897 -82.484  21.907  1.00  0.00     0.000 C 
BRANCH  10  11
ATOM     11  C   UNL     1     111.705 -81.578  20.678  1.00  0.00    -0.000 C 
BRANCH  11  12
ATOM     12  C   UNL     1     112.064 -80.106  20.960  1.00  0.00    -0.000 C 
BRANCH  12  13
ATOM     13  C   UNL     1     113.428 -79.656  20.404  1.00  0.00    -0.000 C 
BRANCH  13  14
ATOM     14  C   UNL     1     114.544 -79.681  21.465  1.00  0.00    -0.000 C 
BRANCH  14  15
ATOM     15  C   UNL     1     115.323 -78.358  21.528  1.00  0.00    -0.003 C 
ATOM     16  C   UNL     1     116.786 -78.549  21.927  1.00  0.00     0.004 C 
ENDBRANCH  14  15
ENDBRANCH  13  14
ENDBRANCH  12  13
ENDBRANCH  11  12
ENDBRANCH  10  11
ENDBRANCH   1  10
TORSDOF 12
ENDMDL
MODEL 7
REMARK VINA RESULT:    -4.795      7.305      9.916
REMARK INTER + INTRA:          -9.790
REMARK INTER:                  -8.316
REMARK INTRA:                  -1.475
REMARK UNBOUND:                -1.631
REMARK SMILES CCCCCCCCCCCCCC(=O)[O-]
REMARK SMILES IDX 8 1 9 2 10 3 11 4 12 5 13 6 14 7 15 8 16 9 7 10 6 11 5 12
REMARK SMILES IDX 4 13 3 14 2 15 1 16
REMARK H PARENT
REMARK Flexibility Score: inf
ROOT
ATOM      1  C   UNL     1     105.723 -81.827  22.773  1.00  0.00     0.000 C 
ENDROOT
BRANCH   1   2
ATOM      2  C   UNL     1     106.431 -83.141  22.394  1.00  0.00     0.000 C 
BRANCH   2   3
ATOM      3  C   UNL     1     107.395 -83.641  23.484  1.00  0.00     0.000 C 
BRANCH   3   4
ATOM      4  C   UNL     1     107.394 -82.751  24.741  1.00  0.00     0.000 C 
BRANCH   4   5
ATOM      5  C   UNL     1     108.687 -81.943  24.978  1.00  0.00     0.006 C 
BRANCH   5   6
ATOM      6  C   UNL     1     109.757 -82.118  23.888  1.00  0.00     0.053 C 
BRANCH   6   7
ATOM      7  C   UNL     1     109.865 -80.907  23.012  1.00  0.00     0.041 C 
ATOM      8  O   UNL     1     110.576 -79.930  23.368  1.00  0.00    -0.550 OA
ATOM      9  O   UNL     1     109.156 -80.844  21.819  1.00  0.00    -0.550 OA
ENDBRANCH   6   7
ENDBRANCH   5   6
ENDBRANCH   4   5
ENDBRANCH   3   4
ENDBRANCH   2   3
ENDBRANCH   1   2
BRANCH   1  10
ATOM     10  C   UNL     1     104.194 -81.921  22.939  1.00  0.00     0.000 C 
BRANCH  10  11
ATOM     11  C   UNL     1     103.597 -83.191  22.307  1.00  0.00    -0.000 C 
BRANCH  11  12
ATOM     12  C   UNL     1     102.379 -82.897  21.411  1.00  0.00    -0.000 C 
BRANCH  12  13
ATOM     13  C   UNL     1     102.625 -83.084  19.902  1.00  0.00    -0.000 C 
BRANCH  13  14
ATOM     14  C   UNL     1     104.088 -83.438  19.575  1.00  0.00    -0.000 C 
BRANCH  14  15
ATOM     15  C   UNL     1     104.836 -82.275  18.904  1.00  0.00    -0.003 C 
ATOM     16  C   UNL     1     106.187 -82.693  18.326  1.00  0.00     0.004 C 
ENDBRANCH  14  15
ENDBRANCH  13  14
ENDBRANCH  12  13
ENDBRANCH  11  12
ENDBRANCH  10  11
ENDBRANCH   1  10
TORSDOF 12
ENDMDL
MODEL 8
REMARK VINA RESULT:    -4.789      7.295     10.234
REMARK INTER + INTRA:          -9.781
REMARK INTER:                  -8.165
REMARK INTRA:                  -1.616
REMARK UNBOUND:                -1.631
REMARK SMILES CCCCCCCCCCCCCC(=O)[O-]
REMARK SMILES IDX 8 1 9 2 10 3 11 4 12 5 13 6 14 7 15 8 16 9 7 10 6 11 5 12
REMARK SMILES IDX 4 13 3 14 2 15 1 16
REMARK H PARENT
REMARK Flexibility Score: inf
ROOT
ATOM      1  C   UNL     1     106.378 -81.376  21.154  1.00  0.00     0.000 C 
ENDROOT
BRANCH   1   2
ATOM      2  C   UNL     1     105.533 -81.330  22.441  1.00  0.00     0.000 C 
BRANCH   2   3
ATOM      3  C   UNL     1     105.853 -82.482  23.410  1.00  0.00     0.000 C 
BRANCH   3   4
ATOM      4  C   UNL     1     106.462 -81.996  24.739  1.00  0.00     0.000 C 
BRANCH   4   5
ATOM      5  C   UNL     1     107.996 -82.120  24.846  1.00  0.00     0.006 C 
BRANCH   5   6
ATOM      6  C   UNL     1     108.650 -82.936  23.719  1.00  0.00     0.053 C 
BRANCH   6   7
ATOM      7  C   UNL     1     109.794 -82.203  23.089  1.00  0.00     0.041 C 
ATOM      8  O   UNL     1     109.695 -80.973  22.837  1.00  0.00    -0.550 OA
ATOM      9  O   UNL     1     110.956 -82.884  22.750  1.00  0.00    -0.550 OA
ENDBRANCH   6   7
ENDBRANCH   5   6
ENDBRANCH   4   5
ENDBRANCH   3   4
ENDBRANCH   2   3
ENDBRANCH   1   2
BRANCH   1  10
ATOM     10  C   UNL     1     105.810 -80.585  19.959  1.00  0.00     0.000 C 
BRANCH  10  11
ATOM     11  C   UNL     1     105.152 -81.487  18.900  1.00  0.00    -0.000 C 
BRANCH  11  12
ATOM     12  C   UNL     1     105.550 -82.968  19.045  1.00  0.00    -0.000 C 
BRANCH  12  13
ATOM     13  C   UNL     1     104.389 -83.919  19.391  1.00  0.00    -0.000 C 
BRANCH  13  14
ATOM     14  C   UNL     1     103.081 -83.174  19.712  1.00  0.00    -0.000 C 
BRANCH  14  15
ATOM     15  C   UNL     1     102.683 -83.298  21.191  1.00  0.00    -0.003 C 
ATOM     16  C   UNL     1     101.979 -82.050  21.723  1.00  0.00     0.004 C 
ENDBRANCH  14  15
ENDBRANCH  13  14
ENDBRANCH  12  13
ENDBRANCH  11  12
ENDBRANCH  10  11
ENDBRANCH   1  10
TORSDOF 12
ENDMDL
MODEL 9
REMARK VINA RESULT:    -4.780      1.571      3.306
REMARK INTER + INTRA:          -9.766
REMARK INTER:                  -8.137
REMARK INTRA:                  -1.628
REMARK UNBOUND:                -1.631
REMARK SMILES CCCCCCCCCCCCCC(=O)[O-]
REMARK SMILES IDX 8 1 9 2 10 3 11 4 12 5 13 6 14 7 15 8 16 9 7 10 6 11 5 12
REMARK SMILES IDX 4 13 3 14 2 15 1 16
REMARK H PARENT
REMARK Flexibility Score: inf
ROOT
ATOM      1  C   UNL     1     115.028 -80.375  20.498  1.00  0.00     0.000 C 
ENDROOT
BRANCH   1   2
ATOM      2  C   UNL     1     114.747 -81.504  21.508  1.00  0.00     0.000 C 
BRANCH   2   3
ATOM      3  C   UNL     1     114.855 -82.907  20.886  1.00  0.00     0.000 C 
BRANCH   3   4
ATOM      4  C   UNL     1     116.268 -83.510  21.007  1.00  0.00     0.000 C 
BRANCH   4   5
ATOM      5  C   UNL     1     117.095 -83.016  22.211  1.00  0.00     0.006 C 
BRANCH   5   6
ATOM      6  C   UNL     1     118.511 -82.535  21.857  1.00  0.00     0.053 C 
BRANCH   6   7
ATOM      7  C   UNL     1     119.400 -82.477  23.062  1.00  0.00     0.041 C 
ATOM      8  O   UNL     1     120.304 -81.604  23.141  1.00  0.00    -0.550 OA
ATOM      9  O   UNL     1     119.250 -83.407  24.083  1.00  0.00    -0.550 OA
ENDBRANCH   6   7
ENDBRANCH   5   6
ENDBRANCH   4   5
ENDBRANCH   3   4
ENDBRANCH   2   3
ENDBRANCH   1   2
BRANCH   1  10
ATOM     10  C   UNL     1     116.364 -79.632  20.690  1.00  0.00     0.000 C 
BRANCH  10  11
ATOM     11  C   UNL     1     116.643 -79.264  22.158  1.00  0.00    -0.000 C 
BRANCH  11  12
ATOM     12  C   UNL     1     116.387 -77.774  22.459  1.00  0.00    -0.000 C 
BRANCH  12  13
ATOM     13  C   UNL     1     115.010 -77.466  23.076  1.00  0.00    -0.000 C 
BRANCH  13  14
ATOM     14  C   UNL     1     114.149 -76.548  22.188  1.00  0.00    -0.000 C 
BRANCH  14  15
ATOM     15  C   UNL     1     113.084 -77.326  21.400  1.00  0.00    -0.003 C 
ATOM     16  C   UNL     1     112.417 -78.424  22.228  1.00  0.00     0.004 C 
ENDBRANCH  14  15
ENDBRANCH  13  14
ENDBRANCH  12  13
ENDBRANCH  11  12
ENDBRANCH  10  11
ENDBRANCH   1  10
TORSDOF 12
ENDMDL
