MODEL 1
REMARK VINA RESULT:     1.369      0.000      0.000
REMARK INTER + INTRA:           1.328
REMARK INTER:                   1.609
REMARK INTRA:                  -0.281
REMARK UNBOUND:                -0.281
REMARK SMILES O=c1c(O)c(-c2ccc(O)cc2)oc2cc(O)cc(O)c12
REMARK SMILES IDX 5 1 3 2 2 3 1 4 21 5 19 6 18 7 16 8 15 9 14 10 13 11 6 12
REMARK SMILES IDX 7 13 8 14 9 15 12 16 11 17 10 18 4 20 20 22 17 24
REMARK H PARENT 10 19 4 21 20 23 17 25
REMARK Flexibility Score: inf
ROOT
ATOM      1  C   UNL     1     -26.998   8.711  -5.382  1.00  0.00     0.180 A 
ATOM      2  C   UNL     1     -26.461   9.884  -4.825  1.00  0.00     0.208 A 
ATOM      3  C   UNL     1     -25.083   9.945  -4.563  1.00  0.00     0.238 A 
ATOM      4  O   UNL     1     -24.600  11.017  -4.115  1.00  0.00    -0.285 OA
ATOM      5  C   UNL     1     -24.262   8.826  -4.846  1.00  0.00     0.111 A 
ATOM      6  C   UNL     1     -22.860   8.763  -4.583  1.00  0.00     0.134 A 
ATOM      7  C   UNL     1     -22.125   7.655  -5.023  1.00  0.00     0.093 A 
ATOM      8  C   UNL     1     -22.752   6.580  -5.658  1.00  0.00     0.123 A 
ATOM      9  C   UNL     1     -24.129   6.607  -5.866  1.00  0.00     0.094 A 
ATOM     10  C   UNL     1     -24.884   7.714  -5.470  1.00  0.00     0.146 A 
ATOM     11  O   UNL     1     -26.192   7.704  -5.697  1.00  0.00    -0.452 OA
ENDROOT
BRANCH   1  12
ATOM     12  C   UNL     1     -28.444   8.562  -5.663  1.00  0.00     0.021 A 
ATOM     13  C   UNL     1     -29.306   7.922  -4.753  1.00  0.00     0.016 A 
ATOM     14  C   UNL     1     -30.664   7.773  -5.051  1.00  0.00     0.047 A 
ATOM     15  C   UNL     1     -31.175   8.244  -6.264  1.00  0.00     0.115 A 
ATOM     16  C   UNL     1     -28.961   9.016  -6.888  1.00  0.00     0.016 A 
ATOM     17  C   UNL     1     -30.320   8.864  -7.184  1.00  0.00     0.047 A 
BRANCH  15  18
ATOM     18  O   UNL     1     -32.530   8.090  -6.547  1.00  0.00    -0.508 OA
ATOM     19  H   UNL     1     -33.204   8.810  -6.318  1.00  0.00     0.293 HD
ENDBRANCH  15  18
ENDBRANCH   1  12
BRANCH   2  20
ATOM     20  O   UNL     1     -27.285  10.984  -4.575  1.00  0.00    -0.502 OA
ATOM     21  H   UNL     1     -27.136  11.609  -3.792  1.00  0.00     0.293 HD
ENDBRANCH   2  20
BRANCH   6  22
ATOM     22  O   UNL     1     -22.154   9.740  -3.875  1.00  0.00    -0.507 OA
ATOM     23  H   UNL     1     -21.358  10.246  -4.232  1.00  0.00     0.293 HD
ENDBRANCH   6  22
BRANCH   8  24
ATOM     24  O   UNL     1     -22.014   5.476  -6.079  1.00  0.00    -0.508 OA
ATOM     25  H   UNL     1     -21.640   4.805  -5.419  1.00  0.00     0.293 HD
ENDBRANCH   8  24
TORSDOF 5
ENDMDL
MODEL 2
REMARK VINA RESULT:     1.953      1.264      1.701
REMARK INTER + INTRA:           2.014
REMARK INTER:                   1.556
REMARK INTRA:                   0.457
REMARK UNBOUND:                -0.281
REMARK SMILES O=c1c(O)c(-c2ccc(O)cc2)oc2cc(O)cc(O)c12
REMARK SMILES IDX 5 1 3 2 2 3 1 4 21 5 19 6 18 7 16 8 15 9 14 10 13 11 6 12
REMARK SMILES IDX 7 13 8 14 9 15 12 16 11 17 10 18 4 20 20 22 17 24
REMARK H PARENT 10 19 4 21 20 23 17 25
REMARK Flexibility Score: inf
ROOT
ATOM      1  C   UNL     1     -26.054   8.708  -4.784  1.00  0.00     0.180 A 
ATOM      2  C   UNL     1     -25.144   9.688  -4.351  1.00  0.00     0.208 A 
ATOM      3  C   UNL     1     -23.768   9.425  -4.439  1.00  0.00     0.238 A 
ATOM      4  O   UNL     1     -22.957  10.326  -4.100  1.00  0.00    -0.285 OA
ATOM      5  C   UNL     1     -23.319   8.180  -4.945  1.00  0.00     0.111 A 
ATOM      6  C   UNL     1     -21.949   7.792  -5.043  1.00  0.00     0.134 A 
ATOM      7  C   UNL     1     -21.616   6.590  -5.679  1.00  0.00     0.093 A 
ATOM      8  C   UNL     1     -22.607   5.732  -6.164  1.00  0.00     0.123 A 
ATOM      9  C   UNL     1     -23.949   6.076  -6.020  1.00  0.00     0.094 A 
ATOM     10  C   UNL     1     -24.312   7.285  -5.422  1.00  0.00     0.146 A 
ATOM     11  O   UNL     1     -25.602   7.578  -5.315  1.00  0.00    -0.452 OA
ENDROOT
BRANCH   1  12
ATOM     12  C   UNL     1     -27.520   8.902  -4.699  1.00  0.00     0.021 A 
ATOM     13  C   UNL     1     -28.078   9.962  -3.961  1.00  0.00     0.016 A 
ATOM     14  C   UNL     1     -29.466  10.110  -3.876  1.00  0.00     0.047 A 
ATOM     15  C   UNL     1     -30.312   9.197  -4.512  1.00  0.00     0.115 A 
ATOM     16  C   UNL     1     -28.377   7.977  -5.319  1.00  0.00     0.016 A 
ATOM     17  C   UNL     1     -29.765   8.128  -5.231  1.00  0.00     0.047 A 
BRANCH  15  18
ATOM     18  O   UNL     1     -31.693   9.358  -4.419  1.00  0.00    -0.508 OA
ATOM     19  H   UNL     1     -32.330   8.793  -4.967  1.00  0.00     0.293 HD
ENDBRANCH  15  18
ENDBRANCH   1  12
BRANCH   2  20
ATOM     20  O   UNL     1     -25.608  10.917  -3.876  1.00  0.00    -0.502 OA
ATOM     21  H   UNL     1     -26.594  11.127  -3.783  1.00  0.00     0.293 HD
ENDBRANCH   2  20
BRANCH   6  22
ATOM     22  O   UNL     1     -20.889   8.531  -4.509  1.00  0.00    -0.507 OA
ATOM     23  H   UNL     1     -20.984   9.250  -3.809  1.00  0.00     0.293 HD
ENDBRANCH   6  22
BRANCH   8  24
ATOM     24  O   UNL     1     -22.267   4.531  -6.783  1.00  0.00    -0.508 OA
ATOM     25  H   UNL     1     -22.333   4.415  -7.787  1.00  0.00     0.293 HD
ENDBRANCH   8  24
TORSDOF 5
ENDMDL
