MODEL 1
REMARK VINA RESULT:    -5.244      0.000      0.000
REMARK INTER + INTRA:          -9.041
REMARK INTER:                  -8.310
REMARK INTRA:                  -0.731
REMARK UNBOUND:                -0.731
REMARK SMILES CCCCCCCCCCCC(=O)[O-]
REMARK SMILES IDX 7 1 8 2 9 3 10 4 11 5 12 6 13 7 14 8 6 9 5 10 4 11 3 12 2 13
REMARK SMILES IDX 1 14
REMARK H PARENT
REMARK Flexibility Score: inf
ROOT
ATOM      1  C   UNL     1      -6.687  64.918  53.277  1.00  0.00     0.000 C 
ENDROOT
BRANCH   1   2
ATOM      2  C   UNL     1      -6.661  65.662  51.936  1.00  0.00     0.000 C 
BRANCH   2   3
ATOM      3  C   UNL     1      -5.904  64.851  50.872  1.00  0.00     0.000 C 
BRANCH   3   4
ATOM      4  C   UNL     1      -6.846  64.059  49.951  1.00  0.00     0.006 C 
BRANCH   4   5
ATOM      5  C   UNL     1      -8.251  64.672  49.877  1.00  0.00     0.053 C 
BRANCH   5   6
ATOM      6  C   UNL     1      -9.047  64.020  48.790  1.00  0.00     0.041 C 
ATOM      7  O   UNL     1     -10.058  64.598  48.311  1.00  0.00    -0.550 OA
ATOM      8  O   UNL     1      -8.699  62.754  48.339  1.00  0.00    -0.550 OA
ENDBRANCH   5   6
ENDBRANCH   4   5
ENDBRANCH   3   4
ENDBRANCH   2   3
ENDBRANCH   1   2
BRANCH   1   9
ATOM      9  C   UNL     1      -8.007  64.154  53.456  1.00  0.00     0.000 C 
BRANCH   9  10
ATOM     10  C   UNL     1      -7.856  62.911  54.349  1.00  0.00    -0.000 C 
BRANCH  10  11
ATOM     11  C   UNL     1      -7.604  61.630  53.540  1.00  0.00    -0.000 C 
BRANCH  11  12
ATOM     12  C   UNL     1      -6.351  60.899  54.049  1.00  0.00    -0.000 C 
BRANCH  12  13
ATOM     13  C   UNL     1      -6.304  60.804  55.582  1.00  0.00    -0.003 C 
ATOM     14  C   UNL     1      -6.291  59.361  56.086  1.00  0.00     0.004 C 
ENDBRANCH  12  13
ENDBRANCH  11  12
ENDBRANCH  10  11
ENDBRANCH   9  10
ENDBRANCH   1   9
TORSDOF 10
ENDMDL
MODEL 2
REMARK VINA RESULT:    -5.121      1.452      2.741
REMARK INTER + INTRA:          -8.846
REMARK INTER:                  -8.291
REMARK INTRA:                  -0.555
REMARK UNBOUND:                -0.731
REMARK SMILES CCCCCCCCCCCC(=O)[O-]
REMARK SMILES IDX 7 1 8 2 9 3 10 4 11 5 12 6 13 7 14 8 6 9 5 10 4 11 3 12 2 13
REMARK SMILES IDX 1 14
REMARK H PARENT
REMARK Flexibility Score: inf
ROOT
ATOM      1  C   UNL     1      -7.936  62.682  54.491  1.00  0.00     0.000 C 
ENDROOT
BRANCH   1   2
ATOM      2  C   UNL     1      -7.995  63.981  53.678  1.00  0.00     0.000 C 
BRANCH   2   3
ATOM      3  C   UNL     1      -6.614  64.333  53.100  1.00  0.00     0.000 C 
BRANCH   3   4
ATOM      4  C   UNL     1      -6.580  65.727  52.457  1.00  0.00     0.006 C 
BRANCH   4   5
ATOM      5  C   UNL     1      -6.044  65.701  51.019  1.00  0.00     0.053 C 
BRANCH   5   6
ATOM      6  C   UNL     1      -6.845  64.753  50.182  1.00  0.00     0.041 C 
ATOM      7  O   UNL     1      -8.082  64.933  50.031  1.00  0.00    -0.550 OA
ATOM      8  O   UNL     1      -6.235  63.644  49.610  1.00  0.00    -0.550 OA
ENDBRANCH   5   6
ENDBRANCH   4   5
ENDBRANCH   3   4
ENDBRANCH   2   3
ENDBRANCH   1   2
BRANCH   1   9
ATOM      9  C   UNL     1      -7.526  61.497  53.604  1.00  0.00     0.000 C 
BRANCH   9  10
ATOM     10  C   UNL     1      -6.336  60.711  54.178  1.00  0.00    -0.000 C 
BRANCH  10  11
ATOM     11  C   UNL     1      -6.322  60.696  55.714  1.00  0.00    -0.000 C 
BRANCH  11  12
ATOM     12  C   UNL     1      -5.999  59.291  56.246  1.00  0.00    -0.000 C 
BRANCH  12  13
ATOM     13  C   UNL     1      -4.494  58.983  56.224  1.00  0.00    -0.003 C 
ATOM     14  C   UNL     1      -3.819  59.228  57.573  1.00  0.00     0.004 C 
ENDBRANCH  12  13
ENDBRANCH  11  12
ENDBRANCH  10  11
ENDBRANCH   9  10
ENDBRANCH   1   9
TORSDOF 10
ENDMDL
MODEL 3
REMARK VINA RESULT:    -5.067      3.691      6.614
REMARK INTER + INTRA:          -8.760
REMARK INTER:                  -7.965
REMARK INTRA:                  -0.795
REMARK UNBOUND:                -0.731
REMARK SMILES CCCCCCCCCCCC(=O)[O-]
REMARK SMILES IDX 7 1 8 2 9 3 10 4 11 5 12 6 13 7 14 8 6 9 5 10 4 11 3 12 2 13
REMARK SMILES IDX 1 14
REMARK H PARENT
REMARK Flexibility Score: inf
ROOT
ATOM      1  C   UNL     1      -7.972  64.313  53.324  1.00  0.00     0.000 C 
ENDROOT
BRANCH   1   2
ATOM      2  C   UNL     1      -7.823  63.050  54.181  1.00  0.00     0.000 C 
BRANCH   2   3
ATOM      3  C   UNL     1      -7.547  61.818  53.304  1.00  0.00     0.000 C 
BRANCH   3   4
ATOM      4  C   UNL     1      -6.570  60.831  53.961  1.00  0.00     0.006 C 
BRANCH   4   5
ATOM      5  C   UNL     1      -6.321  61.145  55.442  1.00  0.00     0.053 C 
BRANCH   5   6
ATOM      6  C   UNL     1      -5.845  59.921  56.161  1.00  0.00     0.041 C 
ATOM      7  O   UNL     1      -4.753  59.940  56.787  1.00  0.00    -0.550 OA
ATOM      8  O   UNL     1      -6.583  58.747  56.097  1.00  0.00    -0.550 OA
ENDBRANCH   5   6
ENDBRANCH   4   5
ENDBRANCH   3   4
ENDBRANCH   2   3
ENDBRANCH   1   2
BRANCH   1   9
ATOM      9  C   UNL     1      -6.649  65.091  53.258  1.00  0.00     0.000 C 
BRANCH   9  10
ATOM     10  C   UNL     1      -6.331  65.598  51.842  1.00  0.00    -0.000 C 
BRANCH  10  11
ATOM     11  C   UNL     1      -6.272  64.465  50.807  1.00  0.00    -0.000 C 
BRANCH  11  12
ATOM     12  C   UNL     1      -7.087  64.823  49.555  1.00  0.00    -0.000 C 
BRANCH  12  13
ATOM     13  C   UNL     1      -8.542  64.334  49.637  1.00  0.00    -0.003 C 
ATOM     14  C   UNL     1      -9.361  64.700  48.400  1.00  0.00     0.004 C 
ENDBRANCH  12  13
ENDBRANCH  11  12
ENDBRANCH  10  11
ENDBRANCH   9  10
ENDBRANCH   1   9
TORSDOF 10
ENDMDL
MODEL 4
REMARK VINA RESULT:    -5.046      4.179      6.970
REMARK INTER + INTRA:          -8.727
REMARK INTER:                  -7.980
REMARK INTRA:                  -0.747
REMARK UNBOUND:                -0.731
REMARK SMILES CCCCCCCCCCCC(=O)[O-]
REMARK SMILES IDX 7 1 8 2 9 3 10 4 11 5 12 6 13 7 14 8 6 9 5 10 4 11 3 12 2 13
REMARK SMILES IDX 1 14
REMARK H PARENT
REMARK Flexibility Score: inf
ROOT
ATOM      1  C   UNL     1      -7.932  62.741  54.397  1.00  0.00     0.000 C 
ENDROOT
BRANCH   1   2
ATOM      2  C   UNL     1      -7.474  61.598  53.482  1.00  0.00     0.000 C 
BRANCH   2   3
ATOM      3  C   UNL     1      -6.224  60.906  54.048  1.00  0.00     0.000 C 
BRANCH   3   4
ATOM      4  C   UNL     1      -6.333  60.629  55.556  1.00  0.00     0.006 C 
BRANCH   4   5
ATOM      5  C   UNL     1      -5.970  59.182  55.917  1.00  0.00     0.053 C 
BRANCH   5   6
ATOM      6  C   UNL     1      -4.583  59.118  56.476  1.00  0.00     0.041 C 
ATOM      7  O   UNL     1      -4.193  59.985  57.302  1.00  0.00    -0.550 OA
ATOM      8  O   UNL     1      -3.706  58.130  56.048  1.00  0.00    -0.550 OA
ENDBRANCH   5   6
ENDBRANCH   4   5
ENDBRANCH   3   4
ENDBRANCH   2   3
ENDBRANCH   1   2
BRANCH   1   9
ATOM      9  C   UNL     1      -7.991  64.069  53.629  1.00  0.00     0.000 C 
BRANCH   9  10
ATOM     10  C   UNL     1      -6.607  64.543  53.157  1.00  0.00    -0.000 C 
BRANCH  10  11
ATOM     11  C   UNL     1      -6.691  65.610  52.055  1.00  0.00    -0.000 C 
BRANCH  11  12
ATOM     12  C   UNL     1      -6.072  65.096  50.746  1.00  0.00    -0.000 C 
BRANCH  12  13
ATOM     13  C   UNL     1      -6.942  64.032  50.059  1.00  0.00    -0.003 C 
ATOM     14  C   UNL     1      -8.325  64.557  49.673  1.00  0.00     0.004 C 
ENDBRANCH  12  13
ENDBRANCH  11  12
ENDBRANCH  10  11
ENDBRANCH   9  10
ENDBRANCH   1   9
TORSDOF 10
ENDMDL
MODEL 5
REMARK VINA RESULT:    -5.018     11.143     13.863
REMARK INTER + INTRA:          -8.682
REMARK INTER:                  -7.801
REMARK INTRA:                  -0.881
REMARK UNBOUND:                -0.731
REMARK SMILES CCCCCCCCCCCC(=O)[O-]
REMARK SMILES IDX 7 1 8 2 9 3 10 4 11 5 12 6 13 7 14 8 6 9 5 10 4 11 3 12 2 13
REMARK SMILES IDX 1 14
REMARK H PARENT
REMARK Flexibility Score: inf
ROOT
ATOM      1  C   UNL     1     -10.021  62.537  39.042  1.00  0.00     0.000 C 
ENDROOT
BRANCH   1   2
ATOM      2  C   UNL     1     -11.461  62.089  39.319  1.00  0.00     0.000 C 
BRANCH   2   3
ATOM      3  C   UNL     1     -11.485  60.789  40.138  1.00  0.00     0.000 C 
BRANCH   3   4
ATOM      4  C   UNL     1     -12.856  60.095  40.106  1.00  0.00     0.006 C 
BRANCH   4   5
ATOM      5  C   UNL     1     -13.472  60.068  38.701  1.00  0.00     0.053 C 
BRANCH   5   6
ATOM      6  C   UNL     1     -14.819  60.718  38.710  1.00  0.00     0.041 C 
ATOM      7  O   UNL     1     -15.853  60.037  38.484  1.00  0.00    -0.550 OA
ATOM      8  O   UNL     1     -14.929  62.087  38.922  1.00  0.00    -0.550 OA
ENDBRANCH   5   6
ENDBRANCH   4   5
ENDBRANCH   3   4
ENDBRANCH   2   3
ENDBRANCH   1   2
BRANCH   1   9
ATOM      9  C   UNL     1      -9.985  63.649  37.983  1.00  0.00     0.000 C 
BRANCH   9  10
ATOM     10  C   UNL     1      -9.078  64.823  38.387  1.00  0.00    -0.000 C 
BRANCH  10  11
ATOM     11  C   UNL     1      -8.110  64.460  39.522  1.00  0.00    -0.000 C 
BRANCH  11  12
ATOM     12  C   UNL     1      -8.270  65.422  40.709  1.00  0.00    -0.000 C 
BRANCH  12  13
ATOM     13  C   UNL     1      -9.633  65.279  41.406  1.00  0.00    -0.003 C 
ATOM     14  C   UNL     1      -9.720  64.031  42.285  1.00  0.00     0.004 C 
ENDBRANCH  12  13
ENDBRANCH  11  12
ENDBRANCH  10  11
ENDBRANCH   9  10
ENDBRANCH   1   9
TORSDOF 10
ENDMDL
MODEL 6
REMARK VINA RESULT:    -5.009     11.207     14.013
REMARK INTER + INTRA:          -8.669
REMARK INTER:                  -7.817
REMARK INTRA:                  -0.852
REMARK UNBOUND:                -0.731
REMARK SMILES CCCCCCCCCCCC(=O)[O-]
REMARK SMILES IDX 7 1 8 2 9 3 10 4 11 5 12 6 13 7 14 8 6 9 5 10 4 11 3 12 2 13
REMARK SMILES IDX 1 14
REMARK H PARENT
REMARK Flexibility Score: inf
ROOT
ATOM      1  C   UNL     1     -11.381  61.303  40.506  1.00  0.00     0.000 C 
ENDROOT
BRANCH   1   2
ATOM      2  C   UNL     1     -10.057  61.479  39.753  1.00  0.00     0.000 C 
BRANCH   2   3
ATOM      3  C   UNL     1     -10.178  62.565  38.672  1.00  0.00     0.000 C 
BRANCH   3   4
ATOM      4  C   UNL     1     -10.011  63.984  39.238  1.00  0.00     0.006 C 
BRANCH   4   5
ATOM      5  C   UNL     1      -8.856  64.087  40.243  1.00  0.00     0.053 C 
BRANCH   5   6
ATOM      6  C   UNL     1      -9.333  64.697  41.524  1.00  0.00     0.041 C 
ATOM      7  O   UNL     1      -9.812  63.969  42.432  1.00  0.00    -0.550 OA
ATOM      8  O   UNL     1      -9.294  66.075  41.694  1.00  0.00    -0.550 OA
ENDBRANCH   5   6
ENDBRANCH   4   5
ENDBRANCH   3   4
ENDBRANCH   2   3
ENDBRANCH   1   2
BRANCH   1   9
ATOM      9  C   UNL     1     -12.130  60.054  40.018  1.00  0.00     0.000 C 
BRANCH   9  10
ATOM     10  C   UNL     1     -13.320  60.395  39.105  1.00  0.00    -0.000 C 
BRANCH  10  11
ATOM     11  C   UNL     1     -13.795  61.846  39.270  1.00  0.00    -0.000 C 
BRANCH  11  12
ATOM     12  C   UNL     1     -15.069  62.102  38.449  1.00  0.00    -0.000 C 
BRANCH  12  13
ATOM     13  C   UNL     1     -15.905  60.829  38.245  1.00  0.00    -0.003 C 
ATOM     14  C   UNL     1     -17.041  60.697  39.260  1.00  0.00     0.004 C 
ENDBRANCH  12  13
ENDBRANCH  11  12
ENDBRANCH  10  11
ENDBRANCH   9  10
ENDBRANCH   1   9
TORSDOF 10
ENDMDL
MODEL 7
REMARK VINA RESULT:    -4.962      9.235     13.300
REMARK INTER + INTRA:          -8.594
REMARK INTER:                  -7.880
REMARK INTRA:                  -0.714
REMARK UNBOUND:                -0.731
REMARK SMILES CCCCCCCCCCCC(=O)[O-]
REMARK SMILES IDX 7 1 8 2 9 3 10 4 11 5 12 6 13 7 14 8 6 9 5 10 4 11 3 12 2 13
REMARK SMILES IDX 1 14
REMARK H PARENT
REMARK Flexibility Score: inf
ROOT
ATOM      1  C   UNL     1     -10.679  62.781  38.786  1.00  0.00     0.000 C 
ENDROOT
BRANCH   1   2
ATOM      2  C   UNL     1      -9.636  62.519  39.879  1.00  0.00     0.000 C 
BRANCH   2   3
ATOM      3  C   UNL     1      -9.364  63.790  40.698  1.00  0.00     0.000 C 
BRANCH   3   4
ATOM      4  C   UNL     1      -9.806  63.656  42.164  1.00  0.00     0.006 C 
BRANCH   4   5
ATOM      5  C   UNL     1     -10.028  62.196  42.582  1.00  0.00     0.053 C 
BRANCH   5   6
ATOM      6  C   UNL     1      -9.837  62.043  44.058  1.00  0.00     0.041 C 
ATOM      7  O   UNL     1      -9.380  62.997  44.740  1.00  0.00    -0.550 OA
ATOM      8  O   UNL     1     -10.118  60.829  44.673  1.00  0.00    -0.550 OA
ENDBRANCH   5   6
ENDBRANCH   4   5
ENDBRANCH   3   4
ENDBRANCH   2   3
ENDBRANCH   1   2
BRANCH   1   9
ATOM      9  C   UNL     1     -12.062  62.266  39.210  1.00  0.00     0.000 C 
BRANCH   9  10
ATOM     10  C   UNL     1     -12.019  60.828  39.750  1.00  0.00    -0.000 C 
BRANCH  10  11
ATOM     11  C   UNL     1     -13.146  59.950  39.187  1.00  0.00    -0.000 C 
BRANCH  11  12
ATOM     12  C   UNL     1     -14.524  60.520  39.561  1.00  0.00    -0.000 C 
BRANCH  12  13
ATOM     13  C   UNL     1     -15.455  60.660  38.347  1.00  0.00    -0.003 C 
ATOM     14  C   UNL     1     -16.932  60.521  38.714  1.00  0.00     0.004 C 
ENDBRANCH  12  13
ENDBRANCH  11  12
ENDBRANCH  10  11
ENDBRANCH   9  10
ENDBRANCH   1   9
TORSDOF 10
ENDMDL
MODEL 8
REMARK VINA RESULT:    -4.863     10.728     13.258
REMARK INTER + INTRA:          -8.437
REMARK INTER:                  -7.703
REMARK INTRA:                  -0.734
REMARK UNBOUND:                -0.731
REMARK SMILES CCCCCCCCCCCC(=O)[O-]
REMARK SMILES IDX 7 1 8 2 9 3 10 4 11 5 12 6 13 7 14 8 6 9 5 10 4 11 3 12 2 13
REMARK SMILES IDX 1 14
REMARK H PARENT
REMARK Flexibility Score: inf
ROOT
ATOM      1  C   UNL     1      -9.725  62.012  40.443  1.00  0.00     0.000 C 
ENDROOT
BRANCH   1   2
ATOM      2  C   UNL     1     -10.089  62.222  41.918  1.00  0.00     0.000 C 
BRANCH   2   3
ATOM      3  C   UNL     1      -9.684  63.627  42.390  1.00  0.00     0.000 C 
BRANCH   3   4
ATOM      4  C   UNL     1     -10.151  64.732  41.430  1.00  0.00     0.006 C 
BRANCH   4   5
ATOM      5  C   UNL     1      -9.047  65.754  41.124  1.00  0.00     0.053 C 
BRANCH   5   6
ATOM      6  C   UNL     1      -8.304  65.362  39.886  1.00  0.00     0.041 C 
ATOM      7  O   UNL     1      -8.744  65.693  38.753  1.00  0.00    -0.550 OA
ATOM      8  O   UNL     1      -7.153  64.591  39.980  1.00  0.00    -0.550 OA
ENDBRANCH   5   6
ENDBRANCH   4   5
ENDBRANCH   3   4
ENDBRANCH   2   3
ENDBRANCH   1   2
BRANCH   1   9
ATOM      9  C   UNL     1     -10.952  61.570  39.631  1.00  0.00     0.000 C 
BRANCH   9  10
ATOM     10  C   UNL     1     -11.981  60.807  40.481  1.00  0.00    -0.000 C 
BRANCH  10  11
ATOM     11  C   UNL     1     -12.598  59.615  39.734  1.00  0.00    -0.000 C 
BRANCH  11  12
ATOM     12  C   UNL     1     -13.593  60.093  38.665  1.00  0.00    -0.000 C 
BRANCH  12  13
ATOM     13  C   UNL     1     -14.667  61.032  39.235  1.00  0.00    -0.003 C 
ATOM     14  C   UNL     1     -16.082  60.474  39.084  1.00  0.00     0.004 C 
ENDBRANCH  12  13
ENDBRANCH  11  12
ENDBRANCH  10  11
ENDBRANCH   9  10
ENDBRANCH   1   9
TORSDOF 10
ENDMDL
MODEL 9
REMARK VINA RESULT:    -4.668     10.846     12.876
REMARK INTER + INTRA:          -8.129
REMARK INTER:                  -7.066
REMARK INTRA:                  -1.063
REMARK UNBOUND:                -0.731
REMARK SMILES CCCCCCCCCCCC(=O)[O-]
REMARK SMILES IDX 7 1 8 2 9 3 10 4 11 5 12 6 13 7 14 8 6 9 5 10 4 11 3 12 2 13
REMARK SMILES IDX 1 14
REMARK H PARENT
REMARK Flexibility Score: inf
ROOT
ATOM      1  C   UNL     1      -9.982  62.283  41.523  1.00  0.00     0.000 C 
ENDROOT
BRANCH   1   2
ATOM      2  C   UNL     1      -9.741  63.603  42.266  1.00  0.00     0.000 C 
BRANCH   2   3
ATOM      3  C   UNL     1     -10.003  64.808  41.348  1.00  0.00     0.000 C 
BRANCH   3   4
ATOM      4  C   UNL     1      -9.001  65.951  41.573  1.00  0.00     0.006 C 
BRANCH   4   5
ATOM      5  C   UNL     1      -8.402  66.477  40.261  1.00  0.00     0.053 C 
BRANCH   5   6
ATOM      6  C   UNL     1      -7.691  65.377  39.537  1.00  0.00     0.041 C 
ATOM      7  O   UNL     1      -6.717  64.789  40.077  1.00  0.00    -0.550 OA
ATOM      8  O   UNL     1      -8.073  65.035  38.246  1.00  0.00    -0.550 OA
ENDBRANCH   5   6
ENDBRANCH   4   5
ENDBRANCH   3   4
ENDBRANCH   2   3
ENDBRANCH   1   2
BRANCH   1   9
ATOM      9  C   UNL     1      -9.624  62.416  40.035  1.00  0.00     0.000 C 
BRANCH   9  10
ATOM     10  C   UNL     1     -10.707  61.837  39.110  1.00  0.00    -0.000 C 
BRANCH  10  11
ATOM     11  C   UNL     1     -11.965  62.715  39.051  1.00  0.00    -0.000 C 
BRANCH  11  12
ATOM     12  C   UNL     1     -13.236  61.862  39.196  1.00  0.00    -0.000 C 
BRANCH  12  13
ATOM     13  C   UNL     1     -12.930  60.412  39.602  1.00  0.00    -0.003 C 
ATOM     14  C   UNL     1     -13.262  60.125  41.067  1.00  0.00     0.004 C 
ENDBRANCH  12  13
ENDBRANCH  11  12
ENDBRANCH  10  11
ENDBRANCH   9  10
ENDBRANCH   1   9
TORSDOF 10
ENDMDL
