MODEL 1
REMARK VINA RESULT:    -3.777      0.000      0.000
REMARK INTER + INTRA:          -8.452
REMARK INTER:                  -6.427
REMARK INTRA:                  -2.024
REMARK UNBOUND:                -2.024
REMARK SMILES CCCCCCCCCCCCCC(=O)[O-]
REMARK SMILES IDX 8 1 9 2 10 3 11 4 12 5 13 6 14 7 15 8 16 9 7 10 6 11 5 12
REMARK SMILES IDX 4 13 3 14 2 15 1 16
REMARK H PARENT
REMARK Flexibility Score: inf
ROOT
ATOM      1  C   UNL     1      52.692  23.819  35.817  1.00  0.00     0.000 C 
ENDROOT
BRANCH   1   2
ATOM      2  C   UNL     1      53.549  24.615  34.825  1.00  0.00     0.000 C 
BRANCH   2   3
ATOM      3  C   UNL     1      53.601  26.101  35.212  1.00  0.00     0.000 C 
BRANCH   3   4
ATOM      4  C   UNL     1      53.538  27.033  33.991  1.00  0.00     0.000 C 
BRANCH   4   5
ATOM      5  C   UNL     1      53.764  28.509  34.362  1.00  0.00     0.006 C 
BRANCH   5   6
ATOM      6  C   UNL     1      52.813  28.979  35.471  1.00  0.00     0.053 C 
BRANCH   6   7
ATOM      7  C   UNL     1      53.558  29.592  36.617  1.00  0.00     0.041 C 
ATOM      8  O   UNL     1      53.128  30.640  37.165  1.00  0.00    -0.550 OA
ATOM      9  O   UNL     1      54.708  28.983  37.102  1.00  0.00    -0.550 OA
ENDBRANCH   6   7
ENDBRANCH   5   6
ENDBRANCH   4   5
ENDBRANCH   3   4
ENDBRANCH   2   3
ENDBRANCH   1   2
BRANCH   1  10
ATOM     10  C   UNL     1      51.748  24.749  36.597  1.00  0.00     0.000 C 
BRANCH  10  11
ATOM     11  C   UNL     1      50.299  24.675  36.091  1.00  0.00    -0.000 C 
BRANCH  11  12
ATOM     12  C   UNL     1      49.666  26.065  35.901  1.00  0.00    -0.000 C 
BRANCH  12  13
ATOM     13  C   UNL     1      49.937  26.643  34.496  1.00  0.00    -0.000 C 
BRANCH  13  14
ATOM     14  C   UNL     1      49.580  25.678  33.350  1.00  0.00    -0.000 C 
BRANCH  14  15
ATOM     15  C   UNL     1      50.785  25.165  32.544  1.00  0.00    -0.003 C 
ATOM     16  C   UNL     1      50.881  23.640  32.526  1.00  0.00     0.004 C 
ENDBRANCH  14  15
ENDBRANCH  13  14
ENDBRANCH  12  13
ENDBRANCH  11  12
ENDBRANCH  10  11
ENDBRANCH   1  10
TORSDOF 12
ENDMDL
MODEL 2
REMARK VINA RESULT:    -3.736      1.288      2.548
REMARK INTER + INTRA:          -8.382
REMARK INTER:                  -6.909
REMARK INTRA:                  -1.473
REMARK UNBOUND:                -2.024
REMARK SMILES CCCCCCCCCCCCCC(=O)[O-]
REMARK SMILES IDX 8 1 9 2 10 3 11 4 12 5 13 6 14 7 15 8 16 9 7 10 6 11 5 12
REMARK SMILES IDX 4 13 3 14 2 15 1 16
REMARK H PARENT
REMARK Flexibility Score: inf
ROOT
ATOM      1  C   UNL     1      54.106  26.081  34.144  1.00  0.00     0.000 C 
ENDROOT
BRANCH   1   2
ATOM      2  C   UNL     1      53.279  27.349  33.898  1.00  0.00     0.000 C 
BRANCH   2   3
ATOM      3  C   UNL     1      53.793  28.516  34.755  1.00  0.00     0.000 C 
BRANCH   3   4
ATOM      4  C   UNL     1      52.729  29.048  35.728  1.00  0.00     0.000 C 
BRANCH   4   5
ATOM      5  C   UNL     1      53.079  30.440  36.283  1.00  0.00     0.006 C 
BRANCH   5   6
ATOM      6  C   UNL     1      53.383  30.404  37.787  1.00  0.00     0.053 C 
BRANCH   6   7
ATOM      7  C   UNL     1      54.853  30.500  38.057  1.00  0.00     0.041 C 
ATOM      8  O   UNL     1      55.575  31.274  37.375  1.00  0.00    -0.550 OA
ATOM      9  O   UNL     1      55.420  29.761  39.087  1.00  0.00    -0.550 OA
ENDBRANCH   6   7
ENDBRANCH   5   6
ENDBRANCH   4   5
ENDBRANCH   3   4
ENDBRANCH   2   3
ENDBRANCH   1   2
BRANCH   1  10
ATOM     10  C   UNL     1      53.214  24.930  34.633  1.00  0.00     0.000 C 
BRANCH  10  11
ATOM     11  C   UNL     1      52.451  25.283  35.920  1.00  0.00    -0.000 C 
BRANCH  11  12
ATOM     12  C   UNL     1      51.259  24.345  36.177  1.00  0.00    -0.000 C 
BRANCH  12  13
ATOM     13  C   UNL     1      49.905  25.083  36.085  1.00  0.00    -0.000 C 
BRANCH  13  14
ATOM     14  C   UNL     1      50.010  26.496  35.482  1.00  0.00    -0.000 C 
BRANCH  14  15
ATOM     15  C   UNL     1      49.309  26.670  34.125  1.00  0.00    -0.003 C 
ATOM     16  C   UNL     1      49.993  25.895  33.000  1.00  0.00     0.004 C 
ENDBRANCH  14  15
ENDBRANCH  13  14
ENDBRANCH  12  13
ENDBRANCH  11  12
ENDBRANCH  10  11
ENDBRANCH   1  10
TORSDOF 12
ENDMDL
MODEL 3
REMARK VINA RESULT:    -3.722      1.477      2.609
REMARK INTER + INTRA:          -8.357
REMARK INTER:                  -6.947
REMARK INTRA:                  -1.410
REMARK UNBOUND:                -2.024
REMARK SMILES CCCCCCCCCCCCCC(=O)[O-]
REMARK SMILES IDX 8 1 9 2 10 3 11 4 12 5 13 6 14 7 15 8 16 9 7 10 6 11 5 12
REMARK SMILES IDX 4 13 3 14 2 15 1 16
REMARK H PARENT
REMARK Flexibility Score: inf
ROOT
ATOM      1  C   UNL     1      52.954  26.072  34.831  1.00  0.00     0.000 C 
ENDROOT
BRANCH   1   2
ATOM      2  C   UNL     1      53.756  27.279  35.333  1.00  0.00     0.000 C 
BRANCH   2   3
ATOM      3  C   UNL     1      53.651  28.455  34.350  1.00  0.00     0.000 C 
BRANCH   3   4
ATOM      4  C   UNL     1      52.768  29.595  34.885  1.00  0.00     0.000 C 
BRANCH   4   5
ATOM      5  C   UNL     1      52.738  29.647  36.423  1.00  0.00     0.006 C 
BRANCH   5   6
ATOM      6  C   UNL     1      53.529  30.840  36.976  1.00  0.00     0.053 C 
BRANCH   6   7
ATOM      7  C   UNL     1      54.750  30.397  37.722  1.00  0.00     0.041 C 
ATOM      8  O   UNL     1      54.813  30.530  38.972  1.00  0.00    -0.550 OA
ATOM      9  O   UNL     1      55.804  29.804  37.039  1.00  0.00    -0.550 OA
ENDBRANCH   6   7
ENDBRANCH   5   6
ENDBRANCH   4   5
ENDBRANCH   3   4
ENDBRANCH   2   3
ENDBRANCH   1   2
BRANCH   1  10
ATOM     10  C   UNL     1      52.459  26.300  33.394  1.00  0.00     0.000 C 
BRANCH  10  11
ATOM     11  C   UNL     1      50.981  25.920  33.213  1.00  0.00    -0.000 C 
BRANCH  11  12
ATOM     12  C   UNL     1      50.030  26.869  33.963  1.00  0.00    -0.000 C 
BRANCH  12  13
ATOM     13  C   UNL     1      48.992  26.105  34.813  1.00  0.00    -0.000 C 
BRANCH  13  14
ATOM     14  C   UNL     1      49.619  25.117  35.814  1.00  0.00    -0.000 C 
BRANCH  14  15
ATOM     15  C   UNL     1      49.482  23.635  35.428  1.00  0.00    -0.003 C 
ATOM     16  C   UNL     1      50.817  22.893  35.437  1.00  0.00     0.004 C 
ENDBRANCH  14  15
ENDBRANCH  13  14
ENDBRANCH  12  13
ENDBRANCH  11  12
ENDBRANCH  10  11
ENDBRANCH   1  10
TORSDOF 12
ENDMDL
MODEL 4
REMARK VINA RESULT:    -3.713      1.860      2.794
REMARK INTER + INTRA:          -8.342
REMARK INTER:                  -6.393
REMARK INTRA:                  -1.949
REMARK UNBOUND:                -2.024
REMARK SMILES CCCCCCCCCCCCCC(=O)[O-]
REMARK SMILES IDX 8 1 9 2 10 3 11 4 12 5 13 6 14 7 15 8 16 9 7 10 6 11 5 12
REMARK SMILES IDX 4 13 3 14 2 15 1 16
REMARK H PARENT
REMARK Flexibility Score: inf
ROOT
ATOM      1  C   UNL     1      53.179  24.854  34.623  1.00  0.00     0.000 C 
ENDROOT
BRANCH   1   2
ATOM      2  C   UNL     1      53.124  26.133  33.778  1.00  0.00     0.000 C 
BRANCH   2   3
ATOM      3  C   UNL     1      52.775  27.351  34.647  1.00  0.00     0.000 C 
BRANCH   3   4
ATOM      4  C   UNL     1      53.760  28.515  34.455  1.00  0.00     0.000 C 
BRANCH   4   5
ATOM      5  C   UNL     1      55.124  28.053  33.911  1.00  0.00     0.006 C 
BRANCH   5   6
ATOM      6  C   UNL     1      56.216  28.080  34.988  1.00  0.00     0.053 C 
BRANCH   6   7
ATOM      7  C   UNL     1      56.240  26.813  35.786  1.00  0.00     0.041 C 
ATOM      8  O   UNL     1      56.600  25.732  35.252  1.00  0.00    -0.550 OA
ATOM      9  O   UNL     1      55.896  26.834  37.132  1.00  0.00    -0.550 OA
ENDBRANCH   6   7
ENDBRANCH   5   6
ENDBRANCH   4   5
ENDBRANCH   3   4
ENDBRANCH   2   3
ENDBRANCH   1   2
BRANCH   1  10
ATOM     10  C   UNL     1      52.887  25.158  36.100  1.00  0.00     0.000 C 
BRANCH  10  11
ATOM     11  C   UNL     1      51.577  24.517  36.585  1.00  0.00    -0.000 C 
BRANCH  11  12
ATOM     12  C   UNL     1      50.872  23.704  35.486  1.00  0.00    -0.000 C 
BRANCH  12  13
ATOM     13  C   UNL     1      49.457  24.239  35.179  1.00  0.00    -0.000 C 
BRANCH  13  14
ATOM     14  C   UNL     1      49.280  25.737  35.491  1.00  0.00    -0.000 C 
BRANCH  14  15
ATOM     15  C   UNL     1      49.314  26.658  34.261  1.00  0.00    -0.003 C 
ATOM     16  C   UNL     1      49.246  25.890  32.942  1.00  0.00     0.004 C 
ENDBRANCH  14  15
ENDBRANCH  13  14
ENDBRANCH  12  13
ENDBRANCH  11  12
ENDBRANCH  10  11
ENDBRANCH   1  10
TORSDOF 12
ENDMDL
MODEL 5
REMARK VINA RESULT:    -3.706      1.616      2.577
REMARK INTER + INTRA:          -8.331
REMARK INTER:                  -6.969
REMARK INTRA:                  -1.361
REMARK UNBOUND:                -2.024
REMARK SMILES CCCCCCCCCCCCCC(=O)[O-]
REMARK SMILES IDX 8 1 9 2 10 3 11 4 12 5 13 6 14 7 15 8 16 9 7 10 6 11 5 12
REMARK SMILES IDX 4 13 3 14 2 15 1 16
REMARK H PARENT
REMARK Flexibility Score: inf
ROOT
ATOM      1  C   UNL     1      51.717  25.618  33.281  1.00  0.00     0.000 C 
ENDROOT
BRANCH   1   2
ATOM      2  C   UNL     1      52.336  26.372  34.464  1.00  0.00     0.000 C 
BRANCH   2   3
ATOM      3  C   UNL     1      53.563  27.182  34.019  1.00  0.00     0.000 C 
BRANCH   3   4
ATOM      4  C   UNL     1      53.475  28.661  34.427  1.00  0.00     0.000 C 
BRANCH   4   5
ATOM      5  C   UNL     1      52.573  28.883  35.654  1.00  0.00     0.006 C 
BRANCH   5   6
ATOM      6  C   UNL     1      53.168  29.906  36.632  1.00  0.00     0.053 C 
BRANCH   6   7
ATOM      7  C   UNL     1      54.505  29.468  37.146  1.00  0.00     0.041 C 
ATOM      8  O   UNL     1      54.660  28.304  37.600  1.00  0.00    -0.550 OA
ATOM      9  O   UNL     1      55.588  30.335  37.091  1.00  0.00    -0.550 OA
ENDBRANCH   6   7
ENDBRANCH   5   6
ENDBRANCH   4   5
ENDBRANCH   3   4
ENDBRANCH   2   3
ENDBRANCH   1   2
BRANCH   1  10
ATOM     10  C   UNL     1      50.331  26.183  32.933  1.00  0.00     0.000 C 
BRANCH  10  11
ATOM     11  C   UNL     1      49.556  26.648  34.176  1.00  0.00    -0.000 C 
BRANCH  11  12
ATOM     12  C   UNL     1      48.634  25.555  34.742  1.00  0.00    -0.000 C 
BRANCH  12  13
ATOM     13  C   UNL     1      48.214  24.529  33.667  1.00  0.00    -0.000 C 
BRANCH  13  14
ATOM     14  C   UNL     1      48.823  23.130  33.875  1.00  0.00    -0.000 C 
BRANCH  14  15
ATOM     15  C   UNL     1      49.309  22.846  35.306  1.00  0.00    -0.003 C 
ATOM     16  C   UNL     1      50.816  22.607  35.385  1.00  0.00     0.004 C 
ENDBRANCH  14  15
ENDBRANCH  13  14
ENDBRANCH  12  13
ENDBRANCH  11  12
ENDBRANCH  10  11
ENDBRANCH   1  10
TORSDOF 12
ENDMDL
MODEL 6
REMARK VINA RESULT:    -3.656      1.403      2.401
REMARK INTER + INTRA:          -8.245
REMARK INTER:                  -6.342
REMARK INTRA:                  -1.903
REMARK UNBOUND:                -2.024
REMARK SMILES CCCCCCCCCCCCCC(=O)[O-]
REMARK SMILES IDX 8 1 9 2 10 3 11 4 12 5 13 6 14 7 15 8 16 9 7 10 6 11 5 12
REMARK SMILES IDX 4 13 3 14 2 15 1 16
REMARK H PARENT
REMARK Flexibility Score: inf
ROOT
ATOM      1  C   UNL     1      50.651  25.113  36.241  1.00  0.00     0.000 C 
ENDROOT
BRANCH   1   2
ATOM      2  C   UNL     1      52.134  25.472  36.089  1.00  0.00     0.000 C 
BRANCH   2   3
ATOM      3  C   UNL     1      52.780  24.666  34.951  1.00  0.00     0.000 C 
BRANCH   3   4
ATOM      4  C   UNL     1      53.486  25.561  33.920  1.00  0.00     0.000 C 
BRANCH   4   5
ATOM      5  C   UNL     1      52.862  26.965  33.830  1.00  0.00     0.006 C 
BRANCH   5   6
ATOM      6  C   UNL     1      53.908  28.075  33.992  1.00  0.00     0.053 C 
BRANCH   6   7
ATOM      7  C   UNL     1      53.810  28.738  35.331  1.00  0.00     0.041 C 
ATOM      8  O   UNL     1      54.778  28.694  36.134  1.00  0.00    -0.550 OA
ATOM      9  O   UNL     1      52.660  29.436  35.678  1.00  0.00    -0.550 OA
ENDBRANCH   6   7
ENDBRANCH   5   6
ENDBRANCH   4   5
ENDBRANCH   3   4
ENDBRANCH   2   3
ENDBRANCH   1   2
BRANCH   1  10
ATOM     10  C   UNL     1      49.756  26.309  35.878  1.00  0.00     0.000 C 
BRANCH  10  11
ATOM     11  C   UNL     1      48.744  25.971  34.772  1.00  0.00    -0.000 C 
BRANCH  11  12
ATOM     12  C   UNL     1      49.340  26.109  33.361  1.00  0.00    -0.000 C 
BRANCH  12  13
ATOM     13  C   UNL     1      49.858  24.763  32.811  1.00  0.00    -0.000 C 
BRANCH  13  14
ATOM     14  C   UNL     1      49.093  23.539  33.348  1.00  0.00    -0.000 C 
BRANCH  14  15
ATOM     15  C   UNL     1      49.985  22.382  33.826  1.00  0.00    -0.003 C 
ATOM     16  C   UNL     1      49.519  21.782  35.152  1.00  0.00     0.004 C 
ENDBRANCH  14  15
ENDBRANCH  13  14
ENDBRANCH  12  13
ENDBRANCH  11  12
ENDBRANCH  10  11
ENDBRANCH   1  10
TORSDOF 12
ENDMDL
MODEL 7
REMARK VINA RESULT:    -3.656      1.697      3.805
REMARK INTER + INTRA:          -8.245
REMARK INTER:                  -6.340
REMARK INTRA:                  -1.905
REMARK UNBOUND:                -2.024
REMARK SMILES CCCCCCCCCCCCCC(=O)[O-]
REMARK SMILES IDX 8 1 9 2 10 3 11 4 12 5 13 6 14 7 15 8 16 9 7 10 6 11 5 12
REMARK SMILES IDX 4 13 3 14 2 15 1 16
REMARK H PARENT
REMARK Flexibility Score: inf
ROOT
ATOM      1  C   UNL     1      48.851  24.319  33.772  1.00  0.00     0.000 C 
ENDROOT
BRANCH   1   2
ATOM      2  C   UNL     1      48.696  25.700  34.420  1.00  0.00     0.000 C 
BRANCH   2   3
ATOM      3  C   UNL     1      49.631  26.725  33.761  1.00  0.00     0.000 C 
BRANCH   3   4
ATOM      4  C   UNL     1      50.857  26.071  33.106  1.00  0.00     0.000 C 
BRANCH   4   5
ATOM      5  C   UNL     1      52.184  26.557  33.715  1.00  0.00     0.006 C 
BRANCH   5   6
ATOM      6  C   UNL     1      51.962  27.533  34.878  1.00  0.00     0.053 C 
BRANCH   6   7
ATOM      7  C   UNL     1      52.943  28.665  34.847  1.00  0.00     0.041 C 
ATOM      8  O   UNL     1      54.006  28.566  34.179  1.00  0.00    -0.550 OA
ATOM      9  O   UNL     1      52.666  29.843  35.528  1.00  0.00    -0.550 OA
ENDBRANCH   6   7
ENDBRANCH   5   6
ENDBRANCH   4   5
ENDBRANCH   3   4
ENDBRANCH   2   3
ENDBRANCH   1   2
BRANCH   1  10
ATOM     10  C   UNL     1      48.980  23.222  34.841  1.00  0.00     0.000 C 
BRANCH  10  11
ATOM     11  C   UNL     1      50.234  22.355  34.647  1.00  0.00    -0.000 C 
BRANCH  11  12
ATOM     12  C   UNL     1      51.526  23.080  35.063  1.00  0.00    -0.000 C 
BRANCH  12  13
ATOM     13  C   UNL     1      51.339  23.914  36.349  1.00  0.00    -0.000 C 
BRANCH  13  14
ATOM     14  C   UNL     1      52.644  24.541  36.874  1.00  0.00    -0.000 C 
BRANCH  14  15
ATOM     15  C   UNL     1      53.878  24.292  35.992  1.00  0.00    -0.003 C 
ATOM     16  C   UNL     1      54.971  25.342  36.190  1.00  0.00     0.004 C 
ENDBRANCH  14  15
ENDBRANCH  13  14
ENDBRANCH  12  13
ENDBRANCH  11  12
ENDBRANCH  10  11
ENDBRANCH   1  10
TORSDOF 12
ENDMDL
MODEL 8
REMARK VINA RESULT:    -3.649      1.585      3.356
REMARK INTER + INTRA:          -8.234
REMARK INTER:                  -6.304
REMARK INTRA:                  -1.929
REMARK UNBOUND:                -2.024
REMARK SMILES CCCCCCCCCCCCCC(=O)[O-]
REMARK SMILES IDX 8 1 9 2 10 3 11 4 12 5 13 6 14 7 15 8 16 9 7 10 6 11 5 12
REMARK SMILES IDX 4 13 3 14 2 15 1 16
REMARK H PARENT
REMARK Flexibility Score: inf
ROOT
ATOM      1  C   UNL     1      48.936  26.263  34.367  1.00  0.00     0.000 C 
ENDROOT
BRANCH   1   2
ATOM      2  C   UNL     1      50.337  26.876  34.256  1.00  0.00     0.000 C 
BRANCH   2   3
ATOM      3  C   UNL     1      51.203  26.092  33.258  1.00  0.00     0.000 C 
BRANCH   3   4
ATOM      4  C   UNL     1      52.689  26.079  33.647  1.00  0.00     0.000 C 
BRANCH   4   5
ATOM      5  C   UNL     1      53.029  27.130  34.719  1.00  0.00     0.006 C 
BRANCH   5   6
ATOM      6  C   UNL     1      54.529  27.164  35.042  1.00  0.00     0.053 C 
BRANCH   6   7
ATOM      7  C   UNL     1      54.941  28.480  35.626  1.00  0.00     0.041 C 
ATOM      8  O   UNL     1      54.071  29.301  36.016  1.00  0.00    -0.550 OA
ATOM      9  O   UNL     1      56.289  28.784  35.771  1.00  0.00    -0.550 OA
ENDBRANCH   6   7
ENDBRANCH   5   6
ENDBRANCH   4   5
ENDBRANCH   3   4
ENDBRANCH   2   3
ENDBRANCH   1   2
BRANCH   1  10
ATOM     10  C   UNL     1      48.746  25.135  33.341  1.00  0.00     0.000 C 
BRANCH  10  11
ATOM     11  C   UNL     1      47.913  23.969  33.895  1.00  0.00    -0.000 C 
BRANCH  11  12
ATOM     12  C   UNL     1      48.743  23.006  34.761  1.00  0.00    -0.000 C 
BRANCH  12  13
ATOM     13  C   UNL     1      50.101  22.659  34.112  1.00  0.00    -0.000 C 
BRANCH  13  14
ATOM     14  C   UNL     1      51.302  22.831  35.059  1.00  0.00    -0.000 C 
BRANCH  14  15
ATOM     15  C   UNL     1      51.080  23.833  36.204  1.00  0.00    -0.003 C 
ATOM     16  C   UNL     1      52.375  24.209  36.923  1.00  0.00     0.004 C 
ENDBRANCH  14  15
ENDBRANCH  13  14
ENDBRANCH  12  13
ENDBRANCH  11  12
ENDBRANCH  10  11
ENDBRANCH   1  10
TORSDOF 12
ENDMDL
MODEL 9
REMARK VINA RESULT:    -3.625      0.882      2.313
REMARK INTER + INTRA:          -8.192
REMARK INTER:                  -6.372
REMARK INTRA:                  -1.820
REMARK UNBOUND:                -2.024
REMARK SMILES CCCCCCCCCCCCCC(=O)[O-]
REMARK SMILES IDX 8 1 9 2 10 3 11 4 12 5 13 6 14 7 15 8 16 9 7 10 6 11 5 12
REMARK SMILES IDX 4 13 3 14 2 15 1 16
REMARK H PARENT
REMARK Flexibility Score: inf
ROOT
ATOM      1  C   UNL     1      53.316  24.642  35.189  1.00  0.00     0.000 C 
ENDROOT
BRANCH   1   2
ATOM      2  C   UNL     1      53.652  26.122  35.412  1.00  0.00     0.000 C 
BRANCH   2   3
ATOM      3  C   UNL     1      53.363  26.947  34.149  1.00  0.00     0.000 C 
BRANCH   3   4
ATOM      4  C   UNL     1      53.868  28.394  34.260  1.00  0.00     0.000 C 
BRANCH   4   5
ATOM      5  C   UNL     1      52.756  29.380  34.660  1.00  0.00     0.006 C 
BRANCH   5   6
ATOM      6  C   UNL     1      52.560  29.444  36.181  1.00  0.00     0.053 C 
BRANCH   6   7
ATOM      7  C   UNL     1      53.737  30.069  36.865  1.00  0.00     0.041 C 
ATOM      8  O   UNL     1      53.864  31.321  36.894  1.00  0.00    -0.550 OA
ATOM      9  O   UNL     1      54.676  29.268  37.502  1.00  0.00    -0.550 OA
ENDBRANCH   6   7
ENDBRANCH   5   6
ENDBRANCH   4   5
ENDBRANCH   3   4
ENDBRANCH   2   3
ENDBRANCH   1   2
BRANCH   1  10
ATOM     10  C   UNL     1      53.448  24.266  33.705  1.00  0.00     0.000 C 
BRANCH  10  11
ATOM     11  C   UNL     1      52.246  23.454  33.195  1.00  0.00    -0.000 C 
BRANCH  11  12
ATOM     12  C   UNL     1      51.287  24.294  32.334  1.00  0.00    -0.000 C 
BRANCH  12  13
ATOM     13  C   UNL     1      50.024  24.721  33.114  1.00  0.00    -0.000 C 
BRANCH  13  14
ATOM     14  C   UNL     1      49.851  26.247  33.225  1.00  0.00    -0.000 C 
BRANCH  14  15
ATOM     15  C   UNL     1      49.789  26.785  34.663  1.00  0.00    -0.003 C 
ATOM     16  C   UNL     1      49.777  25.673  35.712  1.00  0.00     0.004 C 
ENDBRANCH  14  15
ENDBRANCH  13  14
ENDBRANCH  12  13
ENDBRANCH  11  12
ENDBRANCH  10  11
ENDBRANCH   1  10
TORSDOF 12
ENDMDL
