MODEL 1
REMARK VINA RESULT:    -5.761      0.000      0.000
REMARK INTER + INTRA:          -7.453
REMARK INTER:                  -7.108
REMARK INTRA:                  -0.345
REMARK UNBOUND:                -0.345
REMARK SMILES Oc1cc(O)c2cc(O)c(-c3cc(O)c(O)c(O)c3)[o+]c2c1
REMARK SMILES IDX 10 1 20 2 21 3 22 4 2 5 3 6 4 7 6 8 7 9 8 10 11 11 12 12
REMARK SMILES IDX 13 13 19 14 15 15 17 16 14 17 16 19 18 21 9 23 1 25 5 27
REMARK H PARENT 14 18 16 20 18 22 9 24 1 26 5 28
REMARK Flexibility Score: inf
ROOT
ATOM      1  C   UNL     1       6.723  -1.298  -8.165  1.00  0.00     0.402 A 
ATOM      2  O   UNL     1       6.049  -2.424  -8.387  1.00  0.00    -0.202 OA
ATOM      3  C   UNL     1       6.568  -3.634  -8.207  1.00  0.00     0.368 A 
ATOM      4  C   UNL     1       5.779  -4.757  -8.465  1.00  0.00     0.162 A 
ATOM      5  C   UNL     1       6.296  -6.039  -8.283  1.00  0.00     0.128 A 
ATOM      6  C   UNL     1       7.612  -6.203  -7.837  1.00  0.00     0.093 A 
ATOM      7  C   UNL     1       8.424  -5.093  -7.571  1.00  0.00     0.136 A 
ATOM      8  C   UNL     1       7.901  -3.786  -7.759  1.00  0.00     0.125 A 
ATOM      9  C   UNL     1       8.645  -2.618  -7.529  1.00  0.00     0.078 A 
ATOM     10  C   UNL     1       8.064  -1.363  -7.741  1.00  0.00     0.223 A 
ENDROOT
BRANCH   1  11
ATOM     11  C   UNL     1       6.030  -0.010  -8.392  1.00  0.00     0.091 A 
ATOM     12  C   UNL     1       5.177   0.499  -7.400  1.00  0.00     0.068 A 
ATOM     13  C   UNL     1       4.525   1.723  -7.578  1.00  0.00     0.162 A 
ATOM     14  C   UNL     1       6.249   0.744  -9.557  1.00  0.00     0.068 A 
ATOM     15  C   UNL     1       4.731   2.463  -8.755  1.00  0.00     0.200 A 
ATOM     16  C   UNL     1       5.600   1.973  -9.744  1.00  0.00     0.162 A 
BRANCH  13  17
ATOM     17  O   UNL     1       3.675   2.187  -6.575  1.00  0.00    -0.504 OA
ATOM     18  H   UNL     1       3.332   1.585  -5.836  1.00  0.00     0.293 HD
ENDBRANCH  13  17
BRANCH  15  19
ATOM     19  O   UNL     1       4.074   3.682  -8.927  1.00  0.00    -0.502 OA
ATOM     20  H   UNL     1       4.471   4.559  -8.612  1.00  0.00     0.293 HD
ENDBRANCH  15  19
BRANCH  16  21
ATOM     21  O   UNL     1       5.821   2.709 -10.907  1.00  0.00    -0.504 OA
ATOM     22  H   UNL     1       5.176   3.430 -11.211  1.00  0.00     0.293 HD
ENDBRANCH  16  21
ENDBRANCH   1  11
BRANCH  10  23
ATOM     23  O   UNL     1       8.817  -0.203  -7.562  1.00  0.00    -0.500 OA
ATOM     24  H   UNL     1       8.381   0.686  -7.349  1.00  0.00     0.294 HD
ENDBRANCH  10  23
BRANCH   5  25
ATOM     25  O   UNL     1       5.494  -7.147  -8.546  1.00  0.00    -0.507 OA
ATOM     26  H   UNL     1       4.695  -7.373  -7.965  1.00  0.00     0.293 HD
ENDBRANCH   5  25
BRANCH   7  27
ATOM     27  O   UNL     1       9.726  -5.339  -7.126  1.00  0.00    -0.507 OA
ATOM     28  H   UNL     1       9.955  -5.855  -6.289  1.00  0.00     0.293 HD
ENDBRANCH   7  27
TORSDOF 7
ENDMDL
MODEL 2
REMARK VINA RESULT:    -5.728      0.117      1.797
REMARK INTER + INTRA:          -7.413
REMARK INTER:                  -7.050
REMARK INTRA:                  -0.363
REMARK UNBOUND:                -0.345
REMARK SMILES Oc1cc(O)c2cc(O)c(-c3cc(O)c(O)c(O)c3)[o+]c2c1
REMARK SMILES IDX 10 1 20 2 21 3 22 4 2 5 3 6 4 7 6 8 7 9 8 10 11 11 12 12
REMARK SMILES IDX 13 13 19 14 15 15 17 16 14 17 16 19 18 21 9 23 1 25 5 27
REMARK H PARENT 14 18 16 20 18 22 9 24 1 26 5 28
REMARK Flexibility Score: inf
ROOT
ATOM      1  C   UNL     1       6.711  -1.362  -8.134  1.00  0.00     0.402 A 
ATOM      2  O   UNL     1       6.035  -2.478  -8.390  1.00  0.00    -0.202 OA
ATOM      3  C   UNL     1       6.552  -3.694  -8.251  1.00  0.00     0.368 A 
ATOM      4  C   UNL     1       5.760  -4.808  -8.542  1.00  0.00     0.162 A 
ATOM      5  C   UNL     1       6.276  -6.096  -8.402  1.00  0.00     0.128 A 
ATOM      6  C   UNL     1       7.593  -6.276  -7.965  1.00  0.00     0.093 A 
ATOM      7  C   UNL     1       8.407  -5.176  -7.666  1.00  0.00     0.136 A 
ATOM      8  C   UNL     1       7.886  -3.864  -7.811  1.00  0.00     0.125 A 
ATOM      9  C   UNL     1       8.633  -2.704  -7.546  1.00  0.00     0.078 A 
ATOM     10  C   UNL     1       8.053  -1.442  -7.717  1.00  0.00     0.223 A 
ENDROOT
BRANCH   1  11
ATOM     11  C   UNL     1       6.020  -0.066  -8.318  1.00  0.00     0.091 A 
ATOM     12  C   UNL     1       6.168   0.629  -9.529  1.00  0.00     0.068 A 
ATOM     13  C   UNL     1       5.512   1.846  -9.739  1.00  0.00     0.162 A 
ATOM     14  C   UNL     1       5.173   0.460  -7.328  1.00  0.00     0.068 A 
ATOM     15  C   UNL     1       4.683   2.378  -8.736  1.00  0.00     0.200 A 
ATOM     16  C   UNL     1       4.511   1.679  -7.530  1.00  0.00     0.162 A 
BRANCH  13  17
ATOM     17  O   UNL     1       5.696   2.512 -10.950  1.00  0.00    -0.504 OA
ATOM     18  H   UNL     1       5.808   2.018 -11.827  1.00  0.00     0.293 HD
ENDBRANCH  13  17
BRANCH  15  19
ATOM     19  O   UNL     1       4.034   3.595  -8.952  1.00  0.00    -0.502 OA
ATOM     20  H   UNL     1       3.278   3.916  -8.360  1.00  0.00     0.293 HD
ENDBRANCH  15  19
BRANCH  16  21
ATOM     21  O   UNL     1       3.677   2.194  -6.538  1.00  0.00    -0.504 OA
ATOM     22  H   UNL     1       3.546   3.191  -6.418  1.00  0.00     0.293 HD
ENDBRANCH  16  21
ENDBRANCH   1  11
BRANCH  10  23
ATOM     23  O   UNL     1       8.809  -0.290  -7.503  1.00  0.00    -0.500 OA
ATOM     24  H   UNL     1       9.569  -0.030  -8.120  1.00  0.00     0.294 HD
ENDBRANCH  10  23
BRANCH   5  25
ATOM     25  O   UNL     1       5.471  -7.194  -8.698  1.00  0.00    -0.507 OA
ATOM     26  H   UNL     1       5.688  -8.119  -8.348  1.00  0.00     0.293 HD
ENDBRANCH   5  25
BRANCH   7  27
ATOM     27  O   UNL     1       9.711  -5.439  -7.233  1.00  0.00    -0.507 OA
ATOM     28  H   UNL     1      10.400  -5.941  -7.772  1.00  0.00     0.293 HD
ENDBRANCH   7  27
TORSDOF 7
ENDMDL
MODEL 3
REMARK VINA RESULT:    -5.127      1.107      3.082
REMARK INTER + INTRA:          -6.671
REMARK INTER:                  -6.410
REMARK INTRA:                  -0.261
REMARK UNBOUND:                -0.345
REMARK SMILES Oc1cc(O)c2cc(O)c(-c3cc(O)c(O)c(O)c3)[o+]c2c1
REMARK SMILES IDX 10 1 20 2 21 3 22 4 2 5 3 6 4 7 6 8 7 9 8 10 11 11 12 12
REMARK SMILES IDX 13 13 19 14 15 15 17 16 14 17 16 19 18 21 9 23 1 25 5 27
REMARK H PARENT 14 18 16 20 18 22 9 24 1 26 5 28
REMARK Flexibility Score: inf
ROOT
ATOM      1  C   UNL     1       5.928  -1.597  -8.773  1.00  0.00     0.402 A 
ATOM      2  O   UNL     1       6.943  -1.932  -7.980  1.00  0.00    -0.202 OA
ATOM      3  C   UNL     1       7.438  -3.163  -7.908  1.00  0.00     0.368 A 
ATOM      4  C   UNL     1       8.508  -3.415  -7.046  1.00  0.00     0.162 A 
ATOM      5  C   UNL     1       9.050  -4.697  -6.952  1.00  0.00     0.128 A 
ATOM      6  C   UNL     1       8.521  -5.736  -7.725  1.00  0.00     0.093 A 
ATOM      7  C   UNL     1       7.449  -5.509  -8.597  1.00  0.00     0.136 A 
ATOM      8  C   UNL     1       6.893  -4.206  -8.693  1.00  0.00     0.125 A 
ATOM      9  C   UNL     1       5.810  -3.890  -9.529  1.00  0.00     0.078 A 
ATOM     10  C   UNL     1       5.312  -2.583  -9.567  1.00  0.00     0.223 A 
ENDROOT
BRANCH   1  11
ATOM     11  C   UNL     1       5.473  -0.188  -8.772  1.00  0.00     0.091 A 
ATOM     12  C   UNL     1       5.641   0.591  -9.927  1.00  0.00     0.068 A 
ATOM     13  C   UNL     1       5.203   1.919  -9.963  1.00  0.00     0.162 A 
ATOM     14  C   UNL     1       4.827   0.372  -7.657  1.00  0.00     0.068 A 
ATOM     15  C   UNL     1       4.576   2.481  -8.838  1.00  0.00     0.200 A 
ATOM     16  C   UNL     1       4.384   1.702  -7.684  1.00  0.00     0.162 A 
BRANCH  13  17
ATOM     17  O   UNL     1       5.401   2.664 -11.125  1.00  0.00    -0.504 OA
ATOM     18  H   UNL     1       4.894   3.522 -11.309  1.00  0.00     0.293 HD
ENDBRANCH  13  17
BRANCH  15  19
ATOM     19  O   UNL     1       4.146   3.808  -8.880  1.00  0.00    -0.502 OA
ATOM     20  H   UNL     1       3.591   4.219  -8.139  1.00  0.00     0.293 HD
ENDBRANCH  15  19
BRANCH  16  21
ATOM     21  O   UNL     1       3.749   2.249  -6.570  1.00  0.00    -0.504 OA
ATOM     22  H   UNL     1       4.274   2.655  -5.804  1.00  0.00     0.293 HD
ENDBRANCH  16  21
ENDBRANCH   1  11
BRANCH  10  23
ATOM     23  O   UNL     1       4.205  -2.278 -10.359  1.00  0.00    -0.500 OA
ATOM     24  H   UNL     1       3.791  -2.963 -10.980  1.00  0.00     0.294 HD
ENDBRANCH  10  23
BRANCH   5  25
ATOM     25  O   UNL     1      10.117  -4.929  -6.087  1.00  0.00    -0.507 OA
ATOM     26  H   UNL     1       9.998  -5.452  -5.227  1.00  0.00     0.293 HD
ENDBRANCH   5  25
BRANCH   7  27
ATOM     27  O   UNL     1       6.978  -6.598  -9.337  1.00  0.00    -0.507 OA
ATOM     28  H   UNL     1       7.571  -7.259  -9.816  1.00  0.00     0.293 HD
ENDBRANCH   7  27
TORSDOF 7
ENDMDL
MODEL 4
REMARK VINA RESULT:    -4.912     12.238     13.778
REMARK INTER + INTRA:          -6.406
REMARK INTER:                  -6.037
REMARK INTRA:                  -0.369
REMARK UNBOUND:                -0.345
REMARK SMILES Oc1cc(O)c2cc(O)c(-c3cc(O)c(O)c(O)c3)[o+]c2c1
REMARK SMILES IDX 10 1 20 2 21 3 22 4 2 5 3 6 4 7 6 8 7 9 8 10 11 11 12 12
REMARK SMILES IDX 13 13 19 14 15 15 17 16 14 17 16 19 18 21 9 23 1 25 5 27
REMARK H PARENT 14 18 16 20 18 22 9 24 1 26 5 28
REMARK Flexibility Score: inf
ROOT
ATOM      1  C   UNL     1      -6.073  -5.186  -7.666  1.00  0.00     0.402 A 
ATOM      2  O   UNL     1      -6.918  -5.431  -6.668  1.00  0.00    -0.202 OA
ATOM      3  C   UNL     1      -7.634  -6.547  -6.574  1.00  0.00     0.368 A 
ATOM      4  C   UNL     1      -8.493  -6.714  -5.486  1.00  0.00     0.162 A 
ATOM      5  C   UNL     1      -9.254  -7.875  -5.360  1.00  0.00     0.128 A 
ATOM      6  C   UNL     1      -9.156  -8.881  -6.328  1.00  0.00     0.093 A 
ATOM      7  C   UNL     1      -8.302  -8.738  -7.428  1.00  0.00     0.136 A 
ATOM      8  C   UNL     1      -7.528  -7.556  -7.561  1.00  0.00     0.125 A 
ATOM      9  C   UNL     1      -6.656  -7.321  -8.636  1.00  0.00     0.078 A 
ATOM     10  C   UNL     1      -5.929  -6.128  -8.702  1.00  0.00     0.223 A 
ENDROOT
BRANCH   1  11
ATOM     11  C   UNL     1      -5.324  -3.909  -7.652  1.00  0.00     0.091 A 
ATOM     12  C   UNL     1      -4.008  -3.886  -7.163  1.00  0.00     0.068 A 
ATOM     13  C   UNL     1      -3.269  -2.699  -7.156  1.00  0.00     0.162 A 
ATOM     14  C   UNL     1      -5.881  -2.727  -8.169  1.00  0.00     0.068 A 
ATOM     15  C   UNL     1      -3.839  -1.515  -7.655  1.00  0.00     0.200 A 
ATOM     16  C   UNL     1      -5.148  -1.532  -8.166  1.00  0.00     0.162 A 
BRANCH  13  17
ATOM     17  O   UNL     1      -1.970  -2.715  -6.649  1.00  0.00    -0.504 OA
ATOM     18  H   UNL     1      -1.736  -2.308  -5.752  1.00  0.00     0.293 HD
ENDBRANCH  13  17
BRANCH  15  19
ATOM     19  O   UNL     1      -3.096  -0.334  -7.641  1.00  0.00    -0.502 OA
ATOM     20  H   UNL     1      -3.038   0.258  -6.821  1.00  0.00     0.293 HD
ENDBRANCH  15  19
BRANCH  16  21
ATOM     21  O   UNL     1      -5.713  -0.365  -8.677  1.00  0.00    -0.504 OA
ATOM     22  H   UNL     1      -6.544  -0.386  -9.257  1.00  0.00     0.293 HD
ENDBRANCH  16  21
ENDBRANCH   1  11
BRANCH  10  23
ATOM     23  O   UNL     1      -5.100  -5.872  -9.794  1.00  0.00    -0.500 OA
ATOM     24  H   UNL     1      -4.226  -5.370  -9.693  1.00  0.00     0.294 HD
ENDBRANCH  10  23
BRANCH   5  25
ATOM     25  O   UNL     1     -10.106  -8.024  -4.268  1.00  0.00    -0.507 OA
ATOM     26  H   UNL     1     -10.669  -8.857  -4.144  1.00  0.00     0.293 HD
ENDBRANCH   5  25
BRANCH   7  27
ATOM     27  O   UNL     1      -8.258  -9.788  -8.351  1.00  0.00    -0.507 OA
ATOM     28  H   UNL     1      -8.083 -10.752  -8.109  1.00  0.00     0.293 HD
ENDBRANCH   7  27
TORSDOF 7
ENDMDL
MODEL 5
REMARK VINA RESULT:    -4.895     12.563     15.005
REMARK INTER + INTRA:          -6.385
REMARK INTER:                  -6.161
REMARK INTRA:                  -0.225
REMARK UNBOUND:                -0.345
REMARK SMILES Oc1cc(O)c2cc(O)c(-c3cc(O)c(O)c(O)c3)[o+]c2c1
REMARK SMILES IDX 10 1 20 2 21 3 22 4 2 5 3 6 4 7 6 8 7 9 8 10 11 11 12 12
REMARK SMILES IDX 13 13 19 14 15 15 17 16 14 17 16 19 18 21 9 23 1 25 5 27
REMARK H PARENT 14 18 16 20 18 22 9 24 1 26 5 28
REMARK Flexibility Score: inf
ROOT
ATOM      1  C   UNL     1      -6.412  -5.504  -7.545  1.00  0.00     0.402 A 
ATOM      2  O   UNL     1      -6.833  -4.246  -7.646  1.00  0.00    -0.202 OA
ATOM      3  C   UNL     1      -6.070  -3.254  -8.093  1.00  0.00     0.368 A 
ATOM      4  C   UNL     1      -6.604  -1.965  -8.164  1.00  0.00     0.162 A 
ATOM      5  C   UNL     1      -5.827  -0.905  -8.632  1.00  0.00     0.128 A 
ATOM      6  C   UNL     1      -4.506  -1.133  -9.033  1.00  0.00     0.093 A 
ATOM      7  C   UNL     1      -3.947  -2.416  -8.971  1.00  0.00     0.136 A 
ATOM      8  C   UNL     1      -4.734  -3.496  -8.493  1.00  0.00     0.125 A 
ATOM      9  C   UNL     1      -4.254  -4.812  -8.385  1.00  0.00     0.078 A 
ATOM     10  C   UNL     1      -5.087  -5.825  -7.899  1.00  0.00     0.223 A 
ENDROOT
BRANCH   1  11
ATOM     11  C   UNL     1      -7.361  -6.523  -7.043  1.00  0.00     0.091 A 
ATOM     12  C   UNL     1      -7.934  -6.364  -5.772  1.00  0.00     0.068 A 
ATOM     13  C   UNL     1      -8.849  -7.300  -5.278  1.00  0.00     0.162 A 
ATOM     14  C   UNL     1      -7.745  -7.620  -7.833  1.00  0.00     0.068 A 
ATOM     15  C   UNL     1      -9.214  -8.407  -6.065  1.00  0.00     0.200 A 
ATOM     16  C   UNL     1      -8.662  -8.562  -7.348  1.00  0.00     0.162 A 
BRANCH  13  17
ATOM     17  O   UNL     1      -9.386  -7.114  -4.005  1.00  0.00    -0.504 OA
ATOM     18  H   UNL     1      -9.143  -7.712  -3.224  1.00  0.00     0.293 HD
ENDBRANCH  13  17
BRANCH  15  19
ATOM     19  O   UNL     1     -10.124  -9.337  -5.564  1.00  0.00    -0.502 OA
ATOM     20  H   UNL     1     -10.987  -9.060  -5.111  1.00  0.00     0.293 HD
ENDBRANCH  15  19
BRANCH  16  21
ATOM     21  O   UNL     1      -9.031  -9.649  -8.139  1.00  0.00    -0.504 OA
ATOM     22  H   UNL     1      -9.960  -9.726  -8.537  1.00  0.00     0.293 HD
ENDBRANCH  16  21
ENDBRANCH   1  11
BRANCH  10  23
ATOM     23  O   UNL     1      -4.597  -7.121  -7.744  1.00  0.00    -0.500 OA
ATOM     24  H   UNL     1      -4.341  -7.487  -6.834  1.00  0.00     0.294 HD
ENDBRANCH  10  23
BRANCH   5  25
ATOM     25  O   UNL     1      -6.377   0.373  -8.696  1.00  0.00    -0.507 OA
ATOM     26  H   UNL     1      -6.640   0.793  -9.579  1.00  0.00     0.293 HD
ENDBRANCH   5  25
BRANCH   7  27
ATOM     27  O   UNL     1      -2.622  -2.562  -9.393  1.00  0.00    -0.507 OA
ATOM     28  H   UNL     1      -2.348  -2.924 -10.294  1.00  0.00     0.293 HD
ENDBRANCH   7  27
TORSDOF 7
ENDMDL
MODEL 6
REMARK VINA RESULT:    -4.887     12.248     13.807
REMARK INTER + INTRA:          -6.376
REMARK INTER:                  -5.993
REMARK INTRA:                  -0.383
REMARK UNBOUND:                -0.345
REMARK SMILES Oc1cc(O)c2cc(O)c(-c3cc(O)c(O)c(O)c3)[o+]c2c1
REMARK SMILES IDX 10 1 20 2 21 3 22 4 2 5 3 6 4 7 6 8 7 9 8 10 11 11 12 12
REMARK SMILES IDX 13 13 19 14 15 15 17 16 14 17 16 19 18 21 9 23 1 25 5 27
REMARK H PARENT 14 18 16 20 18 22 9 24 1 26 5 28
REMARK Flexibility Score: inf
ROOT
ATOM      1  C   UNL     1      -6.062  -5.183  -7.788  1.00  0.00     0.402 A 
ATOM      2  O   UNL     1      -6.894  -5.445  -6.784  1.00  0.00    -0.202 OA
ATOM      3  C   UNL     1      -7.649  -6.537  -6.726  1.00  0.00     0.368 A 
ATOM      4  C   UNL     1      -8.491  -6.725  -5.627  1.00  0.00     0.162 A 
ATOM      5  C   UNL     1      -9.292  -7.863  -5.538  1.00  0.00     0.128 A 
ATOM      6  C   UNL     1      -9.253  -8.823  -6.556  1.00  0.00     0.093 A 
ATOM      7  C   UNL     1      -8.418  -8.659  -7.668  1.00  0.00     0.136 A 
ATOM      8  C   UNL     1      -7.604  -7.500  -7.762  1.00  0.00     0.125 A 
ATOM      9  C   UNL     1      -6.747  -7.246  -8.845  1.00  0.00     0.078 A 
ATOM     10  C   UNL     1      -5.977  -6.079  -8.871  1.00  0.00     0.223 A 
ENDROOT
BRANCH   1  11
ATOM     11  C   UNL     1      -5.266  -3.937  -7.732  1.00  0.00     0.091 A 
ATOM     12  C   UNL     1      -5.838  -2.732  -8.167  1.00  0.00     0.068 A 
ATOM     13  C   UNL     1      -5.117  -1.535  -8.107  1.00  0.00     0.162 A 
ATOM     14  C   UNL     1      -3.965  -3.923  -7.201  1.00  0.00     0.068 A 
ATOM     15  C   UNL     1      -3.808  -1.530  -7.594  1.00  0.00     0.200 A 
ATOM     16  C   UNL     1      -3.234  -2.728  -7.136  1.00  0.00     0.162 A 
BRANCH  13  17
ATOM     17  O   UNL     1      -5.717  -0.361  -8.562  1.00  0.00    -0.504 OA
ATOM     18  H   UNL     1      -5.192   0.493  -8.703  1.00  0.00     0.293 HD
ENDBRANCH  13  17
BRANCH  15  19
ATOM     19  O   UNL     1      -3.094  -0.333  -7.541  1.00  0.00    -0.502 OA
ATOM     20  H   UNL     1      -2.173  -0.234  -7.953  1.00  0.00     0.293 HD
ENDBRANCH  15  19
BRANCH  16  21
ATOM     21  O   UNL     1      -1.942  -2.727  -6.612  1.00  0.00    -0.504 OA
ATOM     22  H   UNL     1      -1.163  -2.321  -7.118  1.00  0.00     0.293 HD
ENDBRANCH  16  21
ENDBRANCH   1  11
BRANCH  10  23
ATOM     23  O   UNL     1      -5.163  -5.801  -9.970  1.00  0.00    -0.500 OA
ATOM     24  H   UNL     1      -5.445  -6.039 -10.913  1.00  0.00     0.294 HD
ENDBRANCH  10  23
BRANCH   5  25
ATOM     25  O   UNL     1     -10.125  -8.032  -4.435  1.00  0.00    -0.507 OA
ATOM     26  H   UNL     1     -10.421  -8.952  -4.130  1.00  0.00     0.293 HD
ENDBRANCH   5  25
BRANCH   7  27
ATOM     27  O   UNL     1      -8.435  -9.664  -8.639  1.00  0.00    -0.507 OA
ATOM     28  H   UNL     1      -8.701  -9.521  -9.602  1.00  0.00     0.293 HD
ENDBRANCH   7  27
TORSDOF 7
ENDMDL
MODEL 7
REMARK VINA RESULT:    -4.761      1.548      7.018
REMARK INTER + INTRA:          -6.220
REMARK INTER:                  -5.841
REMARK INTRA:                  -0.379
REMARK UNBOUND:                -0.345
REMARK SMILES Oc1cc(O)c2cc(O)c(-c3cc(O)c(O)c(O)c3)[o+]c2c1
REMARK SMILES IDX 10 1 20 2 21 3 22 4 2 5 3 6 4 7 6 8 7 9 8 10 11 11 12 12
REMARK SMILES IDX 13 13 19 14 15 15 17 16 14 17 16 19 18 21 9 23 1 25 5 27
REMARK H PARENT 14 18 16 20 18 22 9 24 1 26 5 28
REMARK Flexibility Score: inf
ROOT
ATOM      1  C   UNL     1       7.989  -1.606  -8.032  1.00  0.00     0.402 A 
ATOM      2  O   UNL     1       6.794  -1.104  -7.733  1.00  0.00    -0.202 OA
ATOM      3  C   UNL     1       6.334   0.037  -8.236  1.00  0.00     0.368 A 
ATOM      4  C   UNL     1       5.063   0.481  -7.863  1.00  0.00     0.162 A 
ATOM      5  C   UNL     1       4.553   1.673  -8.377  1.00  0.00     0.128 A 
ATOM      6  C   UNL     1       5.318   2.429  -9.273  1.00  0.00     0.093 A 
ATOM      7  C   UNL     1       6.595   2.006  -9.662  1.00  0.00     0.136 A 
ATOM      8  C   UNL     1       7.118   0.795  -9.138  1.00  0.00     0.125 A 
ATOM      9  C   UNL     1       8.392   0.300  -9.463  1.00  0.00     0.078 A 
ATOM     10  C   UNL     1       8.841  -0.900  -8.903  1.00  0.00     0.223 A 
ENDROOT
BRANCH   1  11
ATOM     11  C   UNL     1       8.383  -2.892  -7.415  1.00  0.00     0.091 A 
ATOM     12  C   UNL     1       9.067  -2.888  -6.189  1.00  0.00     0.068 A 
ATOM     13  C   UNL     1       9.435  -4.088  -5.572  1.00  0.00     0.162 A 
ATOM     14  C   UNL     1       8.041  -4.122  -8.002  1.00  0.00     0.068 A 
ATOM     15  C   UNL     1       9.108  -5.315  -6.174  1.00  0.00     0.200 A 
ATOM     16  C   UNL     1       8.405  -5.330  -7.391  1.00  0.00     0.162 A 
BRANCH  13  17
ATOM     17  O   UNL     1      10.125  -4.041  -4.361  1.00  0.00    -0.504 OA
ATOM     18  H   UNL     1      11.090  -3.739  -4.301  1.00  0.00     0.293 HD
ENDBRANCH  13  17
BRANCH  15  19
ATOM     19  O   UNL     1       9.482  -6.508  -5.554  1.00  0.00    -0.502 OA
ATOM     20  H   UNL     1       9.366  -7.409  -6.002  1.00  0.00     0.293 HD
ENDBRANCH  15  19
BRANCH  16  21
ATOM     21  O   UNL     1       8.064  -6.544  -7.986  1.00  0.00    -0.504 OA
ATOM     22  H   UNL     1       7.632  -7.292  -7.456  1.00  0.00     0.293 HD
ENDBRANCH  16  21
ENDBRANCH   1  11
BRANCH  10  23
ATOM     23  O   UNL     1      10.125  -1.366  -9.184  1.00  0.00    -0.500 OA
ATOM     24  H   UNL     1      10.713  -0.919  -9.877  1.00  0.00     0.294 HD
ENDBRANCH  10  23
BRANCH   5  25
ATOM     25  O   UNL     1       3.284   2.099  -7.994  1.00  0.00    -0.507 OA
ATOM     26  H   UNL     1       3.156   2.814  -7.286  1.00  0.00     0.293 HD
ENDBRANCH   5  25
BRANCH   7  27
ATOM     27  O   UNL     1       7.295   2.816 -10.562  1.00  0.00    -0.507 OA
ATOM     28  H   UNL     1       6.896   3.606 -11.047  1.00  0.00     0.293 HD
ENDBRANCH   7  27
TORSDOF 7
ENDMDL
MODEL 8
REMARK VINA RESULT:    -4.746     10.638     12.077
REMARK INTER + INTRA:          -6.201
REMARK INTER:                  -5.819
REMARK INTRA:                  -0.382
REMARK UNBOUND:                -0.345
REMARK SMILES Oc1cc(O)c2cc(O)c(-c3cc(O)c(O)c(O)c3)[o+]c2c1
REMARK SMILES IDX 10 1 20 2 21 3 22 4 2 5 3 6 4 7 6 8 7 9 8 10 11 11 12 12
REMARK SMILES IDX 13 13 19 14 15 15 17 16 14 17 16 19 18 21 9 23 1 25 5 27
REMARK H PARENT 14 18 16 20 18 22 9 24 1 26 5 28
REMARK Flexibility Score: inf
ROOT
ATOM      1  C   UNL     1      -5.147  -2.198  -8.023  1.00  0.00     0.402 A 
ATOM      2  O   UNL     1      -5.571  -3.459  -8.038  1.00  0.00    -0.202 OA
ATOM      3  C   UNL     1      -4.777  -4.494  -8.292  1.00  0.00     0.368 A 
ATOM      4  C   UNL     1      -5.317  -5.783  -8.282  1.00  0.00     0.162 A 
ATOM      5  C   UNL     1      -4.507  -6.888  -8.542  1.00  0.00     0.128 A 
ATOM      6  C   UNL     1      -3.146  -6.707  -8.814  1.00  0.00     0.093 A 
ATOM      7  C   UNL     1      -2.581  -5.425  -8.830  1.00  0.00     0.136 A 
ATOM      8  C   UNL     1      -3.403  -4.298  -8.568  1.00  0.00     0.125 A 
ATOM      9  C   UNL     1      -2.926  -2.977  -8.576  1.00  0.00     0.078 A 
ATOM     10  C   UNL     1      -3.798  -1.916  -8.313  1.00  0.00     0.223 A 
ENDROOT
BRANCH   1  11
ATOM     11  C   UNL     1      -6.127  -1.133  -7.716  1.00  0.00     0.091 A 
ATOM     12  C   UNL     1      -6.979  -0.666  -8.729  1.00  0.00     0.068 A 
ATOM     13  C   UNL     1      -7.928   0.326  -8.463  1.00  0.00     0.162 A 
ATOM     14  C   UNL     1      -6.261  -0.614  -6.417  1.00  0.00     0.068 A 
ATOM     15  C   UNL     1      -8.044   0.857  -7.167  1.00  0.00     0.200 A 
ATOM     16  C   UNL     1      -7.210   0.381  -6.141  1.00  0.00     0.162 A 
BRANCH  13  17
ATOM     17  O   UNL     1      -8.747   0.772  -9.500  1.00  0.00    -0.504 OA
ATOM     18  H   UNL     1      -9.634   1.230  -9.328  1.00  0.00     0.293 HD
ENDBRANCH  13  17
BRANCH  15  19
ATOM     19  O   UNL     1      -8.991   1.849  -6.911  1.00  0.00    -0.502 OA
ATOM     20  H   UNL     1      -9.742   1.720  -6.243  1.00  0.00     0.293 HD
ENDBRANCH  15  19
BRANCH  16  21
ATOM     21  O   UNL     1      -7.331   0.892  -4.850  1.00  0.00    -0.504 OA
ATOM     22  H   UNL     1      -6.524   1.016  -4.250  1.00  0.00     0.293 HD
ENDBRANCH  16  21
ENDBRANCH   1  11
BRANCH  10  23
ATOM     23  O   UNL     1      -3.337  -0.601  -8.370  1.00  0.00    -0.500 OA
ATOM     24  H   UNL     1      -2.848  -0.174  -7.592  1.00  0.00     0.294 HD
ENDBRANCH  10  23
BRANCH   5  25
ATOM     25  O   UNL     1      -5.063  -8.165  -8.528  1.00  0.00    -0.507 OA
ATOM     26  H   UNL     1      -5.095  -8.739  -9.362  1.00  0.00     0.293 HD
ENDBRANCH   5  25
BRANCH   7  27
ATOM     27  O   UNL     1      -1.214  -5.328  -9.107  1.00  0.00    -0.507 OA
ATOM     28  H   UNL     1      -0.815  -5.379 -10.032  1.00  0.00     0.293 HD
ENDBRANCH   7  27
TORSDOF 7
ENDMDL
MODEL 9
REMARK VINA RESULT:    -4.572      1.173      7.129
REMARK INTER + INTRA:          -5.987
REMARK INTER:                  -5.621
REMARK INTRA:                  -0.366
REMARK UNBOUND:                -0.345
REMARK SMILES Oc1cc(O)c2cc(O)c(-c3cc(O)c(O)c(O)c3)[o+]c2c1
REMARK SMILES IDX 10 1 20 2 21 3 22 4 2 5 3 6 4 7 6 8 7 9 8 10 11 11 12 12
REMARK SMILES IDX 13 13 19 14 15 15 17 16 14 17 16 19 18 21 9 23 1 25 5 27
REMARK H PARENT 14 18 16 20 18 22 9 24 1 26 5 28
REMARK Flexibility Score: inf
ROOT
ATOM      1  C   UNL     1       7.099  -1.966  -8.522  1.00  0.00     0.402 A 
ATOM      2  O   UNL     1       6.262  -1.258  -7.769  1.00  0.00    -0.202 OA
ATOM      3  C   UNL     1       5.882  -0.019  -8.066  1.00  0.00     0.368 A 
ATOM      4  C   UNL     1       4.995   0.643  -7.213  1.00  0.00     0.162 A 
ATOM      5  C   UNL     1       4.577   1.942  -7.502  1.00  0.00     0.128 A 
ATOM      6  C   UNL     1       5.045   2.586  -8.653  1.00  0.00     0.093 A 
ATOM      7  C   UNL     1       5.934   1.943  -9.524  1.00  0.00     0.136 A 
ATOM      8  C   UNL     1       6.364   0.623  -9.231  1.00  0.00     0.125 A 
ATOM      9  C   UNL     1       7.262  -0.093 -10.040  1.00  0.00     0.078 A 
ATOM     10  C   UNL     1       7.645  -1.391  -9.685  1.00  0.00     0.223 A 
ENDROOT
BRANCH   1  11
ATOM     11  C   UNL     1       7.438  -3.341  -8.089  1.00  0.00     0.091 A 
ATOM     12  C   UNL     1       6.605  -4.406  -8.462  1.00  0.00     0.068 A 
ATOM     13  C   UNL     1       6.911  -5.718  -8.085  1.00  0.00     0.162 A 
ATOM     14  C   UNL     1       8.608  -3.611  -7.358  1.00  0.00     0.068 A 
ATOM     15  C   UNL     1       8.071  -5.980  -7.335  1.00  0.00     0.200 A 
ATOM     16  C   UNL     1       8.923  -4.922  -6.976  1.00  0.00     0.162 A 
BRANCH  13  17
ATOM     17  O   UNL     1       6.050  -6.748  -8.463  1.00  0.00    -0.504 OA
ATOM     18  H   UNL     1       6.368  -7.702  -8.579  1.00  0.00     0.293 HD
ENDBRANCH  13  17
BRANCH  15  19
ATOM     19  O   UNL     1       8.367  -7.291  -6.960  1.00  0.00    -0.502 OA
ATOM     20  H   UNL     1       9.040  -7.858  -7.462  1.00  0.00     0.293 HD
ENDBRANCH  15  19
BRANCH  16  21
ATOM     21  O   UNL     1      10.083  -5.177  -6.246  1.00  0.00    -0.504 OA
ATOM     22  H   UNL     1      10.932  -5.502  -6.694  1.00  0.00     0.293 HD
ENDBRANCH  16  21
ENDBRANCH   1  11
BRANCH  10  23
ATOM     23  O   UNL     1       8.575  -2.083 -10.459  1.00  0.00    -0.500 OA
ATOM     24  H   UNL     1       9.220  -2.748 -10.049  1.00  0.00     0.294 HD
ENDBRANCH  10  23
BRANCH   5  25
ATOM     25  O   UNL     1       3.693   2.586  -6.639  1.00  0.00    -0.507 OA
ATOM     26  H   UNL     1       2.695   2.600  -6.816  1.00  0.00     0.293 HD
ENDBRANCH   5  25
BRANCH   7  27
ATOM     27  O   UNL     1       6.354   2.652 -10.653  1.00  0.00    -0.507 OA
ATOM     28  H   UNL     1       5.810   2.753 -11.498  1.00  0.00     0.293 HD
ENDBRANCH   7  27
TORSDOF 7
ENDMDL
