MODEL 1
REMARK VINA RESULT:    -3.706      0.000      0.000
REMARK INTER + INTRA:          -4.760
REMARK INTER:                  -4.464
REMARK INTRA:                  -0.296
REMARK UNBOUND:                -0.296
REMARK SMILES O=c1c(O)c(-c2ccc(O)c(O)c2)oc2cc(O)cc(O)c12
REMARK SMILES IDX 5 1 3 2 2 3 1 4 22 5 20 6 19 7 17 8 16 9 15 10 14 11 6 12
REMARK SMILES IDX 7 13 8 14 9 15 13 16 11 17 10 18 12 20 4 22 21 24 18 26
REMARK H PARENT 10 19 12 21 4 23 21 25 18 27
REMARK Flexibility Score: inf
ROOT
ATOM      1  C   UNL     1      17.971  35.049  43.853  1.00  0.00     0.180 A 
ATOM      2  C   UNL     1      16.889  34.736  44.697  1.00  0.00     0.208 A 
ATOM      3  C   UNL     1      15.600  34.657  44.146  1.00  0.00     0.238 A 
ATOM      4  O   UNL     1      14.624  34.365  44.890  1.00  0.00    -0.285 OA
ATOM      5  C   UNL     1      15.413  34.910  42.771  1.00  0.00     0.111 A 
ATOM      6  C   UNL     1      14.147  34.855  42.139  1.00  0.00     0.134 A 
ATOM      7  C   UNL     1      14.043  35.130  40.767  1.00  0.00     0.093 A 
ATOM      8  C   UNL     1      15.178  35.460  40.019  1.00  0.00     0.123 A 
ATOM      9  C   UNL     1      16.428  35.515  40.638  1.00  0.00     0.094 A 
ATOM     10  C   UNL     1      16.554  35.242  42.003  1.00  0.00     0.146 A 
ATOM     11  O   UNL     1      17.755  35.298  42.565  1.00  0.00    -0.452 OA
ENDROOT
BRANCH   1  12
ATOM     12  C   UNL     1      19.362  35.133  44.356  1.00  0.00     0.025 A 
ATOM     13  C   UNL     1      20.280  34.089  44.149  1.00  0.00     0.016 A 
ATOM     14  C   UNL     1      21.594  34.201  44.612  1.00  0.00     0.051 A 
ATOM     15  C   UNL     1      22.013  35.362  45.274  1.00  0.00     0.157 A 
ATOM     16  C   UNL     1      19.794  36.303  45.002  1.00  0.00     0.062 A 
ATOM     17  C   UNL     1      21.109  36.420  45.467  1.00  0.00     0.158 A 
BRANCH  15  18
ATOM     18  O   UNL     1      23.324  35.470  45.736  1.00  0.00    -0.504 OA
ATOM     19  H   UNL     1      24.047  34.827  45.437  1.00  0.00     0.293 HD
ENDBRANCH  15  18
BRANCH  17  20
ATOM     20  O   UNL     1      21.498  37.591  46.116  1.00  0.00    -0.504 OA
ATOM     21  H   UNL     1      22.161  38.237  45.708  1.00  0.00     0.293 HD
ENDBRANCH  17  20
ENDBRANCH   1  12
BRANCH   2  22
ATOM     22  O   UNL     1      17.093  34.537  46.065  1.00  0.00    -0.502 OA
ATOM     23  H   UNL     1      16.682  33.760  46.568  1.00  0.00     0.293 HD
ENDBRANCH   2  22
BRANCH   6  24
ATOM     24  O   UNL     1      12.997  34.531  42.860  1.00  0.00    -0.507 OA
ATOM     25  H   UNL     1      13.044  34.033  43.741  1.00  0.00     0.293 HD
ENDBRANCH   6  24
BRANCH   8  26
ATOM     26  O   UNL     1      15.075  35.734  38.656  1.00  0.00    -0.508 OA
ATOM     27  H   UNL     1      14.200  36.039  38.242  1.00  0.00     0.293 HD
ENDBRANCH   8  26
TORSDOF 6
ENDMDL
MODEL 2
REMARK VINA RESULT:    -3.691      1.685      7.237
REMARK INTER + INTRA:          -4.742
REMARK INTER:                  -4.418
REMARK INTRA:                  -0.324
REMARK UNBOUND:                -0.296
REMARK SMILES O=c1c(O)c(-c2ccc(O)c(O)c2)oc2cc(O)cc(O)c12
REMARK SMILES IDX 5 1 3 2 2 3 1 4 22 5 20 6 19 7 17 8 16 9 15 10 14 11 6 12
REMARK SMILES IDX 7 13 8 14 9 15 13 16 11 17 10 18 12 20 4 22 21 24 18 26
REMARK H PARENT 10 19 12 21 4 23 21 25 18 27
REMARK Flexibility Score: inf
ROOT
ATOM      1  C   UNL     1      19.125  34.880  44.260  1.00  0.00     0.180 A 
ATOM      2  C   UNL     1      19.665  36.055  44.818  1.00  0.00     0.208 A 
ATOM      3  C   UNL     1      20.997  36.046  45.259  1.00  0.00     0.238 A 
ATOM      4  O   UNL     1      21.495  37.096  45.750  1.00  0.00    -0.285 OA
ATOM      5  C   UNL     1      21.759  34.864  45.153  1.00  0.00     0.111 A 
ATOM      6  C   UNL     1      23.107  34.771  45.577  1.00  0.00     0.134 A 
ATOM      7  C   UNL     1      23.794  33.555  45.447  1.00  0.00     0.093 A 
ATOM      8  C   UNL     1      23.159  32.432  44.902  1.00  0.00     0.123 A 
ATOM      9  C   UNL     1      21.831  32.520  44.483  1.00  0.00     0.094 A 
ATOM     10  C   UNL     1      21.129  33.723  44.602  1.00  0.00     0.146 A 
ATOM     11  O   UNL     1      19.869  33.779  44.191  1.00  0.00    -0.452 OA
ENDROOT
BRANCH   1  12
ATOM     12  C   UNL     1      17.734  34.815  43.756  1.00  0.00     0.025 A 
ATOM     13  C   UNL     1      16.660  34.503  44.609  1.00  0.00     0.016 A 
ATOM     14  C   UNL     1      15.353  34.472  44.116  1.00  0.00     0.051 A 
ATOM     15  C   UNL     1      15.098  34.766  42.770  1.00  0.00     0.157 A 
ATOM     16  C   UNL     1      17.470  35.130  42.413  1.00  0.00     0.062 A 
ATOM     17  C   UNL     1      16.161  35.100  41.916  1.00  0.00     0.158 A 
BRANCH  15  18
ATOM     18  O   UNL     1      13.793  34.733  42.282  1.00  0.00    -0.504 OA
ATOM     19  H   UNL     1      13.493  34.029  41.617  1.00  0.00     0.293 HD
ENDBRANCH  15  18
BRANCH  17  20
ATOM     20  O   UNL     1      15.939  35.405  40.573  1.00  0.00    -0.504 OA
ATOM     21  H   UNL     1      16.265  34.806  39.825  1.00  0.00     0.293 HD
ENDBRANCH  17  20
ENDBRANCH   1  12
BRANCH   2  22
ATOM     22  O   UNL     1      18.874  37.199  44.957  1.00  0.00    -0.502 OA
ATOM     23  H   UNL     1      18.195  37.303  45.700  1.00  0.00     0.293 HD
ENDBRANCH   2  22
BRANCH   6  24
ATOM     24  O   UNL     1      23.766  35.872  46.125  1.00  0.00    -0.507 OA
ATOM     25  H   UNL     1      24.697  36.138  45.829  1.00  0.00     0.293 HD
ENDBRANCH   6  24
BRANCH   8  26
ATOM     26  O   UNL     1      23.841  31.224  44.774  1.00  0.00    -0.508 OA
ATOM     27  H   UNL     1      24.786  31.185  44.407  1.00  0.00     0.293 HD
ENDBRANCH   8  26
TORSDOF 6
ENDMDL
MODEL 3
REMARK VINA RESULT:    -3.570      1.644      6.935
REMARK INTER + INTRA:          -4.596
REMARK INTER:                  -4.264
REMARK INTRA:                  -0.332
REMARK UNBOUND:                -0.296
REMARK SMILES O=c1c(O)c(-c2ccc(O)c(O)c2)oc2cc(O)cc(O)c12
REMARK SMILES IDX 5 1 3 2 2 3 1 4 22 5 20 6 19 7 17 8 16 9 15 10 14 11 6 12
REMARK SMILES IDX 7 13 8 14 9 15 13 16 11 17 10 18 12 20 4 22 21 24 18 26
REMARK H PARENT 10 19 12 21 4 23 21 25 18 27
REMARK Flexibility Score: inf
ROOT
ATOM      1  C   UNL     1      17.642  34.596  43.362  1.00  0.00     0.180 A 
ATOM      2  C   UNL     1      18.114  33.270  43.409  1.00  0.00     0.208 A 
ATOM      3  C   UNL     1      19.343  33.010  44.035  1.00  0.00     0.238 A 
ATOM      4  O   UNL     1      19.770  31.825  44.094  1.00  0.00    -0.285 OA
ATOM      5  C   UNL     1      20.086  34.076  44.584  1.00  0.00     0.111 A 
ATOM      6  C   UNL     1      21.335  33.899  45.228  1.00  0.00     0.134 A 
ATOM      7  C   UNL     1      22.017  35.013  45.739  1.00  0.00     0.093 A 
ATOM      8  C   UNL     1      21.475  36.298  45.617  1.00  0.00     0.123 A 
ATOM      9  C   UNL     1      20.245  36.477  44.984  1.00  0.00     0.094 A 
ATOM     10  C   UNL     1      19.548  35.379  44.469  1.00  0.00     0.146 A 
ATOM     11  O   UNL     1      18.378  35.579  43.876  1.00  0.00    -0.452 OA
ENDROOT
BRANCH   1  12
ATOM     12  C   UNL     1      16.347  34.948  42.736  1.00  0.00     0.025 A 
ATOM     13  C   UNL     1      15.144  34.898  43.462  1.00  0.00     0.016 A 
ATOM     14  C   UNL     1      13.938  35.258  42.856  1.00  0.00     0.051 A 
ATOM     15  C   UNL     1      13.916  35.687  41.523  1.00  0.00     0.157 A 
ATOM     16  C   UNL     1      16.323  35.399  41.406  1.00  0.00     0.062 A 
ATOM     17  C   UNL     1      15.116  35.761  40.796  1.00  0.00     0.158 A 
BRANCH  15  18
ATOM     18  O   UNL     1      12.711  36.044  40.921  1.00  0.00    -0.504 OA
ATOM     19  H   UNL     1      11.946  36.436  41.457  1.00  0.00     0.293 HD
ENDBRANCH  15  18
BRANCH  17  20
ATOM     20  O   UNL     1      15.129  36.191  39.469  1.00  0.00    -0.504 OA
ATOM     21  H   UNL     1      15.986  36.266  38.937  1.00  0.00     0.293 HD
ENDBRANCH  17  20
ENDBRANCH   1  12
BRANCH   2  22
ATOM     22  O   UNL     1      17.382  32.238  42.816  1.00  0.00    -0.502 OA
ATOM     23  H   UNL     1      16.409  32.342  42.556  1.00  0.00     0.293 HD
ENDBRANCH   2  22
BRANCH   6  24
ATOM     24  O   UNL     1      21.900  32.630  45.362  1.00  0.00    -0.507 OA
ATOM     25  H   UNL     1      22.670  32.326  44.779  1.00  0.00     0.293 HD
ENDBRANCH   6  24
BRANCH   8  26
ATOM     26  O   UNL     1      22.154  37.405  46.124  1.00  0.00    -0.508 OA
ATOM     27  H   UNL     1      23.167  37.455  46.115  1.00  0.00     0.293 HD
ENDBRANCH   8  26
TORSDOF 6
ENDMDL
MODEL 4
REMARK VINA RESULT:    -3.480      4.202      7.883
REMARK INTER + INTRA:          -4.488
REMARK INTER:                  -4.206
REMARK INTRA:                  -0.282
REMARK UNBOUND:                -0.296
REMARK SMILES O=c1c(O)c(-c2ccc(O)c(O)c2)oc2cc(O)cc(O)c12
REMARK SMILES IDX 5 1 3 2 2 3 1 4 22 5 20 6 19 7 17 8 16 9 15 10 14 11 6 12
REMARK SMILES IDX 7 13 8 14 9 15 13 16 11 17 10 18 12 20 4 22 21 24 18 26
REMARK H PARENT 10 19 12 21 4 23 21 25 18 27
REMARK Flexibility Score: inf
ROOT
ATOM      1  C   UNL     1      22.058  34.075  42.474  1.00  0.00     0.180 A 
ATOM      2  C   UNL     1      21.992  34.279  41.082  1.00  0.00     0.208 A 
ATOM      3  C   UNL     1      22.957  33.676  40.262  1.00  0.00     0.238 A 
ATOM      4  O   UNL     1      22.901  33.841  39.013  1.00  0.00    -0.285 OA
ATOM      5  C   UNL     1      23.980  32.898  40.844  1.00  0.00     0.111 A 
ATOM      6  C   UNL     1      24.993  32.260  40.088  1.00  0.00     0.134 A 
ATOM      7  C   UNL     1      25.982  31.512  40.744  1.00  0.00     0.093 A 
ATOM      8  C   UNL     1      25.977  31.392  42.138  1.00  0.00     0.123 A 
ATOM      9  C   UNL     1      24.981  32.019  42.887  1.00  0.00     0.094 A 
ATOM     10  C   UNL     1      23.985  32.767  42.253  1.00  0.00     0.146 A 
ATOM     11  O   UNL     1      23.046  33.349  42.989  1.00  0.00    -0.452 OA
ENDROOT
BRANCH   1  12
ATOM     12  C   UNL     1      21.066  34.663  43.403  1.00  0.00     0.025 A 
ATOM     13  C   UNL     1      19.772  34.128  43.527  1.00  0.00     0.016 A 
ATOM     14  C   UNL     1      18.860  34.684  44.428  1.00  0.00     0.051 A 
ATOM     15  C   UNL     1      19.232  35.773  45.228  1.00  0.00     0.157 A 
ATOM     16  C   UNL     1      21.440  35.741  44.222  1.00  0.00     0.062 A 
ATOM     17  C   UNL     1      20.530  36.301  45.127  1.00  0.00     0.158 A 
BRANCH  15  18
ATOM     18  O   UNL     1      18.320  36.326  46.125  1.00  0.00    -0.504 OA
ATOM     19  H   UNL     1      18.400  37.287  46.438  1.00  0.00     0.293 HD
ENDBRANCH  15  18
BRANCH  17  20
ATOM     20  O   UNL     1      20.933  37.379  45.914  1.00  0.00    -0.504 OA
ATOM     21  H   UNL     1      21.906  37.642  46.008  1.00  0.00     0.293 HD
ENDBRANCH  17  20
ENDBRANCH   1  12
BRANCH   2  22
ATOM     22  O   UNL     1      20.997  35.093  40.534  1.00  0.00    -0.502 OA
ATOM     23  H   UNL     1      20.011  34.874  40.613  1.00  0.00     0.293 HD
ENDBRANCH   2  22
BRANCH   6  24
ATOM     24  O   UNL     1      25.025  32.364  38.697  1.00  0.00    -0.507 OA
ATOM     25  H   UNL     1      24.357  31.877  38.111  1.00  0.00     0.293 HD
ENDBRANCH   6  24
BRANCH   8  26
ATOM     26  O   UNL     1      26.961  30.649  42.790  1.00  0.00    -0.508 OA
ATOM     27  H   UNL     1      26.820  30.291  43.728  1.00  0.00     0.293 HD
ENDBRANCH   8  26
TORSDOF 6
ENDMDL
MODEL 5
REMARK VINA RESULT:    -3.420      1.327      3.053
REMARK INTER + INTRA:          -4.415
REMARK INTER:                  -4.181
REMARK INTRA:                  -0.234
REMARK UNBOUND:                -0.296
REMARK SMILES O=c1c(O)c(-c2ccc(O)c(O)c2)oc2cc(O)cc(O)c12
REMARK SMILES IDX 5 1 3 2 2 3 1 4 22 5 20 6 19 7 17 8 16 9 15 10 14 11 6 12
REMARK SMILES IDX 7 13 8 14 9 15 13 16 11 17 10 18 12 20 4 22 21 24 18 26
REMARK H PARENT 10 19 12 21 4 23 21 25 18 27
REMARK Flexibility Score: inf
ROOT
ATOM      1  C   UNL     1      17.564  34.960  43.726  1.00  0.00     0.180 A 
ATOM      2  C   UNL     1      17.256  35.034  42.354  1.00  0.00     0.208 A 
ATOM      3  C   UNL     1      15.917  34.909  41.953  1.00  0.00     0.238 A 
ATOM      4  O   UNL     1      15.626  34.987  40.728  1.00  0.00    -0.285 OA
ATOM      5  C   UNL     1      14.915  34.693  42.922  1.00  0.00     0.111 A 
ATOM      6  C   UNL     1      13.543  34.552  42.601  1.00  0.00     0.134 A 
ATOM      7  C   UNL     1      12.609  34.329  43.623  1.00  0.00     0.093 A 
ATOM      8  C   UNL     1      13.021  34.242  44.958  1.00  0.00     0.123 A 
ATOM      9  C   UNL     1      14.372  34.380  45.280  1.00  0.00     0.094 A 
ATOM     10  C   UNL     1      15.318  34.606  44.276  1.00  0.00     0.146 A 
ATOM     11  O   UNL     1      16.596  34.738  44.611  1.00  0.00    -0.452 OA
ENDROOT
BRANCH   1  12
ATOM     12  C   UNL     1      18.950  35.100  44.229  1.00  0.00     0.025 A 
ATOM     13  C   UNL     1      19.911  34.095  44.019  1.00  0.00     0.016 A 
ATOM     14  C   UNL     1      21.219  34.261  44.482  1.00  0.00     0.051 A 
ATOM     15  C   UNL     1      21.590  35.437  45.147  1.00  0.00     0.157 A 
ATOM     16  C   UNL     1      19.333  36.285  44.878  1.00  0.00     0.062 A 
ATOM     17  C   UNL     1      20.643  36.455  45.343  1.00  0.00     0.158 A 
BRANCH  15  18
ATOM     18  O   UNL     1      22.896  35.598  45.609  1.00  0.00    -0.504 OA
ATOM     19  H   UNL     1      23.244  36.500  45.912  1.00  0.00     0.293 HD
ENDBRANCH  15  18
BRANCH  17  20
ATOM     20  O   UNL     1      20.983  37.640  45.995  1.00  0.00    -0.504 OA
ATOM     21  H   UNL     1      21.697  38.263  45.640  1.00  0.00     0.293 HD
ENDBRANCH  17  20
ENDBRANCH   1  12
BRANCH   2  22
ATOM     22  O   UNL     1      18.271  35.201  41.409  1.00  0.00    -0.502 OA
ATOM     23  H   UNL     1      18.566  36.114  41.084  1.00  0.00     0.293 HD
ENDBRANCH   2  22
BRANCH   6  24
ATOM     24  O   UNL     1      13.104  34.632  41.279  1.00  0.00    -0.507 OA
ATOM     25  H   UNL     1      13.062  35.514  40.784  1.00  0.00     0.293 HD
ENDBRANCH   6  24
BRANCH   8  26
ATOM     26  O   UNL     1      12.093  34.019  45.974  1.00  0.00    -0.508 OA
ATOM     27  H   UNL     1      11.871  34.735  46.656  1.00  0.00     0.293 HD
ENDBRANCH   8  26
TORSDOF 6
ENDMDL
MODEL 6
REMARK VINA RESULT:    -3.368      3.314      5.765
REMARK INTER + INTRA:          -4.353
REMARK INTER:                  -4.022
REMARK INTRA:                  -0.331
REMARK UNBOUND:                -0.296
REMARK SMILES O=c1c(O)c(-c2ccc(O)c(O)c2)oc2cc(O)cc(O)c12
REMARK SMILES IDX 5 1 3 2 2 3 1 4 22 5 20 6 19 7 17 8 16 9 15 10 14 11 6 12
REMARK SMILES IDX 7 13 8 14 9 15 13 16 11 17 10 18 12 20 4 22 21 24 18 26
REMARK H PARENT 10 19 12 21 4 23 21 25 18 27
REMARK Flexibility Score: inf
ROOT
ATOM      1  C   UNL     1      22.593  33.703  43.849  1.00  0.00     0.180 A 
ATOM      2  C   UNL     1      22.658  34.748  44.790  1.00  0.00     0.208 A 
ATOM      3  C   UNL     1      21.491  35.472  45.080  1.00  0.00     0.238 A 
ATOM      4  O   UNL     1      21.534  36.403  45.930  1.00  0.00    -0.285 OA
ATOM      5  C   UNL     1      20.290  35.155  44.413  1.00  0.00     0.111 A 
ATOM      6  C   UNL     1      19.071  35.839  44.645  1.00  0.00     0.134 A 
ATOM      7  C   UNL     1      17.920  35.469  43.933  1.00  0.00     0.093 A 
ATOM      8  C   UNL     1      17.966  34.431  42.996  1.00  0.00     0.123 A 
ATOM      9  C   UNL     1      19.164  33.754  42.764  1.00  0.00     0.094 A 
ATOM     10  C   UNL     1      20.322  34.106  43.465  1.00  0.00     0.146 A 
ATOM     11  O   UNL     1      21.446  33.442  43.228  1.00  0.00    -0.452 OA
ENDROOT
BRANCH   1  12
ATOM     12  C   UNL     1      23.777  32.882  43.503  1.00  0.00     0.025 A 
ATOM     13  C   UNL     1      24.132  31.753  44.262  1.00  0.00     0.016 A 
ATOM     14  C   UNL     1      25.239  30.980  43.903  1.00  0.00     0.051 A 
ATOM     15  C   UNL     1      25.997  31.313  42.772  1.00  0.00     0.157 A 
ATOM     16  C   UNL     1      24.528  33.199  42.359  1.00  0.00     0.062 A 
ATOM     17  C   UNL     1      25.637  32.426  41.996  1.00  0.00     0.158 A 
BRANCH  15  18
ATOM     18  O   UNL     1      27.101  30.540  42.417  1.00  0.00    -0.504 OA
ATOM     19  H   UNL     1      27.107  29.534  42.540  1.00  0.00     0.293 HD
ENDBRANCH  15  18
BRANCH  17  20
ATOM     20  O   UNL     1      26.367  32.780  40.861  1.00  0.00    -0.504 OA
ATOM     21  H   UNL     1      25.960  32.767  39.935  1.00  0.00     0.293 HD
ENDBRANCH  17  20
ENDBRANCH   1  12
BRANCH   2  22
ATOM     22  O   UNL     1      23.872  35.075  45.401  1.00  0.00    -0.502 OA
ATOM     23  H   UNL     1      24.323  34.466  46.072  1.00  0.00     0.293 HD
ENDBRANCH   2  22
BRANCH   6  24
ATOM     24  O   UNL     1      18.997  36.879  45.573  1.00  0.00    -0.507 OA
ATOM     25  H   UNL     1      18.985  37.849  45.285  1.00  0.00     0.293 HD
ENDBRANCH   6  24
BRANCH   8  26
ATOM     26  O   UNL     1      16.823  34.064  42.288  1.00  0.00    -0.508 OA
ATOM     27  H   UNL     1      16.277  33.250  42.547  1.00  0.00     0.293 HD
ENDBRANCH   8  26
TORSDOF 6
ENDMDL
MODEL 7
REMARK VINA RESULT:    -3.347      2.692      4.387
REMARK INTER + INTRA:          -4.328
REMARK INTER:                  -4.004
REMARK INTRA:                  -0.324
REMARK UNBOUND:                -0.296
REMARK SMILES O=c1c(O)c(-c2ccc(O)c(O)c2)oc2cc(O)cc(O)c12
REMARK SMILES IDX 5 1 3 2 2 3 1 4 22 5 20 6 19 7 17 8 16 9 15 10 14 11 6 12
REMARK SMILES IDX 7 13 8 14 9 15 13 16 11 17 10 18 12 20 4 22 21 24 18 26
REMARK H PARENT 10 19 12 21 4 23 21 25 18 27
REMARK Flexibility Score: inf
ROOT
ATOM      1  C   UNL     1      20.239  33.984  41.480  1.00  0.00     0.180 A 
ATOM      2  C   UNL     1      20.452  34.196  40.105  1.00  0.00     0.208 A 
ATOM      3  C   UNL     1      19.413  34.739  39.333  1.00  0.00     0.238 A 
ATOM      4  O   UNL     1      19.596  34.945  38.102  1.00  0.00    -0.285 OA
ATOM      5  C   UNL     1      18.177  35.042  39.942  1.00  0.00     0.111 A 
ATOM      6  C   UNL     1      17.078  35.587  39.235  1.00  0.00     0.134 A 
ATOM      7  C   UNL     1      15.878  35.851  39.911  1.00  0.00     0.093 A 
ATOM      8  C   UNL     1      15.756  35.579  41.279  1.00  0.00     0.123 A 
ATOM      9  C   UNL     1      16.837  35.041  41.980  1.00  0.00     0.094 A 
ATOM     10  C   UNL     1      18.042  34.773  41.324  1.00  0.00     0.146 A 
ATOM     11  O   UNL     1      19.055  34.266  42.017  1.00  0.00    -0.452 OA
ENDROOT
BRANCH   1  12
ATOM     12  C   UNL     1      21.292  33.433  42.363  1.00  0.00     0.025 A 
ATOM     13  C   UNL     1      21.414  32.049  42.580  1.00  0.00     0.016 A 
ATOM     14  C   UNL     1      22.431  31.550  43.399  1.00  0.00     0.051 A 
ATOM     15  C   UNL     1      23.348  32.422  43.999  1.00  0.00     0.157 A 
ATOM     16  C   UNL     1      22.226  34.301  42.951  1.00  0.00     0.062 A 
ATOM     17  C   UNL     1      23.246  33.804  43.771  1.00  0.00     0.158 A 
BRANCH  15  18
ATOM     18  O   UNL     1      24.360  31.921  44.816  1.00  0.00    -0.504 OA
ATOM     19  H   UNL     1      24.507  30.925  44.929  1.00  0.00     0.293 HD
ENDBRANCH  15  18
BRANCH  17  20
ATOM     20  O   UNL     1      24.148  34.699  44.349  1.00  0.00    -0.504 OA
ATOM     21  H   UNL     1      24.815  35.222  43.796  1.00  0.00     0.293 HD
ENDBRANCH  17  20
ENDBRANCH   1  12
BRANCH   2  22
ATOM     22  O   UNL     1      21.669  33.843  39.515  1.00  0.00    -0.502 OA
ATOM     23  H   UNL     1      22.335  34.533  39.191  1.00  0.00     0.293 HD
ENDBRANCH   2  22
BRANCH   6  24
ATOM     24  O   UNL     1      17.169  35.867  37.871  1.00  0.00    -0.507 OA
ATOM     25  H   UNL     1      16.346  35.941  37.286  1.00  0.00     0.293 HD
ENDBRANCH   6  24
BRANCH   8  26
ATOM     26  O   UNL     1      14.563  35.839  41.951  1.00  0.00    -0.508 OA
ATOM     27  H   UNL     1      13.748  35.249  41.831  1.00  0.00     0.293 HD
ENDBRANCH   8  26
TORSDOF 6
ENDMDL
MODEL 8
REMARK VINA RESULT:    -3.304      2.317      4.191
REMARK INTER + INTRA:          -4.276
REMARK INTER:                  -3.959
REMARK INTRA:                  -0.317
REMARK UNBOUND:                -0.296
REMARK SMILES O=c1c(O)c(-c2ccc(O)c(O)c2)oc2cc(O)cc(O)c12
REMARK SMILES IDX 5 1 3 2 2 3 1 4 22 5 20 6 19 7 17 8 16 9 15 10 14 11 6 12
REMARK SMILES IDX 7 13 8 14 9 15 13 16 11 17 10 18 12 20 4 22 21 24 18 26
REMARK H PARENT 10 19 12 21 4 23 21 25 18 27
REMARK Flexibility Score: inf
ROOT
ATOM      1  C   UNL     1      16.680  35.261  41.550  1.00  0.00     0.180 A 
ATOM      2  C   UNL     1      17.269  35.580  40.312  1.00  0.00     0.208 A 
ATOM      3  C   UNL     1      16.523  36.312  39.375  1.00  0.00     0.238 A 
ATOM      4  O   UNL     1      17.043  36.614  38.267  1.00  0.00    -0.285 OA
ATOM      5  C   UNL     1      15.200  36.694  39.682  1.00  0.00     0.111 A 
ATOM      6  C   UNL     1      14.380  37.429  38.792  1.00  0.00     0.134 A 
ATOM      7  C   UNL     1      13.070  37.762  39.168  1.00  0.00     0.093 A 
ATOM      8  C   UNL     1      12.567  37.374  40.415  1.00  0.00     0.123 A 
ATOM      9  C   UNL     1      13.372  36.649  41.296  1.00  0.00     0.094 A 
ATOM     10  C   UNL     1      14.680  36.309  40.940  1.00  0.00     0.146 A 
ATOM     11  O   UNL     1      15.425  35.624  41.799  1.00  0.00    -0.452 OA
ENDROOT
BRANCH   1  12
ATOM     12  C   UNL     1      17.409  34.508  42.597  1.00  0.00     0.025 A 
ATOM     13  C   UNL     1      17.454  33.102  42.590  1.00  0.00     0.016 A 
ATOM     14  C   UNL     1      18.169  32.414  43.574  1.00  0.00     0.051 A 
ATOM     15  C   UNL     1      18.860  33.118  44.569  1.00  0.00     0.157 A 
ATOM     16  C   UNL     1      18.121  35.208  43.584  1.00  0.00     0.062 A 
ATOM     17  C   UNL     1      18.838  34.522  44.571  1.00  0.00     0.158 A 
BRANCH  15  18
ATOM     18  O   UNL     1      19.570  32.428  45.550  1.00  0.00    -0.504 OA
ATOM     19  H   UNL     1      20.227  31.695  45.313  1.00  0.00     0.293 HD
ENDBRANCH  15  18
BRANCH  17  20
ATOM     20  O   UNL     1      19.521  35.253  45.544  1.00  0.00    -0.504 OA
ATOM     21  H   UNL     1      19.494  36.264  45.574  1.00  0.00     0.293 HD
ENDBRANCH  17  20
ENDBRANCH   1  12
BRANCH   2  22
ATOM     22  O   UNL     1      18.564  35.148  40.012  1.00  0.00    -0.502 OA
ATOM     23  H   UNL     1      19.007  35.337  39.122  1.00  0.00     0.293 HD
ENDBRANCH   2  22
BRANCH   6  24
ATOM     24  O   UNL     1      14.854  37.828  37.542  1.00  0.00    -0.507 OA
ATOM     25  H   UNL     1      14.279  38.356  36.897  1.00  0.00     0.293 HD
ENDBRANCH   6  24
BRANCH   8  26
ATOM     26  O   UNL     1      11.265  37.704  40.788  1.00  0.00    -0.508 OA
ATOM     27  H   UNL     1      10.681  37.054  41.303  1.00  0.00     0.293 HD
ENDBRANCH   8  26
TORSDOF 6
ENDMDL
