MODEL 1
REMARK VINA RESULT:    -4.472      0.000      0.000
REMARK INTER + INTRA:         -15.796
REMARK INTER:                 -11.792
REMARK INTRA:                  -4.005
REMARK UNBOUND:                -4.005
REMARK SMILES CCCCCCCCCCCCCCCCCCCCCCCCCCCCCC(=O)[O-]
REMARK SMILES IDX 16 1 17 2 18 3 19 4 20 5 21 6 22 7 23 8 24 9 25 10 26 11
REMARK SMILES IDX 27 12 28 13 29 14 30 15 31 16 32 17 15 18 14 19 13 20 12 21
REMARK SMILES IDX 11 22 10 23 9 24 8 25 7 26 6 27 5 28 4 29 3 30 2 31 1 32
REMARK H PARENT
REMARK Flexibility Score: inf
ROOT
ATOM      1  C   UNL     1       1.600   0.184  -6.507  1.00  0.00     0.000 C 
ENDROOT
BRANCH   1   2
ATOM      2  C   UNL     1       2.018  -1.154  -7.153  1.00  0.00     0.000 C 
BRANCH   2   3
ATOM      3  C   UNL     1       0.990  -2.292  -7.028  1.00  0.00     0.000 C 
BRANCH   3   4
ATOM      4  C   UNL     1       0.214  -2.255  -5.703  1.00  0.00     0.000 C 
BRANCH   4   5
ATOM      5  C   UNL     1      -1.295  -2.401  -5.951  1.00  0.00     0.000 C 
BRANCH   5   6
ATOM      6  C   UNL     1      -1.921  -1.146  -6.578  1.00  0.00     0.000 C 
BRANCH   6   7
ATOM      7  C   UNL     1      -3.031  -0.535  -5.708  1.00  0.00     0.000 C 
BRANCH   7   8
ATOM      8  C   UNL     1      -4.135   0.077  -6.581  1.00  0.00     0.000 C 
BRANCH   8   9
ATOM      9  C   UNL     1      -4.139  -0.475  -8.016  1.00  0.00     0.000 C 
BRANCH   9  10
ATOM     10  C   UNL     1      -5.251  -1.500  -8.314  1.00  0.00     0.000 C 
BRANCH  10  11
ATOM     11  C   UNL     1      -6.109  -1.862  -7.083  1.00  0.00     0.000 C 
BRANCH  11  12
ATOM     12  C   UNL     1      -6.141  -3.379  -6.826  1.00  0.00     0.000 C 
BRANCH  12  13
ATOM     13  C   UNL     1      -4.853  -3.894  -6.164  1.00  0.00     0.006 C 
BRANCH  13  14
ATOM     14  C   UNL     1      -4.842  -3.658  -4.648  1.00  0.00     0.053 C 
BRANCH  14  15
ATOM     15  C   UNL     1      -4.140  -4.779  -3.949  1.00  0.00     0.041 C 
ATOM     16  O   UNL     1      -2.922  -5.004  -4.177  1.00  0.00    -0.550 OA
ATOM     17  O   UNL     1      -4.817  -5.544  -3.008  1.00  0.00    -0.550 OA
ENDBRANCH  14  15
ENDBRANCH  13  14
ENDBRANCH  12  13
ENDBRANCH  11  12
ENDBRANCH  10  11
ENDBRANCH   9  10
ENDBRANCH   8   9
ENDBRANCH   7   8
ENDBRANCH   6   7
ENDBRANCH   5   6
ENDBRANCH   4   5
ENDBRANCH   3   4
ENDBRANCH   2   3
ENDBRANCH   1   2
BRANCH   1  18
ATOM     18  C   UNL     1       1.022   1.228  -7.479  1.00  0.00     0.000 C 
BRANCH  18  19
ATOM     19  C   UNL     1       1.672   2.613  -7.326  1.00  0.00     0.000 C 
BRANCH  19  20
ATOM     20  C   UNL     1       2.337   2.791  -5.951  1.00  0.00     0.000 C 
BRANCH  20  21
ATOM     21  C   UNL     1       3.835   3.127  -6.069  1.00  0.00     0.000 C 
BRANCH  21  22
ATOM     22  C   UNL     1       4.448   2.625  -7.394  1.00  0.00     0.000 C 
BRANCH  22  23
ATOM     23  C   UNL     1       5.194   1.285  -7.271  1.00  0.00     0.000 C 
BRANCH  23  24
ATOM     24  C   UNL     1       5.566   0.935  -5.823  1.00  0.00    -0.000 C 
BRANCH  24  25
ATOM     25  C   UNL     1       6.895   0.167  -5.768  1.00  0.00    -0.000 C 
BRANCH  25  26
ATOM     26  C   UNL     1       7.865   0.575  -6.890  1.00  0.00    -0.000 C 
BRANCH  26  27
ATOM     27  C   UNL     1       9.006   1.477  -6.384  1.00  0.00    -0.000 C 
BRANCH  27  28
ATOM     28  C   UNL     1       9.143   1.468  -4.850  1.00  0.00    -0.000 C 
BRANCH  28  29
ATOM     29  C   UNL     1       8.876   2.818  -4.163  1.00  0.00    -0.000 C 
BRANCH  29  30
ATOM     30  C   UNL     1       9.495   4.007  -4.919  1.00  0.00    -0.000 C 
BRANCH  30  31
ATOM     31  C   UNL     1       8.501   5.162  -5.119  1.00  0.00    -0.003 C 
ATOM     32  C   UNL     1       7.053   4.681  -5.229  1.00  0.00     0.004 C 
ENDBRANCH  30  31
ENDBRANCH  29  30
ENDBRANCH  28  29
ENDBRANCH  27  28
ENDBRANCH  26  27
ENDBRANCH  25  26
ENDBRANCH  24  25
ENDBRANCH  23  24
ENDBRANCH  22  23
ENDBRANCH  21  22
ENDBRANCH  20  21
ENDBRANCH  19  20
ENDBRANCH  18  19
ENDBRANCH   1  18
TORSDOF 28
ENDMDL
MODEL 2
REMARK VINA RESULT:    -4.420      2.341      4.551
REMARK INTER + INTRA:         -15.659
REMARK INTER:                 -10.828
REMARK INTRA:                  -4.831
REMARK UNBOUND:                -4.005
REMARK SMILES CCCCCCCCCCCCCCCCCCCCCCCCCCCCCC(=O)[O-]
REMARK SMILES IDX 16 1 17 2 18 3 19 4 20 5 21 6 22 7 23 8 24 9 25 10 26 11
REMARK SMILES IDX 27 12 28 13 29 14 30 15 31 16 32 17 15 18 14 19 13 20 12 21
REMARK SMILES IDX 11 22 10 23 9 24 8 25 7 26 6 27 5 28 4 29 3 30 2 31 1 32
REMARK H PARENT
REMARK Flexibility Score: inf
ROOT
ATOM      1  C   UNL     1       0.755  -5.160  -5.471  1.00  0.00     0.000 C 
ENDROOT
BRANCH   1   2
ATOM      2  C   UNL     1      -0.266  -4.499  -4.521  1.00  0.00     0.000 C 
BRANCH   2   3
ATOM      3  C   UNL     1      -0.509  -2.998  -4.759  1.00  0.00     0.000 C 
BRANCH   3   4
ATOM      4  C   UNL     1      -1.673  -2.725  -5.723  1.00  0.00     0.000 C 
BRANCH   4   5
ATOM      5  C   UNL     1      -2.490  -1.508  -5.261  1.00  0.00     0.000 C 
BRANCH   5   6
ATOM      6  C   UNL     1      -2.722  -0.484  -6.383  1.00  0.00     0.000 C 
BRANCH   6   7
ATOM      7  C   UNL     1      -4.168   0.035  -6.426  1.00  0.00     0.000 C 
BRANCH   7   8
ATOM      8  C   UNL     1      -4.889  -0.464  -7.686  1.00  0.00     0.000 C 
BRANCH   8   9
ATOM      9  C   UNL     1      -6.114  -1.337  -7.369  1.00  0.00     0.000 C 
BRANCH   9  10
ATOM     10  C   UNL     1      -5.856  -2.478  -6.365  1.00  0.00     0.000 C 
BRANCH  10  11
ATOM     11  C   UNL     1      -5.073  -3.666  -6.963  1.00  0.00     0.000 C 
BRANCH  11  12
ATOM     12  C   UNL     1      -4.974  -4.846  -5.981  1.00  0.00     0.000 C 
BRANCH  12  13
ATOM     13  C   UNL     1      -4.817  -4.389  -4.522  1.00  0.00     0.006 C 
BRANCH  13  14
ATOM     14  C   UNL     1      -3.866  -5.293  -3.727  1.00  0.00     0.053 C 
BRANCH  14  15
ATOM     15  C   UNL     1      -4.480  -6.641  -3.515  1.00  0.00     0.041 C 
ATOM     16  O   UNL     1      -3.752  -7.667  -3.463  1.00  0.00    -0.550 OA
ATOM     17  O   UNL     1      -5.851  -6.758  -3.323  1.00  0.00    -0.550 OA
ENDBRANCH  14  15
ENDBRANCH  13  14
ENDBRANCH  12  13
ENDBRANCH  11  12
ENDBRANCH  10  11
ENDBRANCH   9  10
ENDBRANCH   8   9
ENDBRANCH   7   8
ENDBRANCH   6   7
ENDBRANCH   5   6
ENDBRANCH   4   5
ENDBRANCH   3   4
ENDBRANCH   2   3
ENDBRANCH   1   2
BRANCH   1  18
ATOM     18  C   UNL     1       1.737  -4.190  -6.153  1.00  0.00     0.000 C 
BRANCH  18  19
ATOM     19  C   UNL     1       1.499  -4.064  -7.666  1.00  0.00     0.000 C 
BRANCH  19  20
ATOM     20  C   UNL     1       1.296  -2.603  -8.100  1.00  0.00     0.000 C 
BRANCH  20  21
ATOM     21  C   UNL     1       1.990  -1.612  -7.147  1.00  0.00     0.000 C 
BRANCH  21  22
ATOM     22  C   UNL     1       1.065  -0.449  -6.732  1.00  0.00     0.000 C 
BRANCH  22  23
ATOM     23  C   UNL     1       0.485   0.344  -7.917  1.00  0.00     0.000 C 
BRANCH  23  24
ATOM     24  C   UNL     1      -0.056   1.722  -7.512  1.00  0.00    -0.000 C 
BRANCH  24  25
ATOM     25  C   UNL     1       0.619   2.837  -8.324  1.00  0.00    -0.000 C 
BRANCH  25  26
ATOM     26  C   UNL     1       2.061   3.116  -7.866  1.00  0.00    -0.000 C 
BRANCH  26  27
ATOM     27  C   UNL     1       2.204   3.115  -6.333  1.00  0.00    -0.000 C 
BRANCH  27  28
ATOM     28  C   UNL     1       3.596   2.654  -5.861  1.00  0.00    -0.000 C 
BRANCH  28  29
ATOM     29  C   UNL     1       4.245   1.555  -6.720  1.00  0.00    -0.000 C 
BRANCH  29  30
ATOM     30  C   UNL     1       5.036   0.532  -5.886  1.00  0.00    -0.000 C 
BRANCH  30  31
ATOM     31  C   UNL     1       5.659  -0.578  -6.748  1.00  0.00    -0.003 C 
ATOM     32  C   UNL     1       5.407  -1.975  -6.181  1.00  0.00     0.004 C 
ENDBRANCH  30  31
ENDBRANCH  29  30
ENDBRANCH  28  29
ENDBRANCH  27  28
ENDBRANCH  26  27
ENDBRANCH  25  26
ENDBRANCH  24  25
ENDBRANCH  23  24
ENDBRANCH  22  23
ENDBRANCH  21  22
ENDBRANCH  20  21
ENDBRANCH  19  20
ENDBRANCH  18  19
ENDBRANCH   1  18
TORSDOF 28
ENDMDL
MODEL 3
REMARK VINA RESULT:    -4.406      4.119     10.550
REMARK INTER + INTRA:         -15.623
REMARK INTER:                 -10.501
REMARK INTRA:                  -5.121
REMARK UNBOUND:                -4.005
REMARK SMILES CCCCCCCCCCCCCCCCCCCCCCCCCCCCCC(=O)[O-]
REMARK SMILES IDX 16 1 17 2 18 3 19 4 20 5 21 6 22 7 23 8 24 9 25 10 26 11
REMARK SMILES IDX 27 12 28 13 29 14 30 15 31 16 32 17 15 18 14 19 13 20 12 21
REMARK SMILES IDX 11 22 10 23 9 24 8 25 7 26 6 27 5 28 4 29 3 30 2 31 1 32
REMARK H PARENT
REMARK Flexibility Score: inf
ROOT
ATOM      1  C   UNL     1       2.575   2.689  -6.045  1.00  0.00     0.000 C 
ENDROOT
BRANCH   1   2
ATOM      2  C   UNL     1       4.029   2.790  -6.554  1.00  0.00     0.000 C 
BRANCH   2   3
ATOM      3  C   UNL     1       4.187   2.828  -8.084  1.00  0.00     0.000 C 
BRANCH   3   4
ATOM      4  C   UNL     1       5.468   2.135  -8.571  1.00  0.00     0.000 C 
BRANCH   4   5
ATOM      5  C   UNL     1       5.139   1.031  -9.587  1.00  0.00     0.000 C 
BRANCH   5   6
ATOM      6  C   UNL     1       3.785   0.356  -9.318  1.00  0.00     0.000 C 
BRANCH   6   7
ATOM      7  C   UNL     1       3.927  -1.116  -8.899  1.00  0.00     0.000 C 
BRANCH   7   8
ATOM      8  C   UNL     1       3.671  -1.283  -7.395  1.00  0.00     0.000 C 
BRANCH   8   9
ATOM      9  C   UNL     1       4.891  -0.914  -6.535  1.00  0.00     0.000 C 
BRANCH   9  10
ATOM     10  C   UNL     1       6.225  -1.530  -7.004  1.00  0.00     0.000 C 
BRANCH  10  11
ATOM     11  C   UNL     1       7.422  -0.560  -6.916  1.00  0.00     0.000 C 
BRANCH  11  12
ATOM     12  C   UNL     1       7.388   0.286  -5.632  1.00  0.00     0.000 C 
BRANCH  12  13
ATOM     13  C   UNL     1       7.880   1.724  -5.859  1.00  0.00     0.006 C 
BRANCH  13  14
ATOM     14  C   UNL     1       9.314   1.937  -5.354  1.00  0.00     0.053 C 
BRANCH  14  15
ATOM     15  C   UNL     1       9.363   3.077  -4.386  1.00  0.00     0.041 C 
ATOM     16  O   UNL     1       9.055   2.897  -3.178  1.00  0.00    -0.550 OA
ATOM     17  O   UNL     1       9.800   4.327  -4.806  1.00  0.00    -0.550 OA
ENDBRANCH  14  15
ENDBRANCH  13  14
ENDBRANCH  12  13
ENDBRANCH  11  12
ENDBRANCH  10  11
ENDBRANCH   9  10
ENDBRANCH   8   9
ENDBRANCH   7   8
ENDBRANCH   6   7
ENDBRANCH   5   6
ENDBRANCH   4   5
ENDBRANCH   3   4
ENDBRANCH   2   3
ENDBRANCH   1   2
BRANCH   1  18
ATOM     18  C   UNL     1       1.703   1.639  -6.758  1.00  0.00     0.000 C 
BRANCH  18  19
ATOM     19  C   UNL     1       0.528   2.262  -7.529  1.00  0.00     0.000 C 
BRANCH  19  20
ATOM     20  C   UNL     1      -0.461   1.199  -8.035  1.00  0.00     0.000 C 
BRANCH  20  21
ATOM     21  C   UNL     1       0.232  -0.145  -8.329  1.00  0.00     0.000 C 
BRANCH  21  22
ATOM     22  C   UNL     1      -0.638  -1.355  -7.926  1.00  0.00     0.000 C 
BRANCH  22  23
ATOM     23  C   UNL     1       0.125  -2.441  -7.146  1.00  0.00     0.000 C 
BRANCH  23  24
ATOM     24  C   UNL     1       0.047  -2.255  -5.625  1.00  0.00    -0.000 C 
BRANCH  24  25
ATOM     25  C   UNL     1       0.067  -3.612  -4.904  1.00  0.00    -0.000 C 
BRANCH  25  26
ATOM     26  C   UNL     1      -1.194  -3.853  -4.057  1.00  0.00    -0.000 C 
BRANCH  26  27
ATOM     27  C   UNL     1      -2.096  -4.955  -4.642  1.00  0.00    -0.000 C 
BRANCH  27  28
ATOM     28  C   UNL     1      -3.016  -4.443  -5.766  1.00  0.00    -0.000 C 
BRANCH  28  29
ATOM     29  C   UNL     1      -4.026  -3.363  -5.341  1.00  0.00    -0.000 C 
BRANCH  29  30
ATOM     30  C   UNL     1      -3.913  -2.075  -6.175  1.00  0.00    -0.000 C 
BRANCH  30  31
ATOM     31  C   UNL     1      -3.301  -0.909  -5.383  1.00  0.00    -0.003 C 
ATOM     32  C   UNL     1      -3.362   0.416  -6.143  1.00  0.00     0.004 C 
ENDBRANCH  30  31
ENDBRANCH  29  30
ENDBRANCH  28  29
ENDBRANCH  27  28
ENDBRANCH  26  27
ENDBRANCH  25  26
ENDBRANCH  24  25
ENDBRANCH  23  24
ENDBRANCH  22  23
ENDBRANCH  21  22
ENDBRANCH  20  21
ENDBRANCH  19  20
ENDBRANCH  18  19
ENDBRANCH   1  18
TORSDOF 28
ENDMDL
MODEL 4
REMARK VINA RESULT:    -4.361      3.771      9.879
REMARK INTER + INTRA:         -15.504
REMARK INTER:                  -9.165
REMARK INTRA:                  -6.339
REMARK UNBOUND:                -4.005
REMARK SMILES CCCCCCCCCCCCCCCCCCCCCCCCCCCCCC(=O)[O-]
REMARK SMILES IDX 16 1 17 2 18 3 19 4 20 5 21 6 22 7 23 8 24 9 25 10 26 11
REMARK SMILES IDX 27 12 28 13 29 14 30 15 31 16 32 17 15 18 14 19 13 20 12 21
REMARK SMILES IDX 11 22 10 23 9 24 8 25 7 26 6 27 5 28 4 29 3 30 2 31 1 32
REMARK H PARENT
REMARK Flexibility Score: inf
ROOT
ATOM      1  C   UNL     1       0.286  -4.266  -5.051  1.00  0.00     0.000 C 
ENDROOT
BRANCH   1   2
ATOM      2  C   UNL     1       0.959  -3.243  -5.990  1.00  0.00     0.000 C 
BRANCH   2   3
ATOM      3  C   UNL     1       1.392  -3.795  -7.360  1.00  0.00     0.000 C 
BRANCH   3   4
ATOM      4  C   UNL     1       2.911  -3.739  -7.574  1.00  0.00     0.000 C 
BRANCH   4   5
ATOM      5  C   UNL     1       3.650  -4.452  -6.432  1.00  0.00     0.000 C 
BRANCH   5   6
ATOM      6  C   UNL     1       4.915  -3.705  -5.980  1.00  0.00     0.000 C 
BRANCH   6   7
ATOM      7  C   UNL     1       5.388  -2.662  -7.004  1.00  0.00     0.000 C 
BRANCH   7   8
ATOM      8  C   UNL     1       5.607  -1.299  -6.333  1.00  0.00     0.000 C 
BRANCH   8   9
ATOM      9  C   UNL     1       4.483  -0.295  -6.635  1.00  0.00     0.000 C 
BRANCH   9  10
ATOM     10  C   UNL     1       3.972  -0.311  -8.089  1.00  0.00     0.000 C 
BRANCH  10  11
ATOM     11  C   UNL     1       2.450  -0.089  -8.216  1.00  0.00     0.000 C 
BRANCH  11  12
ATOM     12  C   UNL     1       1.824   0.397  -6.898  1.00  0.00     0.000 C 
BRANCH  12  13
ATOM     13  C   UNL     1       1.117   1.753  -7.043  1.00  0.00     0.006 C 
BRANCH  13  14
ATOM     14  C   UNL     1       2.098   2.892  -7.352  1.00  0.00     0.053 C 
BRANCH  14  15
ATOM     15  C   UNL     1       3.058   3.077  -6.220  1.00  0.00     0.041 C 
ATOM     16  O   UNL     1       4.289   3.211  -6.448  1.00  0.00    -0.550 OA
ATOM     17  O   UNL     1       2.588   3.153  -4.915  1.00  0.00    -0.550 OA
ENDBRANCH  14  15
ENDBRANCH  13  14
ENDBRANCH  12  13
ENDBRANCH  11  12
ENDBRANCH  10  11
ENDBRANCH   9  10
ENDBRANCH   8   9
ENDBRANCH   7   8
ENDBRANCH   6   7
ENDBRANCH   5   6
ENDBRANCH   4   5
ENDBRANCH   3   4
ENDBRANCH   2   3
ENDBRANCH   1   2
BRANCH   1  18
ATOM     18  C   UNL     1      -0.893  -3.720  -4.225  1.00  0.00     0.000 C 
BRANCH  18  19
ATOM     19  C   UNL     1      -2.261  -4.094  -4.816  1.00  0.00     0.000 C 
BRANCH  19  20
ATOM     20  C   UNL     1      -2.232  -5.458  -5.526  1.00  0.00     0.000 C 
BRANCH  20  21
ATOM     21  C   UNL     1      -2.725  -5.367  -6.982  1.00  0.00     0.000 C 
BRANCH  21  22
ATOM     22  C   UNL     1      -2.205  -4.104  -7.701  1.00  0.00     0.000 C 
BRANCH  22  23
ATOM     23  C   UNL     1      -3.047  -3.686  -8.919  1.00  0.00     0.000 C 
BRANCH  23  24
ATOM     24  C   UNL     1      -2.702  -2.283  -9.436  1.00  0.00    -0.000 C 
BRANCH  24  25
ATOM     25  C   UNL     1      -1.453  -1.731  -8.733  1.00  0.00    -0.000 C 
BRANCH  25  26
ATOM     26  C   UNL     1      -1.744  -0.465  -7.910  1.00  0.00    -0.000 C 
BRANCH  26  27
ATOM     27  C   UNL     1      -1.751  -0.736  -6.394  1.00  0.00    -0.000 C 
BRANCH  27  28
ATOM     28  C   UNL     1      -3.138  -0.533  -5.755  1.00  0.00    -0.000 C 
BRANCH  28  29
ATOM     29  C   UNL     1      -4.227  -0.014  -6.710  1.00  0.00    -0.000 C 
BRANCH  29  30
ATOM     30  C   UNL     1      -5.260  -1.091  -7.082  1.00  0.00    -0.000 C 
BRANCH  30  31
ATOM     31  C   UNL     1      -5.178  -2.328  -6.174  1.00  0.00    -0.003 C 
ATOM     32  C   UNL     1      -5.997  -3.505  -6.705  1.00  0.00     0.004 C 
ENDBRANCH  30  31
ENDBRANCH  29  30
ENDBRANCH  28  29
ENDBRANCH  27  28
ENDBRANCH  26  27
ENDBRANCH  25  26
ENDBRANCH  24  25
ENDBRANCH  23  24
ENDBRANCH  22  23
ENDBRANCH  21  22
ENDBRANCH  20  21
ENDBRANCH  19  20
ENDBRANCH  18  19
ENDBRANCH   1  18
TORSDOF 28
ENDMDL
MODEL 5
REMARK VINA RESULT:    -4.279      1.821      4.488
REMARK INTER + INTRA:         -15.288
REMARK INTER:                 -11.172
REMARK INTRA:                  -4.117
REMARK UNBOUND:                -4.005
REMARK SMILES CCCCCCCCCCCCCCCCCCCCCCCCCCCCCC(=O)[O-]
REMARK SMILES IDX 16 1 17 2 18 3 19 4 20 5 21 6 22 7 23 8 24 9 25 10 26 11
REMARK SMILES IDX 27 12 28 13 29 14 30 15 31 16 32 17 15 18 14 19 13 20 12 21
REMARK SMILES IDX 11 22 10 23 9 24 8 25 7 26 6 27 5 28 4 29 3 30 2 31 1 32
REMARK H PARENT
REMARK Flexibility Score: inf
ROOT
ATOM      1  C   UNL     1       2.226   1.471  -6.429  1.00  0.00     0.000 C 
ENDROOT
BRANCH   1   2
ATOM      2  C   UNL     1       1.178   1.324  -7.553  1.00  0.00     0.000 C 
BRANCH   2   3
ATOM      3  C   UNL     1       0.587  -0.088  -7.718  1.00  0.00     0.000 C 
BRANCH   3   4
ATOM      4  C   UNL     1       1.165  -1.100  -6.718  1.00  0.00     0.000 C 
BRANCH   4   5
ATOM      5  C   UNL     1       1.427  -2.451  -7.400  1.00  0.00     0.000 C 
BRANCH   5   6
ATOM      6  C   UNL     1       2.197  -3.433  -6.503  1.00  0.00     0.000 C 
BRANCH   6   7
ATOM      7  C   UNL     1       1.672  -4.873  -6.608  1.00  0.00     0.000 C 
BRANCH   7   8
ATOM      8  C   UNL     1       0.979  -5.298  -5.306  1.00  0.00     0.000 C 
BRANCH   8   9
ATOM      9  C   UNL     1      -0.502  -5.658  -5.506  1.00  0.00     0.000 C 
BRANCH   9  10
ATOM     10  C   UNL     1      -1.491  -4.829  -4.663  1.00  0.00     0.000 C 
BRANCH  10  11
ATOM     11  C   UNL     1      -1.289  -3.304  -4.789  1.00  0.00     0.000 C 
BRANCH  11  12
ATOM     12  C   UNL     1      -2.010  -2.725  -6.018  1.00  0.00     0.000 C 
BRANCH  12  13
ATOM     13  C   UNL     1      -3.115  -1.726  -5.638  1.00  0.00     0.006 C 
BRANCH  13  14
ATOM     14  C   UNL     1      -4.485  -2.132  -6.195  1.00  0.00     0.053 C 
BRANCH  14  15
ATOM     15  C   UNL     1      -4.938  -3.420  -5.582  1.00  0.00     0.041 C 
ATOM     16  O   UNL     1      -5.120  -4.436  -6.303  1.00  0.00    -0.550 OA
ATOM     17  O   UNL     1      -5.111  -3.512  -4.206  1.00  0.00    -0.550 OA
ENDBRANCH  14  15
ENDBRANCH  13  14
ENDBRANCH  12  13
ENDBRANCH  11  12
ENDBRANCH  10  11
ENDBRANCH   9  10
ENDBRANCH   8   9
ENDBRANCH   7   8
ENDBRANCH   6   7
ENDBRANCH   5   6
ENDBRANCH   4   5
ENDBRANCH   3   4
ENDBRANCH   2   3
ENDBRANCH   1   2
BRANCH   1  18
ATOM     18  C   UNL     1       2.795   2.890  -6.247  1.00  0.00     0.000 C 
BRANCH  18  19
ATOM     19  C   UNL     1       4.249   3.018  -6.730  1.00  0.00     0.000 C 
BRANCH  19  20
ATOM     20  C   UNL     1       5.202   3.424  -5.594  1.00  0.00     0.000 C 
BRANCH  20  21
ATOM     21  C   UNL     1       6.450   4.159  -6.117  1.00  0.00     0.000 C 
BRANCH  21  22
ATOM     22  C   UNL     1       7.212   4.896  -4.995  1.00  0.00     0.000 C 
BRANCH  22  23
ATOM     23  C   UNL     1       8.701   4.523  -4.900  1.00  0.00     0.000 C 
BRANCH  23  24
ATOM     24  C   UNL     1       8.985   3.445  -3.845  1.00  0.00    -0.000 C 
BRANCH  24  25
ATOM     25  C   UNL     1       9.623   2.203  -4.486  1.00  0.00    -0.000 C 
BRANCH  25  26
ATOM     26  C   UNL     1       8.584   1.142  -4.888  1.00  0.00    -0.000 C 
BRANCH  26  27
ATOM     27  C   UNL     1       8.346   1.096  -6.409  1.00  0.00    -0.000 C 
BRANCH  27  28
ATOM     28  C   UNL     1       7.355  -0.005  -6.828  1.00  0.00    -0.000 C 
BRANCH  28  29
ATOM     29  C   UNL     1       6.178  -0.225  -5.861  1.00  0.00    -0.000 C 
BRANCH  29  30
ATOM     30  C   UNL     1       4.989  -0.947  -6.520  1.00  0.00    -0.000 C 
BRANCH  30  31
ATOM     31  C   UNL     1       5.427  -1.912  -7.633  1.00  0.00    -0.003 C 
ATOM     32  C   UNL     1       5.777  -3.303  -7.103  1.00  0.00     0.004 C 
ENDBRANCH  30  31
ENDBRANCH  29  30
ENDBRANCH  28  29
ENDBRANCH  27  28
ENDBRANCH  26  27
ENDBRANCH  25  26
ENDBRANCH  24  25
ENDBRANCH  23  24
ENDBRANCH  22  23
ENDBRANCH  21  22
ENDBRANCH  20  21
ENDBRANCH  19  20
ENDBRANCH  18  19
ENDBRANCH   1  18
TORSDOF 28
ENDMDL
MODEL 6
REMARK VINA RESULT:    -4.275      2.276      4.976
REMARK INTER + INTRA:         -15.277
REMARK INTER:                 -10.173
REMARK INTRA:                  -5.103
REMARK UNBOUND:                -4.005
REMARK SMILES CCCCCCCCCCCCCCCCCCCCCCCCCCCCCC(=O)[O-]
REMARK SMILES IDX 16 1 17 2 18 3 19 4 20 5 21 6 22 7 23 8 24 9 25 10 26 11
REMARK SMILES IDX 27 12 28 13 29 14 30 15 31 16 32 17 15 18 14 19 13 20 12 21
REMARK SMILES IDX 11 22 10 23 9 24 8 25 7 26 6 27 5 28 4 29 3 30 2 31 1 32
REMARK H PARENT
REMARK Flexibility Score: inf
ROOT
ATOM      1  C   UNL     1      -1.154  -2.796  -5.185  1.00  0.00     0.000 C 
ENDROOT
BRANCH   1   2
ATOM      2  C   UNL     1      -1.755  -2.523  -6.580  1.00  0.00     0.000 C 
BRANCH   2   3
ATOM      3  C   UNL     1      -2.015  -1.041  -6.905  1.00  0.00     0.000 C 
BRANCH   3   4
ATOM      4  C   UNL     1      -3.003  -0.379  -5.933  1.00  0.00     0.000 C 
BRANCH   4   5
ATOM      5  C   UNL     1      -4.247   0.126  -6.680  1.00  0.00     0.000 C 
BRANCH   5   6
ATOM      6  C   UNL     1      -4.320  -0.381  -8.129  1.00  0.00     0.000 C 
BRANCH   6   7
ATOM      7  C   UNL     1      -5.471  -1.373  -8.355  1.00  0.00     0.000 C 
BRANCH   7   8
ATOM      8  C   UNL     1      -4.931  -2.788  -8.608  1.00  0.00     0.000 C 
BRANCH   8   9
ATOM      9  C   UNL     1      -5.206  -3.752  -7.443  1.00  0.00     0.000 C 
BRANCH   9  10
ATOM     10  C   UNL     1      -5.737  -3.083  -6.159  1.00  0.00     0.000 C 
BRANCH  10  11
ATOM     11  C   UNL     1      -4.903  -3.404  -4.901  1.00  0.00     0.000 C 
BRANCH  11  12
ATOM     12  C   UNL     1      -4.293  -4.815  -4.955  1.00  0.00     0.000 C 
BRANCH  12  13
ATOM     13  C   UNL     1      -4.219  -5.480  -3.572  1.00  0.00     0.006 C 
BRANCH  13  14
ATOM     14  C   UNL     1      -3.990  -6.995  -3.665  1.00  0.00     0.053 C 
BRANCH  14  15
ATOM     15  C   UNL     1      -5.297  -7.723  -3.659  1.00  0.00     0.041 C 
ATOM     16  O   UNL     1      -6.357  -7.120  -3.344  1.00  0.00    -0.550 OA
ATOM     17  O   UNL     1      -5.353  -9.055  -4.050  1.00  0.00    -0.550 OA
ENDBRANCH  14  15
ENDBRANCH  13  14
ENDBRANCH  12  13
ENDBRANCH  11  12
ENDBRANCH  10  11
ENDBRANCH   9  10
ENDBRANCH   8   9
ENDBRANCH   7   8
ENDBRANCH   6   7
ENDBRANCH   5   6
ENDBRANCH   4   5
ENDBRANCH   3   4
ENDBRANCH   2   3
ENDBRANCH   1   2
BRANCH   1  18
ATOM     18  C   UNL     1      -0.770  -4.262  -4.914  1.00  0.00     0.000 C 
BRANCH  18  19
ATOM     19  C   UNL     1       0.750  -4.489  -4.904  1.00  0.00     0.000 C 
BRANCH  19  20
ATOM     20  C   UNL     1       1.324  -4.624  -6.325  1.00  0.00     0.000 C 
BRANCH  20  21
ATOM     21  C   UNL     1       2.833  -4.317  -6.374  1.00  0.00     0.000 C 
BRANCH  21  22
ATOM     22  C   UNL     1       3.128  -2.909  -6.933  1.00  0.00     0.000 C 
BRANCH  22  23
ATOM     23  C   UNL     1       1.892  -2.191  -7.503  1.00  0.00     0.000 C 
BRANCH  23  24
ATOM     24  C   UNL     1       1.599  -0.855  -6.807  1.00  0.00    -0.000 C 
BRANCH  24  25
ATOM     25  C   UNL     1       1.336   0.255  -7.836  1.00  0.00    -0.000 C 
BRANCH  25  26
ATOM     26  C   UNL     1       1.103   1.628  -7.184  1.00  0.00    -0.000 C 
BRANCH  26  27
ATOM     27  C   UNL     1       2.320   2.560  -7.323  1.00  0.00    -0.000 C 
BRANCH  27  28
ATOM     28  C   UNL     1       3.099   2.732  -6.005  1.00  0.00    -0.000 C 
BRANCH  28  29
ATOM     29  C   UNL     1       4.582   2.324  -6.066  1.00  0.00    -0.000 C 
BRANCH  29  30
ATOM     30  C   UNL     1       4.787   0.800  -5.990  1.00  0.00    -0.000 C 
BRANCH  30  31
ATOM     31  C   UNL     1       5.690   0.269  -7.115  1.00  0.00    -0.003 C 
ATOM     32  C   UNL     1       4.928   0.026  -8.418  1.00  0.00     0.004 C 
ENDBRANCH  30  31
ENDBRANCH  29  30
ENDBRANCH  28  29
ENDBRANCH  27  28
ENDBRANCH  26  27
ENDBRANCH  25  26
ENDBRANCH  24  25
ENDBRANCH  23  24
ENDBRANCH  22  23
ENDBRANCH  21  22
ENDBRANCH  20  21
ENDBRANCH  19  20
ENDBRANCH  18  19
ENDBRANCH   1  18
TORSDOF 28
ENDMDL
MODEL 7
REMARK VINA RESULT:    -4.261      2.390      5.652
REMARK INTER + INTRA:         -15.241
REMARK INTER:                 -10.507
REMARK INTRA:                  -4.735
REMARK UNBOUND:                -4.005
REMARK SMILES CCCCCCCCCCCCCCCCCCCCCCCCCCCCCC(=O)[O-]
REMARK SMILES IDX 16 1 17 2 18 3 19 4 20 5 21 6 22 7 23 8 24 9 25 10 26 11
REMARK SMILES IDX 27 12 28 13 29 14 30 15 31 16 32 17 15 18 14 19 13 20 12 21
REMARK SMILES IDX 11 22 10 23 9 24 8 25 7 26 6 27 5 28 4 29 3 30 2 31 1 32
REMARK H PARENT
REMARK Flexibility Score: inf
ROOT
ATOM      1  C   UNL     1      -4.113  -3.628  -5.169  1.00  0.00     0.000 C 
ENDROOT
BRANCH   1   2
ATOM      2  C   UNL     1      -3.292  -3.611  -6.476  1.00  0.00     0.000 C 
BRANCH   2   3
ATOM      3  C   UNL     1      -2.628  -2.265  -6.816  1.00  0.00     0.000 C 
BRANCH   3   4
ATOM      4  C   UNL     1      -2.649  -1.273  -5.643  1.00  0.00     0.000 C 
BRANCH   4   5
ATOM      5  C   UNL     1      -3.366   0.026  -6.041  1.00  0.00     0.000 C 
BRANCH   5   6
ATOM      6  C   UNL     1      -4.113  -0.089  -7.378  1.00  0.00     0.000 C 
BRANCH   6   7
ATOM      7  C   UNL     1      -5.592  -0.468  -7.204  1.00  0.00     0.000 C 
BRANCH   7   8
ATOM      8  C   UNL     1      -5.985  -1.592  -8.172  1.00  0.00     0.000 C 
BRANCH   8   9
ATOM      9  C   UNL     1      -6.725  -2.748  -7.480  1.00  0.00     0.000 C 
BRANCH   9  10
ATOM     10  C   UNL     1      -6.756  -4.068  -8.276  1.00  0.00     0.000 C 
BRANCH  10  11
ATOM     11  C   UNL     1      -7.337  -5.258  -7.483  1.00  0.00     0.000 C 
BRANCH  11  12
ATOM     12  C   UNL     1      -6.260  -6.298  -7.129  1.00  0.00     0.000 C 
BRANCH  12  13
ATOM     13  C   UNL     1      -6.291  -6.699  -5.646  1.00  0.00     0.006 C 
BRANCH  13  14
ATOM     14  C   UNL     1      -5.254  -7.780  -5.313  1.00  0.00     0.053 C 
BRANCH  14  15
ATOM     15  C   UNL     1      -5.166  -7.982  -3.832  1.00  0.00     0.041 C 
ATOM     16  O   UNL     1      -4.214  -8.641  -3.338  1.00  0.00    -0.550 OA
ATOM     17  O   UNL     1      -6.108  -7.399  -2.994  1.00  0.00    -0.550 OA
ENDBRANCH  14  15
ENDBRANCH  13  14
ENDBRANCH  12  13
ENDBRANCH  11  12
ENDBRANCH  10  11
ENDBRANCH   9  10
ENDBRANCH   8   9
ENDBRANCH   7   8
ENDBRANCH   6   7
ENDBRANCH   5   6
ENDBRANCH   4   5
ENDBRANCH   3   4
ENDBRANCH   2   3
ENDBRANCH   1   2
BRANCH   1  18
ATOM     18  C   UNL     1      -3.653  -4.658  -4.121  1.00  0.00     0.000 C 
BRANCH  18  19
ATOM     19  C   UNL     1      -2.294  -5.290  -4.461  1.00  0.00     0.000 C 
BRANCH  19  20
ATOM     20  C   UNL     1      -1.127  -4.554  -3.782  1.00  0.00     0.000 C 
BRANCH  20  21
ATOM     21  C   UNL     1       0.141  -4.545  -4.655  1.00  0.00     0.000 C 
BRANCH  21  22
ATOM     22  C   UNL     1       0.370  -3.183  -5.345  1.00  0.00     0.000 C 
BRANCH  22  23
ATOM     23  C   UNL     1       1.022  -3.288  -6.735  1.00  0.00     0.000 C 
BRANCH  23  24
ATOM     24  C   UNL     1       1.543  -1.943  -7.257  1.00  0.00    -0.000 C 
BRANCH  24  25
ATOM     25  C   UNL     1       0.835  -0.771  -6.560  1.00  0.00    -0.000 C 
BRANCH  25  26
ATOM     26  C   UNL     1       0.231   0.235  -7.555  1.00  0.00    -0.000 C 
BRANCH  26  27
ATOM     27  C   UNL     1       1.262   1.263  -8.054  1.00  0.00    -0.000 C 
BRANCH  27  28
ATOM     28  C   UNL     1       1.316   2.531  -7.181  1.00  0.00    -0.000 C 
BRANCH  28  29
ATOM     29  C   UNL     1       2.401   2.526  -6.090  1.00  0.00    -0.000 C 
BRANCH  29  30
ATOM     30  C   UNL     1       3.782   2.956  -6.617  1.00  0.00    -0.000 C 
BRANCH  30  31
ATOM     31  C   UNL     1       4.889   1.952  -6.258  1.00  0.00    -0.003 C 
ATOM     32  C   UNL     1       4.403   0.502  -6.293  1.00  0.00     0.004 C 
ENDBRANCH  30  31
ENDBRANCH  29  30
ENDBRANCH  28  29
ENDBRANCH  27  28
ENDBRANCH  26  27
ENDBRANCH  25  26
ENDBRANCH  24  25
ENDBRANCH  23  24
ENDBRANCH  22  23
ENDBRANCH  21  22
ENDBRANCH  20  21
ENDBRANCH  19  20
ENDBRANCH  18  19
ENDBRANCH   1  18
TORSDOF 28
ENDMDL
MODEL 8
REMARK VINA RESULT:    -4.251      3.512     10.151
REMARK INTER + INTRA:         -15.215
REMARK INTER:                  -9.427
REMARK INTRA:                  -5.788
REMARK UNBOUND:                -4.005
REMARK SMILES CCCCCCCCCCCCCCCCCCCCCCCCCCCCCC(=O)[O-]
REMARK SMILES IDX 16 1 17 2 18 3 19 4 20 5 21 6 22 7 23 8 24 9 25 10 26 11
REMARK SMILES IDX 27 12 28 13 29 14 30 15 31 16 32 17 15 18 14 19 13 20 12 21
REMARK SMILES IDX 11 22 10 23 9 24 8 25 7 26 6 27 5 28 4 29 3 30 2 31 1 32
REMARK H PARENT
REMARK Flexibility Score: inf
ROOT
ATOM      1  C   UNL     1       0.569   1.001  -8.495  1.00  0.00     0.000 C 
ENDROOT
BRANCH   1   2
ATOM      2  C   UNL     1       1.169   0.745  -7.096  1.00  0.00     0.000 C 
BRANCH   2   3
ATOM      3  C   UNL     1       1.495  -0.726  -6.781  1.00  0.00     0.000 C 
BRANCH   3   4
ATOM      4  C   UNL     1       2.013  -1.500  -8.002  1.00  0.00     0.000 C 
BRANCH   4   5
ATOM      5  C   UNL     1       1.567  -2.969  -7.946  1.00  0.00     0.000 C 
BRANCH   5   6
ATOM      6  C   UNL     1       2.744  -3.945  -7.791  1.00  0.00     0.000 C 
BRANCH   6   7
ATOM      7  C   UNL     1       3.109  -4.209  -6.322  1.00  0.00     0.000 C 
BRANCH   7   8
ATOM      8  C   UNL     1       4.491  -3.629  -5.990  1.00  0.00     0.000 C 
BRANCH   8   9
ATOM      9  C   UNL     1       5.406  -3.520  -7.220  1.00  0.00     0.000 C 
BRANCH   9  10
ATOM     10  C   UNL     1       6.122  -2.164  -7.377  1.00  0.00     0.000 C 
BRANCH  10  11
ATOM     11  C   UNL     1       5.461  -1.227  -8.410  1.00  0.00     0.000 C 
BRANCH  11  12
ATOM     12  C   UNL     1       5.455   0.238  -7.942  1.00  0.00     0.000 C 
BRANCH  12  13
ATOM     13  C   UNL     1       4.885   0.403  -6.524  1.00  0.00     0.006 C 
BRANCH  13  14
ATOM     14  C   UNL     1       5.223   1.770  -5.915  1.00  0.00     0.053 C 
BRANCH  14  15
ATOM     15  C   UNL     1       4.081   2.720  -6.094  1.00  0.00     0.041 C 
ATOM     16  O   UNL     1       3.893   3.283  -7.205  1.00  0.00    -0.550 OA
ATOM     17  O   UNL     1       3.192   2.943  -5.050  1.00  0.00    -0.550 OA
ENDBRANCH  14  15
ENDBRANCH  13  14
ENDBRANCH  12  13
ENDBRANCH  11  12
ENDBRANCH  10  11
ENDBRANCH   9  10
ENDBRANCH   8   9
ENDBRANCH   7   8
ENDBRANCH   6   7
ENDBRANCH   5   6
ENDBRANCH   4   5
ENDBRANCH   3   4
ENDBRANCH   2   3
ENDBRANCH   1   2
BRANCH   1  18
ATOM     18  C   UNL     1      -0.965   0.899  -8.578  1.00  0.00     0.000 C 
BRANCH  18  19
ATOM     19  C   UNL     1      -1.443  -0.422  -9.202  1.00  0.00     0.000 C 
BRANCH  19  20
ATOM     20  C   UNL     1      -2.079  -1.357  -8.159  1.00  0.00     0.000 C 
BRANCH  20  21
ATOM     21  C   UNL     1      -2.422  -0.620  -6.851  1.00  0.00     0.000 C 
BRANCH  21  22
ATOM     22  C   UNL     1      -2.037  -1.437  -5.599  1.00  0.00     0.000 C 
BRANCH  22  23
ATOM     23  C   UNL     1      -1.390  -2.797  -5.913  1.00  0.00     0.000 C 
BRANCH  23  24
ATOM     24  C   UNL     1      -0.447  -3.285  -4.805  1.00  0.00    -0.000 C 
BRANCH  24  25
ATOM     25  C   UNL     1      -0.882  -4.661  -4.280  1.00  0.00    -0.000 C 
BRANCH  25  26
ATOM     26  C   UNL     1      -1.577  -5.515  -5.354  1.00  0.00    -0.000 C 
BRANCH  26  27
ATOM     27  C   UNL     1      -2.700  -6.394  -4.774  1.00  0.00    -0.000 C 
BRANCH  27  28
ATOM     28  C   UNL     1      -4.107  -5.851  -5.082  1.00  0.00    -0.000 C 
BRANCH  28  29
ATOM     29  C   UNL     1      -4.664  -4.859  -4.046  1.00  0.00    -0.000 C 
BRANCH  29  30
ATOM     30  C   UNL     1      -4.928  -3.462  -4.636  1.00  0.00    -0.000 C 
BRANCH  30  31
ATOM     31  C   UNL     1      -5.054  -3.482  -6.168  1.00  0.00    -0.003 C 
ATOM     32  C   UNL     1      -6.021  -2.420  -6.692  1.00  0.00     0.004 C 
ENDBRANCH  30  31
ENDBRANCH  29  30
ENDBRANCH  28  29
ENDBRANCH  27  28
ENDBRANCH  26  27
ENDBRANCH  25  26
ENDBRANCH  24  25
ENDBRANCH  23  24
ENDBRANCH  22  23
ENDBRANCH  21  22
ENDBRANCH  20  21
ENDBRANCH  19  20
ENDBRANCH  18  19
ENDBRANCH   1  18
TORSDOF 28
ENDMDL
MODEL 9
REMARK VINA RESULT:    -4.230      2.731      5.806
REMARK INTER + INTRA:         -15.159
REMARK INTER:                  -9.119
REMARK INTRA:                  -6.041
REMARK UNBOUND:                -4.005
REMARK SMILES CCCCCCCCCCCCCCCCCCCCCCCCCCCCCC(=O)[O-]
REMARK SMILES IDX 16 1 17 2 18 3 19 4 20 5 21 6 22 7 23 8 24 9 25 10 26 11
REMARK SMILES IDX 27 12 28 13 29 14 30 15 31 16 32 17 15 18 14 19 13 20 12 21
REMARK SMILES IDX 11 22 10 23 9 24 8 25 7 26 6 27 5 28 4 29 3 30 2 31 1 32
REMARK H PARENT
REMARK Flexibility Score: inf
ROOT
ATOM      1  C   UNL     1      -2.546  -6.253  -5.119  1.00  0.00     0.000 C 
ENDROOT
BRANCH   1   2
ATOM      2  C   UNL     1      -3.583  -6.022  -6.238  1.00  0.00     0.000 C 
BRANCH   2   3
ATOM      3  C   UNL     1      -3.148  -5.044  -7.345  1.00  0.00     0.000 C 
BRANCH   3   4
ATOM      4  C   UNL     1      -1.795  -5.413  -7.971  1.00  0.00     0.000 C 
BRANCH   4   5
ATOM      5  C   UNL     1      -1.180  -4.204  -8.693  1.00  0.00     0.000 C 
BRANCH   5   6
ATOM      6  C   UNL     1      -2.028  -2.930  -8.551  1.00  0.00     0.000 C 
BRANCH   6   7
ATOM      7  C   UNL     1      -1.182  -1.647  -8.563  1.00  0.00     0.000 C 
BRANCH   7   8
ATOM      8  C   UNL     1      -2.065  -0.409  -8.352  1.00  0.00     0.000 C 
BRANCH   8   9
ATOM      9  C   UNL     1      -2.140   0.031  -6.881  1.00  0.00     0.000 C 
BRANCH   9  10
ATOM     10  C   UNL     1      -3.514  -0.171  -6.213  1.00  0.00     0.000 C 
BRANCH  10  11
ATOM     11  C   UNL     1      -3.755  -1.610  -5.707  1.00  0.00     0.000 C 
BRANCH  11  12
ATOM     12  C   UNL     1      -5.117  -2.162  -6.161  1.00  0.00     0.000 C 
BRANCH  12  13
ATOM     13  C   UNL     1      -5.566  -1.588  -7.514  1.00  0.00     0.006 C 
BRANCH  13  14
ATOM     14  C   UNL     1      -5.835  -2.685  -8.553  1.00  0.00     0.053 C 
BRANCH  14  15
ATOM     15  C   UNL     1      -6.968  -3.557  -8.111  1.00  0.00     0.041 C 
ATOM     16  O   UNL     1      -6.778  -4.783  -7.896  1.00  0.00    -0.550 OA
ATOM     17  O   UNL     1      -8.224  -3.006  -7.887  1.00  0.00    -0.550 OA
ENDBRANCH  14  15
ENDBRANCH  13  14
ENDBRANCH  12  13
ENDBRANCH  11  12
ENDBRANCH  10  11
ENDBRANCH   9  10
ENDBRANCH   8   9
ENDBRANCH   7   8
ENDBRANCH   6   7
ENDBRANCH   5   6
ENDBRANCH   4   5
ENDBRANCH   3   4
ENDBRANCH   2   3
ENDBRANCH   1   2
BRANCH   1  18
ATOM     18  C   UNL     1      -2.612  -5.254  -3.949  1.00  0.00     0.000 C 
BRANCH  18  19
ATOM     19  C   UNL     1      -1.291  -4.500  -3.732  1.00  0.00     0.000 C 
BRANCH  19  20
ATOM     20  C   UNL     1      -1.190  -3.244  -4.614  1.00  0.00     0.000 C 
BRANCH  20  21
ATOM     21  C   UNL     1       0.159  -3.158  -5.351  1.00  0.00     0.000 C 
BRANCH  21  22
ATOM     22  C   UNL     1       0.816  -4.543  -5.538  1.00  0.00     0.000 C 
BRANCH  22  23
ATOM     23  C   UNL     1       2.272  -4.483  -6.032  1.00  0.00     0.000 C 
BRANCH  23  24
ATOM     24  C   UNL     1       2.404  -4.711  -7.544  1.00  0.00    -0.000 C 
BRANCH  24  25
ATOM     25  C   UNL     1       2.414  -3.375  -8.302  1.00  0.00    -0.000 C 
BRANCH  25  26
ATOM     26  C   UNL     1       2.962  -2.214  -7.454  1.00  0.00    -0.000 C 
BRANCH  26  27
ATOM     27  C   UNL     1       2.409  -0.848  -7.897  1.00  0.00    -0.000 C 
BRANCH  27  28
ATOM     28  C   UNL     1       1.675  -0.102  -6.767  1.00  0.00    -0.000 C 
BRANCH  28  29
ATOM     29  C   UNL     1       2.299   1.245  -6.362  1.00  0.00    -0.000 C 
BRANCH  29  30
ATOM     30  C   UNL     1       3.687   1.473  -6.985  1.00  0.00    -0.000 C 
BRANCH  30  31
ATOM     31  C   UNL     1       4.819   1.408  -5.947  1.00  0.00    -0.003 C 
ATOM     32  C   UNL     1       5.486   0.034  -5.888  1.00  0.00     0.004 C 
ENDBRANCH  30  31
ENDBRANCH  29  30
ENDBRANCH  28  29
ENDBRANCH  27  28
ENDBRANCH  26  27
ENDBRANCH  25  26
ENDBRANCH  24  25
ENDBRANCH  23  24
ENDBRANCH  22  23
ENDBRANCH  21  22
ENDBRANCH  20  21
ENDBRANCH  19  20
ENDBRANCH  18  19
ENDBRANCH   1  18
TORSDOF 28
ENDMDL
