MODEL 1
REMARK VINA RESULT:    -4.850      0.000      0.000
REMARK INTER + INTRA:         -11.530
REMARK INTER:                  -9.386
REMARK INTRA:                  -2.144
REMARK UNBOUND:                -2.144
REMARK SMILES CCCCCCCCCCCCCCCCCC(=O)[O-]
REMARK SMILES IDX 10 1 11 2 12 3 13 4 14 5 15 6 16 7 17 8 18 9 19 10 20 11
REMARK SMILES IDX 9 12 8 13 7 14 6 15 5 16 4 17 3 18 2 19 1 20
REMARK H PARENT
REMARK Flexibility Score: inf
ROOT
ATOM      1  C   UNL     1     -20.830  -2.075  29.528  1.00  0.00     0.000 C 
ENDROOT
BRANCH   1   2
ATOM      2  C   UNL     1     -20.032  -2.948  30.513  1.00  0.00     0.000 C 
BRANCH   2   3
ATOM      3  C   UNL     1     -18.753  -3.534  29.897  1.00  0.00     0.000 C 
BRANCH   3   4
ATOM      4  C   UNL     1     -17.504  -2.868  30.487  1.00  0.00     0.000 C 
BRANCH   4   5
ATOM      5  C   UNL     1     -17.823  -2.194  31.831  1.00  0.00     0.000 C 
BRANCH   5   6
ATOM      6  C   UNL     1     -16.883  -1.016  32.150  1.00  0.00     0.000 C 
BRANCH   6   7
ATOM      7  C   UNL     1     -15.866  -0.676  31.046  1.00  0.00     0.006 C 
BRANCH   7   8
ATOM      8  C   UNL     1     -14.449  -0.445  31.589  1.00  0.00     0.053 C 
BRANCH   8   9
ATOM      9  C   UNL     1     -13.603   0.246  30.566  1.00  0.00     0.041 C 
ATOM     10  O   UNL     1     -12.465  -0.208  30.274  1.00  0.00    -0.550 OA
ATOM     11  O   UNL     1     -14.046   1.423  29.976  1.00  0.00    -0.550 OA
ENDBRANCH   8   9
ENDBRANCH   7   8
ENDBRANCH   6   7
ENDBRANCH   5   6
ENDBRANCH   4   5
ENDBRANCH   3   4
ENDBRANCH   2   3
ENDBRANCH   1   2
BRANCH   1  12
ATOM     12  C   UNL     1     -20.845  -0.568  29.846  1.00  0.00     0.000 C 
BRANCH  12  13
ATOM     13  C   UNL     1     -19.481   0.108  29.621  1.00  0.00    -0.000 C 
BRANCH  13  14
ATOM     14  C   UNL     1     -18.905  -0.158  28.216  1.00  0.00    -0.000 C 
BRANCH  14  15
ATOM     15  C   UNL     1     -18.765   1.086  27.317  1.00  0.00    -0.000 C 
BRANCH  15  16
ATOM     16  C   UNL     1     -20.018   1.364  26.475  1.00  0.00    -0.000 C 
BRANCH  16  17
ATOM     17  C   UNL     1     -20.815   0.073  26.231  1.00  0.00    -0.000 C 
BRANCH  17  18
ATOM     18  C   UNL     1     -22.178   0.348  25.561  1.00  0.00    -0.000 C 
BRANCH  18  19
ATOM     19  C   UNL     1     -23.382  -0.132  26.391  1.00  0.00    -0.003 C 
ATOM     20  C   UNL     1     -23.431   0.484  27.787  1.00  0.00     0.004 C 
ENDBRANCH  18  19
ENDBRANCH  17  18
ENDBRANCH  16  17
ENDBRANCH  15  16
ENDBRANCH  14  15
ENDBRANCH  13  14
ENDBRANCH  12  13
ENDBRANCH   1  12
TORSDOF 16
ENDMDL
MODEL 2
REMARK VINA RESULT:    -4.726      1.096      2.122
REMARK INTER + INTRA:         -11.290
REMARK INTER:                  -9.361
REMARK INTRA:                  -1.929
REMARK UNBOUND:                -2.144
REMARK SMILES CCCCCCCCCCCCCCCCCC(=O)[O-]
REMARK SMILES IDX 10 1 11 2 12 3 13 4 14 5 15 6 16 7 17 8 18 9 19 10 20 11
REMARK SMILES IDX 9 12 8 13 7 14 6 15 5 16 4 17 3 18 2 19 1 20
REMARK H PARENT
REMARK Flexibility Score: inf
ROOT
ATOM      1  C   UNL     1     -19.447   0.280  29.334  1.00  0.00     0.000 C 
ENDROOT
BRANCH   1   2
ATOM      2  C   UNL     1     -19.678  -1.179  29.767  1.00  0.00     0.000 C 
BRANCH   2   3
ATOM      3  C   UNL     1     -18.545  -2.122  29.331  1.00  0.00     0.000 C 
BRANCH   3   4
ATOM      4  C   UNL     1     -17.903  -2.806  30.544  1.00  0.00     0.000 C 
BRANCH   4   5
ATOM      5  C   UNL     1     -17.870  -1.861  31.755  1.00  0.00     0.000 C 
BRANCH   5   6
ATOM      6  C   UNL     1     -16.442  -1.447  32.156  1.00  0.00     0.000 C 
BRANCH   6   7
ATOM      7  C   UNL     1     -15.649  -0.703  31.066  1.00  0.00     0.006 C 
BRANCH   7   8
ATOM      8  C   UNL     1     -14.325  -0.121  31.581  1.00  0.00     0.053 C 
BRANCH   8   9
ATOM      9  C   UNL     1     -13.533   0.459  30.451  1.00  0.00     0.041 C 
ATOM     10  O   UNL     1     -12.442  -0.067  30.107  1.00  0.00    -0.550 OA
ATOM     11  O   UNL     1     -13.972   1.613  29.815  1.00  0.00    -0.550 OA
ENDBRANCH   8   9
ENDBRANCH   7   8
ENDBRANCH   6   7
ENDBRANCH   5   6
ENDBRANCH   4   5
ENDBRANCH   3   4
ENDBRANCH   2   3
ENDBRANCH   1   2
BRANCH   1  12
ATOM     12  C   UNL     1     -18.407   0.479  28.215  1.00  0.00     0.000 C 
BRANCH  12  13
ATOM     13  C   UNL     1     -18.993   1.152  26.962  1.00  0.00    -0.000 C 
BRANCH  13  14
ATOM     14  C   UNL     1     -20.533   1.103  26.920  1.00  0.00    -0.000 C 
BRANCH  14  15
ATOM     15  C   UNL     1     -21.132   0.097  25.918  1.00  0.00    -0.000 C 
BRANCH  15  16
ATOM     16  C   UNL     1     -22.667   0.090  25.917  1.00  0.00    -0.000 C 
BRANCH  16  17
ATOM     17  C   UNL     1     -23.218   0.014  27.349  1.00  0.00    -0.000 C 
BRANCH  17  18
ATOM     18  C   UNL     1     -23.189  -1.424  27.910  1.00  0.00    -0.000 C 
BRANCH  18  19
ATOM     19  C   UNL     1     -23.530  -1.510  29.408  1.00  0.00    -0.003 C 
ATOM     20  C   UNL     1     -23.256  -0.210  30.160  1.00  0.00     0.004 C 
ENDBRANCH  18  19
ENDBRANCH  17  18
ENDBRANCH  16  17
ENDBRANCH  15  16
ENDBRANCH  14  15
ENDBRANCH  13  14
ENDBRANCH  12  13
ENDBRANCH   1  12
TORSDOF 16
ENDMDL
MODEL 3
REMARK VINA RESULT:    -4.635      3.433      6.750
REMARK INTER + INTRA:         -11.114
REMARK INTER:                  -8.667
REMARK INTRA:                  -2.447
REMARK UNBOUND:                -2.144
REMARK SMILES CCCCCCCCCCCCCCCCCC(=O)[O-]
REMARK SMILES IDX 10 1 11 2 12 3 13 4 14 5 15 6 16 7 17 8 18 9 19 10 20 11
REMARK SMILES IDX 9 12 8 13 7 14 6 15 5 16 4 17 3 18 2 19 1 20
REMARK H PARENT
REMARK Flexibility Score: inf
ROOT
ATOM      1  C   UNL     1     -20.813  -0.095  26.078  1.00  0.00     0.000 C 
ENDROOT
BRANCH   1   2
ATOM      2  C   UNL     1     -22.290   0.158  25.727  1.00  0.00     0.000 C 
BRANCH   2   3
ATOM      3  C   UNL     1     -23.262  -0.419  26.768  1.00  0.00     0.000 C 
BRANCH   3   4
ATOM      4  C   UNL     1     -23.329   0.477  28.012  1.00  0.00     0.000 C 
BRANCH   4   5
ATOM      5  C   UNL     1     -23.169  -0.351  29.296  1.00  0.00     0.000 C 
BRANCH   5   6
ATOM      6  C   UNL     1     -22.770  -1.813  29.022  1.00  0.00     0.000 C 
BRANCH   6   7
ATOM      7  C   UNL     1     -22.558  -2.677  30.279  1.00  0.00     0.006 C 
BRANCH   7   8
ATOM      8  C   UNL     1     -21.349  -3.616  30.163  1.00  0.00     0.053 C 
BRANCH   8   9
ATOM      9  C   UNL     1     -21.483  -4.764  31.113  1.00  0.00     0.041 C 
ATOM     10  O   UNL     1     -22.008  -5.844  30.732  1.00  0.00    -0.550 OA
ATOM     11  O   UNL     1     -21.082  -4.622  32.436  1.00  0.00    -0.550 OA
ENDBRANCH   8   9
ENDBRANCH   7   8
ENDBRANCH   6   7
ENDBRANCH   5   6
ENDBRANCH   4   5
ENDBRANCH   3   4
ENDBRANCH   2   3
ENDBRANCH   1   2
BRANCH   1  12
ATOM     12  C   UNL     1     -19.984   1.167  26.384  1.00  0.00     0.000 C 
BRANCH  12  13
ATOM     13  C   UNL     1     -19.021   0.981  27.569  1.00  0.00    -0.000 C 
BRANCH  13  14
ATOM     14  C   UNL     1     -19.737   1.003  28.934  1.00  0.00    -0.000 C 
BRANCH  14  15
ATOM     15  C   UNL     1     -19.498  -0.232  29.822  1.00  0.00    -0.000 C 
BRANCH  15  16
ATOM     16  C   UNL     1     -18.837  -1.396  29.069  1.00  0.00    -0.000 C 
BRANCH  16  17
ATOM     17  C   UNL     1     -17.753  -2.064  29.929  1.00  0.00    -0.000 C 
BRANCH  17  18
ATOM     18  C   UNL     1     -16.955  -1.037  30.761  1.00  0.00    -0.000 C 
BRANCH  18  19
ATOM     19  C   UNL     1     -17.089  -1.236  32.281  1.00  0.00    -0.003 C 
ATOM     20  C   UNL     1     -17.802  -2.533  32.655  1.00  0.00     0.004 C 
ENDBRANCH  18  19
ENDBRANCH  17  18
ENDBRANCH  16  17
ENDBRANCH  15  16
ENDBRANCH  14  15
ENDBRANCH  13  14
ENDBRANCH  12  13
ENDBRANCH   1  12
TORSDOF 16
ENDMDL
MODEL 4
REMARK VINA RESULT:    -4.571      3.205      6.976
REMARK INTER + INTRA:         -10.991
REMARK INTER:                  -8.799
REMARK INTRA:                  -2.192
REMARK UNBOUND:                -2.144
REMARK SMILES CCCCCCCCCCCCCCCCCC(=O)[O-]
REMARK SMILES IDX 10 1 11 2 12 3 13 4 14 5 15 6 16 7 17 8 18 9 19 10 20 11
REMARK SMILES IDX 9 12 8 13 7 14 6 15 5 16 4 17 3 18 2 19 1 20
REMARK H PARENT
REMARK Flexibility Score: inf
ROOT
ATOM      1  C   UNL     1     -20.443   0.707  26.006  1.00  0.00     0.000 C 
ENDROOT
BRANCH   1   2
ATOM      2  C   UNL     1     -21.607  -0.246  25.683  1.00  0.00     0.000 C 
BRANCH   2   3
ATOM      3  C   UNL     1     -22.977   0.451  25.696  1.00  0.00     0.000 C 
BRANCH   3   4
ATOM      4  C   UNL     1     -23.958  -0.285  26.617  1.00  0.00     0.000 C 
BRANCH   4   5
ATOM      5  C   UNL     1     -24.125   0.459  27.951  1.00  0.00     0.000 C 
BRANCH   5   6
ATOM      6  C   UNL     1     -23.215  -0.093  29.064  1.00  0.00     0.000 C 
BRANCH   6   7
ATOM      7  C   UNL     1     -22.877  -1.590  28.946  1.00  0.00     0.006 C 
BRANCH   7   8
ATOM      8  C   UNL     1     -21.645  -1.992  29.770  1.00  0.00     0.053 C 
BRANCH   8   9
ATOM      9  C   UNL     1     -21.647  -3.465  30.031  1.00  0.00     0.041 C 
ATOM     10  O   UNL     1     -22.395  -4.227  29.362  1.00  0.00    -0.550 OA
ATOM     11  O   UNL     1     -20.867  -3.992  31.053  1.00  0.00    -0.550 OA
ENDBRANCH   8   9
ENDBRANCH   7   8
ENDBRANCH   6   7
ENDBRANCH   5   6
ENDBRANCH   4   5
ENDBRANCH   3   4
ENDBRANCH   2   3
ENDBRANCH   1   2
BRANCH   1  12
ATOM     12  C   UNL     1     -20.641   1.591  27.252  1.00  0.00     0.000 C 
BRANCH  12  13
ATOM     13  C   UNL     1     -19.751   1.171  28.434  1.00  0.00    -0.000 C 
BRANCH  13  14
ATOM     14  C   UNL     1     -18.906  -0.082  28.134  1.00  0.00    -0.000 C 
BRANCH  14  15
ATOM     15  C   UNL     1     -18.204  -0.710  29.353  1.00  0.00    -0.000 C 
BRANCH  15  16
ATOM     16  C   UNL     1     -17.996  -2.225  29.214  1.00  0.00    -0.000 C 
BRANCH  16  17
ATOM     17  C   UNL     1     -17.585  -2.850  30.556  1.00  0.00    -0.000 C 
BRANCH  17  18
ATOM     18  C   UNL     1     -16.669  -1.917  31.377  1.00  0.00    -0.000 C 
BRANCH  18  19
ATOM     19  C   UNL     1     -17.222  -1.582  32.773  1.00  0.00    -0.003 C 
ATOM     20  C   UNL     1     -17.762  -2.803  33.513  1.00  0.00     0.004 C 
ENDBRANCH  18  19
ENDBRANCH  17  18
ENDBRANCH  16  17
ENDBRANCH  15  16
ENDBRANCH  14  15
ENDBRANCH  13  14
ENDBRANCH  12  13
ENDBRANCH   1  12
TORSDOF 16
ENDMDL
MODEL 5
REMARK VINA RESULT:    -4.537      3.538      7.066
REMARK INTER + INTRA:         -10.925
REMARK INTER:                  -8.387
REMARK INTRA:                  -2.538
REMARK UNBOUND:                -2.144
REMARK SMILES CCCCCCCCCCCCCCCCCC(=O)[O-]
REMARK SMILES IDX 10 1 11 2 12 3 13 4 14 5 15 6 16 7 17 8 18 9 19 10 20 11
REMARK SMILES IDX 9 12 8 13 7 14 6 15 5 16 4 17 3 18 2 19 1 20
REMARK H PARENT
REMARK Flexibility Score: inf
ROOT
ATOM      1  C   UNL     1     -20.161   1.391  27.095  1.00  0.00     0.000 C 
ENDROOT
BRANCH   1   2
ATOM      2  C   UNL     1     -20.885   0.440  26.124  1.00  0.00     0.000 C 
BRANCH   2   3
ATOM      3  C   UNL     1     -22.116  -0.234  26.749  1.00  0.00     0.000 C 
BRANCH   3   4
ATOM      4  C   UNL     1     -22.541   0.484  28.036  1.00  0.00     0.000 C 
BRANCH   4   5
ATOM      5  C   UNL     1     -23.373  -0.444  28.935  1.00  0.00     0.000 C 
BRANCH   5   6
ATOM      6  C   UNL     1     -23.124  -1.937  28.652  1.00  0.00     0.000 C 
BRANCH   6   7
ATOM      7  C   UNL     1     -23.051  -2.834  29.902  1.00  0.00     0.006 C 
BRANCH   7   8
ATOM      8  C   UNL     1     -22.279  -4.138  29.659  1.00  0.00     0.053 C 
BRANCH   8   9
ATOM      9  C   UNL     1     -22.018  -4.841  30.954  1.00  0.00     0.041 C 
ATOM     10  O   UNL     1     -22.792  -5.753  31.347  1.00  0.00    -0.550 OA
ATOM     11  O   UNL     1     -20.952  -4.450  31.754  1.00  0.00    -0.550 OA
ENDBRANCH   8   9
ENDBRANCH   7   8
ENDBRANCH   6   7
ENDBRANCH   5   6
ENDBRANCH   4   5
ENDBRANCH   3   4
ENDBRANCH   2   3
ENDBRANCH   1   2
BRANCH   1  12
ATOM     12  C   UNL     1     -18.680   1.058  27.361  1.00  0.00     0.000 C 
BRANCH  12  13
ATOM     13  C   UNL     1     -18.491  -0.240  28.166  1.00  0.00    -0.000 C 
BRANCH  13  14
ATOM     14  C   UNL     1     -19.195  -0.203  29.537  1.00  0.00    -0.000 C 
BRANCH  14  15
ATOM     15  C   UNL     1     -19.628  -1.574  30.090  1.00  0.00    -0.000 C 
BRANCH  15  16
ATOM     16  C   UNL     1     -18.739  -2.728  29.603  1.00  0.00    -0.000 C 
BRANCH  16  17
ATOM     17  C   UNL     1     -17.602  -3.004  30.598  1.00  0.00    -0.000 C 
BRANCH  17  18
ATOM     18  C   UNL     1     -17.928  -2.485  32.015  1.00  0.00    -0.000 C 
BRANCH  18  19
ATOM     19  C   UNL     1     -16.871  -1.518  32.577  1.00  0.00    -0.003 C 
ATOM     20  C   UNL     1     -15.973  -0.919  31.498  1.00  0.00     0.004 C 
ENDBRANCH  18  19
ENDBRANCH  17  18
ENDBRANCH  16  17
ENDBRANCH  15  16
ENDBRANCH  14  15
ENDBRANCH  13  14
ENDBRANCH  12  13
ENDBRANCH   1  12
TORSDOF 16
ENDMDL
MODEL 6
REMARK VINA RESULT:    -4.533      1.853      4.855
REMARK INTER + INTRA:         -10.918
REMARK INTER:                  -8.658
REMARK INTRA:                  -2.260
REMARK UNBOUND:                -2.144
REMARK SMILES CCCCCCCCCCCCCCCCCC(=O)[O-]
REMARK SMILES IDX 10 1 11 2 12 3 13 4 14 5 15 6 16 7 17 8 18 9 19 10 20 11
REMARK SMILES IDX 9 12 8 13 7 14 6 15 5 16 4 17 3 18 2 19 1 20
REMARK H PARENT
REMARK Flexibility Score: inf
ROOT
ATOM      1  C   UNL     1     -21.367   0.806  26.206  1.00  0.00     0.000 C 
ENDROOT
BRANCH   1   2
ATOM      2  C   UNL     1     -19.995   0.116  26.098  1.00  0.00     0.000 C 
BRANCH   2   3
ATOM      3  C   UNL     1     -18.994   0.597  27.160  1.00  0.00     0.000 C 
BRANCH   3   4
ATOM      4  C   UNL     1     -19.722   1.088  28.418  1.00  0.00     0.000 C 
BRANCH   4   5
ATOM      5  C   UNL     1     -19.537   0.101  29.581  1.00  0.00     0.000 C 
BRANCH   5   6
ATOM      6  C   UNL     1     -18.350  -0.858  29.372  1.00  0.00     0.000 C 
BRANCH   6   7
ATOM      7  C   UNL     1     -18.383  -2.133  30.234  1.00  0.00     0.006 C 
BRANCH   7   8
ATOM      8  C   UNL     1     -17.022  -2.468  30.860  1.00  0.00     0.053 C 
BRANCH   8   9
ATOM      9  C   UNL     1     -16.533  -1.324  31.693  1.00  0.00     0.041 C 
ATOM     10  O   UNL     1     -17.162  -0.979  32.728  1.00  0.00    -0.550 OA
ATOM     11  O   UNL     1     -15.415  -0.602  31.294  1.00  0.00    -0.550 OA
ENDBRANCH   8   9
ENDBRANCH   7   8
ENDBRANCH   6   7
ENDBRANCH   5   6
ENDBRANCH   4   5
ENDBRANCH   3   4
ENDBRANCH   2   3
ENDBRANCH   1   2
BRANCH   1  12
ATOM     12  C   UNL     1     -22.554   0.005  25.640  1.00  0.00     0.000 C 
BRANCH  12  13
ATOM     13  C   UNL     1     -23.675  -0.218  26.669  1.00  0.00    -0.000 C 
BRANCH  13  14
ATOM     14  C   UNL     1     -23.414   0.502  28.007  1.00  0.00    -0.000 C 
BRANCH  14  15
ATOM     15  C   UNL     1     -23.252  -0.421  29.230  1.00  0.00    -0.000 C 
BRANCH  15  16
ATOM     16  C   UNL     1     -22.637  -1.783  28.878  1.00  0.00    -0.000 C 
BRANCH  16  17
ATOM     17  C   UNL     1     -22.109  -2.490  30.136  1.00  0.00    -0.000 C 
BRANCH  17  18
ATOM     18  C   UNL     1     -21.751  -3.967  29.868  1.00  0.00    -0.000 C 
BRANCH  18  19
ATOM     19  C   UNL     1     -20.942  -4.622  31.001  1.00  0.00    -0.003 C 
ATOM     20  C   UNL     1     -21.764  -5.598  31.839  1.00  0.00     0.004 C 
ENDBRANCH  18  19
ENDBRANCH  17  18
ENDBRANCH  16  17
ENDBRANCH  15  16
ENDBRANCH  14  15
ENDBRANCH  13  14
ENDBRANCH  12  13
ENDBRANCH   1  12
TORSDOF 16
ENDMDL
MODEL 7
REMARK VINA RESULT:    -4.506     13.429     16.649
REMARK INTER + INTRA:         -10.864
REMARK INTER:                  -9.199
REMARK INTRA:                  -1.665
REMARK UNBOUND:                -2.144
REMARK SMILES CCCCCCCCCCCCCCCCCC(=O)[O-]
REMARK SMILES IDX 10 1 11 2 12 3 13 4 14 5 15 6 16 7 17 8 18 9 19 10 20 11
REMARK SMILES IDX 9 12 8 13 7 14 6 15 5 16 4 17 3 18 2 19 1 20
REMARK H PARENT
REMARK Flexibility Score: inf
ROOT
ATOM      1  C   UNL     1      -7.836   7.353  26.769  1.00  0.00     0.000 C 
ENDROOT
BRANCH   1   2
ATOM      2  C   UNL     1      -6.468   7.103  26.109  1.00  0.00     0.000 C 
BRANCH   2   3
ATOM      3  C   UNL     1      -5.320   7.854  26.801  1.00  0.00     0.000 C 
BRANCH   3   4
ATOM      4  C   UNL     1      -4.392   8.509  25.770  1.00  0.00     0.000 C 
BRANCH   4   5
ATOM      5  C   UNL     1      -4.323   7.673  24.482  1.00  0.00     0.000 C 
BRANCH   5   6
ATOM      6  C   UNL     1      -4.300   8.535  23.207  1.00  0.00     0.000 C 
BRANCH   6   7
ATOM      7  C   UNL     1      -4.820   9.974  23.383  1.00  0.00     0.006 C 
BRANCH   7   8
ATOM      8  C   UNL     1      -6.174  10.209  22.698  1.00  0.00     0.053 C 
BRANCH   8   9
ATOM      9  C   UNL     1      -7.285   9.648  23.528  1.00  0.00     0.041 C 
ATOM     10  O   UNL     1      -8.018   8.731  23.070  1.00  0.00    -0.550 OA
ATOM     11  O   UNL     1      -7.549  10.176  24.786  1.00  0.00    -0.550 OA
ENDBRANCH   8   9
ENDBRANCH   7   8
ENDBRANCH   6   7
ENDBRANCH   5   6
ENDBRANCH   4   5
ENDBRANCH   3   4
ENDBRANCH   2   3
ENDBRANCH   1   2
BRANCH   1  12
ATOM     12  C   UNL     1      -8.187   6.407  27.934  1.00  0.00     0.000 C 
BRANCH  12  13
ATOM     13  C   UNL     1      -8.314   7.135  29.283  1.00  0.00    -0.000 C 
BRANCH  13  14
ATOM     14  C   UNL     1      -6.982   7.205  30.055  1.00  0.00    -0.000 C 
BRANCH  14  15
ATOM     15  C   UNL     1      -6.073   5.970  29.910  1.00  0.00    -0.000 C 
BRANCH  15  16
ATOM     16  C   UNL     1      -4.744   6.110  30.667  1.00  0.00    -0.000 C 
BRANCH  16  17
ATOM     17  C   UNL     1      -4.688   5.147  31.863  1.00  0.00    -0.000 C 
BRANCH  17  18
ATOM     18  C   UNL     1      -4.584   5.896  33.209  1.00  0.00    -0.000 C 
BRANCH  18  19
ATOM     19  C   UNL     1      -4.097   5.012  34.371  1.00  0.00    -0.003 C 
ATOM     20  C   UNL     1      -4.556   3.561  34.254  1.00  0.00     0.004 C 
ENDBRANCH  18  19
ENDBRANCH  17  18
ENDBRANCH  16  17
ENDBRANCH  15  16
ENDBRANCH  14  15
ENDBRANCH  13  14
ENDBRANCH  12  13
ENDBRANCH   1  12
TORSDOF 16
ENDMDL
MODEL 8
REMARK VINA RESULT:    -4.480      2.491      4.609
REMARK INTER + INTRA:         -10.815
REMARK INTER:                  -8.812
REMARK INTRA:                  -2.004
REMARK UNBOUND:                -2.144
REMARK SMILES CCCCCCCCCCCCCCCCCC(=O)[O-]
REMARK SMILES IDX 10 1 11 2 12 3 13 4 14 5 15 6 16 7 17 8 18 9 19 10 20 11
REMARK SMILES IDX 9 12 8 13 7 14 6 15 5 16 4 17 3 18 2 19 1 20
REMARK H PARENT
REMARK Flexibility Score: inf
ROOT
ATOM      1  C   UNL     1     -19.412   0.837  27.063  1.00  0.00     0.000 C 
ENDROOT
BRANCH   1   2
ATOM      2  C   UNL     1     -20.097   1.068  28.422  1.00  0.00     0.000 C 
BRANCH   2   3
ATOM      3  C   UNL     1     -19.839  -0.066  29.426  1.00  0.00     0.000 C 
BRANCH   3   4
ATOM      4  C   UNL     1     -18.407  -0.599  29.296  1.00  0.00     0.000 C 
BRANCH   4   5
ATOM      5  C   UNL     1     -18.374  -2.129  29.440  1.00  0.00     0.000 C 
BRANCH   5   6
ATOM      6  C   UNL     1     -17.279  -2.617  30.406  1.00  0.00     0.000 C 
BRANCH   6   7
ATOM      7  C   UNL     1     -16.602  -1.512  31.236  1.00  0.00     0.006 C 
BRANCH   7   8
ATOM      8  C   UNL     1     -17.262  -1.302  32.606  1.00  0.00     0.053 C 
BRANCH   8   9
ATOM      9  C   UNL     1     -17.444  -2.612  33.306  1.00  0.00     0.041 C 
ATOM     10  O   UNL     1     -18.602  -3.059  33.524  1.00  0.00    -0.550 OA
ATOM     11  O   UNL     1     -16.338  -3.313  33.768  1.00  0.00    -0.550 OA
ENDBRANCH   8   9
ENDBRANCH   7   8
ENDBRANCH   6   7
ENDBRANCH   5   6
ENDBRANCH   4   5
ENDBRANCH   3   4
ENDBRANCH   2   3
ENDBRANCH   1   2
BRANCH   1  12
ATOM     12  C   UNL     1     -20.280   0.140  25.998  1.00  0.00     0.000 C 
BRANCH  12  13
ATOM     13  C   UNL     1     -21.745   0.608  26.016  1.00  0.00    -0.000 C 
BRANCH  13  14
ATOM     14  C   UNL     1     -22.708  -0.456  26.580  1.00  0.00    -0.000 C 
BRANCH  14  15
ATOM     15  C   UNL     1     -23.708   0.055  27.634  1.00  0.00    -0.000 C 
BRANCH  15  16
ATOM     16  C   UNL     1     -23.688  -0.767  28.931  1.00  0.00    -0.000 C 
BRANCH  16  17
ATOM     17  C   UNL     1     -22.935  -2.091  28.732  1.00  0.00    -0.000 C 
BRANCH  17  18
ATOM     18  C   UNL     1     -22.918  -2.950  30.015  1.00  0.00    -0.000 C 
BRANCH  18  19
ATOM     19  C   UNL     1     -21.507  -3.388  30.445  1.00  0.00    -0.003 C 
ATOM     20  C   UNL     1     -21.104  -4.749  29.883  1.00  0.00     0.004 C 
ENDBRANCH  18  19
ENDBRANCH  17  18
ENDBRANCH  16  17
ENDBRANCH  15  16
ENDBRANCH  14  15
ENDBRANCH  13  14
ENDBRANCH  12  13
ENDBRANCH   1  12
TORSDOF 16
ENDMDL
MODEL 9
REMARK VINA RESULT:    -4.476     14.015     15.947
REMARK INTER + INTRA:         -10.807
REMARK INTER:                  -9.113
REMARK INTRA:                  -1.693
REMARK UNBOUND:                -2.144
REMARK SMILES CCCCCCCCCCCCCCCCCC(=O)[O-]
REMARK SMILES IDX 10 1 11 2 12 3 13 4 14 5 15 6 16 7 17 8 18 9 19 10 20 11
REMARK SMILES IDX 9 12 8 13 7 14 6 15 5 16 4 17 3 18 2 19 1 20
REMARK H PARENT
REMARK Flexibility Score: inf
ROOT
ATOM      1  C   UNL     1      -7.836   7.360  26.600  1.00  0.00     0.000 C 
ENDROOT
BRANCH   1   2
ATOM      2  C   UNL     1      -6.362   7.765  26.784  1.00  0.00     0.000 C 
BRANCH   2   3
ATOM      3  C   UNL     1      -5.498   6.637  27.370  1.00  0.00     0.000 C 
BRANCH   3   4
ATOM      4  C   UNL     1      -4.297   7.208  28.134  1.00  0.00     0.000 C 
BRANCH   4   5
ATOM      5  C   UNL     1      -4.757   8.131  29.273  1.00  0.00     0.000 C 
BRANCH   5   6
ATOM      6  C   UNL     1      -5.755   7.453  30.230  1.00  0.00     0.000 C 
BRANCH   6   7
ATOM      7  C   UNL     1      -5.203   7.139  31.633  1.00  0.00     0.006 C 
BRANCH   7   8
ATOM      8  C   UNL     1      -4.062   6.112  31.611  1.00  0.00     0.053 C 
BRANCH   8   9
ATOM      9  C   UNL     1      -4.523   4.806  32.178  1.00  0.00     0.041 C 
ATOM     10  O   UNL     1      -4.956   3.901  31.415  1.00  0.00    -0.550 OA
ATOM     11  O   UNL     1      -4.528   4.608  33.553  1.00  0.00    -0.550 OA
ENDBRANCH   8   9
ENDBRANCH   7   8
ENDBRANCH   6   7
ENDBRANCH   5   6
ENDBRANCH   4   5
ENDBRANCH   3   4
ENDBRANCH   2   3
ENDBRANCH   1   2
BRANCH   1  12
ATOM     12  C   UNL     1      -8.698   8.358  25.803  1.00  0.00     0.000 C 
BRANCH  12  13
ATOM     13  C   UNL     1      -7.897   9.129  24.740  1.00  0.00    -0.000 C 
BRANCH  13  14
ATOM     14  C   UNL     1      -8.282   8.740  23.299  1.00  0.00    -0.000 C 
BRANCH  14  15
ATOM     15  C   UNL     1      -7.198   7.977  22.513  1.00  0.00    -0.000 C 
BRANCH  15  16
ATOM     16  C   UNL     1      -6.014   7.541  23.389  1.00  0.00    -0.000 C 
BRANCH  16  17
ATOM     17  C   UNL     1      -4.728   8.276  22.982  1.00  0.00    -0.000 C 
BRANCH  17  18
ATOM     18  C   UNL     1      -4.355   9.394  23.979  1.00  0.00    -0.000 C 
BRANCH  18  19
ATOM     19  C   UNL     1      -4.317  10.797  23.348  1.00  0.00    -0.003 C 
ATOM     20  C   UNL     1      -5.680  11.485  23.333  1.00  0.00     0.004 C 
ENDBRANCH  18  19
ENDBRANCH  17  18
ENDBRANCH  16  17
ENDBRANCH  15  16
ENDBRANCH  14  15
ENDBRANCH  13  14
ENDBRANCH  12  13
ENDBRANCH   1  12
TORSDOF 16
ENDMDL
