MODEL 1
REMARK VINA RESULT:    -3.048      0.000      0.000
REMARK INTER + INTRA:         -10.431
REMARK INTER:                  -6.612
REMARK INTRA:                  -3.819
REMARK UNBOUND:                -3.819
REMARK SMILES CCCCCCCCCCCCCCCCCCCCCC(=O)[O-]
REMARK SMILES IDX 12 1 11 2 10 3 9 4 8 5 7 6 6 7 5 8 4 9 3 10 2 11 1 12 13 13
REMARK SMILES IDX 14 14 15 15 16 16 17 17 18 18 19 19 20 20 21 21 22 22 23 23
REMARK SMILES IDX 24 24
REMARK H PARENT
REMARK Flexibility Score: inf
ROOT
ATOM      1  C   UNL     1       4.107   9.807   7.501  1.00  0.00     0.000 C 
ENDROOT
BRANCH   1   2
ATOM      2  C   UNL     1       5.276  10.056   8.469  1.00  0.00     0.000 C 
BRANCH   2   3
ATOM      3  C   UNL     1       6.626   9.841   7.765  1.00  0.00     0.000 C 
BRANCH   3   4
ATOM      4  C   UNL     1       7.782   9.671   8.767  1.00  0.00    -0.000 C 
BRANCH   4   5
ATOM      5  C   UNL     1       9.136  10.067   8.150  1.00  0.00    -0.000 C 
BRANCH   5   6
ATOM      6  C   UNL     1       9.021  10.451   6.659  1.00  0.00    -0.000 C 
BRANCH   6   7
ATOM      7  C   UNL     1      10.094   9.789   5.769  1.00  0.00    -0.000 C 
BRANCH   7   8
ATOM      8  C   UNL     1       9.798   8.320   5.417  1.00  0.00    -0.000 C 
BRANCH   8   9
ATOM      9  C   UNL     1       8.323   8.101   5.038  1.00  0.00    -0.000 C 
BRANCH   9  10
ATOM     10  C   UNL     1       7.766   6.774   5.580  1.00  0.00    -0.000 C 
BRANCH  10  11
ATOM     11  C   UNL     1       8.103   6.528   7.062  1.00  0.00    -0.003 C 
ATOM     12  C   UNL     1       6.928   5.950   7.853  1.00  0.00     0.004 C 
ENDBRANCH  10  11
ENDBRANCH   9  10
ENDBRANCH   8   9
ENDBRANCH   7   8
ENDBRANCH   6   7
ENDBRANCH   5   6
ENDBRANCH   4   5
ENDBRANCH   3   4
ENDBRANCH   2   3
ENDBRANCH   1   2
BRANCH   1  13
ATOM     13  C   UNL     1       3.026  10.904   7.592  1.00  0.00     0.000 C 
BRANCH  13  14
ATOM     14  C   UNL     1       3.461  12.137   8.408  1.00  0.00     0.000 C 
BRANCH  14  15
ATOM     15  C   UNL     1       3.747  13.359   7.516  1.00  0.00     0.000 C 
BRANCH  15  16
ATOM     16  C   UNL     1       5.028  14.112   7.918  1.00  0.00     0.000 C 
BRANCH  16  17
ATOM     17  C   UNL     1       6.336  13.485   7.406  1.00  0.00     0.000 C 
BRANCH  17  18
ATOM     18  C   UNL     1       7.401  13.345   8.501  1.00  0.00     0.000 C 
BRANCH  18  19
ATOM     19  C   UNL     1       6.751  13.072   9.864  1.00  0.00     0.000 C 
BRANCH  19  20
ATOM     20  C   UNL     1       7.724  13.369  11.013  1.00  0.00     0.006 C 
BRANCH  20  21
ATOM     21  C   UNL     1       8.064  12.086  11.785  1.00  0.00     0.053 C 
BRANCH  21  22
ATOM     22  C   UNL     1       9.522  11.736  11.721  1.00  0.00     0.041 C 
ATOM     23  O   UNL     1       9.863  10.533  11.575  1.00  0.00    -0.550 OA
ATOM     24  O   UNL     1      10.505  12.706  11.885  1.00  0.00    -0.550 OA
ENDBRANCH  21  22
ENDBRANCH  20  21
ENDBRANCH  19  20
ENDBRANCH  18  19
ENDBRANCH  17  18
ENDBRANCH  16  17
ENDBRANCH  15  16
ENDBRANCH  14  15
ENDBRANCH  13  14
ENDBRANCH   1  13
TORSDOF 20
ENDMDL
MODEL 2
REMARK VINA RESULT:    -3.015      4.987      8.008
REMARK INTER + INTRA:         -10.360
REMARK INTER:                  -7.706
REMARK INTRA:                  -2.654
REMARK UNBOUND:                -3.819
REMARK SMILES CCCCCCCCCCCCCCCCCCCCCC(=O)[O-]
REMARK SMILES IDX 12 1 11 2 10 3 9 4 8 5 7 6 6 7 5 8 4 9 3 10 2 11 1 12 13 13
REMARK SMILES IDX 14 14 15 15 16 16 17 17 18 18 19 19 20 20 21 21 22 22 23 23
REMARK SMILES IDX 24 24
REMARK H PARENT
REMARK Flexibility Score: inf
ROOT
ATOM      1  C   UNL     1      13.099   5.793  10.644  1.00  0.00     0.000 C 
ENDROOT
BRANCH   1   2
ATOM      2  C   UNL     1      14.113   6.856  11.099  1.00  0.00     0.000 C 
BRANCH   2   3
ATOM      3  C   UNL     1      15.343   6.871  10.177  1.00  0.00     0.000 C 
BRANCH   3   4
ATOM      4  C   UNL     1      16.040   5.500  10.116  1.00  0.00    -0.000 C 
BRANCH   4   5
ATOM      5  C   UNL     1      16.269   5.038   8.666  1.00  0.00    -0.000 C 
BRANCH   5   6
ATOM      6  C   UNL     1      15.838   6.098   7.628  1.00  0.00    -0.000 C 
BRANCH   6   7
ATOM      7  C   UNL     1      15.291   5.491   6.320  1.00  0.00    -0.000 C 
BRANCH   7   8
ATOM      8  C   UNL     1      14.811   6.536   5.297  1.00  0.00    -0.000 C 
BRANCH   8   9
ATOM      9  C   UNL     1      15.978   7.159   4.513  1.00  0.00    -0.000 C 
BRANCH   9  10
ATOM     10  C   UNL     1      15.957   8.697   4.547  1.00  0.00    -0.000 C 
BRANCH  10  11
ATOM     11  C   UNL     1      14.604   9.300   4.129  1.00  0.00    -0.003 C 
ATOM     12  C   UNL     1      14.468   9.463   2.614  1.00  0.00     0.004 C 
ENDBRANCH  10  11
ENDBRANCH   9  10
ENDBRANCH   8   9
ENDBRANCH   7   8
ENDBRANCH   6   7
ENDBRANCH   5   6
ENDBRANCH   4   5
ENDBRANCH   3   4
ENDBRANCH   2   3
ENDBRANCH   1   2
BRANCH   1  13
ATOM     13  C   UNL     1      12.285   6.245   9.414  1.00  0.00     0.000 C 
BRANCH  13  14
ATOM     14  C   UNL     1      12.218   5.190   8.293  1.00  0.00     0.000 C 
BRANCH  14  15
ATOM     15  C   UNL     1      11.465   5.702   7.051  1.00  0.00     0.000 C 
BRANCH  15  16
ATOM     16  C   UNL     1      11.205   7.219   7.087  1.00  0.00     0.000 C 
BRANCH  16  17
ATOM     17  C   UNL     1      11.378   7.938   5.738  1.00  0.00     0.000 C 
BRANCH  17  18
ATOM     18  C   UNL     1      10.073   8.558   5.220  1.00  0.00     0.000 C 
BRANCH  18  19
ATOM     19  C   UNL     1       9.860   9.958   5.814  1.00  0.00     0.000 C 
BRANCH  19  20
ATOM     20  C   UNL     1       8.625   9.992   6.725  1.00  0.00     0.006 C 
BRANCH  20  21
ATOM     21  C   UNL     1       9.036   9.957   8.203  1.00  0.00     0.053 C 
BRANCH  21  22
ATOM     22  C   UNL     1       9.016  11.313   8.846  1.00  0.00     0.041 C 
ATOM     23  O   UNL     1       8.514  12.285   8.222  1.00  0.00    -0.550 OA
ATOM     24  O   UNL     1       9.599  11.531  10.089  1.00  0.00    -0.550 OA
ENDBRANCH  21  22
ENDBRANCH  20  21
ENDBRANCH  19  20
ENDBRANCH  18  19
ENDBRANCH  17  18
ENDBRANCH  16  17
ENDBRANCH  15  16
ENDBRANCH  14  15
ENDBRANCH  13  14
ENDBRANCH   1  13
TORSDOF 20
ENDMDL
MODEL 3
REMARK VINA RESULT:    -3.008      1.316      2.382
REMARK INTER + INTRA:         -10.343
REMARK INTER:                  -6.581
REMARK INTRA:                  -3.763
REMARK UNBOUND:                -3.819
REMARK SMILES CCCCCCCCCCCCCCCCCCCCCC(=O)[O-]
REMARK SMILES IDX 12 1 11 2 10 3 9 4 8 5 7 6 6 7 5 8 4 9 3 10 2 11 1 12 13 13
REMARK SMILES IDX 14 14 15 15 16 16 17 17 18 18 19 19 20 20 21 21 22 22 23 23
REMARK SMILES IDX 24 24
REMARK H PARENT
REMARK Flexibility Score: inf
ROOT
ATOM      1  C   UNL     1       6.890  10.022   9.632  1.00  0.00     0.000 C 
ENDROOT
BRANCH   1   2
ATOM      2  C   UNL     1       8.259   9.654   9.037  1.00  0.00     0.000 C 
BRANCH   2   3
ATOM      3  C   UNL     1       9.118  10.909   8.818  1.00  0.00     0.000 C 
BRANCH   3   4
ATOM      4  C   UNL     1       9.172  11.325   7.337  1.00  0.00    -0.000 C 
BRANCH   4   5
ATOM      5  C   UNL     1       8.981  10.121   6.397  1.00  0.00    -0.000 C 
BRANCH   5   6
ATOM      6  C   UNL     1      10.308   9.639   5.769  1.00  0.00    -0.000 C 
BRANCH   6   7
ATOM      7  C   UNL     1      10.489   8.108   5.815  1.00  0.00    -0.000 C 
BRANCH   7   8
ATOM      8  C   UNL     1      10.747   7.549   7.226  1.00  0.00    -0.000 C 
BRANCH   8   9
ATOM      9  C   UNL     1      10.004   6.225   7.470  1.00  0.00    -0.000 C 
BRANCH   9  10
ATOM     10  C   UNL     1       8.543   6.439   7.901  1.00  0.00    -0.000 C 
BRANCH  10  11
ATOM     11  C   UNL     1       7.520   6.007   6.835  1.00  0.00    -0.003 C 
ATOM     12  C   UNL     1       6.892   7.191   6.097  1.00  0.00     0.004 C 
ENDBRANCH  10  11
ENDBRANCH   9  10
ENDBRANCH   8   9
ENDBRANCH   7   8
ENDBRANCH   6   7
ENDBRANCH   5   6
ENDBRANCH   4   5
ENDBRANCH   3   4
ENDBRANCH   2   3
ENDBRANCH   1   2
BRANCH   1  13
ATOM     13  C   UNL     1       5.717   9.502   8.775  1.00  0.00     0.000 C 
BRANCH  13  14
ATOM     14  C   UNL     1       5.409  10.382   7.548  1.00  0.00     0.000 C 
BRANCH  14  15
ATOM     15  C   UNL     1       4.192  11.299   7.775  1.00  0.00     0.000 C 
BRANCH  15  16
ATOM     16  C   UNL     1       4.581  12.773   7.989  1.00  0.00     0.000 C 
BRANCH  16  17
ATOM     17  C   UNL     1       5.995  13.146   7.512  1.00  0.00     0.000 C 
BRANCH  17  18
ATOM     18  C   UNL     1       6.837  13.818   8.605  1.00  0.00     0.000 C 
BRANCH  18  19
ATOM     19  C   UNL     1       5.982  14.780   9.440  1.00  0.00     0.000 C 
BRANCH  19  20
ATOM     20  C   UNL     1       6.128  14.493  10.941  1.00  0.00     0.006 C 
BRANCH  20  21
ATOM     21  C   UNL     1       7.004  13.255  11.177  1.00  0.00     0.053 C 
BRANCH  21  22
ATOM     22  C   UNL     1       8.228  13.553  11.992  1.00  0.00     0.041 C 
ATOM     23  O   UNL     1       8.153  14.376  12.942  1.00  0.00    -0.550 OA
ATOM     24  O   UNL     1       9.459  12.987  11.678  1.00  0.00    -0.550 OA
ENDBRANCH  21  22
ENDBRANCH  20  21
ENDBRANCH  19  20
ENDBRANCH  18  19
ENDBRANCH  17  18
ENDBRANCH  16  17
ENDBRANCH  15  16
ENDBRANCH  14  15
ENDBRANCH  13  14
ENDBRANCH   1  13
TORSDOF 20
ENDMDL
MODEL 4
REMARK VINA RESULT:    -2.992      1.550      3.032
REMARK INTER + INTRA:         -10.310
REMARK INTER:                  -6.826
REMARK INTRA:                  -3.484
REMARK UNBOUND:                -3.819
REMARK SMILES CCCCCCCCCCCCCCCCCCCCCC(=O)[O-]
REMARK SMILES IDX 12 1 11 2 10 3 9 4 8 5 7 6 6 7 5 8 4 9 3 10 2 11 1 12 13 13
REMARK SMILES IDX 14 14 15 15 16 16 17 17 18 18 19 19 20 20 21 21 22 22 23 23
REMARK SMILES IDX 24 24
REMARK H PARENT
REMARK Flexibility Score: inf
ROOT
ATOM      1  C   UNL     1       7.722  12.901   8.312  1.00  0.00     0.000 C 
ENDROOT
BRANCH   1   2
ATOM      2  C   UNL     1       8.525  11.805   7.591  1.00  0.00     0.000 C 
BRANCH   2   3
ATOM      3  C   UNL     1       9.141  10.822   8.601  1.00  0.00     0.000 C 
BRANCH   3   4
ATOM      4  C   UNL     1       8.384   9.482   8.642  1.00  0.00    -0.000 C 
BRANCH   4   5
ATOM      5  C   UNL     1       9.093   8.452   9.540  1.00  0.00    -0.000 C 
BRANCH   5   6
ATOM      6  C   UNL     1      10.164   7.638   8.781  1.00  0.00    -0.000 C 
BRANCH   6   7
ATOM      7  C   UNL     1       9.871   7.491   7.274  1.00  0.00    -0.000 C 
BRANCH   7   8
ATOM      8  C   UNL     1      11.039   7.913   6.364  1.00  0.00    -0.000 C 
BRANCH   8   9
ATOM      9  C   UNL     1      10.651   9.062   5.418  1.00  0.00    -0.000 C 
BRANCH   9  10
ATOM     10  C   UNL     1       9.145   9.084   5.104  1.00  0.00    -0.000 C 
BRANCH  10  11
ATOM     11  C   UNL     1       8.784   8.369   3.789  1.00  0.00    -0.003 C 
ATOM     12  C   UNL     1       8.050   7.045   4.013  1.00  0.00     0.004 C 
ENDBRANCH  10  11
ENDBRANCH   9  10
ENDBRANCH   8   9
ENDBRANCH   7   8
ENDBRANCH   6   7
ENDBRANCH   5   6
ENDBRANCH   4   5
ENDBRANCH   3   4
ENDBRANCH   2   3
ENDBRANCH   1   2
BRANCH   1  13
ATOM     13  C   UNL     1       6.472  13.332   7.516  1.00  0.00     0.000 C 
BRANCH  13  14
ATOM     14  C   UNL     1       5.145  12.878   8.153  1.00  0.00     0.000 C 
BRANCH  14  15
ATOM     15  C   UNL     1       4.686  11.502   7.634  1.00  0.00     0.000 C 
BRANCH  15  16
ATOM     16  C   UNL     1       5.015  10.353   8.604  1.00  0.00     0.000 C 
BRANCH  16  17
ATOM     17  C   UNL     1       4.556  10.578  10.055  1.00  0.00     0.000 C 
BRANCH  17  18
ATOM     18  C   UNL     1       5.637  10.222  11.086  1.00  0.00     0.000 C 
BRANCH  18  19
ATOM     19  C   UNL     1       6.621  11.384  11.269  1.00  0.00     0.000 C 
BRANCH  19  20
ATOM     20  C   UNL     1       7.436  11.223  12.560  1.00  0.00     0.006 C 
BRANCH  20  21
ATOM     21  C   UNL     1       8.930  11.064  12.245  1.00  0.00     0.053 C 
BRANCH  21  22
ATOM     22  C   UNL     1       9.621  12.376  12.013  1.00  0.00     0.041 C 
ATOM     23  O   UNL     1      10.803  12.384  11.580  1.00  0.00    -0.550 OA
ATOM     24  O   UNL     1       9.003  13.581  12.329  1.00  0.00    -0.550 OA
ENDBRANCH  21  22
ENDBRANCH  20  21
ENDBRANCH  19  20
ENDBRANCH  18  19
ENDBRANCH  17  18
ENDBRANCH  16  17
ENDBRANCH  15  16
ENDBRANCH  14  15
ENDBRANCH  13  14
ENDBRANCH   1  13
TORSDOF 20
ENDMDL
MODEL 5
REMARK VINA RESULT:    -2.961      1.484      2.734
REMARK INTER + INTRA:         -10.241
REMARK INTER:                  -6.697
REMARK INTRA:                  -3.545
REMARK UNBOUND:                -3.819
REMARK SMILES CCCCCCCCCCCCCCCCCCCCCC(=O)[O-]
REMARK SMILES IDX 12 1 11 2 10 3 9 4 8 5 7 6 6 7 5 8 4 9 3 10 2 11 1 12 13 13
REMARK SMILES IDX 14 14 15 15 16 16 17 17 18 18 19 19 20 20 21 21 22 22 23 23
REMARK SMILES IDX 24 24
REMARK H PARENT
REMARK Flexibility Score: inf
ROOT
ATOM      1  C   UNL     1       5.917   9.109   8.794  1.00  0.00     0.000 C 
ENDROOT
BRANCH   1   2
ATOM      2  C   UNL     1       6.368   8.691   7.385  1.00  0.00     0.000 C 
BRANCH   2   3
ATOM      3  C   UNL     1       6.336   7.162   7.228  1.00  0.00     0.000 C 
BRANCH   3   4
ATOM      4  C   UNL     1       6.186   6.732   5.758  1.00  0.00    -0.000 C 
BRANCH   4   5
ATOM      5  C   UNL     1       7.543   6.375   5.126  1.00  0.00    -0.000 C 
BRANCH   5   6
ATOM      6  C   UNL     1       7.918   7.308   3.953  1.00  0.00    -0.000 C 
BRANCH   6   7
ATOM      7  C   UNL     1       9.261   8.040   4.155  1.00  0.00    -0.000 C 
BRANCH   7   8
ATOM      8  C   UNL     1       9.169   9.282   5.059  1.00  0.00    -0.000 C 
BRANCH   8   9
ATOM      9  C   UNL     1      10.122   9.195   6.263  1.00  0.00    -0.000 C 
BRANCH   9  10
ATOM     10  C   UNL     1      10.891   7.865   6.311  1.00  0.00    -0.000 C 
BRANCH  10  11
ATOM     11  C   UNL     1      10.907   7.216   7.708  1.00  0.00    -0.003 C 
ATOM     12  C   UNL     1       9.771   7.709   8.606  1.00  0.00     0.004 C 
ENDBRANCH  10  11
ENDBRANCH   9  10
ENDBRANCH   8   9
ENDBRANCH   7   8
ENDBRANCH   6   7
ENDBRANCH   5   6
ENDBRANCH   4   5
ENDBRANCH   3   4
ENDBRANCH   2   3
ENDBRANCH   1   2
BRANCH   1  13
ATOM     13  C   UNL     1       4.805  10.178   8.763  1.00  0.00     0.000 C 
BRANCH  13  14
ATOM     14  C   UNL     1       4.868  11.101   7.531  1.00  0.00     0.000 C 
BRANCH  14  15
ATOM     15  C   UNL     1       4.770  12.591   7.909  1.00  0.00     0.000 C 
BRANCH  15  16
ATOM     16  C   UNL     1       6.008  13.403   7.484  1.00  0.00     0.000 C 
BRANCH  16  17
ATOM     17  C   UNL     1       7.239  13.229   8.390  1.00  0.00     0.000 C 
BRANCH  17  18
ATOM     18  C   UNL     1       8.348  12.394   7.737  1.00  0.00     0.000 C 
BRANCH  18  19
ATOM     19  C   UNL     1       8.826  11.284   8.683  1.00  0.00     0.000 C 
BRANCH  19  20
ATOM     20  C   UNL     1       8.361  11.544  10.123  1.00  0.00     0.006 C 
BRANCH  20  21
ATOM     21  C   UNL     1       9.537  11.432  11.104  1.00  0.00     0.053 C 
BRANCH  21  22
ATOM     22  C   UNL     1       9.245  10.521  12.261  1.00  0.00     0.041 C 
ATOM     23  O   UNL     1       8.631  10.973  13.263  1.00  0.00    -0.550 OA
ATOM     24  O   UNL     1       9.698   9.207  12.275  1.00  0.00    -0.550 OA
ENDBRANCH  21  22
ENDBRANCH  20  21
ENDBRANCH  19  20
ENDBRANCH  18  19
ENDBRANCH  17  18
ENDBRANCH  16  17
ENDBRANCH  15  16
ENDBRANCH  14  15
ENDBRANCH  13  14
ENDBRANCH   1  13
TORSDOF 20
ENDMDL
MODEL 6
REMARK VINA RESULT:    -2.868      1.547      3.092
REMARK INTER + INTRA:         -10.040
REMARK INTER:                  -6.354
REMARK INTRA:                  -3.686
REMARK UNBOUND:                -3.819
REMARK SMILES CCCCCCCCCCCCCCCCCCCCCC(=O)[O-]
REMARK SMILES IDX 12 1 11 2 10 3 9 4 8 5 7 6 6 7 5 8 4 9 3 10 2 11 1 12 13 13
REMARK SMILES IDX 14 14 15 15 16 16 17 17 18 18 19 19 20 20 21 21 22 22 23 23
REMARK SMILES IDX 24 24
REMARK H PARENT
REMARK Flexibility Score: inf
ROOT
ATOM      1  C   UNL     1       5.314   8.161   7.905  1.00  0.00     0.000 C 
ENDROOT
BRANCH   1   2
ATOM      2  C   UNL     1       6.203   7.791   6.705  1.00  0.00     0.000 C 
BRANCH   2   3
ATOM      3  C   UNL     1       7.049   6.545   7.012  1.00  0.00     0.000 C 
BRANCH   3   4
ATOM      4  C   UNL     1       7.309   6.377   8.520  1.00  0.00    -0.000 C 
BRANCH   4   5
ATOM      5  C   UNL     1       8.810   6.240   8.830  1.00  0.00    -0.000 C 
BRANCH   5   6
ATOM      6  C   UNL     1       9.521   7.607   8.944  1.00  0.00    -0.000 C 
BRANCH   6   7
ATOM      7  C   UNL     1       8.846   8.570   9.941  1.00  0.00    -0.000 C 
BRANCH   7   8
ATOM      8  C   UNL     1       8.216   9.812   9.284  1.00  0.00    -0.000 C 
BRANCH   8   9
ATOM      9  C   UNL     1       9.189  10.515   8.321  1.00  0.00    -0.000 C 
BRANCH   9  10
ATOM     10  C   UNL     1       8.692  10.500   6.866  1.00  0.00    -0.000 C 
BRANCH  10  11
ATOM     11  C   UNL     1       9.737   9.969   5.867  1.00  0.00    -0.003 C 
ATOM     12  C   UNL     1       9.177   8.892   4.936  1.00  0.00     0.004 C 
ENDBRANCH  10  11
ENDBRANCH   9  10
ENDBRANCH   8   9
ENDBRANCH   7   8
ENDBRANCH   6   7
ENDBRANCH   5   6
ENDBRANCH   4   5
ENDBRANCH   3   4
ENDBRANCH   2   3
ENDBRANCH   1   2
BRANCH   1  13
ATOM     13  C   UNL     1       4.351   9.324   7.586  1.00  0.00     0.000 C 
BRANCH  13  14
ATOM     14  C   UNL     1       5.036  10.704   7.555  1.00  0.00     0.000 C 
BRANCH  14  15
ATOM     15  C   UNL     1       4.101  11.833   8.028  1.00  0.00     0.000 C 
BRANCH  15  16
ATOM     16  C   UNL     1       4.795  13.206   8.083  1.00  0.00     0.000 C 
BRANCH  16  17
ATOM     17  C   UNL     1       6.242  13.222   7.560  1.00  0.00     0.000 C 
BRANCH  17  18
ATOM     18  C   UNL     1       7.266  13.587   8.644  1.00  0.00     0.000 C 
BRANCH  18  19
ATOM     19  C   UNL     1       6.770  13.156  10.031  1.00  0.00     0.000 C 
BRANCH  19  20
ATOM     20  C   UNL     1       7.924  13.104  11.042  1.00  0.00     0.006 C 
BRANCH  20  21
ATOM     21  C   UNL     1       7.653  12.051  12.125  1.00  0.00     0.053 C 
BRANCH  21  22
ATOM     22  C   UNL     1       7.951  12.548  13.510  1.00  0.00     0.041 C 
ATOM     23  O   UNL     1       8.617  13.607  13.656  1.00  0.00    -0.550 OA
ATOM     24  O   UNL     1       7.563  11.828  14.633  1.00  0.00    -0.550 OA
ENDBRANCH  21  22
ENDBRANCH  20  21
ENDBRANCH  19  20
ENDBRANCH  18  19
ENDBRANCH  17  18
ENDBRANCH  16  17
ENDBRANCH  15  16
ENDBRANCH  14  15
ENDBRANCH  13  14
ENDBRANCH   1  13
TORSDOF 20
ENDMDL
MODEL 7
REMARK VINA RESULT:    -2.865      5.010      7.674
REMARK INTER + INTRA:         -10.033
REMARK INTER:                  -7.196
REMARK INTRA:                  -2.837
REMARK UNBOUND:                -3.819
REMARK SMILES CCCCCCCCCCCCCCCCCCCCCC(=O)[O-]
REMARK SMILES IDX 12 1 11 2 10 3 9 4 8 5 7 6 6 7 5 8 4 9 3 10 2 11 1 12 13 13
REMARK SMILES IDX 14 14 15 15 16 16 17 17 18 18 19 19 20 20 21 21 22 22 23 23
REMARK SMILES IDX 24 24
REMARK H PARENT
REMARK Flexibility Score: inf
ROOT
ATOM      1  C   UNL     1      11.787   5.150   9.869  1.00  0.00     0.000 C 
ENDROOT
BRANCH   1   2
ATOM      2  C   UNL     1      12.007   5.310  11.382  1.00  0.00     0.000 C 
BRANCH   2   3
ATOM      3  C   UNL     1      11.285   6.558  11.914  1.00  0.00     0.000 C 
BRANCH   3   4
ATOM      4  C   UNL     1      12.203   7.433  12.785  1.00  0.00    -0.000 C 
BRANCH   4   5
ATOM      5  C   UNL     1      13.322   6.607  13.445  1.00  0.00    -0.000 C 
BRANCH   5   6
ATOM      6  C   UNL     1      14.732   7.157  13.132  1.00  0.00    -0.000 C 
BRANCH   6   7
ATOM      7  C   UNL     1      14.790   7.997  11.840  1.00  0.00    -0.000 C 
BRANCH   7   8
ATOM      8  C   UNL     1      15.127   7.184  10.577  1.00  0.00    -0.000 C 
BRANCH   8   9
ATOM      9  C   UNL     1      15.768   5.826  10.915  1.00  0.00    -0.000 C 
BRANCH   9  10
ATOM     10  C   UNL     1      16.296   5.097   9.669  1.00  0.00    -0.000 C 
BRANCH  10  11
ATOM     11  C   UNL     1      15.353   5.197   8.455  1.00  0.00    -0.003 C 
ATOM     12  C   UNL     1      16.001   5.886   7.253  1.00  0.00     0.004 C 
ENDBRANCH  10  11
ENDBRANCH   9  10
ENDBRANCH   8   9
ENDBRANCH   7   8
ENDBRANCH   6   7
ENDBRANCH   5   6
ENDBRANCH   4   5
ENDBRANCH   3   4
ENDBRANCH   2   3
ENDBRANCH   1   2
BRANCH   1  13
ATOM     13  C   UNL     1      11.555   6.502   9.163  1.00  0.00     0.000 C 
BRANCH  13  14
ATOM     14  C   UNL     1      12.023   6.524   7.695  1.00  0.00     0.000 C 
BRANCH  14  15
ATOM     15  C   UNL     1      10.987   5.902   6.740  1.00  0.00     0.000 C 
BRANCH  15  16
ATOM     16  C   UNL     1      10.218   6.954   5.920  1.00  0.00     0.000 C 
BRANCH  16  17
ATOM     17  C   UNL     1      11.066   8.139   5.429  1.00  0.00     0.000 C 
BRANCH  17  18
ATOM     18  C   UNL     1      10.364   9.492   5.611  1.00  0.00     0.000 C 
BRANCH  18  19
ATOM     19  C   UNL     1       9.094   9.339   6.459  1.00  0.00     0.000 C 
BRANCH  19  20
ATOM     20  C   UNL     1       9.332   9.803   7.903  1.00  0.00     0.006 C 
BRANCH  20  21
ATOM     21  C   UNL     1       8.775  11.217   8.120  1.00  0.00     0.053 C 
BRANCH  21  22
ATOM     22  C   UNL     1       8.501  11.521   9.564  1.00  0.00     0.041 C 
ATOM     23  O   UNL     1       9.465  11.763  10.338  1.00  0.00    -0.550 OA
ATOM     24  O   UNL     1       7.210  11.475  10.078  1.00  0.00    -0.550 OA
ENDBRANCH  21  22
ENDBRANCH  20  21
ENDBRANCH  19  20
ENDBRANCH  18  19
ENDBRANCH  17  18
ENDBRANCH  16  17
ENDBRANCH  15  16
ENDBRANCH  14  15
ENDBRANCH  13  14
ENDBRANCH   1  13
TORSDOF 20
ENDMDL
MODEL 8
REMARK VINA RESULT:    -2.859      2.953      6.514
REMARK INTER + INTRA:         -10.021
REMARK INTER:                  -6.502
REMARK INTRA:                  -3.518
REMARK UNBOUND:                -3.819
REMARK SMILES CCCCCCCCCCCCCCCCCCCCCC(=O)[O-]
REMARK SMILES IDX 12 1 11 2 10 3 9 4 8 5 7 6 6 7 5 8 4 9 3 10 2 11 1 12 13 13
REMARK SMILES IDX 14 14 15 15 16 16 17 17 18 18 19 19 20 20 21 21 22 22 23 23
REMARK SMILES IDX 24 24
REMARK H PARENT
REMARK Flexibility Score: inf
ROOT
ATOM      1  C   UNL     1       5.485   8.967   7.826  1.00  0.00     0.000 C 
ENDROOT
BRANCH   1   2
ATOM      2  C   UNL     1       5.257  10.482   7.688  1.00  0.00     0.000 C 
BRANCH   2   3
ATOM      3  C   UNL     1       3.757  10.817   7.734  1.00  0.00     0.000 C 
BRANCH   3   4
ATOM      4  C   UNL     1       3.501  12.274   8.158  1.00  0.00    -0.000 C 
BRANCH   4   5
ATOM      5  C   UNL     1       4.456  13.252   7.450  1.00  0.00    -0.000 C 
BRANCH   5   6
ATOM      6  C   UNL     1       5.191  14.186   8.437  1.00  0.00    -0.000 C 
BRANCH   6   7
ATOM      7  C   UNL     1       6.727  14.052   8.383  1.00  0.00    -0.000 C 
BRANCH   7   8
ATOM      8  C   UNL     1       7.309  13.089   9.433  1.00  0.00    -0.000 C 
BRANCH   8   9
ATOM      9  C   UNL     1       6.399  12.955  10.666  1.00  0.00    -0.000 C 
BRANCH   9  10
ATOM     10  C   UNL     1       6.173  11.491  11.077  1.00  0.00    -0.000 C 
BRANCH  10  11
ATOM     11  C   UNL     1       4.725  11.192  11.508  1.00  0.00    -0.003 C 
ATOM     12  C   UNL     1       3.932  12.455  11.848  1.00  0.00     0.004 C 
ENDBRANCH  10  11
ENDBRANCH   9  10
ENDBRANCH   8   9
ENDBRANCH   7   8
ENDBRANCH   6   7
ENDBRANCH   5   6
ENDBRANCH   4   5
ENDBRANCH   3   4
ENDBRANCH   2   3
ENDBRANCH   1   2
BRANCH   1  13
ATOM     13  C   UNL     1       6.584   8.631   8.856  1.00  0.00     0.000 C 
BRANCH  13  14
ATOM     14  C   UNL     1       7.873   8.069   8.225  1.00  0.00     0.000 C 
BRANCH  14  15
ATOM     15  C   UNL     1       9.137   8.777   8.747  1.00  0.00     0.000 C 
BRANCH  15  16
ATOM     16  C   UNL     1       9.133  10.292   8.478  1.00  0.00     0.000 C 
BRANCH  16  17
ATOM     17  C   UNL     1       8.777  10.694   7.036  1.00  0.00     0.000 C 
BRANCH  17  18
ATOM     18  C   UNL     1       9.830  10.246   6.014  1.00  0.00     0.000 C 
BRANCH  18  19
ATOM     19  C   UNL     1       9.249   9.199   5.053  1.00  0.00     0.000 C 
BRANCH  19  20
ATOM     20  C   UNL     1      10.112   7.930   5.027  1.00  0.00     0.006 C 
BRANCH  20  21
ATOM     21  C   UNL     1      11.577   8.260   5.344  1.00  0.00     0.053 C 
BRANCH  21  22
ATOM     22  C   UNL     1      12.403   8.489   4.111  1.00  0.00     0.041 C 
ATOM     23  O   UNL     1      12.166   7.814   3.075  1.00  0.00    -0.550 OA
ATOM     24  O   UNL     1      13.465   9.385   4.112  1.00  0.00    -0.550 OA
ENDBRANCH  21  22
ENDBRANCH  20  21
ENDBRANCH  19  20
ENDBRANCH  18  19
ENDBRANCH  17  18
ENDBRANCH  16  17
ENDBRANCH  15  16
ENDBRANCH  14  15
ENDBRANCH  13  14
ENDBRANCH   1  13
TORSDOF 20
ENDMDL
MODEL 9
REMARK VINA RESULT:    -2.828      2.801      6.337
REMARK INTER + INTRA:          -9.953
REMARK INTER:                  -6.281
REMARK INTRA:                  -3.672
REMARK UNBOUND:                -3.819
REMARK SMILES CCCCCCCCCCCCCCCCCCCCCC(=O)[O-]
REMARK SMILES IDX 12 1 11 2 10 3 9 4 8 5 7 6 6 7 5 8 4 9 3 10 2 11 1 12 13 13
REMARK SMILES IDX 14 14 15 15 16 16 17 17 18 18 19 19 20 20 21 21 22 22 23 23
REMARK SMILES IDX 24 24
REMARK H PARENT
REMARK Flexibility Score: inf
ROOT
ATOM      1  C   UNL     1       7.322   7.866  10.534  1.00  0.00     0.000 C 
ENDROOT
BRANCH   1   2
ATOM      2  C   UNL     1       6.029   8.179   9.762  1.00  0.00     0.000 C 
BRANCH   2   3
ATOM      3  C   UNL     1       5.905   7.290   8.514  1.00  0.00     0.000 C 
BRANCH   3   4
ATOM      4  C   UNL     1       5.283   8.042   7.325  1.00  0.00    -0.000 C 
BRANCH   4   5
ATOM      5  C   UNL     1       5.230   9.560   7.572  1.00  0.00    -0.000 C 
BRANCH   5   6
ATOM      6  C   UNL     1       3.792  10.122   7.520  1.00  0.00    -0.000 C 
BRANCH   6   7
ATOM      7  C   UNL     1       3.706  11.623   7.868  1.00  0.00    -0.000 C 
BRANCH   7   8
ATOM      8  C   UNL     1       5.009  12.210   8.439  1.00  0.00    -0.000 C 
BRANCH   8   9
ATOM      9  C   UNL     1       5.583  13.324   7.547  1.00  0.00    -0.000 C 
BRANCH   9  10
ATOM     10  C   UNL     1       6.531  14.263   8.312  1.00  0.00    -0.000 C 
BRANCH  10  11
ATOM     11  C   UNL     1       5.839  15.041   9.446  1.00  0.00    -0.003 C 
ATOM     12  C   UNL     1       6.321  14.622  10.836  1.00  0.00     0.004 C 
ENDBRANCH  10  11
ENDBRANCH   9  10
ENDBRANCH   8   9
ENDBRANCH   7   8
ENDBRANCH   6   7
ENDBRANCH   5   6
ENDBRANCH   4   5
ENDBRANCH   3   4
ENDBRANCH   2   3
ENDBRANCH   1   2
BRANCH   1  13
ATOM     13  C   UNL     1       8.058   9.143  10.989  1.00  0.00     0.000 C 
BRANCH  13  14
ATOM     14  C   UNL     1       7.346  10.447  10.580  1.00  0.00     0.000 C 
BRANCH  14  15
ATOM     15  C   UNL     1       8.328  11.511  10.052  1.00  0.00     0.000 C 
BRANCH  15  16
ATOM     16  C   UNL     1       9.212  10.995   8.902  1.00  0.00     0.000 C 
BRANCH  16  17
ATOM     17  C   UNL     1       8.585  11.109   7.502  1.00  0.00     0.000 C 
BRANCH  17  18
ATOM     18  C   UNL     1       8.848   9.876   6.627  1.00  0.00     0.000 C 
BRANCH  18  19
ATOM     19  C   UNL     1       9.279   8.679   7.486  1.00  0.00     0.000 C 
BRANCH  19  20
ATOM     20  C   UNL     1      10.672   8.178   7.079  1.00  0.00     0.006 C 
BRANCH  20  21
ATOM     21  C   UNL     1      10.647   7.587   5.663  1.00  0.00     0.053 C 
BRANCH  21  22
ATOM     22  C   UNL     1      11.891   7.893   4.881  1.00  0.00     0.041 C 
ATOM     23  O   UNL     1      12.576   6.945   4.415  1.00  0.00    -0.550 OA
ATOM     24  O   UNL     1      12.337   9.200   4.718  1.00  0.00    -0.550 OA
ENDBRANCH  21  22
ENDBRANCH  20  21
ENDBRANCH  19  20
ENDBRANCH  18  19
ENDBRANCH  17  18
ENDBRANCH  16  17
ENDBRANCH  15  16
ENDBRANCH  14  15
ENDBRANCH  13  14
ENDBRANCH   1  13
TORSDOF 20
ENDMDL
