MODEL 1
REMARK VINA RESULT:    -4.124      0.000      0.000
REMARK INTER + INTRA:          -9.406
REMARK INTER:                  -7.500
REMARK INTRA:                  -1.906
REMARK UNBOUND:                -1.906
REMARK SMILES CCCCCCCCCCCCCCCC(=O)[O-]
REMARK SMILES IDX 9 1 10 2 11 3 12 4 13 5 14 6 15 7 16 8 17 9 18 10 8 11 7 12
REMARK SMILES IDX 6 13 5 14 4 15 3 16 2 17 1 18
REMARK H PARENT
REMARK Flexibility Score: inf
ROOT
ATOM      1  C   UNL     1      41.534  14.278  24.254  1.00  0.00     0.000 C 
ENDROOT
BRANCH   1   2
ATOM      2  C   UNL     1      41.976  13.050  23.444  1.00  0.00     0.000 C 
BRANCH   2   3
ATOM      3  C   UNL     1      42.335  11.851  24.335  1.00  0.00     0.000 C 
BRANCH   3   4
ATOM      4  C   UNL     1      43.528  11.076  23.758  1.00  0.00     0.000 C 
BRANCH   4   5
ATOM      5  C   UNL     1      43.608  11.165  22.225  1.00  0.00     0.000 C 
BRANCH   5   6
ATOM      6  C   UNL     1      45.028  10.912  21.690  1.00  0.00     0.006 C 
BRANCH   6   7
ATOM      7  C   UNL     1      45.085   9.694  20.756  1.00  0.00     0.053 C 
BRANCH   7   8
ATOM      8  C   UNL     1      44.747   8.424  21.474  1.00  0.00     0.041 C 
ATOM      9  O   UNL     1      43.595   7.926  21.371  1.00  0.00    -0.550 OA
ATOM     10  O   UNL     1      45.713   7.773  22.231  1.00  0.00    -0.550 OA
ENDBRANCH   7   8
ENDBRANCH   6   7
ENDBRANCH   5   6
ENDBRANCH   4   5
ENDBRANCH   3   4
ENDBRANCH   2   3
ENDBRANCH   1   2
BRANCH   1  11
ATOM     11  C   UNL     1      41.632  15.585  23.447  1.00  0.00     0.000 C 
BRANCH  11  12
ATOM     12  C   UNL     1      41.741  15.341  21.933  1.00  0.00    -0.000 C 
BRANCH  12  13
ATOM     13  C   UNL     1      42.337  16.545  21.183  1.00  0.00    -0.000 C 
BRANCH  13  14
ATOM     14  C   UNL     1      43.715  16.239  20.575  1.00  0.00    -0.000 C 
BRANCH  14  15
ATOM     15  C   UNL     1      44.862  16.962  21.305  1.00  0.00    -0.000 C 
BRANCH  15  16
ATOM     16  C   UNL     1      45.109  16.385  22.715  1.00  0.00    -0.000 C 
BRANCH  16  17
ATOM     17  C   UNL     1      45.364  14.868  22.723  1.00  0.00    -0.003 C 
ATOM     18  C   UNL     1      45.477  14.288  24.131  1.00  0.00     0.004 C 
ENDBRANCH  16  17
ENDBRANCH  15  16
ENDBRANCH  14  15
ENDBRANCH  13  14
ENDBRANCH  12  13
ENDBRANCH  11  12
ENDBRANCH   1  11
TORSDOF 14
ENDMDL
MODEL 2
REMARK VINA RESULT:    -3.994      1.280      3.670
REMARK INTER + INTRA:          -9.169
REMARK INTER:                  -7.285
REMARK INTRA:                  -1.884
REMARK UNBOUND:                -1.906
REMARK SMILES CCCCCCCCCCCCCCCC(=O)[O-]
REMARK SMILES IDX 9 1 10 2 11 3 12 4 13 5 14 6 15 7 16 8 17 9 18 10 8 11 7 12
REMARK SMILES IDX 6 13 5 14 4 15 3 16 2 17 1 18
REMARK H PARENT
REMARK Flexibility Score: inf
ROOT
ATOM      1  C   UNL     1      44.343  16.012  19.985  1.00  0.00     0.000 C 
ENDROOT
BRANCH   1   2
ATOM      2  C   UNL     1      45.553  15.278  20.585  1.00  0.00     0.000 C 
BRANCH   2   3
ATOM      3  C   UNL     1      45.552  15.293  22.121  1.00  0.00     0.000 C 
BRANCH   3   4
ATOM      4  C   UNL     1      45.869  13.900  22.683  1.00  0.00     0.000 C 
BRANCH   4   5
ATOM      5  C   UNL     1      45.820  12.801  21.609  1.00  0.00     0.000 C 
BRANCH   5   6
ATOM      6  C   UNL     1      44.844  11.667  21.965  1.00  0.00     0.006 C 
BRANCH   6   7
ATOM      7  C   UNL     1      45.261  10.327  21.342  1.00  0.00     0.053 C 
BRANCH   7   8
ATOM      8  C   UNL     1      45.574   9.300  22.387  1.00  0.00     0.041 C 
ATOM      9  O   UNL     1      45.910   8.135  22.048  1.00  0.00    -0.550 OA
ATOM     10  O   UNL     1      45.526   9.638  23.733  1.00  0.00    -0.550 OA
ENDBRANCH   7   8
ENDBRANCH   6   7
ENDBRANCH   5   6
ENDBRANCH   4   5
ENDBRANCH   3   4
ENDBRANCH   2   3
ENDBRANCH   1   2
BRANCH   1  11
ATOM     11  C   UNL     1      43.533  16.780  21.045  1.00  0.00     0.000 C 
BRANCH  11  12
ATOM     12  C   UNL     1      42.094  16.258  21.186  1.00  0.00    -0.000 C 
BRANCH  12  13
ATOM     13  C   UNL     1      41.827  15.633  22.565  1.00  0.00    -0.000 C 
BRANCH  13  14
ATOM     14  C   UNL     1      42.090  14.118  22.590  1.00  0.00    -0.000 C 
BRANCH  14  15
ATOM     15  C   UNL     1      40.943  13.324  23.242  1.00  0.00    -0.000 C 
BRANCH  15  16
ATOM     16  C   UNL     1      41.283  12.892  24.684  1.00  0.00    -0.000 C 
BRANCH  16  17
ATOM     17  C   UNL     1      42.320  11.758  24.759  1.00  0.00    -0.003 C 
ATOM     18  C   UNL     1      43.618  12.179  25.442  1.00  0.00     0.004 C 
ENDBRANCH  16  17
ENDBRANCH  15  16
ENDBRANCH  14  15
ENDBRANCH  13  14
ENDBRANCH  12  13
ENDBRANCH  11  12
ENDBRANCH   1  11
TORSDOF 14
ENDMDL
MODEL 3
REMARK VINA RESULT:    -3.989      2.947      6.171
REMARK INTER + INTRA:          -9.160
REMARK INTER:                  -7.764
REMARK INTRA:                  -1.396
REMARK UNBOUND:                -1.906
REMARK SMILES CCCCCCCCCCCCCCCC(=O)[O-]
REMARK SMILES IDX 9 1 10 2 11 3 12 4 13 5 14 6 15 7 16 8 17 9 18 10 8 11 7 12
REMARK SMILES IDX 6 13 5 14 4 15 3 16 2 17 1 18
REMARK H PARENT
REMARK Flexibility Score: inf
ROOT
ATOM      1  C   UNL     1      42.201  11.965  24.671  1.00  0.00     0.000 C 
ENDROOT
BRANCH   1   2
ATOM      2  C   UNL     1      41.746  13.160  23.817  1.00  0.00     0.000 C 
BRANCH   2   3
ATOM      3  C   UNL     1      42.336  14.493  24.304  1.00  0.00     0.000 C 
BRANCH   3   4
ATOM      4  C   UNL     1      41.775  15.669  23.492  1.00  0.00     0.000 C 
BRANCH   4   5
ATOM      5  C   UNL     1      41.750  15.388  21.980  1.00  0.00     0.000 C 
BRANCH   5   6
ATOM      6  C   UNL     1      42.103  16.628  21.141  1.00  0.00     0.006 C 
BRANCH   6   7
ATOM      7  C   UNL     1      43.398  16.435  20.340  1.00  0.00     0.053 C 
BRANCH   7   8
ATOM      8  C   UNL     1      44.588  16.269  21.234  1.00  0.00     0.041 C 
ATOM      9  O   UNL     1      45.030  17.250  21.889  1.00  0.00    -0.550 OA
ATOM     10  O   UNL     1      45.191  15.025  21.369  1.00  0.00    -0.550 OA
ENDBRANCH   7   8
ENDBRANCH   6   7
ENDBRANCH   5   6
ENDBRANCH   4   5
ENDBRANCH   3   4
ENDBRANCH   2   3
ENDBRANCH   1   2
BRANCH   1  11
ATOM     11  C   UNL     1      43.331  11.160  24.005  1.00  0.00     0.000 C 
BRANCH  11  12
ATOM     12  C   UNL     1      43.461  11.451  22.501  1.00  0.00    -0.000 C 
BRANCH  12  13
ATOM     13  C   UNL     1      44.925  11.467  22.028  1.00  0.00    -0.000 C 
BRANCH  13  14
ATOM     14  C   UNL     1      45.251  10.306  21.074  1.00  0.00    -0.000 C 
BRANCH  14  15
ATOM     15  C   UNL     1      44.129   9.253  21.012  1.00  0.00    -0.000 C 
BRANCH  15  16
ATOM     16  C   UNL     1      44.550   7.916  21.658  1.00  0.00    -0.000 C 
BRANCH  16  17
ATOM     17  C   UNL     1      45.890   7.992  22.412  1.00  0.00    -0.003 C 
ATOM     18  C   UNL     1      45.720   8.040  23.928  1.00  0.00     0.004 C 
ENDBRANCH  16  17
ENDBRANCH  15  16
ENDBRANCH  14  15
ENDBRANCH  13  14
ENDBRANCH  12  13
ENDBRANCH  11  12
ENDBRANCH   1  11
TORSDOF 14
ENDMDL
MODEL 4
REMARK VINA RESULT:    -3.975      1.382      2.933
REMARK INTER + INTRA:          -9.134
REMARK INTER:                  -7.107
REMARK INTRA:                  -2.027
REMARK UNBOUND:                -1.906
REMARK SMILES CCCCCCCCCCCCCCCC(=O)[O-]
REMARK SMILES IDX 9 1 10 2 11 3 12 4 13 5 14 6 15 7 16 8 17 9 18 10 8 11 7 12
REMARK SMILES IDX 6 13 5 14 4 15 3 16 2 17 1 18
REMARK H PARENT
REMARK Flexibility Score: inf
ROOT
ATOM      1  C   UNL     1      43.079  13.026  25.322  1.00  0.00     0.000 C 
ENDROOT
BRANCH   1   2
ATOM      2  C   UNL     1      44.252  12.051  25.511  1.00  0.00     0.000 C 
BRANCH   2   3
ATOM      3  C   UNL     1      45.607  12.677  25.147  1.00  0.00     0.000 C 
BRANCH   3   4
ATOM      4  C   UNL     1      45.426  13.838  24.158  1.00  0.00     0.000 C 
BRANCH   4   5
ATOM      5  C   UNL     1      46.058  13.553  22.785  1.00  0.00     0.000 C 
BRANCH   5   6
ATOM      6  C   UNL     1      45.156  12.690  21.886  1.00  0.00     0.006 C 
BRANCH   6   7
ATOM      7  C   UNL     1      45.771  11.312  21.602  1.00  0.00     0.053 C 
BRANCH   7   8
ATOM      8  C   UNL     1      44.723  10.253  21.453  1.00  0.00     0.041 C 
ATOM      9  O   UNL     1      44.861   9.342  20.595  1.00  0.00    -0.550 OA
ATOM     10  O   UNL     1      43.609  10.253  22.282  1.00  0.00    -0.550 OA
ENDBRANCH   7   8
ENDBRANCH   6   7
ENDBRANCH   5   6
ENDBRANCH   4   5
ENDBRANCH   3   4
ENDBRANCH   2   3
ENDBRANCH   1   2
BRANCH   1  11
ATOM     11  C   UNL     1      41.860  12.364  24.656  1.00  0.00     0.000 C 
BRANCH  11  12
ATOM     12  C   UNL     1      40.993  13.365  23.876  1.00  0.00    -0.000 C 
BRANCH  12  13
ATOM     13  C   UNL     1      41.646  13.807  22.555  1.00  0.00    -0.000 C 
BRANCH  13  14
ATOM     14  C   UNL     1      42.096  15.277  22.581  1.00  0.00    -0.000 C 
BRANCH  14  15
ATOM     15  C   UNL     1      41.659  16.057  21.327  1.00  0.00    -0.000 C 
BRANCH  15  16
ATOM     16  C   UNL     1      42.853  16.717  20.607  1.00  0.00    -0.000 C 
BRANCH  16  17
ATOM     17  C   UNL     1      44.214  16.108  20.987  1.00  0.00    -0.003 C 
ATOM     18  C   UNL     1      45.172  17.126  21.602  1.00  0.00     0.004 C 
ENDBRANCH  16  17
ENDBRANCH  15  16
ENDBRANCH  14  15
ENDBRANCH  13  14
ENDBRANCH  12  13
ENDBRANCH  11  12
ENDBRANCH   1  11
TORSDOF 14
ENDMDL
MODEL 5
REMARK VINA RESULT:    -3.954      3.194      6.403
REMARK INTER + INTRA:          -9.096
REMARK INTER:                  -7.198
REMARK INTRA:                  -1.898
REMARK UNBOUND:                -1.906
REMARK SMILES CCCCCCCCCCCCCCCC(=O)[O-]
REMARK SMILES IDX 9 1 10 2 11 3 12 4 13 5 14 6 15 7 16 8 17 9 18 10 8 11 7 12
REMARK SMILES IDX 6 13 5 14 4 15 3 16 2 17 1 18
REMARK H PARENT
REMARK Flexibility Score: inf
ROOT
ATOM      1  C   UNL     1      44.338  11.992  23.296  1.00  0.00     0.000 C 
ENDROOT
BRANCH   1   2
ATOM      2  C   UNL     1      42.807  12.100  23.374  1.00  0.00     0.000 C 
BRANCH   2   3
ATOM      3  C   UNL     1      42.336  12.972  24.548  1.00  0.00     0.000 C 
BRANCH   3   4
ATOM      4  C   UNL     1      41.574  14.206  24.043  1.00  0.00     0.000 C 
BRANCH   4   5
ATOM      5  C   UNL     1      41.629  14.353  22.514  1.00  0.00     0.000 C 
BRANCH   5   6
ATOM      6  C   UNL     1      42.381  15.618  22.067  1.00  0.00     0.006 C 
BRANCH   6   7
ATOM      7  C   UNL     1      43.844  15.616  22.532  1.00  0.00     0.053 C 
BRANCH   7   8
ATOM      8  C   UNL     1      44.769  16.122  21.468  1.00  0.00     0.041 C 
ATOM      9  O   UNL     1      45.126  17.329  21.462  1.00  0.00    -0.550 OA
ATOM     10  O   UNL     1      45.261  15.254  20.501  1.00  0.00    -0.550 OA
ENDBRANCH   7   8
ENDBRANCH   6   7
ENDBRANCH   5   6
ENDBRANCH   4   5
ENDBRANCH   3   4
ENDBRANCH   2   3
ENDBRANCH   1   2
BRANCH   1  11
ATOM     11  C   UNL     1      44.850  11.888  21.847  1.00  0.00     0.000 C 
BRANCH  11  12
ATOM     12  C   UNL     1      45.698  10.628  21.607  1.00  0.00    -0.000 C 
BRANCH  12  13
ATOM     13  C   UNL     1      44.923   9.531  20.858  1.00  0.00    -0.000 C 
BRANCH  13  14
ATOM     14  C   UNL     1      44.658   8.293  21.731  1.00  0.00    -0.000 C 
BRANCH  14  15
ATOM     15  C   UNL     1      45.811   7.996  22.709  1.00  0.00    -0.000 C 
BRANCH  15  16
ATOM     16  C   UNL     1      45.394   8.205  24.180  1.00  0.00    -0.000 C 
BRANCH  16  17
ATOM     17  C   UNL     1      43.906   8.556  24.354  1.00  0.00    -0.003 C 
ATOM     18  C   UNL     1      43.597   9.194  25.706  1.00  0.00     0.004 C 
ENDBRANCH  16  17
ENDBRANCH  15  16
ENDBRANCH  14  15
ENDBRANCH  13  14
ENDBRANCH  12  13
ENDBRANCH  11  12
ENDBRANCH   1  11
TORSDOF 14
ENDMDL
MODEL 6
REMARK VINA RESULT:    -3.888     16.509     19.044
REMARK INTER + INTRA:          -8.977
REMARK INTER:                  -7.500
REMARK INTRA:                  -1.476
REMARK UNBOUND:                -1.906
REMARK SMILES CCCCCCCCCCCCCCCC(=O)[O-]
REMARK SMILES IDX 9 1 10 2 11 3 12 4 13 5 14 6 15 7 16 8 17 9 18 10 8 11 7 12
REMARK SMILES IDX 6 13 5 14 4 15 3 16 2 17 1 18
REMARK H PARENT
REMARK Flexibility Score: inf
ROOT
ATOM      1  C   UNL     1      32.353  19.965  11.229  1.00  0.00     0.000 C 
ENDROOT
BRANCH   1   2
ATOM      2  C   UNL     1      31.729  18.587  10.953  1.00  0.00     0.000 C 
BRANCH   2   3
ATOM      3  C   UNL     1      30.635  18.640   9.875  1.00  0.00     0.000 C 
BRANCH   3   4
ATOM      4  C   UNL     1      29.350  17.955  10.364  1.00  0.00     0.000 C 
BRANCH   4   5
ATOM      5  C   UNL     1      28.907  18.448  11.752  1.00  0.00     0.000 C 
BRANCH   5   6
ATOM      6  C   UNL     1      27.669  19.359  11.690  1.00  0.00     0.006 C 
BRANCH   6   7
ATOM      7  C   UNL     1      27.500  20.011  10.311  1.00  0.00     0.053 C 
BRANCH   7   8
ATOM      8  C   UNL     1      27.211  21.477  10.419  1.00  0.00     0.041 C 
ATOM      9  O   UNL     1      28.123  22.320  10.213  1.00  0.00    -0.550 OA
ATOM     10  O   UNL     1      25.926  21.913  10.715  1.00  0.00    -0.550 OA
ENDBRANCH   7   8
ENDBRANCH   6   7
ENDBRANCH   5   6
ENDBRANCH   4   5
ENDBRANCH   3   4
ENDBRANCH   2   3
ENDBRANCH   1   2
BRANCH   1  11
ATOM     11  C   UNL     1      31.304  21.020  11.623  1.00  0.00     0.000 C 
BRANCH  11  12
ATOM     12  C   UNL     1      31.793  22.459  11.387  1.00  0.00    -0.000 C 
BRANCH  12  13
ATOM     13  C   UNL     1      32.508  23.047  12.615  1.00  0.00    -0.000 C 
BRANCH  13  14
ATOM     14  C   UNL     1      32.138  22.322  13.919  1.00  0.00    -0.000 C 
BRANCH  14  15
ATOM     15  C   UNL     1      33.011  22.757  15.111  1.00  0.00    -0.000 C 
BRANCH  15  16
ATOM     16  C   UNL     1      34.319  21.944  15.202  1.00  0.00    -0.000 C 
BRANCH  16  17
ATOM     17  C   UNL     1      34.213  20.537  14.590  1.00  0.00    -0.003 C 
ATOM     18  C   UNL     1      35.213  20.299  13.461  1.00  0.00     0.004 C 
ENDBRANCH  16  17
ENDBRANCH  15  16
ENDBRANCH  14  15
ENDBRANCH  13  14
ENDBRANCH  12  13
ENDBRANCH  11  12
ENDBRANCH   1  11
TORSDOF 14
ENDMDL
MODEL 7
REMARK VINA RESULT:    -3.874      3.123      5.893
REMARK INTER + INTRA:          -8.951
REMARK INTER:                  -7.392
REMARK INTRA:                  -1.560
REMARK UNBOUND:                -1.906
REMARK SMILES CCCCCCCCCCCCCCCC(=O)[O-]
REMARK SMILES IDX 9 1 10 2 11 3 12 4 13 5 14 6 15 7 16 8 17 9 18 10 8 11 7 12
REMARK SMILES IDX 6 13 5 14 4 15 3 16 2 17 1 18
REMARK H PARENT
REMARK Flexibility Score: inf
ROOT
ATOM      1  C   UNL     1      44.312  16.184  21.603  1.00  0.00     0.000 C 
ENDROOT
BRANCH   1   2
ATOM      2  C   UNL     1      43.094  16.554  20.741  1.00  0.00     0.000 C 
BRANCH   2   3
ATOM      3  C   UNL     1      41.768  16.089  21.363  1.00  0.00     0.000 C 
BRANCH   3   4
ATOM      4  C   UNL     1      42.010  15.374  22.700  1.00  0.00     0.000 C 
BRANCH   4   5
ATOM      5  C   UNL     1      41.468  13.934  22.709  1.00  0.00     0.000 C 
BRANCH   5   6
ATOM      6  C   UNL     1      41.835  13.171  23.993  1.00  0.00     0.006 C 
BRANCH   6   7
ATOM      7  C   UNL     1      40.592  12.694  24.757  1.00  0.00     0.053 C 
BRANCH   7   8
ATOM      8  C   UNL     1      40.468  13.359  26.094  1.00  0.00     0.041 C 
ATOM      9  O   UNL     1      40.969  14.499  26.282  1.00  0.00    -0.550 OA
ATOM     10  O   UNL     1      39.773  12.735  27.121  1.00  0.00    -0.550 OA
ENDBRANCH   7   8
ENDBRANCH   6   7
ENDBRANCH   5   6
ENDBRANCH   4   5
ENDBRANCH   3   4
ENDBRANCH   2   3
ENDBRANCH   1   2
BRANCH   1  11
ATOM     11  C   UNL     1      45.470  15.604  20.771  1.00  0.00     0.000 C 
BRANCH  11  12
ATOM     12  C   UNL     1      45.771  14.136  21.116  1.00  0.00    -0.000 C 
BRANCH  12  13
ATOM     13  C   UNL     1      45.391  13.781  22.563  1.00  0.00    -0.000 C 
BRANCH  13  14
ATOM     14  C   UNL     1      45.437  12.268  22.832  1.00  0.00    -0.000 C 
BRANCH  14  15
ATOM     15  C   UNL     1      44.555  11.463  21.860  1.00  0.00    -0.000 C 
BRANCH  15  16
ATOM     16  C   UNL     1      45.313  10.270  21.240  1.00  0.00    -0.000 C 
BRANCH  16  17
ATOM     17  C   UNL     1      45.090   8.944  21.987  1.00  0.00    -0.003 C 
ATOM     18  C   UNL     1      43.923   8.134  21.431  1.00  0.00     0.004 C 
ENDBRANCH  16  17
ENDBRANCH  15  16
ENDBRANCH  14  15
ENDBRANCH  13  14
ENDBRANCH  12  13
ENDBRANCH  11  12
ENDBRANCH   1  11
TORSDOF 14
ENDMDL
MODEL 8
REMARK VINA RESULT:    -3.838      2.755      6.452
REMARK INTER + INTRA:          -8.886
REMARK INTER:                  -6.910
REMARK INTRA:                  -1.976
REMARK UNBOUND:                -1.906
REMARK SMILES CCCCCCCCCCCCCCCC(=O)[O-]
REMARK SMILES IDX 9 1 10 2 11 3 12 4 13 5 14 6 15 7 16 8 17 9 18 10 8 11 7 12
REMARK SMILES IDX 6 13 5 14 4 15 3 16 2 17 1 18
REMARK H PARENT
REMARK Flexibility Score: inf
ROOT
ATOM      1  C   UNL     1      44.457  11.567  21.930  1.00  0.00     0.000 C 
ENDROOT
BRANCH   1   2
ATOM      2  C   UNL     1      45.045  12.839  22.561  1.00  0.00     0.000 C 
BRANCH   2   3
ATOM      3  C   UNL     1      45.355  13.927  21.521  1.00  0.00     0.000 C 
BRANCH   3   4
ATOM      4  C   UNL     1      44.587  15.220  21.834  1.00  0.00     0.000 C 
BRANCH   4   5
ATOM      5  C   UNL     1      43.532  15.031  22.937  1.00  0.00     0.000 C 
BRANCH   5   6
ATOM      6  C   UNL     1      42.093  15.137  22.404  1.00  0.00     0.006 C 
BRANCH   6   7
ATOM      7  C   UNL     1      41.312  13.827  22.581  1.00  0.00     0.053 C 
BRANCH   7   8
ATOM      8  C   UNL     1      41.305  13.370  24.007  1.00  0.00     0.041 C 
ATOM      9  O   UNL     1      41.748  12.231  24.309  1.00  0.00    -0.550 OA
ATOM     10  O   UNL     1      40.837  14.214  25.006  1.00  0.00    -0.550 OA
ENDBRANCH   7   8
ENDBRANCH   6   7
ENDBRANCH   5   6
ENDBRANCH   4   5
ENDBRANCH   3   4
ENDBRANCH   2   3
ENDBRANCH   1   2
BRANCH   1  11
ATOM     11  C   UNL     1      45.544  10.572  21.485  1.00  0.00     0.000 C 
BRANCH  11  12
ATOM     12  C   UNL     1      44.965   9.346  20.760  1.00  0.00    -0.000 C 
BRANCH  12  13
ATOM     13  C   UNL     1      44.652   8.187  21.721  1.00  0.00    -0.000 C 
BRANCH  13  14
ATOM     14  C   UNL     1      45.873   7.761  22.552  1.00  0.00    -0.000 C 
BRANCH  14  15
ATOM     15  C   UNL     1      45.690   8.024  24.058  1.00  0.00    -0.000 C 
BRANCH  15  16
ATOM     16  C   UNL     1      44.260   8.493  24.397  1.00  0.00    -0.000 C 
BRANCH  16  17
ATOM     17  C   UNL     1      44.214   9.834  25.151  1.00  0.00    -0.003 C 
ATOM     18  C   UNL     1      45.600  10.419  25.411  1.00  0.00     0.004 C 
ENDBRANCH  16  17
ENDBRANCH  15  16
ENDBRANCH  14  15
ENDBRANCH  13  14
ENDBRANCH  12  13
ENDBRANCH  11  12
ENDBRANCH   1  11
TORSDOF 14
ENDMDL
MODEL 9
REMARK VINA RESULT:    -3.814      3.284      6.938
REMARK INTER + INTRA:          -8.841
REMARK INTER:                  -7.245
REMARK INTRA:                  -1.597
REMARK UNBOUND:                -1.906
REMARK SMILES CCCCCCCCCCCCCCCC(=O)[O-]
REMARK SMILES IDX 9 1 10 2 11 3 12 4 13 5 14 6 15 7 16 8 17 9 18 10 8 11 7 12
REMARK SMILES IDX 6 13 5 14 4 15 3 16 2 17 1 18
REMARK H PARENT
REMARK Flexibility Score: inf
ROOT
ATOM      1  C   UNL     1      45.347  10.417  21.116  1.00  0.00     0.000 C 
ENDROOT
BRANCH   1   2
ATOM      2  C   UNL     1      45.750  11.601  22.010  1.00  0.00     0.000 C 
BRANCH   2   3
ATOM      3  C   UNL     1      44.637  12.653  22.135  1.00  0.00     0.000 C 
BRANCH   3   4
ATOM      4  C   UNL     1      45.183  13.960  22.728  1.00  0.00     0.000 C 
BRANCH   4   5
ATOM      5  C   UNL     1      45.713  14.924  21.653  1.00  0.00     0.000 C 
BRANCH   5   6
ATOM      6  C   UNL     1      44.980  16.276  21.656  1.00  0.00     0.006 C 
BRANCH   6   7
ATOM      7  C   UNL     1      43.892  16.347  20.575  1.00  0.00     0.053 C 
BRANCH   7   8
ATOM      8  C   UNL     1      42.518  16.410  21.168  1.00  0.00     0.041 C 
ATOM      9  O   UNL     1      42.157  15.558  22.022  1.00  0.00    -0.550 OA
ATOM     10  O   UNL     1      41.647  17.428  20.801  1.00  0.00    -0.550 OA
ENDBRANCH   7   8
ENDBRANCH   6   7
ENDBRANCH   5   6
ENDBRANCH   4   5
ENDBRANCH   3   4
ENDBRANCH   2   3
ENDBRANCH   1   2
BRANCH   1  11
ATOM     11  C   UNL     1      43.972   9.834  21.493  1.00  0.00     0.000 C 
BRANCH  11  12
ATOM     12  C   UNL     1      44.065   8.400  22.038  1.00  0.00    -0.000 C 
BRANCH  12  13
ATOM     13  C   UNL     1      45.496   8.019  22.453  1.00  0.00    -0.000 C 
BRANCH  13  14
ATOM     14  C   UNL     1      45.734   8.172  23.965  1.00  0.00    -0.000 C 
BRANCH  14  15
ATOM     15  C   UNL     1      44.444   8.493  24.741  1.00  0.00    -0.000 C 
BRANCH  15  16
ATOM     16  C   UNL     1      44.435   9.939  25.280  1.00  0.00    -0.000 C 
BRANCH  16  17
ATOM     17  C   UNL     1      43.134  10.702  24.973  1.00  0.00    -0.003 C 
ATOM     18  C   UNL     1      42.019  10.408  25.974  1.00  0.00     0.004 C 
ENDBRANCH  16  17
ENDBRANCH  15  16
ENDBRANCH  14  15
ENDBRANCH  13  14
ENDBRANCH  12  13
ENDBRANCH  11  12
ENDBRANCH   1  11
TORSDOF 14
ENDMDL
