MODEL 1
REMARK VINA RESULT:    -4.904      0.000      0.000
REMARK INTER + INTRA:          -5.771
REMARK INTER:                  -5.621
REMARK INTRA:                  -0.150
REMARK UNBOUND:                -0.150
REMARK SMILES O=C([O-])C=Cc1ccc(O)cc1
REMARK SMILES IDX 6 1 7 2 12 3 8 4 11 5 9 6 5 7 4 8 2 9 1 10 3 11 10 12
REMARK H PARENT 10 13
REMARK Flexibility Score: inf
ROOT
ATOM      1  C   UNL     1      -7.226 -10.328  28.816  1.00  0.00    -0.025 A 
ATOM      2  C   UNL     1      -6.890  -9.431  29.844  1.00  0.00     0.012 A 
ATOM      3  C   UNL     1      -8.479 -10.197  28.182  1.00  0.00     0.012 A 
ATOM      4  C   UNL     1      -7.772  -8.411  30.214  1.00  0.00     0.047 A 
ATOM      5  C   UNL     1      -9.358  -9.177  28.556  1.00  0.00     0.047 A 
ATOM      6  C   UNL     1      -9.008  -8.280  29.569  1.00  0.00     0.115 A 
ENDROOT
BRANCH   1   7
ATOM      7  C   UNL     1      -6.262 -11.400  28.467  1.00  0.00     0.010 C 
ATOM      8  C   UNL     1      -5.358 -11.898  29.324  1.00  0.00     0.025 C 
BRANCH   8   9
ATOM      9  C   UNL     1      -4.425 -12.972  28.945  1.00  0.00     0.064 C 
ATOM     10  O   UNL     1      -3.800 -12.937  27.851  1.00  0.00    -0.545 OA
ATOM     11  O   UNL     1      -4.226 -14.040  29.810  1.00  0.00    -0.545 OA
ENDBRANCH   8   9
ENDBRANCH   1   7
BRANCH   6  12
ATOM     12  O   UNL     1      -9.894  -7.267  29.930  1.00  0.00    -0.508 OA
ATOM     13  H   UNL     1     -10.564  -6.889  29.269  1.00  0.00     0.293 HD
ENDBRANCH   6  12
TORSDOF 3
ENDMDL
MODEL 2
REMARK VINA RESULT:    -4.852      0.257      1.698
REMARK INTER + INTRA:          -5.711
REMARK INTER:                  -5.574
REMARK INTRA:                  -0.137
REMARK UNBOUND:                -0.150
REMARK SMILES O=C([O-])C=Cc1ccc(O)cc1
REMARK SMILES IDX 6 1 7 2 12 3 8 4 11 5 9 6 5 7 4 8 2 9 1 10 3 11 10 12
REMARK H PARENT 10 13
REMARK Flexibility Score: inf
ROOT
ATOM      1  C   UNL     1      -7.173 -10.359  28.797  1.00  0.00    -0.025 A 
ATOM      2  C   UNL     1      -8.428 -10.239  28.177  1.00  0.00     0.012 A 
ATOM      3  C   UNL     1      -6.821  -9.437  29.804  1.00  0.00     0.012 A 
ATOM      4  C   UNL     1      -9.323  -9.239  28.570  1.00  0.00     0.047 A 
ATOM      5  C   UNL     1      -7.717  -8.437  30.193  1.00  0.00     0.047 A 
ATOM      6  C   UNL     1      -8.970  -8.337  29.581  1.00  0.00     0.115 A 
ENDROOT
BRANCH   1   7
ATOM      7  C   UNL     1      -6.255 -11.430  28.337  1.00  0.00     0.010 C 
ATOM      8  C   UNL     1      -5.275 -11.947  29.094  1.00  0.00     0.025 C 
BRANCH   8   9
ATOM      9  C   UNL     1      -4.390 -13.019  28.608  1.00  0.00     0.064 C 
ATOM     10  O   UNL     1      -4.304 -14.120  29.216  1.00  0.00    -0.545 OA
ATOM     11  O   UNL     1      -3.638 -12.815  27.458  1.00  0.00    -0.545 OA
ENDBRANCH   8   9
ENDBRANCH   1   7
BRANCH   6  12
ATOM     12  O   UNL     1      -9.854  -7.336  29.981  1.00  0.00    -0.508 OA
ATOM     13  H   UNL     1     -10.563  -7.507  30.684  1.00  0.00     0.293 HD
ENDBRANCH   6  12
TORSDOF 3
ENDMDL
MODEL 3
REMARK VINA RESULT:    -4.719      2.743      3.263
REMARK INTER + INTRA:          -5.559
REMARK INTER:                  -5.408
REMARK INTRA:                  -0.151
REMARK UNBOUND:                -0.150
REMARK SMILES O=C([O-])C=Cc1ccc(O)cc1
REMARK SMILES IDX 6 1 7 2 12 3 8 4 11 5 9 6 5 7 4 8 2 9 1 10 3 11 10 12
REMARK H PARENT 10 13
REMARK Flexibility Score: inf
ROOT
ATOM      1  C   UNL     1      -7.131  -8.908  30.445  1.00  0.00    -0.025 A 
ATOM      2  C   UNL     1      -7.265  -9.771  29.344  1.00  0.00     0.012 A 
ATOM      3  C   UNL     1      -8.241  -8.134  30.841  1.00  0.00     0.012 A 
ATOM      4  C   UNL     1      -8.485  -9.880  28.669  1.00  0.00     0.047 A 
ATOM      5  C   UNL     1      -9.459  -8.244  30.162  1.00  0.00     0.047 A 
ATOM      6  C   UNL     1      -9.586  -9.117  29.079  1.00  0.00     0.115 A 
ENDROOT
BRANCH   1   7
ATOM      7  C   UNL     1      -5.814  -8.820  31.122  1.00  0.00     0.010 C 
ATOM      8  C   UNL     1      -4.794  -9.657  30.879  1.00  0.00     0.025 C 
BRANCH   8   9
ATOM      9  C   UNL     1      -3.495  -9.531  31.562  1.00  0.00     0.064 C 
ATOM     10  O   UNL     1      -2.532  -8.920  31.025  1.00  0.00    -0.545 OA
ATOM     11  O   UNL     1      -3.329 -10.093  32.821  1.00  0.00    -0.545 OA
ENDBRANCH   8   9
ENDBRANCH   1   7
BRANCH   6  12
ATOM     12  O   UNL     1     -10.807  -9.218  28.413  1.00  0.00    -0.508 OA
ATOM     13  H   UNL     1     -11.646  -9.526  28.891  1.00  0.00     0.293 HD
ENDBRANCH   6  12
TORSDOF 3
ENDMDL
MODEL 4
REMARK VINA RESULT:    -4.535      2.561      3.432
REMARK INTER + INTRA:          -5.348
REMARK INTER:                  -5.201
REMARK INTRA:                  -0.147
REMARK UNBOUND:                -0.150
REMARK SMILES O=C([O-])C=Cc1ccc(O)cc1
REMARK SMILES IDX 6 1 7 2 12 3 8 4 11 5 9 6 5 7 4 8 2 9 1 10 3 11 10 12
REMARK H PARENT 10 13
REMARK Flexibility Score: inf
ROOT
ATOM      1  C   UNL     1      -7.860 -10.214  27.837  1.00  0.00    -0.025 A 
ATOM      2  C   UNL     1      -9.134  -9.828  27.387  1.00  0.00     0.012 A 
ATOM      3  C   UNL     1      -7.519  -9.991  29.187  1.00  0.00     0.012 A 
ATOM      4  C   UNL     1     -10.056  -9.255  28.268  1.00  0.00     0.047 A 
ATOM      5  C   UNL     1      -8.444  -9.417  30.065  1.00  0.00     0.047 A 
ATOM      6  C   UNL     1      -9.713  -9.051  29.611  1.00  0.00     0.115 A 
ENDROOT
BRANCH   1   7
ATOM      7  C   UNL     1      -6.913 -10.808  26.862  1.00  0.00     0.010 C 
ATOM      8  C   UNL     1      -6.827 -10.426  25.579  1.00  0.00     0.025 C 
BRANCH   8   9
ATOM      9  C   UNL     1      -5.865 -11.030  24.642  1.00  0.00     0.064 C 
ATOM     10  O   UNL     1      -4.650 -11.166  24.951  1.00  0.00    -0.545 OA
ATOM     11  O   UNL     1      -6.303 -11.460  23.396  1.00  0.00    -0.545 OA
ENDBRANCH   8   9
ENDBRANCH   1   7
BRANCH   6  12
ATOM     12  O   UNL     1     -10.625  -8.481  30.498  1.00  0.00    -0.508 OA
ATOM     13  H   UNL     1     -10.672  -8.771  31.468  1.00  0.00     0.293 HD
ENDBRANCH   6  12
TORSDOF 3
ENDMDL
MODEL 5
REMARK VINA RESULT:    -4.354      9.776     10.733
REMARK INTER + INTRA:          -5.140
REMARK INTER:                  -5.001
REMARK INTRA:                  -0.140
REMARK UNBOUND:                -0.150
REMARK SMILES O=C([O-])C=Cc1ccc(O)cc1
REMARK SMILES IDX 6 1 7 2 12 3 8 4 11 5 9 6 5 7 4 8 2 9 1 10 3 11 10 12
REMARK H PARENT 10 13
REMARK Flexibility Score: inf
ROOT
ATOM      1  C   UNL     1      -9.226 -13.000  19.485  1.00  0.00    -0.025 A 
ATOM      2  C   UNL     1     -10.478 -12.383  19.644  1.00  0.00     0.012 A 
ATOM      3  C   UNL     1      -8.543 -13.457  20.631  1.00  0.00     0.012 A 
ATOM      4  C   UNL     1     -11.049 -12.247  20.913  1.00  0.00     0.047 A 
ATOM      5  C   UNL     1      -9.116 -13.318  21.899  1.00  0.00     0.047 A 
ATOM      6  C   UNL     1     -10.369 -12.716  22.044  1.00  0.00     0.115 A 
ENDROOT
BRANCH   1   7
ATOM      7  C   UNL     1      -8.658 -13.112  18.119  1.00  0.00     0.010 C 
ATOM      8  C   UNL     1      -7.360 -13.335  17.868  1.00  0.00     0.025 C 
BRANCH   8   9
ATOM      9  C   UNL     1      -6.833 -13.452  16.498  1.00  0.00     0.064 C 
ATOM     10  O   UNL     1      -6.261 -12.481  15.933  1.00  0.00    -0.545 OA
ATOM     11  O   UNL     1      -6.967 -14.655  15.815  1.00  0.00    -0.545 OA
ENDBRANCH   8   9
ENDBRANCH   1   7
BRANCH   6  12
ATOM     12  O   UNL     1     -10.928 -12.586  23.314  1.00  0.00    -0.508 OA
ATOM     13  H   UNL     1     -11.891 -12.297  23.442  1.00  0.00     0.293 HD
ENDBRANCH   6  12
TORSDOF 3
ENDMDL
MODEL 6
REMARK VINA RESULT:    -4.348      9.769     10.681
REMARK INTER + INTRA:          -5.134
REMARK INTER:                  -4.987
REMARK INTRA:                  -0.147
REMARK UNBOUND:                -0.150
REMARK SMILES O=C([O-])C=Cc1ccc(O)cc1
REMARK SMILES IDX 6 1 7 2 12 3 8 4 11 5 9 6 5 7 4 8 2 9 1 10 3 11 10 12
REMARK H PARENT 10 13
REMARK Flexibility Score: inf
ROOT
ATOM      1  C   UNL     1      -9.196 -13.034  19.435  1.00  0.00    -0.025 A 
ATOM      2  C   UNL     1      -8.581 -13.666  20.528  1.00  0.00     0.012 A 
ATOM      3  C   UNL     1     -10.406 -12.340  19.643  1.00  0.00     0.012 A 
ATOM      4  C   UNL     1      -9.146 -13.588  21.805  1.00  0.00     0.047 A 
ATOM      5  C   UNL     1     -10.968 -12.265  20.921  1.00  0.00     0.047 A 
ATOM      6  C   UNL     1     -10.341 -12.885  22.004  1.00  0.00     0.115 A 
ENDROOT
BRANCH   1   7
ATOM      7  C   UNL     1      -8.564 -13.154  18.098  1.00  0.00     0.010 C 
ATOM      8  C   UNL     1      -7.246 -13.315  17.908  1.00  0.00     0.025 C 
BRANCH   8   9
ATOM      9  C   UNL     1      -6.655 -13.444  16.566  1.00  0.00     0.064 C 
ATOM     10  O   UNL     1      -6.359 -12.427  15.883  1.00  0.00    -0.545 OA
ATOM     11  O   UNL     1      -6.418 -14.709  16.042  1.00  0.00    -0.545 OA
ENDBRANCH   8   9
ENDBRANCH   1   7
BRANCH   6  12
ATOM     12  O   UNL     1     -10.912 -12.800  23.273  1.00  0.00    -0.508 OA
ATOM     13  H   UNL     1     -11.912 -12.691  23.396  1.00  0.00     0.293 HD
ENDBRANCH   6  12
TORSDOF 3
ENDMDL
MODEL 7
REMARK VINA RESULT:    -4.286      1.255      5.664
REMARK INTER + INTRA:          -5.063
REMARK INTER:                  -4.929
REMARK INTRA:                  -0.133
REMARK UNBOUND:                -0.150
REMARK SMILES O=C([O-])C=Cc1ccc(O)cc1
REMARK SMILES IDX 6 1 7 2 12 3 8 4 11 5 9 6 5 7 4 8 2 9 1 10 3 11 10 12
REMARK H PARENT 10 13
REMARK Flexibility Score: inf
ROOT
ATOM      1  C   UNL     1      -6.104 -10.794  29.348  1.00  0.00    -0.025 A 
ATOM      2  C   UNL     1      -5.387 -10.795  30.557  1.00  0.00     0.012 A 
ATOM      3  C   UNL     1      -5.809 -11.778  28.382  1.00  0.00     0.012 A 
ATOM      4  C   UNL     1      -4.418 -11.771  30.808  1.00  0.00     0.047 A 
ATOM      5  C   UNL     1      -4.838 -12.751  28.636  1.00  0.00     0.047 A 
ATOM      6  C   UNL     1      -4.143 -12.753  29.848  1.00  0.00     0.115 A 
ENDROOT
BRANCH   1   7
ATOM      7  C   UNL     1      -7.115  -9.731  29.124  1.00  0.00     0.010 C 
ATOM      8  C   UNL     1      -8.434  -9.962  29.051  1.00  0.00     0.025 C 
BRANCH   8   9
ATOM      9  C   UNL     1      -9.410  -8.880  28.839  1.00  0.00     0.064 C 
ATOM     10  O   UNL     1     -10.184  -8.884  27.844  1.00  0.00    -0.545 OA
ATOM     11  O   UNL     1      -9.482  -7.836  29.754  1.00  0.00    -0.545 OA
ENDBRANCH   8   9
ENDBRANCH   1   7
BRANCH   6  12
ATOM     12  O   UNL     1      -3.178 -13.731  30.088  1.00  0.00    -0.508 OA
ATOM     13  H   UNL     1      -3.385 -14.553  30.644  1.00  0.00     0.293 HD
ENDBRANCH   6  12
TORSDOF 3
ENDMDL
MODEL 8
REMARK VINA RESULT:    -4.184     14.755     15.769
REMARK INTER + INTRA:          -4.945
REMARK INTER:                  -4.793
REMARK INTRA:                  -0.153
REMARK UNBOUND:                -0.150
REMARK SMILES O=C([O-])C=Cc1ccc(O)cc1
REMARK SMILES IDX 6 1 7 2 12 3 8 4 11 5 9 6 5 7 4 8 2 9 1 10 3 11 10 12
REMARK H PARENT 10 13
REMARK Flexibility Score: inf
ROOT
ATOM      1  C   UNL     1     -16.077 -16.958  18.121  1.00  0.00    -0.025 A 
ATOM      2  C   UNL     1     -17.404 -17.125  18.553  1.00  0.00     0.012 A 
ATOM      3  C   UNL     1     -15.843 -16.520  16.801  1.00  0.00     0.012 A 
ATOM      4  C   UNL     1     -18.472 -16.837  17.699  1.00  0.00     0.047 A 
ATOM      5  C   UNL     1     -16.914 -16.234  15.949  1.00  0.00     0.047 A 
ATOM      6  C   UNL     1     -18.229 -16.388  16.395  1.00  0.00     0.115 A 
ENDROOT
BRANCH   1   7
ATOM      7  C   UNL     1     -14.978 -17.288  19.060  1.00  0.00     0.010 C 
ATOM      8  C   UNL     1     -15.173 -17.705  20.320  1.00  0.00     0.025 C 
BRANCH   8   9
ATOM      9  C   UNL     1     -14.057 -18.034  21.221  1.00  0.00     0.064 C 
ATOM     10  O   UNL     1     -12.977 -17.384  21.188  1.00  0.00    -0.545 OA
ATOM     11  O   UNL     1     -14.195 -19.079  22.127  1.00  0.00    -0.545 OA
ENDBRANCH   8   9
ENDBRANCH   1   7
BRANCH   6  12
ATOM     12  O   UNL     1     -19.287 -16.097  15.534  1.00  0.00    -0.508 OA
ATOM     13  H   UNL     1     -19.879 -15.288  15.678  1.00  0.00     0.293 HD
ENDBRANCH   6  12
TORSDOF 3
ENDMDL
MODEL 9
REMARK VINA RESULT:    -4.156      8.806      9.566
REMARK INTER + INTRA:          -4.913
REMARK INTER:                  -4.776
REMARK INTRA:                  -0.137
REMARK UNBOUND:                -0.150
REMARK SMILES O=C([O-])C=Cc1ccc(O)cc1
REMARK SMILES IDX 6 1 7 2 12 3 8 4 11 5 9 6 5 7 4 8 2 9 1 10 3 11 10 12
REMARK H PARENT 10 13
REMARK Flexibility Score: inf
ROOT
ATOM      1  C   UNL     1      -9.646 -14.630  21.657  1.00  0.00    -0.025 A 
ATOM      2  C   UNL     1      -9.513 -14.451  20.269  1.00  0.00     0.012 A 
ATOM      3  C   UNL     1     -10.215 -13.593  22.424  1.00  0.00     0.012 A 
ATOM      4  C   UNL     1      -9.961 -13.276  19.657  1.00  0.00     0.047 A 
ATOM      5  C   UNL     1     -10.660 -12.419  21.809  1.00  0.00     0.047 A 
ATOM      6  C   UNL     1     -10.538 -12.258  20.427  1.00  0.00     0.115 A 
ENDROOT
BRANCH   1   7
ATOM      7  C   UNL     1      -9.146 -15.889  22.261  1.00  0.00     0.010 C 
ATOM      8  C   UNL     1      -9.668 -17.098  22.003  1.00  0.00     0.025 C 
BRANCH   8   9
ATOM      9  C   UNL     1      -9.137 -18.329  22.612  1.00  0.00     0.064 C 
ATOM     10  O   UNL     1      -8.755 -19.296  21.901  1.00  0.00    -0.545 OA
ATOM     11  O   UNL     1      -9.054 -18.425  23.996  1.00  0.00    -0.545 OA
ENDBRANCH   8   9
ENDBRANCH   1   7
BRANCH   6  12
ATOM     12  O   UNL     1     -10.987 -11.082  19.827  1.00  0.00    -0.508 OA
ATOM     13  H   UNL     1     -10.442 -10.608  19.117  1.00  0.00     0.293 HD
ENDBRANCH   6  12
TORSDOF 3
ENDMDL
