MODEL 1
REMARK VINA RESULT:    -6.765      0.000      0.000
REMARK INTER + INTRA:          -8.379
REMARK INTER:                  -8.149
REMARK INTRA:                  -0.230
REMARK UNBOUND:                -0.230
REMARK SMILES O=c1c(O)c(-c2ccc(O)cc2O)oc2cc(O)cc(O)c12
REMARK SMILES IDX 5 1 3 2 2 3 1 4 22 5 20 6 19 7 17 8 16 9 15 10 14 11 6 12
REMARK SMILES IDX 8 13 7 14 9 15 11 16 12 17 10 18 13 20 4 22 21 24 18 26
REMARK H PARENT 10 19 13 21 4 23 21 25 18 27
REMARK Flexibility Score: inf
ROOT
ATOM      1  C   UNL     1      -0.472   1.515  -3.461  1.00  0.00     0.184 A 
ATOM      2  C   UNL     1       0.633   0.925  -4.093  1.00  0.00     0.208 A 
ATOM      3  C   UNL     1       1.091  -0.322  -3.640  1.00  0.00     0.238 A 
ATOM      4  O   UNL     1       2.049  -0.872  -4.245  1.00  0.00    -0.285 OA
ATOM      5  C   UNL     1       0.446  -0.955  -2.549  1.00  0.00     0.111 A 
ATOM      6  C   UNL     1       0.849  -2.200  -1.980  1.00  0.00     0.134 A 
ATOM      7  C   UNL     1       0.060  -2.794  -0.988  1.00  0.00     0.093 A 
ATOM      8  C   UNL     1      -1.083  -2.156  -0.499  1.00  0.00     0.123 A 
ATOM      9  C   UNL     1      -1.452  -0.913  -1.005  1.00  0.00     0.094 A 
ATOM     10  C   UNL     1      -0.705  -0.311  -2.022  1.00  0.00     0.146 A 
ATOM     11  O   UNL     1      -1.098   0.870  -2.485  1.00  0.00    -0.451 OA
ENDROOT
BRANCH   1  12
ATOM     12  C   UNL     1      -0.994   2.833  -3.879  1.00  0.00     0.063 A 
ATOM     13  C   UNL     1      -1.835   4.267  -5.653  1.00  0.00     0.047 A 
ATOM     14  C   UNL     1      -1.333   3.035  -5.226  1.00  0.00     0.020 A 
ATOM     15  C   UNL     1      -2.018   5.307  -4.738  1.00  0.00     0.119 A 
ATOM     16  C   UNL     1      -1.705   5.108  -3.387  1.00  0.00     0.093 A 
ATOM     17  C   UNL     1      -1.206   3.873  -2.949  1.00  0.00     0.130 A 
BRANCH  15  18
ATOM     18  O   UNL     1      -2.515   6.532  -5.179  1.00  0.00    -0.508 OA
ATOM     19  H   UNL     1      -2.672   7.301  -4.539  1.00  0.00     0.293 HD
ENDBRANCH  15  18
BRANCH  17  20
ATOM     20  O   UNL     1      -0.943   3.671  -1.594  1.00  0.00    -0.507 OA
ATOM     21  H   UNL     1      -0.378   4.320  -1.059  1.00  0.00     0.293 HD
ENDBRANCH  17  20
ENDBRANCH   1  12
BRANCH   2  22
ATOM     22  O   UNL     1       1.240   1.562  -5.179  1.00  0.00    -0.502 OA
ATOM     23  H   UNL     1       1.769   1.057  -5.879  1.00  0.00     0.293 HD
ENDBRANCH   2  22
BRANCH   6  24
ATOM     24  O   UNL     1       2.022  -2.875  -2.332  1.00  0.00    -0.507 OA
ATOM     25  H   UNL     1       2.911  -2.762  -1.870  1.00  0.00     0.293 HD
ENDBRANCH   6  24
BRANCH   8  26
ATOM     26  O   UNL     1      -1.854  -2.747   0.500  1.00  0.00    -0.508 OA
ATOM     27  H   UNL     1      -1.539  -2.781   1.463  1.00  0.00     0.293 HD
ENDBRANCH   8  26
TORSDOF 6
ENDMDL
MODEL 2
REMARK VINA RESULT:    -6.573      1.681      3.184
REMARK INTER + INTRA:          -8.148
REMARK INTER:                  -7.720
REMARK INTRA:                  -0.429
REMARK UNBOUND:                -0.230
REMARK SMILES O=c1c(O)c(-c2ccc(O)cc2O)oc2cc(O)cc(O)c12
REMARK SMILES IDX 5 1 3 2 2 3 1 4 22 5 20 6 19 7 17 8 16 9 15 10 14 11 6 12
REMARK SMILES IDX 8 13 7 14 9 15 11 16 12 17 10 18 13 20 4 22 21 24 18 26
REMARK H PARENT 10 19 13 21 4 23 21 25 18 27
REMARK Flexibility Score: inf
ROOT
ATOM      1  C   UNL     1       0.059   1.023  -2.716  1.00  0.00     0.184 A 
ATOM      2  C   UNL     1      -0.814   0.306  -1.884  1.00  0.00     0.208 A 
ATOM      3  C   UNL     1      -0.572  -1.058  -1.657  1.00  0.00     0.238 A 
ATOM      4  O   UNL     1      -1.327  -1.683  -0.867  1.00  0.00    -0.285 OA
ATOM      5  C   UNL     1       0.532  -1.690  -2.279  1.00  0.00     0.111 A 
ATOM      6  C   UNL     1       0.850  -3.076  -2.153  1.00  0.00     0.134 A 
ATOM      7  C   UNL     1       2.039  -3.565  -2.708  1.00  0.00     0.093 A 
ATOM      8  C   UNL     1       2.888  -2.732  -3.440  1.00  0.00     0.123 A 
ATOM      9  C   UNL     1       2.557  -1.392  -3.619  1.00  0.00     0.094 A 
ATOM     10  C   UNL     1       1.396  -0.865  -3.047  1.00  0.00     0.146 A 
ATOM     11  O   UNL     1       1.123   0.421  -3.233  1.00  0.00    -0.451 OA
ENDROOT
BRANCH   1  12
ATOM     12  C   UNL     1      -0.148   2.456  -3.009  1.00  0.00     0.063 A 
ATOM     13  C   UNL     1      -1.377   4.175  -4.212  1.00  0.00     0.047 A 
ATOM     14  C   UNL     1      -1.151   2.828  -3.918  1.00  0.00     0.020 A 
ATOM     15  C   UNL     1      -0.614   5.167  -3.591  1.00  0.00     0.119 A 
ATOM     16  C   UNL     1       0.373   4.809  -2.664  1.00  0.00     0.093 A 
ATOM     17  C   UNL     1       0.602   3.459  -2.359  1.00  0.00     0.130 A 
BRANCH  15  18
ATOM     18  O   UNL     1      -0.848   6.507  -3.898  1.00  0.00    -0.508 OA
ATOM     19  H   UNL     1      -0.486   6.926  -4.747  1.00  0.00     0.293 HD
ENDBRANCH  15  18
BRANCH  17  20
ATOM     20  O   UNL     1       1.555   3.117  -1.399  1.00  0.00    -0.507 OA
ATOM     21  H   UNL     1       1.427   2.324  -0.781  1.00  0.00     0.293 HD
ENDBRANCH  17  20
ENDBRANCH   1  12
BRANCH   2  22
ATOM     22  O   UNL     1      -1.885   0.958  -1.267  1.00  0.00    -0.502 OA
ATOM     23  H   UNL     1      -2.282   0.642  -0.391  1.00  0.00     0.293 HD
ENDBRANCH   2  22
BRANCH   6  24
ATOM     24  O   UNL     1       0.025  -4.011  -1.521  1.00  0.00    -0.507 OA
ATOM     25  H   UNL     1       0.355  -4.779  -0.955  1.00  0.00     0.293 HD
ENDBRANCH   6  24
BRANCH   8  26
ATOM     26  O   UNL     1       4.061  -3.231  -4.002  1.00  0.00    -0.508 OA
ATOM     27  H   UNL     1       4.683  -3.840  -3.481  1.00  0.00     0.293 HD
ENDBRANCH   8  26
TORSDOF 6
ENDMDL
MODEL 3
REMARK VINA RESULT:    -6.563      2.173      3.534
REMARK INTER + INTRA:          -8.136
REMARK INTER:                  -7.794
REMARK INTRA:                  -0.342
REMARK UNBOUND:                -0.230
REMARK SMILES O=c1c(O)c(-c2ccc(O)cc2O)oc2cc(O)cc(O)c12
REMARK SMILES IDX 5 1 3 2 2 3 1 4 22 5 20 6 19 7 17 8 16 9 15 10 14 11 6 12
REMARK SMILES IDX 8 13 7 14 9 15 11 16 12 17 10 18 13 20 4 22 21 24 18 26
REMARK H PARENT 10 19 13 21 4 23 21 25 18 27
REMARK Flexibility Score: inf
ROOT
ATOM      1  C   UNL     1       0.595   2.980  -2.921  1.00  0.00     0.184 A 
ATOM      2  C   UNL     1      -0.488   2.378  -2.263  1.00  0.00     0.208 A 
ATOM      3  C   UNL     1      -0.467   0.991  -2.047  1.00  0.00     0.238 A 
ATOM      4  O   UNL     1      -1.416   0.464  -1.409  1.00  0.00    -0.285 OA
ATOM      5  C   UNL     1       0.629   0.223  -2.508  1.00  0.00     0.111 A 
ATOM      6  C   UNL     1       0.738  -1.195  -2.381  1.00  0.00     0.134 A 
ATOM      7  C   UNL     1       1.925  -1.834  -2.758  1.00  0.00     0.093 A 
ATOM      8  C   UNL     1       2.984  -1.114  -3.317  1.00  0.00     0.123 A 
ATOM      9  C   UNL     1       2.866   0.261  -3.500  1.00  0.00     0.094 A 
ATOM     10  C   UNL     1       1.707   0.933  -3.101  1.00  0.00     0.146 A 
ATOM     11  O   UNL     1       1.640   2.246  -3.284  1.00  0.00    -0.451 OA
ENDROOT
BRANCH   1  12
ATOM     12  C   UNL     1       0.629   4.432  -3.193  1.00  0.00     0.063 A 
ATOM     13  C   UNL     1       0.391   6.254  -4.786  1.00  0.00     0.047 A 
ATOM     14  C   UNL     1       0.373   4.887  -4.497  1.00  0.00     0.020 A 
ATOM     15  C   UNL     1       0.650   7.183  -3.776  1.00  0.00     0.119 A 
ATOM     16  C   UNL     1       0.883   6.741  -2.467  1.00  0.00     0.093 A 
ATOM     17  C   UNL     1       0.861   5.371  -2.166  1.00  0.00     0.130 A 
BRANCH  15  18
ATOM     18  O   UNL     1       0.669   8.543  -4.080  1.00  0.00    -0.508 OA
ATOM     19  H   UNL     1       0.172   9.219  -3.514  1.00  0.00     0.293 HD
ENDBRANCH  15  18
BRANCH  17  20
ATOM     20  O   UNL     1       1.047   4.946  -0.850  1.00  0.00    -0.507 OA
ATOM     21  H   UNL     1       0.448   4.247  -0.428  1.00  0.00     0.293 HD
ENDBRANCH  17  20
ENDBRANCH   1  12
BRANCH   2  22
ATOM     22  O   UNL     1      -1.549   3.161  -1.801  1.00  0.00    -0.502 OA
ATOM     23  H   UNL     1      -2.464   2.775  -1.604  1.00  0.00     0.293 HD
ENDBRANCH   2  22
BRANCH   6  24
ATOM     24  O   UNL     1      -0.295  -2.017  -1.920  1.00  0.00    -0.507 OA
ATOM     25  H   UNL     1      -1.013  -1.730  -1.273  1.00  0.00     0.293 HD
ENDBRANCH   6  24
BRANCH   8  26
ATOM     26  O   UNL     1       4.156  -1.760  -3.703  1.00  0.00    -0.508 OA
ATOM     27  H   UNL     1       4.185  -2.367  -4.515  1.00  0.00     0.293 HD
ENDBRANCH   8  26
TORSDOF 6
ENDMDL
MODEL 4
REMARK VINA RESULT:    -6.248      2.188      4.116
REMARK INTER + INTRA:          -7.756
REMARK INTER:                  -7.344
REMARK INTRA:                  -0.412
REMARK UNBOUND:                -0.230
REMARK SMILES O=c1c(O)c(-c2ccc(O)cc2O)oc2cc(O)cc(O)c12
REMARK SMILES IDX 5 1 3 2 2 3 1 4 22 5 20 6 19 7 17 8 16 9 15 10 14 11 6 12
REMARK SMILES IDX 8 13 7 14 9 15 11 16 12 17 10 18 13 20 4 22 21 24 18 26
REMARK H PARENT 10 19 13 21 4 23 21 25 18 27
REMARK Flexibility Score: inf
ROOT
ATOM      1  C   UNL     1       0.666  -0.121  -2.694  1.00  0.00     0.184 A 
ATOM      2  C   UNL     1      -0.020  -1.266  -2.262  1.00  0.00     0.208 A 
ATOM      3  C   UNL     1       0.641  -2.504  -2.284  1.00  0.00     0.238 A 
ATOM      4  O   UNL     1       0.040  -3.520  -1.845  1.00  0.00    -0.285 OA
ATOM      5  C   UNL     1       1.975  -2.582  -2.753  1.00  0.00     0.111 A 
ATOM      6  C   UNL     1       2.730  -3.789  -2.858  1.00  0.00     0.134 A 
ATOM      7  C   UNL     1       4.083  -3.730  -3.212  1.00  0.00     0.093 A 
ATOM      8  C   UNL     1       4.692  -2.513  -3.529  1.00  0.00     0.123 A 
ATOM      9  C   UNL     1       3.949  -1.336  -3.488  1.00  0.00     0.094 A 
ATOM     10  C   UNL     1       2.606  -1.358  -3.102  1.00  0.00     0.146 A 
ATOM     11  O   UNL     1       1.937  -0.211  -3.066  1.00  0.00    -0.451 OA
ENDROOT
BRANCH   1  12
ATOM     12  C   UNL     1       0.023   1.209  -2.711  1.00  0.00     0.063 A 
ATOM     13  C   UNL     1      -0.460   3.298  -1.565  1.00  0.00     0.047 A 
ATOM     14  C   UNL     1       0.131   2.032  -1.579  1.00  0.00     0.020 A 
ATOM     15  C   UNL     1      -1.154   3.764  -2.685  1.00  0.00     0.119 A 
ATOM     16  C   UNL     1      -1.247   2.960  -3.828  1.00  0.00     0.093 A 
ATOM     17  C   UNL     1      -0.652   1.690  -3.853  1.00  0.00     0.130 A 
BRANCH  15  18
ATOM     18  O   UNL     1      -1.742   5.027  -2.654  1.00  0.00    -0.508 OA
ATOM     19  H   UNL     1      -2.622   5.212  -3.121  1.00  0.00     0.293 HD
ENDBRANCH  15  18
BRANCH  17  20
ATOM     20  O   UNL     1      -0.711   0.919  -5.014  1.00  0.00    -0.507 OA
ATOM     21  H   UNL     1      -1.109   1.279  -5.873  1.00  0.00     0.293 HD
ENDBRANCH  17  20
ENDBRANCH   1  12
BRANCH   2  22
ATOM     22  O   UNL     1      -1.330  -1.159  -1.787  1.00  0.00    -0.502 OA
ATOM     23  H   UNL     1      -2.088  -1.723  -2.151  1.00  0.00     0.293 HD
ENDBRANCH   2  22
BRANCH   6  24
ATOM     24  O   UNL     1       2.194  -5.064  -2.652  1.00  0.00    -0.507 OA
ATOM     25  H   UNL     1       2.378  -5.866  -3.235  1.00  0.00     0.293 HD
ENDBRANCH   6  24
BRANCH   8  26
ATOM     26  O   UNL     1       6.035  -2.465  -3.896  1.00  0.00    -0.508 OA
ATOM     27  H   UNL     1       6.318  -2.446  -4.870  1.00  0.00     0.293 HD
ENDBRANCH   8  26
TORSDOF 6
ENDMDL
MODEL 5
REMARK VINA RESULT:    -5.986      2.178      3.172
REMARK INTER + INTRA:          -7.441
REMARK INTER:                  -7.019
REMARK INTRA:                  -0.422
REMARK UNBOUND:                -0.230
REMARK SMILES O=c1c(O)c(-c2ccc(O)cc2O)oc2cc(O)cc(O)c12
REMARK SMILES IDX 5 1 3 2 2 3 1 4 22 5 20 6 19 7 17 8 16 9 15 10 14 11 6 12
REMARK SMILES IDX 8 13 7 14 9 15 11 16 12 17 10 18 13 20 4 22 21 24 18 26
REMARK H PARENT 10 19 13 21 4 23 21 25 18 27
REMARK Flexibility Score: inf
ROOT
ATOM      1  C   UNL     1       1.270  -0.045  -2.821  1.00  0.00     0.184 A 
ATOM      2  C   UNL     1       2.571  -0.106  -3.345  1.00  0.00     0.208 A 
ATOM      3  C   UNL     1       3.223  -1.348  -3.405  1.00  0.00     0.238 A 
ATOM      4  O   UNL     1       4.368  -1.405  -3.925  1.00  0.00    -0.285 OA
ATOM      5  C   UNL     1       2.571  -2.509  -2.925  1.00  0.00     0.111 A 
ATOM      6  C   UNL     1       3.151  -3.813  -2.900  1.00  0.00     0.134 A 
ATOM      7  C   UNL     1       2.367  -4.911  -2.523  1.00  0.00     0.093 A 
ATOM      8  C   UNL     1       1.044  -4.743  -2.110  1.00  0.00     0.123 A 
ATOM      9  C   UNL     1       0.486  -3.467  -2.074  1.00  0.00     0.094 A 
ATOM     10  C   UNL     1       1.231  -2.356  -2.478  1.00  0.00     0.146 A 
ATOM     11  O   UNL     1       0.658  -1.159  -2.440  1.00  0.00    -0.451 OA
ENDROOT
BRANCH   1  12
ATOM     12  C   UNL     1       0.534   1.232  -2.714  1.00  0.00     0.063 A 
ATOM     13  C   UNL     1       0.249   3.380  -1.611  1.00  0.00     0.047 A 
ATOM     14  C   UNL     1       0.919   2.160  -1.734  1.00  0.00     0.020 A 
ATOM     15  C   UNL     1      -0.805   3.693  -2.474  1.00  0.00     0.119 A 
ATOM     16  C   UNL     1      -1.181   2.784  -3.471  1.00  0.00     0.093 A 
ATOM     17  C   UNL     1      -0.510   1.560  -3.605  1.00  0.00     0.130 A 
BRANCH  15  18
ATOM     18  O   UNL     1      -1.467   4.911  -2.336  1.00  0.00    -0.508 OA
ATOM     19  H   UNL     1      -2.045   5.287  -3.079  1.00  0.00     0.293 HD
ENDBRANCH  15  18
BRANCH  17  20
ATOM     20  O   UNL     1      -0.862   0.684  -4.632  1.00  0.00    -0.507 OA
ATOM     21  H   UNL     1      -1.053   1.014  -5.571  1.00  0.00     0.293 HD
ENDBRANCH  17  20
ENDBRANCH   1  12
BRANCH   2  22
ATOM     22  O   UNL     1       3.184   1.053  -3.828  1.00  0.00    -0.502 OA
ATOM     23  H   UNL     1       3.356   1.205  -4.814  1.00  0.00     0.293 HD
ENDBRANCH   2  22
BRANCH   6  24
ATOM     24  O   UNL     1       4.489  -4.077  -3.206  1.00  0.00    -0.507 OA
ATOM     25  H   UNL     1       5.110  -4.634  -2.638  1.00  0.00     0.293 HD
ENDBRANCH   6  24
BRANCH   8  26
ATOM     26  O   UNL     1       0.276  -5.839  -1.722  1.00  0.00    -0.508 OA
ATOM     27  H   UNL     1      -0.024  -5.964  -0.761  1.00  0.00     0.293 HD
ENDBRANCH   8  26
TORSDOF 6
ENDMDL
MODEL 6
REMARK VINA RESULT:    -5.822      3.563      8.244
REMARK INTER + INTRA:          -7.244
REMARK INTER:                  -6.909
REMARK INTRA:                  -0.335
REMARK UNBOUND:                -0.230
REMARK SMILES O=c1c(O)c(-c2ccc(O)cc2O)oc2cc(O)cc(O)c12
REMARK SMILES IDX 5 1 3 2 2 3 1 4 22 5 20 6 19 7 17 8 16 9 15 10 14 11 6 12
REMARK SMILES IDX 8 13 7 14 9 15 11 16 12 17 10 18 13 20 4 22 21 24 18 26
REMARK H PARENT 10 19 13 21 4 23 21 25 18 27
REMARK Flexibility Score: inf
ROOT
ATOM      1  C   UNL     1      -1.616   6.110  -3.034  1.00  0.00     0.184 A 
ATOM      2  C   UNL     1      -0.516   6.809  -2.514  1.00  0.00     0.208 A 
ATOM      3  C   UNL     1      -0.726   8.058  -1.910  1.00  0.00     0.238 A 
ATOM      4  O   UNL     1       0.256   8.656  -1.397  1.00  0.00    -0.285 OA
ATOM      5  C   UNL     1      -2.033   8.600  -1.850  1.00  0.00     0.111 A 
ATOM      6  C   UNL     1      -2.359   9.875  -1.298  1.00  0.00     0.134 A 
ATOM      7  C   UNL     1      -3.702  10.252  -1.174  1.00  0.00     0.093 A 
ATOM      8  C   UNL     1      -4.728   9.428  -1.642  1.00  0.00     0.123 A 
ATOM      9  C   UNL     1      -4.418   8.207  -2.237  1.00  0.00     0.094 A 
ATOM     10  C   UNL     1      -3.089   7.786  -2.341  1.00  0.00     0.146 A 
ATOM     11  O   UNL     1      -2.838   6.610  -2.905  1.00  0.00    -0.451 OA
ENDROOT
BRANCH   1  12
ATOM     12  C   UNL     1      -1.460   4.798  -3.696  1.00  0.00     0.063 A 
ATOM     13  C   UNL     1      -1.447   3.495  -5.748  1.00  0.00     0.047 A 
ATOM     14  C   UNL     1      -1.594   4.719  -5.091  1.00  0.00     0.020 A 
ATOM     15  C   UNL     1      -1.151   2.338  -5.023  1.00  0.00     0.119 A 
ATOM     16  C   UNL     1      -0.992   2.411  -3.633  1.00  0.00     0.093 A 
ATOM     17  C   UNL     1      -1.133   3.636  -2.966  1.00  0.00     0.130 A 
BRANCH  15  18
ATOM     18  O   UNL     1      -1.012   1.124  -5.692  1.00  0.00    -0.508 OA
ATOM     19  H   UNL     1      -0.125   0.635  -5.723  1.00  0.00     0.293 HD
ENDBRANCH  15  18
BRANCH  17  20
ATOM     20  O   UNL     1      -0.925   3.704  -1.588  1.00  0.00    -0.507 OA
ATOM     21  H   UNL     1      -0.428   2.976  -1.088  1.00  0.00     0.293 HD
ENDBRANCH  17  20
ENDBRANCH   1  12
BRANCH   2  22
ATOM     22  O   UNL     1       0.762   6.244  -2.570  1.00  0.00    -0.502 OA
ATOM     23  H   UNL     1       1.205   5.822  -1.763  1.00  0.00     0.293 HD
ENDBRANCH   2  22
BRANCH   6  24
ATOM     24  O   UNL     1      -1.407  10.812  -0.885  1.00  0.00    -0.507 OA
ATOM     25  H   UNL     1      -1.565  11.807  -0.830  1.00  0.00     0.293 HD
ENDBRANCH   6  24
BRANCH   8  26
ATOM     26  O   UNL     1      -6.060   9.818  -1.530  1.00  0.00    -0.508 OA
ATOM     27  H   UNL     1      -6.486  10.450  -2.198  1.00  0.00     0.293 HD
ENDBRANCH   8  26
TORSDOF 6
ENDMDL
MODEL 7
REMARK VINA RESULT:    -5.778      1.683      6.643
REMARK INTER + INTRA:          -7.190
REMARK INTER:                  -6.779
REMARK INTRA:                  -0.411
REMARK UNBOUND:                -0.230
REMARK SMILES O=c1c(O)c(-c2ccc(O)cc2O)oc2cc(O)cc(O)c12
REMARK SMILES IDX 5 1 3 2 2 3 1 4 22 5 20 6 19 7 17 8 16 9 15 10 14 11 6 12
REMARK SMILES IDX 8 13 7 14 9 15 11 16 12 17 10 18 13 20 4 22 21 24 18 26
REMARK H PARENT 10 19 13 21 4 23 21 25 18 27
REMARK Flexibility Score: inf
ROOT
ATOM      1  C   UNL     1       0.122   0.801  -3.553  1.00  0.00     0.184 A 
ATOM      2  C   UNL     1      -0.653   0.966  -4.711  1.00  0.00     0.208 A 
ATOM      3  C   UNL     1      -1.127   2.246  -5.037  1.00  0.00     0.238 A 
ATOM      4  O   UNL     1      -1.776   2.398  -6.105  1.00  0.00    -0.285 OA
ATOM      5  C   UNL     1      -0.832   3.342  -4.191  1.00  0.00     0.111 A 
ATOM      6  C   UNL     1      -1.293   4.677  -4.401  1.00  0.00     0.134 A 
ATOM      7  C   UNL     1      -0.833   5.706  -3.570  1.00  0.00     0.093 A 
ATOM      8  C   UNL     1       0.020   5.439  -2.497  1.00  0.00     0.123 A 
ATOM      9  C   UNL     1       0.429   4.131  -2.247  1.00  0.00     0.094 A 
ATOM     10  C   UNL     1       0.016   3.088  -3.081  1.00  0.00     0.146 A 
ATOM     11  O   UNL     1       0.438   1.857  -2.813  1.00  0.00    -0.451 OA
ENDROOT
BRANCH   1  12
ATOM     12  C   UNL     1       0.637  -0.522  -3.144  1.00  0.00     0.063 A 
ATOM     13  C   UNL     1       2.422  -2.171  -3.225  1.00  0.00     0.047 A 
ATOM     14  C   UNL     1       1.902  -0.929  -3.598  1.00  0.00     0.020 A 
ATOM     15  C   UNL     1       1.692  -3.016  -2.384  1.00  0.00     0.119 A 
ATOM     16  C   UNL     1       0.439  -2.608  -1.907  1.00  0.00     0.093 A 
ATOM     17  C   UNL     1      -0.087  -1.361  -2.272  1.00  0.00     0.130 A 
BRANCH  15  18
ATOM     18  O   UNL     1       2.221  -4.254  -2.025  1.00  0.00    -0.508 OA
ATOM     19  H   UNL     1       3.066  -4.613  -2.454  1.00  0.00     0.293 HD
ENDBRANCH  15  18
BRANCH  17  20
ATOM     20  O   UNL     1      -1.314  -0.946  -1.751  1.00  0.00    -0.507 OA
ATOM     21  H   UNL     1      -2.138  -0.860  -2.335  1.00  0.00     0.293 HD
ENDBRANCH  17  20
ENDBRANCH   1  12
BRANCH   2  22
ATOM     22  O   UNL     1      -0.914  -0.130  -5.539  1.00  0.00    -0.502 OA
ATOM     23  H   UNL     1      -1.831  -0.553  -5.606  1.00  0.00     0.293 HD
ENDBRANCH   2  22
BRANCH   6  24
ATOM     24  O   UNL     1      -2.217   5.036  -5.387  1.00  0.00    -0.507 OA
ATOM     25  H   UNL     1      -2.033   5.026  -6.379  1.00  0.00     0.293 HD
ENDBRANCH   6  24
BRANCH   8  26
ATOM     26  O   UNL     1       0.461   6.466  -1.667  1.00  0.00    -0.508 OA
ATOM     27  H   UNL     1      -0.128   6.845  -0.933  1.00  0.00     0.293 HD
ENDBRANCH   8  26
TORSDOF 6
ENDMDL
MODEL 8
REMARK VINA RESULT:    -5.763      2.499      7.235
REMARK INTER + INTRA:          -7.173
REMARK INTER:                  -6.836
REMARK INTRA:                  -0.336
REMARK UNBOUND:                -0.230
REMARK SMILES O=c1c(O)c(-c2ccc(O)cc2O)oc2cc(O)cc(O)c12
REMARK SMILES IDX 5 1 3 2 2 3 1 4 22 5 20 6 19 7 17 8 16 9 15 10 14 11 6 12
REMARK SMILES IDX 8 13 7 14 9 15 11 16 12 17 10 18 13 20 4 22 21 24 18 26
REMARK H PARENT 10 19 13 21 4 23 21 25 18 27
REMARK Flexibility Score: inf
ROOT
ATOM      1  C   UNL     1      -0.589   4.112  -3.255  1.00  0.00     0.184 A 
ATOM      2  C   UNL     1       0.557   4.689  -3.821  1.00  0.00     0.208 A 
ATOM      3  C   UNL     1       0.606   6.082  -3.990  1.00  0.00     0.238 A 
ATOM      4  O   UNL     1       1.658   6.600  -4.449  1.00  0.00    -0.285 OA
ATOM      5  C   UNL     1      -0.501   6.877  -3.605  1.00  0.00     0.111 A 
ATOM      6  C   UNL     1      -0.579   8.293  -3.767  1.00  0.00     0.134 A 
ATOM      7  C   UNL     1      -1.668   8.991  -3.231  1.00  0.00     0.093 A 
ATOM      8  C   UNL     1      -2.714   8.317  -2.597  1.00  0.00     0.123 A 
ATOM      9  C   UNL     1      -2.677   6.929  -2.486  1.00  0.00     0.094 A 
ATOM     10  C   UNL     1      -1.585   6.207  -2.978  1.00  0.00     0.146 A 
ATOM     11  O   UNL     1      -1.585   4.886  -2.841  1.00  0.00    -0.451 OA
ENDROOT
BRANCH   1  12
ATOM     12  C   UNL     1      -0.710   2.652  -3.064  1.00  0.00     0.063 A 
ATOM     13  C   UNL     1      -0.738   0.424  -4.038  1.00  0.00     0.047 A 
ATOM     14  C   UNL     1      -0.634   1.810  -4.185  1.00  0.00     0.020 A 
ATOM     15  C   UNL     1      -0.906  -0.138  -2.770  1.00  0.00     0.119 A 
ATOM     16  C   UNL     1      -0.960   0.692  -1.643  1.00  0.00     0.093 A 
ATOM     17  C   UNL     1      -0.851   2.083  -1.780  1.00  0.00     0.130 A 
BRANCH  15  18
ATOM     18  O   UNL     1      -1.014  -1.522  -2.640  1.00  0.00    -0.508 OA
ATOM     19  H   UNL     1      -0.499  -2.028  -1.929  1.00  0.00     0.293 HD
ENDBRANCH  15  18
BRANCH  17  20
ATOM     20  O   UNL     1      -0.857   2.895  -0.646  1.00  0.00    -0.507 OA
ATOM     21  H   UNL     1      -0.636   3.883  -0.697  1.00  0.00     0.293 HD
ENDBRANCH  17  20
ENDBRANCH   1  12
BRANCH   2  22
ATOM     22  O   UNL     1       1.643   3.884  -4.176  1.00  0.00    -0.502 OA
ATOM     23  H   UNL     1       1.576   3.162  -4.883  1.00  0.00     0.293 HD
ENDBRANCH   2  22
BRANCH   6  24
ATOM     24  O   UNL     1       0.367   9.050  -4.464  1.00  0.00    -0.507 OA
ATOM     25  H   UNL     1       1.320   8.766  -4.633  1.00  0.00     0.293 HD
ENDBRANCH   6  24
BRANCH   8  26
ATOM     26  O   UNL     1      -3.801   9.018  -2.080  1.00  0.00    -0.508 OA
ATOM     27  H   UNL     1      -4.534   8.551  -1.557  1.00  0.00     0.293 HD
ENDBRANCH   8  26
TORSDOF 6
ENDMDL
MODEL 9
REMARK VINA RESULT:    -5.714      1.652      2.173
REMARK INTER + INTRA:          -7.113
REMARK INTER:                  -6.709
REMARK INTRA:                  -0.403
REMARK UNBOUND:                -0.230
REMARK SMILES O=c1c(O)c(-c2ccc(O)cc2O)oc2cc(O)cc(O)c12
REMARK SMILES IDX 5 1 3 2 2 3 1 4 22 5 20 6 19 7 17 8 16 9 15 10 14 11 6 12
REMARK SMILES IDX 8 13 7 14 9 15 11 16 12 17 10 18 13 20 4 22 21 24 18 26
REMARK H PARENT 10 19 13 21 4 23 21 25 18 27
REMARK Flexibility Score: inf
ROOT
ATOM      1  C   UNL     1      -0.217   3.445  -3.147  1.00  0.00     0.184 A 
ATOM      2  C   UNL     1       0.849   2.990  -3.938  1.00  0.00     0.208 A 
ATOM      3  C   UNL     1       1.216   1.637  -3.872  1.00  0.00     0.238 A 
ATOM      4  O   UNL     1       2.138   1.223  -4.623  1.00  0.00    -0.285 OA
ATOM      5  C   UNL     1       0.522   0.760  -3.003  1.00  0.00     0.111 A 
ATOM      6  C   UNL     1       0.834  -0.621  -2.825  1.00  0.00     0.134 A 
ATOM      7  C   UNL     1      -0.001  -1.422  -2.037  1.00  0.00     0.093 A 
ATOM      8  C   UNL     1      -1.100  -0.878  -1.369  1.00  0.00     0.123 A 
ATOM      9  C   UNL     1      -1.379   0.481  -1.489  1.00  0.00     0.094 A 
ATOM     10  C   UNL     1      -0.586   1.299  -2.297  1.00  0.00     0.146 A 
ATOM     11  O   UNL     1      -0.893   2.588  -2.392  1.00  0.00    -0.451 OA
ENDROOT
BRANCH   1  12
ATOM     12  C   UNL     1      -0.644   4.859  -3.158  1.00  0.00     0.063 A 
ATOM     13  C   UNL     1      -2.173   6.562  -3.980  1.00  0.00     0.047 A 
ATOM     14  C   UNL     1      -1.739   5.234  -3.952  1.00  0.00     0.020 A 
ATOM     15  C   UNL     1      -1.527   7.529  -3.205  1.00  0.00     0.119 A 
ATOM     16  C   UNL     1      -0.448   7.161  -2.391  1.00  0.00     0.093 A 
ATOM     17  C   UNL     1      -0.010   5.829  -2.352  1.00  0.00     0.130 A 
BRANCH  15  18
ATOM     18  O   UNL     1      -1.968   8.850  -3.246  1.00  0.00    -0.508 OA
ATOM     19  H   UNL     1      -2.719   9.139  -3.863  1.00  0.00     0.293 HD
ENDBRANCH  15  18
BRANCH  17  20
ATOM     20  O   UNL     1       1.034   5.466  -1.501  1.00  0.00    -0.507 OA
ATOM     21  H   UNL     1       1.628   4.670  -1.698  1.00  0.00     0.293 HD
ENDBRANCH  17  20
ENDBRANCH   1  12
BRANCH   2  22
ATOM     22  O   UNL     1       1.506   3.872  -4.801  1.00  0.00    -0.502 OA
ATOM     23  H   UNL     1       1.057   4.698  -5.178  1.00  0.00     0.293 HD
ENDBRANCH   2  22
BRANCH   6  24
ATOM     24  O   UNL     1       1.960  -1.243  -3.374  1.00  0.00    -0.507 OA
ATOM     25  H   UNL     1       2.043  -1.537  -4.335  1.00  0.00     0.293 HD
ENDBRANCH   6  24
BRANCH   8  26
ATOM     26  O   UNL     1      -1.917  -1.680  -0.575  1.00  0.00    -0.508 OA
ATOM     27  H   UNL     1      -2.015  -2.674  -0.747  1.00  0.00     0.293 HD
ENDBRANCH   8  26
TORSDOF 6
ENDMDL
