MODEL 1
REMARK VINA RESULT:    -8.283      0.000      0.000
REMARK INTER + INTRA:         -10.206
REMARK INTER:                  -9.978
REMARK INTRA:                  -0.228
REMARK UNBOUND:                -0.228
REMARK SMILES O=c1c(O)c(-c2ccc(O)c(O)c2)oc2cc(O)cc(O)c12
REMARK SMILES IDX 5 1 3 2 2 3 1 4 22 5 20 6 19 7 17 8 16 9 15 10 14 11 6 12
REMARK SMILES IDX 7 13 8 14 9 15 13 16 11 17 10 18 12 20 4 22 21 24 18 26
REMARK H PARENT 10 19 12 21 4 23 21 25 18 27
REMARK Flexibility Score: inf
ROOT
ATOM      1  C   UNL     1     -48.782  26.027 -15.436  1.00  0.00     0.180 A 
ATOM      2  C   UNL     1     -48.194  25.933 -16.713  1.00  0.00     0.208 A 
ATOM      3  C   UNL     1     -46.925  26.498 -16.918  1.00  0.00     0.238 A 
ATOM      4  O   UNL     1     -46.384  26.410 -18.054  1.00  0.00    -0.285 OA
ATOM      5  C   UNL     1     -46.278  27.163 -15.857  1.00  0.00     0.111 A 
ATOM      6  C   UNL     1     -45.001  27.762 -15.983  1.00  0.00     0.134 A 
ATOM      7  C   UNL     1     -44.427  28.413 -14.881  1.00  0.00     0.093 A 
ATOM      8  C   UNL     1     -45.104  28.478 -13.658  1.00  0.00     0.123 A 
ATOM      9  C   UNL     1     -46.364  27.888 -13.529  1.00  0.00     0.094 A 
ATOM     10  C   UNL     1     -46.951  27.232 -14.615  1.00  0.00     0.146 A 
ATOM     11  O   UNL     1     -48.148  26.674 -14.463  1.00  0.00    -0.452 OA
ENDROOT
BRANCH   1  12
ATOM     12  C   UNL     1     -50.107  25.441 -15.136  1.00  0.00     0.025 A 
ATOM     13  C   UNL     1     -51.180  26.287 -14.812  1.00  0.00     0.016 A 
ATOM     14  C   UNL     1     -52.434  25.753 -14.504  1.00  0.00     0.051 A 
ATOM     15  C   UNL     1     -52.632  24.369 -14.500  1.00  0.00     0.157 A 
ATOM     16  C   UNL     1     -50.303  24.048 -15.110  1.00  0.00     0.062 A 
ATOM     17  C   UNL     1     -51.561  23.511 -14.800  1.00  0.00     0.158 A 
BRANCH  15  18
ATOM     18  O   UNL     1     -53.896  23.867 -14.192  1.00  0.00    -0.504 OA
ATOM     19  H   UNL     1     -54.524  24.344 -13.555  1.00  0.00     0.293 HD
ENDBRANCH  15  18
BRANCH  17  20
ATOM     20  O   UNL     1     -51.748  22.130 -14.783  1.00  0.00    -0.504 OA
ATOM     21  H   UNL     1     -52.166  21.640 -15.565  1.00  0.00     0.293 HD
ENDBRANCH  17  20
ENDBRANCH   1  12
BRANCH   2  22
ATOM     22  O   UNL     1     -48.878  25.312 -17.761  1.00  0.00    -0.502 OA
ATOM     23  H   UNL     1     -49.699  25.720 -18.190  1.00  0.00     0.293 HD
ENDBRANCH   2  22
BRANCH   6  24
ATOM     24  O   UNL     1     -44.302  27.716 -17.189  1.00  0.00    -0.507 OA
ATOM     25  H   UNL     1     -43.514  28.327 -17.372  1.00  0.00     0.293 HD
ENDBRANCH   6  24
BRANCH   8  26
ATOM     26  O   UNL     1     -44.535  29.125 -12.564  1.00  0.00    -0.508 OA
ATOM     27  H   UNL     1     -43.851  29.863 -12.682  1.00  0.00     0.293 HD
ENDBRANCH   8  26
TORSDOF 6
ENDMDL
MODEL 2
REMARK VINA RESULT:    -8.037      2.255      6.830
REMARK INTER + INTRA:          -9.909
REMARK INTER:                 -10.059
REMARK INTRA:                   0.150
REMARK UNBOUND:                -0.228
REMARK SMILES O=c1c(O)c(-c2ccc(O)c(O)c2)oc2cc(O)cc(O)c12
REMARK SMILES IDX 5 1 3 2 2 3 1 4 22 5 20 6 19 7 17 8 16 9 15 10 14 11 6 12
REMARK SMILES IDX 7 13 8 14 9 15 13 16 11 17 10 18 12 20 4 22 21 24 18 26
REMARK H PARENT 10 19 12 21 4 23 21 25 18 27
REMARK Flexibility Score: inf
ROOT
ATOM      1  C   UNL     1     -48.353  26.386 -16.584  1.00  0.00     0.180 A 
ATOM      2  C   UNL     1     -49.109  27.569 -16.473  1.00  0.00     0.208 A 
ATOM      3  C   UNL     1     -50.364  27.516 -15.848  1.00  0.00     0.238 A 
ATOM      4  O   UNL     1     -51.046  28.572 -15.734  1.00  0.00    -0.285 OA
ATOM      5  C   UNL     1     -50.851  26.285 -15.364  1.00  0.00     0.111 A 
ATOM      6  C   UNL     1     -52.107  26.145 -14.725  1.00  0.00     0.134 A 
ATOM      7  C   UNL     1     -52.523  24.883 -14.278  1.00  0.00     0.093 A 
ATOM      8  C   UNL     1     -51.710  23.758 -14.458  1.00  0.00     0.123 A 
ATOM      9  C   UNL     1     -50.470  23.891 -15.087  1.00  0.00     0.094 A 
ATOM     10  C   UNL     1     -50.037  25.141 -15.538  1.00  0.00     0.146 A 
ATOM     11  O   UNL     1     -48.850  25.240 -16.127  1.00  0.00    -0.452 OA
ENDROOT
BRANCH   1  12
ATOM     12  C   UNL     1     -47.013  26.364 -17.212  1.00  0.00     0.025 A 
ATOM     13  C   UNL     1     -46.114  27.413 -16.958  1.00  0.00     0.016 A 
ATOM     14  C   UNL     1     -44.853  27.423 -17.557  1.00  0.00     0.051 A 
ATOM     15  C   UNL     1     -44.474  26.397 -18.428  1.00  0.00     0.157 A 
ATOM     16  C   UNL     1     -46.639  25.344 -18.105  1.00  0.00     0.062 A 
ATOM     17  C   UNL     1     -45.372  25.354 -18.708  1.00  0.00     0.158 A 
BRANCH  15  18
ATOM     18  O   UNL     1     -43.206  26.433 -19.008  1.00  0.00    -0.504 OA
ATOM     19  H   UNL     1     -42.690  27.299 -19.119  1.00  0.00     0.293 HD
ENDBRANCH  15  18
BRANCH  17  20
ATOM     20  O   UNL     1     -45.007  24.335 -19.586  1.00  0.00    -0.504 OA
ATOM     21  H   UNL     1     -45.003  24.475 -20.590  1.00  0.00     0.293 HD
ENDBRANCH  17  20
ENDBRANCH   1  12
BRANCH   2  22
ATOM     22  O   UNL     1     -48.627  28.768 -17.006  1.00  0.00    -0.502 OA
ATOM     23  H   UNL     1     -48.083  29.425 -16.460  1.00  0.00     0.293 HD
ENDBRANCH   2  22
BRANCH   6  24
ATOM     24  O   UNL     1     -52.941  27.247 -14.532  1.00  0.00    -0.507 OA
ATOM     25  H   UNL     1     -53.485  27.643 -15.289  1.00  0.00     0.293 HD
ENDBRANCH   6  24
BRANCH   8  26
ATOM     26  O   UNL     1     -52.124  22.504 -14.016  1.00  0.00    -0.508 OA
ATOM     27  H   UNL     1     -52.260  21.733 -14.659  1.00  0.00     0.293 HD
ENDBRANCH   8  26
TORSDOF 6
ENDMDL
MODEL 3
REMARK VINA RESULT:    -7.961      1.524      3.087
REMARK INTER + INTRA:          -9.817
REMARK INTER:                  -9.961
REMARK INTRA:                   0.143
REMARK UNBOUND:                -0.228
REMARK SMILES O=c1c(O)c(-c2ccc(O)c(O)c2)oc2cc(O)cc(O)c12
REMARK SMILES IDX 5 1 3 2 2 3 1 4 22 5 20 6 19 7 17 8 16 9 15 10 14 11 6 12
REMARK SMILES IDX 7 13 8 14 9 15 13 16 11 17 10 18 12 20 4 22 21 24 18 26
REMARK H PARENT 10 19 12 21 4 23 21 25 18 27
REMARK Flexibility Score: inf
ROOT
ATOM      1  C   UNL     1     -48.426  26.328 -15.869  1.00  0.00     0.180 A 
ATOM      2  C   UNL     1     -47.920  27.427 -15.147  1.00  0.00     0.208 A 
ATOM      3  C   UNL     1     -46.716  28.016 -15.564  1.00  0.00     0.238 A 
ATOM      4  O   UNL     1     -46.259  29.007 -14.932  1.00  0.00    -0.285 OA
ATOM      5  C   UNL     1     -46.030  27.488 -16.676  1.00  0.00     0.111 A 
ATOM      6  C   UNL     1     -44.810  28.021 -17.158  1.00  0.00     0.134 A 
ATOM      7  C   UNL     1     -44.183  27.432 -18.267  1.00  0.00     0.093 A 
ATOM      8  C   UNL     1     -44.752  26.323 -18.902  1.00  0.00     0.123 A 
ATOM      9  C   UNL     1     -45.956  25.794 -18.431  1.00  0.00     0.094 A 
ATOM     10  C   UNL     1     -46.596  26.368 -17.328  1.00  0.00     0.146 A 
ATOM     11  O   UNL     1     -47.744  25.848 -16.905  1.00  0.00    -0.452 OA
ENDROOT
BRANCH   1  12
ATOM     12  C   UNL     1     -49.698  25.666 -15.504  1.00  0.00     0.025 A 
ATOM     13  C   UNL     1     -50.796  26.447 -15.111  1.00  0.00     0.016 A 
ATOM     14  C   UNL     1     -52.000  25.842 -14.742  1.00  0.00     0.051 A 
ATOM     15  C   UNL     1     -52.121  24.449 -14.746  1.00  0.00     0.157 A 
ATOM     16  C   UNL     1     -49.815  24.264 -15.486  1.00  0.00     0.062 A 
ATOM     17  C   UNL     1     -51.023  23.654 -15.115  1.00  0.00     0.158 A 
BRANCH  15  18
ATOM     18  O   UNL     1     -53.337  23.874 -14.376  1.00  0.00    -0.504 OA
ATOM     19  H   UNL     1     -53.486  23.478 -13.455  1.00  0.00     0.293 HD
ENDBRANCH  15  18
BRANCH  17  20
ATOM     20  O   UNL     1     -51.133  22.265 -15.107  1.00  0.00    -0.504 OA
ATOM     21  H   UNL     1     -51.516  21.767 -14.312  1.00  0.00     0.293 HD
ENDBRANCH  17  20
ENDBRANCH   1  12
BRANCH   2  22
ATOM     22  O   UNL     1     -48.594  27.900 -14.018  1.00  0.00    -0.502 OA
ATOM     23  H   UNL     1     -48.181  27.884 -13.093  1.00  0.00     0.293 HD
ENDBRANCH   2  22
BRANCH   6  24
ATOM     24  O   UNL     1     -44.217  29.125 -16.546  1.00  0.00    -0.507 OA
ATOM     25  H   UNL     1     -44.758  29.938 -16.272  1.00  0.00     0.293 HD
ENDBRANCH   6  24
BRANCH   8  26
ATOM     26  O   UNL     1     -44.130  25.738 -20.002  1.00  0.00    -0.508 OA
ATOM     27  H   UNL     1     -44.193  24.742 -20.179  1.00  0.00     0.293 HD
ENDBRANCH   8  26
TORSDOF 6
ENDMDL
MODEL 4
REMARK VINA RESULT:    -7.711      1.641      3.424
REMARK INTER + INTRA:          -9.516
REMARK INTER:                  -9.206
REMARK INTRA:                  -0.310
REMARK UNBOUND:                -0.228
REMARK SMILES O=c1c(O)c(-c2ccc(O)c(O)c2)oc2cc(O)cc(O)c12
REMARK SMILES IDX 5 1 3 2 2 3 1 4 22 5 20 6 19 7 17 8 16 9 15 10 14 11 6 12
REMARK SMILES IDX 7 13 8 14 9 15 13 16 11 17 10 18 12 20 4 22 21 24 18 26
REMARK H PARENT 10 19 12 21 4 23 21 25 18 27
REMARK Flexibility Score: inf
ROOT
ATOM      1  C   UNL     1     -47.737  26.662 -15.269  1.00  0.00     0.180 A 
ATOM      2  C   UNL     1     -46.995  27.174 -14.187  1.00  0.00     0.208 A 
ATOM      3  C   UNL     1     -45.776  27.819 -14.446  1.00  0.00     0.238 A 
ATOM      4  O   UNL     1     -45.108  28.290 -13.486  1.00  0.00    -0.285 OA
ATOM      5  C   UNL     1     -45.310  27.924 -15.773  1.00  0.00     0.111 A 
ATOM      6  C   UNL     1     -44.090  28.555 -16.118  1.00  0.00     0.134 A 
ATOM      7  C   UNL     1     -43.692  28.611 -17.462  1.00  0.00     0.093 A 
ATOM      8  C   UNL     1     -44.488  28.048 -18.466  1.00  0.00     0.123 A 
ATOM      9  C   UNL     1     -45.692  27.424 -18.130  1.00  0.00     0.094 A 
ATOM     10  C   UNL     1     -46.107  27.360 -16.797  1.00  0.00     0.146 A 
ATOM     11  O   UNL     1     -47.260  26.767 -16.506  1.00  0.00    -0.452 OA
ENDROOT
BRANCH   1  12
ATOM     12  C   UNL     1     -49.040  25.986 -15.080  1.00  0.00     0.025 A 
ATOM     13  C   UNL     1     -49.110  24.586 -15.156  1.00  0.00     0.016 A 
ATOM     14  C   UNL     1     -50.333  23.929 -15.001  1.00  0.00     0.051 A 
ATOM     15  C   UNL     1     -51.505  24.659 -14.783  1.00  0.00     0.157 A 
ATOM     16  C   UNL     1     -50.225  26.720 -14.882  1.00  0.00     0.062 A 
ATOM     17  C   UNL     1     -51.453  26.061 -14.728  1.00  0.00     0.158 A 
BRANCH  15  18
ATOM     18  O   UNL     1     -52.711  23.974 -14.629  1.00  0.00    -0.504 OA
ATOM     19  H   UNL     1     -52.825  23.232 -13.949  1.00  0.00     0.293 HD
ENDBRANCH  15  18
BRANCH  17  20
ATOM     20  O   UNL     1     -52.621  26.795 -14.526  1.00  0.00    -0.504 OA
ATOM     21  H   UNL     1     -53.399  26.422 -13.995  1.00  0.00     0.293 HD
ENDBRANCH  17  20
ENDBRANCH   1  12
BRANCH   2  22
ATOM     22  O   UNL     1     -47.454  27.013 -12.877  1.00  0.00    -0.502 OA
ATOM     23  H   UNL     1     -47.644  27.799 -12.268  1.00  0.00     0.293 HD
ENDBRANCH   2  22
BRANCH   6  24
ATOM     24  O   UNL     1     -43.275  29.124 -15.140  1.00  0.00    -0.507 OA
ATOM     25  H   UNL     1     -43.261  30.124 -14.972  1.00  0.00     0.293 HD
ENDBRANCH   6  24
BRANCH   8  26
ATOM     26  O   UNL     1     -44.093  28.102 -19.800  1.00  0.00    -0.508 OA
ATOM     27  H   UNL     1     -44.372  28.865 -20.405  1.00  0.00     0.293 HD
ENDBRANCH   8  26
TORSDOF 6
ENDMDL
MODEL 5
REMARK VINA RESULT:    -7.340      1.981      6.755
REMARK INTER + INTRA:          -9.069
REMARK INTER:                  -8.767
REMARK INTRA:                  -0.302
REMARK UNBOUND:                -0.228
REMARK SMILES O=c1c(O)c(-c2ccc(O)c(O)c2)oc2cc(O)cc(O)c12
REMARK SMILES IDX 5 1 3 2 2 3 1 4 22 5 20 6 19 7 17 8 16 9 15 10 14 11 6 12
REMARK SMILES IDX 7 13 8 14 9 15 13 16 11 17 10 18 12 20 4 22 21 24 18 26
REMARK H PARENT 10 19 12 21 4 23 21 25 18 27
REMARK Flexibility Score: inf
ROOT
ATOM      1  C   UNL     1     -48.509  26.241 -16.189  1.00  0.00     0.180 A 
ATOM      2  C   UNL     1     -48.885  24.916 -15.896  1.00  0.00     0.208 A 
ATOM      3  C   UNL     1     -50.165  24.673 -15.377  1.00  0.00     0.238 A 
ATOM      4  O   UNL     1     -50.516  23.489 -15.120  1.00  0.00    -0.285 OA
ATOM      5  C   UNL     1     -51.039  25.754 -15.140  1.00  0.00     0.111 A 
ATOM      6  C   UNL     1     -52.344  25.594 -14.614  1.00  0.00     0.134 A 
ATOM      7  C   UNL     1     -53.150  26.722 -14.399  1.00  0.00     0.093 A 
ATOM      8  C   UNL     1     -52.676  28.005 -14.698  1.00  0.00     0.123 A 
ATOM      9  C   UNL     1     -51.389  28.167 -15.217  1.00  0.00     0.094 A 
ATOM     10  C   UNL     1     -50.572  27.055 -15.440  1.00  0.00     0.146 A 
ATOM     11  O   UNL     1     -49.355  27.238 -15.940  1.00  0.00    -0.452 OA
ENDROOT
BRANCH   1  12
ATOM     12  C   UNL     1     -47.185  26.577 -16.758  1.00  0.00     0.025 A 
ATOM     13  C   UNL     1     -46.205  27.152 -15.933  1.00  0.00     0.016 A 
ATOM     14  C   UNL     1     -44.955  27.495 -16.453  1.00  0.00     0.051 A 
ATOM     15  C   UNL     1     -44.669  27.285 -17.805  1.00  0.00     0.157 A 
ATOM     16  C   UNL     1     -46.903  26.386 -18.123  1.00  0.00     0.062 A 
ATOM     17  C   UNL     1     -45.648  26.731 -18.647  1.00  0.00     0.158 A 
BRANCH  15  18
ATOM     18  O   UNL     1     -43.411  27.635 -18.294  1.00  0.00    -0.504 OA
ATOM     19  H   UNL     1     -42.902  28.439 -17.944  1.00  0.00     0.293 HD
ENDBRANCH  15  18
BRANCH  17  20
ATOM     20  O   UNL     1     -45.375  26.533 -19.999  1.00  0.00    -0.504 OA
ATOM     21  H   UNL     1     -44.788  25.771 -20.316  1.00  0.00     0.293 HD
ENDBRANCH  17  20
ENDBRANCH   1  12
BRANCH   2  22
ATOM     22  O   UNL     1     -47.982  23.867 -16.093  1.00  0.00    -0.502 OA
ATOM     23  H   UNL     1     -47.074  23.842 -15.646  1.00  0.00     0.293 HD
ENDBRANCH   2  22
BRANCH   6  24
ATOM     24  O   UNL     1     -52.844  24.330 -14.305  1.00  0.00    -0.507 OA
ATOM     25  H   UNL     1     -52.285  23.492 -14.419  1.00  0.00     0.293 HD
ENDBRANCH   6  24
BRANCH   8  26
ATOM     26  O   UNL     1     -53.475  29.125 -14.484  1.00  0.00    -0.508 OA
ATOM     27  H   UNL     1     -54.472  29.108 -14.665  1.00  0.00     0.293 HD
ENDBRANCH   8  26
TORSDOF 6
ENDMDL
MODEL 6
REMARK VINA RESULT:    -6.669      2.917      7.517
REMARK INTER + INTRA:          -8.261
REMARK INTER:                  -8.002
REMARK INTRA:                  -0.259
REMARK UNBOUND:                -0.228
REMARK SMILES O=c1c(O)c(-c2ccc(O)c(O)c2)oc2cc(O)cc(O)c12
REMARK SMILES IDX 5 1 3 2 2 3 1 4 22 5 20 6 19 7 17 8 16 9 15 10 14 11 6 12
REMARK SMILES IDX 7 13 8 14 9 15 13 16 11 17 10 18 12 20 4 22 21 24 18 26
REMARK H PARENT 10 19 12 21 4 23 21 25 18 27
REMARK Flexibility Score: inf
ROOT
ATOM      1  C   UNL     1     -45.865  27.467 -17.369  1.00  0.00     0.180 A 
ATOM      2  C   UNL     1     -45.854  26.670 -16.207  1.00  0.00     0.208 A 
ATOM      3  C   UNL     1     -47.051  26.491 -15.497  1.00  0.00     0.238 A 
ATOM      4  O   UNL     1     -47.056  25.771 -14.461  1.00  0.00    -0.285 OA
ATOM      5  C   UNL     1     -48.229  27.124 -15.944  1.00  0.00     0.111 A 
ATOM      6  C   UNL     1     -49.475  26.998 -15.283  1.00  0.00     0.134 A 
ATOM      7  C   UNL     1     -50.600  27.667 -15.786  1.00  0.00     0.093 A 
ATOM      8  C   UNL     1     -50.504  28.460 -16.936  1.00  0.00     0.123 A 
ATOM      9  C   UNL     1     -49.277  28.587 -17.591  1.00  0.00     0.094 A 
ATOM     10  C   UNL     1     -48.145  27.926 -17.106  1.00  0.00     0.146 A 
ATOM     11  O   UNL     1     -46.992  28.060 -17.753  1.00  0.00    -0.452 OA
ENDROOT
BRANCH   1  12
ATOM     12  C   UNL     1     -44.649  27.688 -18.183  1.00  0.00     0.025 A 
ATOM     13  C   UNL     1     -43.665  28.581 -17.728  1.00  0.00     0.016 A 
ATOM     14  C   UNL     1     -42.520  28.820 -18.489  1.00  0.00     0.051 A 
ATOM     15  C   UNL     1     -42.344  28.184 -19.722  1.00  0.00     0.157 A 
ATOM     16  C   UNL     1     -44.480  27.066 -19.433  1.00  0.00     0.062 A 
ATOM     17  C   UNL     1     -43.331  27.306 -20.200  1.00  0.00     0.158 A 
BRANCH  15  18
ATOM     18  O   UNL     1     -41.188  28.441 -20.459  1.00  0.00    -0.504 OA
ATOM     19  H   UNL     1     -41.125  28.238 -21.450  1.00  0.00     0.293 HD
ENDBRANCH  15  18
BRANCH  17  20
ATOM     20  O   UNL     1     -43.169  26.680 -21.435  1.00  0.00    -0.504 OA
ATOM     21  H   UNL     1     -42.422  26.015 -21.600  1.00  0.00     0.293 HD
ENDBRANCH  17  20
ENDBRANCH   1  12
BRANCH   2  22
ATOM     22  O   UNL     1     -44.663  26.095 -15.757  1.00  0.00    -0.502 OA
ATOM     23  H   UNL     1     -43.777  26.584 -15.792  1.00  0.00     0.293 HD
ENDBRANCH   2  22
BRANCH   6  24
ATOM     24  O   UNL     1     -49.602  26.216 -14.135  1.00  0.00    -0.507 OA
ATOM     25  H   UNL     1     -49.258  26.530 -13.235  1.00  0.00     0.293 HD
ENDBRANCH   6  24
BRANCH   8  26
ATOM     26  O   UNL     1     -51.621  29.125 -17.435  1.00  0.00    -0.508 OA
ATOM     27  H   UNL     1     -52.170  28.742 -18.196  1.00  0.00     0.293 HD
ENDBRANCH   8  26
TORSDOF 6
ENDMDL
MODEL 7
REMARK VINA RESULT:    -6.624      3.067      6.834
REMARK INTER + INTRA:          -8.208
REMARK INTER:                  -8.095
REMARK INTRA:                  -0.113
REMARK UNBOUND:                -0.228
REMARK SMILES O=c1c(O)c(-c2ccc(O)c(O)c2)oc2cc(O)cc(O)c12
REMARK SMILES IDX 5 1 3 2 2 3 1 4 22 5 20 6 19 7 17 8 16 9 15 10 14 11 6 12
REMARK SMILES IDX 7 13 8 14 9 15 13 16 11 17 10 18 12 20 4 22 21 24 18 26
REMARK H PARENT 10 19 12 21 4 23 21 25 18 27
REMARK Flexibility Score: inf
ROOT
ATOM      1  C   UNL     1     -46.385  27.837 -16.233  1.00  0.00     0.180 A 
ATOM      2  C   UNL     1     -45.955  28.162 -14.932  1.00  0.00     0.208 A 
ATOM      3  C   UNL     1     -46.916  28.469 -13.957  1.00  0.00     0.238 A 
ATOM      4  O   UNL     1     -46.543  28.752 -12.785  1.00  0.00    -0.285 OA
ATOM      5  C   UNL     1     -48.284  28.467 -14.300  1.00  0.00     0.111 A 
ATOM      6  C   UNL     1     -49.314  28.769 -13.377  1.00  0.00     0.134 A 
ATOM      7  C   UNL     1     -50.652  28.754 -13.800  1.00  0.00     0.093 A 
ATOM      8  C   UNL     1     -50.979  28.444 -15.125  1.00  0.00     0.123 A 
ATOM      9  C   UNL     1     -49.965  28.145 -16.039  1.00  0.00     0.094 A 
ATOM     10  C   UNL     1     -48.626  28.153 -15.636  1.00  0.00     0.146 A 
ATOM     11  O   UNL     1     -47.683  27.859 -16.524  1.00  0.00    -0.452 OA
ENDROOT
BRANCH   1  12
ATOM     12  C   UNL     1     -45.435  27.483 -17.311  1.00  0.00     0.025 A 
ATOM     13  C   UNL     1     -44.488  28.429 -17.736  1.00  0.00     0.016 A 
ATOM     14  C   UNL     1     -43.595  28.124 -18.765  1.00  0.00     0.051 A 
ATOM     15  C   UNL     1     -43.642  26.877 -19.396  1.00  0.00     0.157 A 
ATOM     16  C   UNL     1     -45.495  26.237 -17.961  1.00  0.00     0.062 A 
ATOM     17  C   UNL     1     -44.599  25.929 -18.996  1.00  0.00     0.158 A 
BRANCH  15  18
ATOM     18  O   UNL     1     -42.735  26.600 -20.419  1.00  0.00    -0.504 OA
ATOM     19  H   UNL     1     -41.757  26.410 -20.233  1.00  0.00     0.293 HD
ENDBRANCH  15  18
BRANCH  17  20
ATOM     20  O   UNL     1     -44.662  24.690 -19.630  1.00  0.00    -0.504 OA
ATOM     21  H   UNL     1     -43.987  24.420 -20.336  1.00  0.00     0.293 HD
ENDBRANCH  17  20
ENDBRANCH   1  12
BRANCH   2  22
ATOM     22  O   UNL     1     -44.592  28.206 -14.630  1.00  0.00    -0.502 OA
ATOM     23  H   UNL     1     -44.201  28.877 -13.980  1.00  0.00     0.293 HD
ENDBRANCH   2  22
BRANCH   6  24
ATOM     24  O   UNL     1     -49.021  29.083 -12.051  1.00  0.00    -0.507 OA
ATOM     25  H   UNL     1     -48.126  28.854 -11.633  1.00  0.00     0.293 HD
ENDBRANCH   6  24
BRANCH   8  26
ATOM     26  O   UNL     1     -52.306  28.430 -15.545  1.00  0.00    -0.508 OA
ATOM     27  H   UNL     1     -52.686  29.166 -16.129  1.00  0.00     0.293 HD
ENDBRANCH   8  26
TORSDOF 6
ENDMDL
MODEL 8
REMARK VINA RESULT:    -6.334      2.769      7.663
REMARK INTER + INTRA:          -7.858
REMARK INTER:                  -8.360
REMARK INTRA:                   0.502
REMARK UNBOUND:                -0.228
REMARK SMILES O=c1c(O)c(-c2ccc(O)c(O)c2)oc2cc(O)cc(O)c12
REMARK SMILES IDX 5 1 3 2 2 3 1 4 22 5 20 6 19 7 17 8 16 9 15 10 14 11 6 12
REMARK SMILES IDX 7 13 8 14 9 15 13 16 11 17 10 18 12 20 4 22 21 24 18 26
REMARK H PARENT 10 19 12 21 4 23 21 25 18 27
REMARK Flexibility Score: inf
ROOT
ATOM      1  C   UNL     1     -44.845  27.541 -16.951  1.00  0.00     0.180 A 
ATOM      2  C   UNL     1     -44.592  28.051 -15.662  1.00  0.00     0.208 A 
ATOM      3  C   UNL     1     -45.476  27.730 -14.621  1.00  0.00     0.238 A 
ATOM      4  O   UNL     1     -45.254  28.173 -13.461  1.00  0.00    -0.285 OA
ATOM      5  C   UNL     1     -46.603  26.926 -14.885  1.00  0.00     0.111 A 
ATOM      6  C   UNL     1     -47.544  26.561 -13.892  1.00  0.00     0.134 A 
ATOM      7  C   UNL     1     -48.646  25.764 -14.238  1.00  0.00     0.093 A 
ATOM      8  C   UNL     1     -48.825  25.327 -15.555  1.00  0.00     0.123 A 
ATOM      9  C   UNL     1     -47.900  25.685 -16.538  1.00  0.00     0.094 A 
ATOM     10  C   UNL     1     -46.794  26.477 -16.213  1.00  0.00     0.146 A 
ATOM     11  O   UNL     1     -45.926  26.797 -17.166  1.00  0.00    -0.452 OA
ENDROOT
BRANCH   1  12
ATOM     12  C   UNL     1     -43.950  27.819 -18.096  1.00  0.00     0.025 A 
ATOM     13  C   UNL     1     -42.984  28.832 -17.989  1.00  0.00     0.016 A 
ATOM     14  C   UNL     1     -42.143  29.125 -19.065  1.00  0.00     0.051 A 
ATOM     15  C   UNL     1     -42.262  28.421 -20.268  1.00  0.00     0.157 A 
ATOM     16  C   UNL     1     -44.082  27.127 -19.315  1.00  0.00     0.062 A 
ATOM     17  C   UNL     1     -43.239  27.420 -20.396  1.00  0.00     0.158 A 
BRANCH  15  18
ATOM     18  O   UNL     1     -41.405  28.735 -21.323  1.00  0.00    -0.504 OA
ATOM     19  H   UNL     1     -41.662  28.573 -22.290  1.00  0.00     0.293 HD
ENDBRANCH  15  18
BRANCH  17  20
ATOM     20  O   UNL     1     -43.372  26.726 -21.597  1.00  0.00    -0.504 OA
ATOM     21  H   UNL     1     -42.649  26.101 -21.933  1.00  0.00     0.293 HD
ENDBRANCH  17  20
ENDBRANCH   1  12
BRANCH   2  22
ATOM     22  O   UNL     1     -43.495  28.887 -15.437  1.00  0.00    -0.502 OA
ATOM     23  H   UNL     1     -42.661  28.570 -14.958  1.00  0.00     0.293 HD
ENDBRANCH   2  22
BRANCH   6  24
ATOM     24  O   UNL     1     -47.393  26.981 -12.571  1.00  0.00    -0.507 OA
ATOM     25  H   UNL     1     -46.550  27.442 -12.250  1.00  0.00     0.293 HD
ENDBRANCH   6  24
BRANCH   8  26
ATOM     26  O   UNL     1     -49.919  24.537 -15.899  1.00  0.00    -0.508 OA
ATOM     27  H   UNL     1     -50.198  24.409 -16.864  1.00  0.00     0.293 HD
ENDBRANCH   8  26
TORSDOF 6
ENDMDL
MODEL 9
REMARK VINA RESULT:    -6.185     14.064     16.559
REMARK INTER + INTRA:          -7.678
REMARK INTER:                  -7.455
REMARK INTRA:                  -0.224
REMARK UNBOUND:                -0.228
REMARK SMILES O=c1c(O)c(-c2ccc(O)c(O)c2)oc2cc(O)cc(O)c12
REMARK SMILES IDX 5 1 3 2 2 3 1 4 22 5 20 6 19 7 17 8 16 9 15 10 14 11 6 12
REMARK SMILES IDX 7 13 8 14 9 15 13 16 11 17 10 18 12 20 4 22 21 24 18 26
REMARK H PARENT 10 19 12 21 4 23 21 25 18 27
REMARK Flexibility Score: inf
ROOT
ATOM      1  C   UNL     1     -47.901  11.153 -18.838  1.00  0.00     0.180 A 
ATOM      2  C   UNL     1     -47.415  10.089 -19.622  1.00  0.00     0.208 A 
ATOM      3  C   UNL     1     -48.031   9.819 -20.854  1.00  0.00     0.238 A 
ATOM      4  O   UNL     1     -47.597   8.875 -21.570  1.00  0.00    -0.285 OA
ATOM      5  C   UNL     1     -49.129  10.598 -21.270  1.00  0.00     0.111 A 
ATOM      6  C   UNL     1     -49.808  10.387 -22.496  1.00  0.00     0.134 A 
ATOM      7  C   UNL     1     -50.899  11.201 -22.834  1.00  0.00     0.093 A 
ATOM      8  C   UNL     1     -51.325  12.219 -21.973  1.00  0.00     0.123 A 
ATOM      9  C   UNL     1     -50.659  12.430 -20.764  1.00  0.00     0.094 A 
ATOM     10  C   UNL     1     -49.568  11.631 -20.410  1.00  0.00     0.146 A 
ATOM     11  O   UNL     1     -48.949  11.857 -19.256  1.00  0.00    -0.452 OA
ENDROOT
BRANCH   1  12
ATOM     12  C   UNL     1     -47.294  11.513 -17.537  1.00  0.00     0.025 A 
ATOM     13  C   UNL     1     -46.520  12.681 -17.435  1.00  0.00     0.016 A 
ATOM     14  C   UNL     1     -45.921  13.029 -16.223  1.00  0.00     0.051 A 
ATOM     15  C   UNL     1     -46.070  12.210 -15.099  1.00  0.00     0.157 A 
ATOM     16  C   UNL     1     -47.425  10.680 -16.411  1.00  0.00     0.062 A 
ATOM     17  C   UNL     1     -46.822  11.027 -15.193  1.00  0.00     0.158 A 
BRANCH  15  18
ATOM     18  O   UNL     1     -45.461  12.586 -13.901  1.00  0.00    -0.504 OA
ATOM     19  H   UNL     1     -45.313  11.929 -13.144  1.00  0.00     0.293 HD
ENDBRANCH  15  18
BRANCH  17  20
ATOM     20  O   UNL     1     -46.962  10.200 -14.081  1.00  0.00    -0.504 OA
ATOM     21  H   UNL     1     -46.276   9.488 -13.857  1.00  0.00     0.293 HD
ENDBRANCH  17  20
ENDBRANCH   1  12
BRANCH   2  22
ATOM     22  O   UNL     1     -46.357   9.300 -19.164  1.00  0.00    -0.502 OA
ATOM     23  H   UNL     1     -45.423   9.669 -19.031  1.00  0.00     0.293 HD
ENDBRANCH   2  22
BRANCH   6  24
ATOM     24  O   UNL     1     -49.408   9.381 -23.374  1.00  0.00    -0.507 OA
ATOM     25  H   UNL     1     -48.862   9.583 -24.204  1.00  0.00     0.293 HD
ENDBRANCH   6  24
BRANCH   8  26
ATOM     26  O   UNL     1     -52.410  13.026 -22.309  1.00  0.00    -0.508 OA
ATOM     27  H   UNL     1     -52.528  13.391 -23.246  1.00  0.00     0.293 HD
ENDBRANCH   8  26
TORSDOF 6
ENDMDL
