MODEL 1
REMARK VINA RESULT:    -2.003      0.000      0.000
REMARK INTER + INTRA:          -4.029
REMARK INTER:                  -3.409
REMARK INTRA:                  -0.620
REMARK UNBOUND:                -0.620
REMARK SMILES CCCCCCCCCCCCCC(=O)[O-]
REMARK SMILES IDX 8 1 9 2 10 3 11 4 12 5 13 6 14 7 15 8 16 9 7 10 6 11 5 12
REMARK SMILES IDX 4 13 3 14 2 15 1 16
REMARK H PARENT
REMARK Flexibility Score: inf
ROOT
ATOM      1  C   UNL     1      22.721  54.916  31.076  1.00  0.00     0.000 C 
ENDROOT
BRANCH   1   2
ATOM      2  C   UNL     1      21.498  55.124  30.163  1.00  0.00     0.000 C 
BRANCH   2   3
ATOM      3  C   UNL     1      21.710  54.574  28.742  1.00  0.00     0.000 C 
BRANCH   3   4
ATOM      4  C   UNL     1      22.503  53.258  28.732  1.00  0.00     0.000 C 
BRANCH   4   5
ATOM      5  C   UNL     1      23.785  53.343  27.890  1.00  0.00     0.006 C 
BRANCH   5   6
ATOM      6  C   UNL     1      23.934  52.109  26.995  1.00  0.00     0.053 C 
BRANCH   6   7
ATOM      7  C   UNL     1      24.498  52.491  25.663  1.00  0.00     0.041 C 
ATOM      8  O   UNL     1      24.310  53.648  25.203  1.00  0.00    -0.550 OA
ATOM      9  O   UNL     1      25.272  51.584  24.949  1.00  0.00    -0.550 OA
ENDBRANCH   6   7
ENDBRANCH   5   6
ENDBRANCH   4   5
ENDBRANCH   3   4
ENDBRANCH   2   3
ENDBRANCH   1   2
BRANCH   1  10
ATOM     10  C   UNL     1      22.425  54.951  32.587  1.00  0.00     0.000 C 
BRANCH  10  11
ATOM     11  C   UNL     1      21.075  54.313  32.949  1.00  0.00    -0.000 C 
BRANCH  11  12
ATOM     12  C   UNL     1      21.152  53.601  34.308  1.00  0.00    -0.000 C 
BRANCH  12  13
ATOM     13  C   UNL     1      21.801  54.468  35.398  1.00  0.00    -0.000 C 
BRANCH  13  14
ATOM     14  C   UNL     1      22.952  53.747  36.122  1.00  0.00    -0.000 C 
BRANCH  14  15
ATOM     15  C   UNL     1      24.252  54.566  36.122  1.00  0.00    -0.003 C 
ATOM     16  C   UNL     1      24.857  54.717  34.727  1.00  0.00     0.004 C 
ENDBRANCH  14  15
ENDBRANCH  13  14
ENDBRANCH  12  13
ENDBRANCH  11  12
ENDBRANCH  10  11
ENDBRANCH   1  10
TORSDOF 12
ENDMDL
MODEL 2
REMARK VINA RESULT:    -1.835     23.123     26.344
REMARK INTER + INTRA:          -3.742
REMARK INTER:                  -3.202
REMARK INTRA:                  -0.540
REMARK UNBOUND:                -0.620
REMARK SMILES CCCCCCCCCCCCCC(=O)[O-]
REMARK SMILES IDX 8 1 9 2 10 3 11 4 12 5 13 6 14 7 15 8 16 9 7 10 6 11 5 12
REMARK SMILES IDX 4 13 3 14 2 15 1 16
REMARK H PARENT
REMARK Flexibility Score: inf
ROOT
ATOM      1  C   UNL     1      40.900  38.575  17.047  1.00  0.00     0.000 C 
ENDROOT
BRANCH   1   2
ATOM      2  C   UNL     1      40.208  37.557  16.122  1.00  0.00     0.000 C 
BRANCH   2   3
ATOM      3  C   UNL     1      40.966  36.222  16.027  1.00  0.00     0.000 C 
BRANCH   3   4
ATOM      4  C   UNL     1      41.123  35.534  17.393  1.00  0.00     0.000 C 
BRANCH   4   5
ATOM      5  C   UNL     1      39.809  34.925  17.905  1.00  0.00     0.006 C 
BRANCH   5   6
ATOM      6  C   UNL     1      39.767  34.921  19.436  1.00  0.00     0.053 C 
BRANCH   6   7
ATOM      7  C   UNL     1      38.494  35.530  19.928  1.00  0.00     0.041 C 
ATOM      8  O   UNL     1      37.817  36.279  19.177  1.00  0.00    -0.550 OA
ATOM      9  O   UNL     1      38.028  35.233  21.204  1.00  0.00    -0.550 OA
ENDBRANCH   6   7
ENDBRANCH   5   6
ENDBRANCH   4   5
ENDBRANCH   3   4
ENDBRANCH   2   3
ENDBRANCH   1   2
BRANCH   1  10
ATOM     10  C   UNL     1      40.491  40.044  16.827  1.00  0.00     0.000 C 
BRANCH  10  11
ATOM     11  C   UNL     1      40.943  40.970  17.966  1.00  0.00    -0.000 C 
BRANCH  11  12
ATOM     12  C   UNL     1      39.885  41.030  19.078  1.00  0.00    -0.000 C 
BRANCH  12  13
ATOM     13  C   UNL     1      38.901  39.851  19.026  1.00  0.00    -0.000 C 
BRANCH  13  14
ATOM     14  C   UNL     1      37.440  40.289  19.231  1.00  0.00    -0.000 C 
BRANCH  14  15
ATOM     15  C   UNL     1      36.746  39.516  20.364  1.00  0.00    -0.003 C 
ATOM     16  C   UNL     1      37.736  38.827  21.303  1.00  0.00     0.004 C 
ENDBRANCH  14  15
ENDBRANCH  13  14
ENDBRANCH  12  13
ENDBRANCH  11  12
ENDBRANCH  10  11
ENDBRANCH   1  10
TORSDOF 12
ENDMDL
MODEL 3
REMARK VINA RESULT:    -1.746      1.275      2.529
REMARK INTER + INTRA:          -3.591
REMARK INTER:                  -3.518
REMARK INTRA:                  -0.073
REMARK UNBOUND:                -0.620
REMARK SMILES CCCCCCCCCCCCCC(=O)[O-]
REMARK SMILES IDX 8 1 9 2 10 3 11 4 12 5 13 6 14 7 15 8 16 9 7 10 6 11 5 12
REMARK SMILES IDX 4 13 3 14 2 15 1 16
REMARK H PARENT
REMARK Flexibility Score: inf
ROOT
ATOM      1  C   UNL     1      24.063  54.374  31.106  1.00  0.00     0.000 C 
ENDROOT
BRANCH   1   2
ATOM      2  C   UNL     1      22.729  55.120  31.296  1.00  0.00     0.000 C 
BRANCH   2   3
ATOM      3  C   UNL     1      21.700  54.796  30.200  1.00  0.00     0.000 C 
BRANCH   3   4
ATOM      4  C   UNL     1      22.351  54.577  28.825  1.00  0.00     0.000 C 
BRANCH   4   5
ATOM      5  C   UNL     1      22.129  53.158  28.281  1.00  0.00     0.006 C 
BRANCH   5   6
ATOM      6  C   UNL     1      23.350  52.272  28.547  1.00  0.00     0.053 C 
BRANCH   6   7
ATOM      7  C   UNL     1      23.977  51.844  27.259  1.00  0.00     0.041 C 
ATOM      8  O   UNL     1      24.386  50.662  27.114  1.00  0.00    -0.550 OA
ATOM      9  O   UNL     1      24.068  52.738  26.198  1.00  0.00    -0.550 OA
ENDBRANCH   6   7
ENDBRANCH   5   6
ENDBRANCH   4   5
ENDBRANCH   3   4
ENDBRANCH   2   3
ENDBRANCH   1   2
BRANCH   1  10
ATOM     10  C   UNL     1      25.299  55.082  31.691  1.00  0.00     0.000 C 
BRANCH  10  11
ATOM     11  C   UNL     1      25.297  55.124  33.226  1.00  0.00    -0.000 C 
BRANCH  11  12
ATOM     12  C   UNL     1      24.114  54.327  33.795  1.00  0.00    -0.000 C 
BRANCH  12  13
ATOM     13  C   UNL     1      23.772  54.720  35.240  1.00  0.00    -0.000 C 
BRANCH  13  14
ATOM     14  C   UNL     1      22.751  53.768  35.887  1.00  0.00    -0.000 C 
BRANCH  14  15
ATOM     15  C   UNL     1      21.302  54.113  35.507  1.00  0.00    -0.003 C 
ATOM     16  C   UNL     1      20.924  53.623  34.109  1.00  0.00     0.004 C 
ENDBRANCH  14  15
ENDBRANCH  13  14
ENDBRANCH  12  13
ENDBRANCH  11  12
ENDBRANCH  10  11
ENDBRANCH   1  10
TORSDOF 12
ENDMDL
MODEL 4
REMARK VINA RESULT:    -1.634     23.603     25.812
REMARK INTER + INTRA:          -3.401
REMARK INTER:                  -3.774
REMARK INTRA:                   0.373
REMARK UNBOUND:                -0.620
REMARK SMILES CCCCCCCCCCCCCC(=O)[O-]
REMARK SMILES IDX 8 1 9 2 10 3 11 4 12 5 13 6 14 7 15 8 16 9 7 10 6 11 5 12
REMARK SMILES IDX 4 13 3 14 2 15 1 16
REMARK H PARENT
REMARK Flexibility Score: inf
ROOT
ATOM      1  C   UNL     1      37.246  39.602  20.277  1.00  0.00     0.000 C 
ENDROOT
BRANCH   1   2
ATOM      2  C   UNL     1      36.640  38.186  20.257  1.00  0.00     0.000 C 
BRANCH   2   3
ATOM      3  C   UNL     1      37.665  37.092  20.604  1.00  0.00     0.000 C 
BRANCH   3   4
ATOM      4  C   UNL     1      37.916  36.128  19.433  1.00  0.00     0.000 C 
BRANCH   4   5
ATOM      5  C   UNL     1      39.154  35.244  19.647  1.00  0.00     0.006 C 
BRANCH   5   6
ATOM      6  C   UNL     1      40.073  35.283  18.423  1.00  0.00     0.053 C 
BRANCH   6   7
ATOM      7  C   UNL     1      39.276  35.495  17.175  1.00  0.00     0.041 C 
ATOM      8  O   UNL     1      39.738  36.198  16.239  1.00  0.00    -0.550 OA
ATOM      9  O   UNL     1      38.040  34.875  17.026  1.00  0.00    -0.550 OA
ENDBRANCH   6   7
ENDBRANCH   5   6
ENDBRANCH   4   5
ENDBRANCH   3   4
ENDBRANCH   2   3
ENDBRANCH   1   2
BRANCH   1  10
ATOM     10  C   UNL     1      38.067  39.983  19.031  1.00  0.00     0.000 C 
BRANCH  10  11
ATOM     11  C   UNL     1      39.282  39.069  18.810  1.00  0.00    -0.000 C 
BRANCH  11  12
ATOM     12  C   UNL     1      39.815  39.201  17.376  1.00  0.00    -0.000 C 
BRANCH  12  13
ATOM     13  C   UNL     1      40.619  40.492  17.157  1.00  0.00    -0.000 C 
BRANCH  13  14
ATOM     14  C   UNL     1      41.055  41.150  18.479  1.00  0.00    -0.000 C 
BRANCH  14  15
ATOM     15  C   UNL     1      40.865  42.675  18.468  1.00  0.00    -0.003 C 
ATOM     16  C   UNL     1      41.125  43.314  19.832  1.00  0.00     0.004 C 
ENDBRANCH  14  15
ENDBRANCH  13  14
ENDBRANCH  12  13
ENDBRANCH  11  12
ENDBRANCH  10  11
ENDBRANCH   1  10
TORSDOF 12
ENDMDL
MODEL 5
REMARK VINA RESULT:    -1.563     23.401     25.983
REMARK INTER + INTRA:          -3.280
REMARK INTER:                  -2.326
REMARK INTRA:                  -0.955
REMARK UNBOUND:                -0.620
REMARK SMILES CCCCCCCCCCCCCC(=O)[O-]
REMARK SMILES IDX 8 1 9 2 10 3 11 4 12 5 13 6 14 7 15 8 16 9 7 10 6 11 5 12
REMARK SMILES IDX 4 13 3 14 2 15 1 16
REMARK H PARENT
REMARK Flexibility Score: inf
ROOT
ATOM      1  C   UNL     1      37.388  38.964  20.637  1.00  0.00     0.000 C 
ENDROOT
BRANCH   1   2
ATOM      2  C   UNL     1      37.207  40.019  19.529  1.00  0.00     0.000 C 
BRANCH   2   3
ATOM      3  C   UNL     1      38.481  40.237  18.696  1.00  0.00     0.000 C 
BRANCH   3   4
ATOM      4  C   UNL     1      39.651  39.358  19.166  1.00  0.00     0.000 C 
BRANCH   4   5
ATOM      5  C   UNL     1      40.982  39.731  18.495  1.00  0.00     0.006 C 
BRANCH   5   6
ATOM      6  C   UNL     1      41.002  41.211  18.104  1.00  0.00     0.053 C 
BRANCH   6   7
ATOM      7  C   UNL     1      41.061  41.361  16.618  1.00  0.00     0.041 C 
ATOM      8  O   UNL     1      41.011  40.346  15.875  1.00  0.00    -0.550 OA
ATOM      9  O   UNL     1      41.125  42.628  16.048  1.00  0.00    -0.550 OA
ENDBRANCH   6   7
ENDBRANCH   5   6
ENDBRANCH   4   5
ENDBRANCH   3   4
ENDBRANCH   2   3
ENDBRANCH   1   2
BRANCH   1  10
ATOM     10  C   UNL     1      37.217  37.502  20.185  1.00  0.00     0.000 C 
BRANCH  10  11
ATOM     11  C   UNL     1      38.058  36.516  21.009  1.00  0.00    -0.000 C 
BRANCH  11  12
ATOM     12  C   UNL     1      38.268  35.201  20.244  1.00  0.00    -0.000 C 
BRANCH  12  13
ATOM     13  C   UNL     1      38.519  35.419  18.744  1.00  0.00    -0.000 C 
BRANCH  13  14
ATOM     14  C   UNL     1      39.964  35.087  18.331  1.00  0.00    -0.000 C 
BRANCH  14  15
ATOM     15  C   UNL     1      40.687  36.288  17.699  1.00  0.00    -0.003 C 
ATOM     16  C   UNL     1      40.215  36.579  16.274  1.00  0.00     0.004 C 
ENDBRANCH  14  15
ENDBRANCH  13  14
ENDBRANCH  12  13
ENDBRANCH  11  12
ENDBRANCH  10  11
ENDBRANCH   1  10
TORSDOF 12
ENDMDL
MODEL 6
REMARK VINA RESULT:    -1.521     23.199     26.353
REMARK INTER + INTRA:          -3.209
REMARK INTER:                  -3.235
REMARK INTRA:                   0.026
REMARK UNBOUND:                -0.620
REMARK SMILES CCCCCCCCCCCCCC(=O)[O-]
REMARK SMILES IDX 8 1 9 2 10 3 11 4 12 5 13 6 14 7 15 8 16 9 7 10 6 11 5 12
REMARK SMILES IDX 4 13 3 14 2 15 1 16
REMARK H PARENT
REMARK Flexibility Score: inf
ROOT
ATOM      1  C   UNL     1      40.900  38.799  17.218  1.00  0.00     0.000 C 
ENDROOT
BRANCH   1   2
ATOM      2  C   UNL     1      40.946  40.208  16.597  1.00  0.00     0.000 C 
BRANCH   2   3
ATOM      3  C   UNL     1      41.125  41.319  17.645  1.00  0.00     0.000 C 
BRANCH   3   4
ATOM      4  C   UNL     1      40.221  41.123  18.872  1.00  0.00     0.000 C 
BRANCH   4   5
ATOM      5  C   UNL     1      38.968  40.291  18.560  1.00  0.00     0.006 C 
BRANCH   5   6
ATOM      6  C   UNL     1      38.755  39.204  19.618  1.00  0.00     0.053 C 
BRANCH   6   7
ATOM      7  C   UNL     1      37.458  39.413  20.331  1.00  0.00     0.041 C 
ATOM      8  O   UNL     1      36.421  39.719  19.687  1.00  0.00    -0.550 OA
ATOM      9  O   UNL     1      37.381  39.222  21.706  1.00  0.00    -0.550 OA
ENDBRANCH   6   7
ENDBRANCH   5   6
ENDBRANCH   4   5
ENDBRANCH   3   4
ENDBRANCH   2   3
ENDBRANCH   1   2
BRANCH   1  10
ATOM     10  C   UNL     1      40.772  37.641  16.210  1.00  0.00     0.000 C 
BRANCH  10  11
ATOM     11  C   UNL     1      40.858  36.258  16.871  1.00  0.00    -0.000 C 
BRANCH  11  12
ATOM     12  C   UNL     1      39.715  35.350  16.394  1.00  0.00    -0.000 C 
BRANCH  12  13
ATOM     13  C   UNL     1      38.779  34.923  17.535  1.00  0.00    -0.000 C 
BRANCH  13  14
ATOM     14  C   UNL     1      39.289  35.368  18.918  1.00  0.00    -0.000 C 
BRANCH  14  15
ATOM     15  C   UNL     1      38.146  35.743  19.875  1.00  0.00    -0.003 C 
ATOM     16  C   UNL     1      38.148  34.908  21.155  1.00  0.00     0.004 C 
ENDBRANCH  14  15
ENDBRANCH  13  14
ENDBRANCH  12  13
ENDBRANCH  11  12
ENDBRANCH  10  11
ENDBRANCH   1  10
TORSDOF 12
ENDMDL
MODEL 7
REMARK VINA RESULT:    -1.394      3.360      7.260
REMARK INTER + INTRA:          -2.992
REMARK INTER:                  -2.850
REMARK INTRA:                  -0.141
REMARK UNBOUND:                -0.620
REMARK SMILES CCCCCCCCCCCCCC(=O)[O-]
REMARK SMILES IDX 8 1 9 2 10 3 11 4 12 5 13 6 14 7 15 8 16 9 7 10 6 11 5 12
REMARK SMILES IDX 4 13 3 14 2 15 1 16
REMARK H PARENT
REMARK Flexibility Score: inf
ROOT
ATOM      1  C   UNL     1      21.685  55.124  32.155  1.00  0.00     0.000 C 
ENDROOT
BRANCH   1   2
ATOM      2  C   UNL     1      20.889  54.685  33.398  1.00  0.00     0.000 C 
BRANCH   2   3
ATOM      3  C   UNL     1      21.394  53.362  33.997  1.00  0.00     0.000 C 
BRANCH   3   4
ATOM      4  C   UNL     1      21.527  53.419  35.527  1.00  0.00     0.000 C 
BRANCH   4   5
ATOM      5  C   UNL     1      22.902  53.927  35.986  1.00  0.00     0.006 C 
BRANCH   5   6
ATOM      6  C   UNL     1      23.352  55.125  35.144  1.00  0.00     0.053 C 
BRANCH   6   7
ATOM      7  C   UNL     1      24.673  54.847  34.500  1.00  0.00     0.041 C 
ATOM      8  O   UNL     1      24.725  54.411  33.320  1.00  0.00    -0.550 OA
ATOM      9  O   UNL     1      25.852  55.114  35.187  1.00  0.00    -0.550 OA
ENDBRANCH   6   7
ENDBRANCH   5   6
ENDBRANCH   4   5
ENDBRANCH   3   4
ENDBRANCH   2   3
ENDBRANCH   1   2
BRANCH   1  10
ATOM     10  C   UNL     1      21.029  54.785  30.803  1.00  0.00     0.000 C 
BRANCH  10  11
ATOM     11  C   UNL     1      21.949  55.059  29.604  1.00  0.00    -0.000 C 
BRANCH  11  12
ATOM     12  C   UNL     1      23.057  53.999  29.508  1.00  0.00    -0.000 C 
BRANCH  12  13
ATOM     13  C   UNL     1      22.576  52.695  28.853  1.00  0.00    -0.000 C 
BRANCH  13  14
ATOM     14  C   UNL     1      23.659  52.038  27.978  1.00  0.00    -0.000 C 
BRANCH  14  15
ATOM     15  C   UNL     1      24.055  52.911  26.777  1.00  0.00    -0.003 C 
ATOM     16  C   UNL     1      24.278  52.098  25.502  1.00  0.00     0.004 C 
ENDBRANCH  14  15
ENDBRANCH  13  14
ENDBRANCH  12  13
ENDBRANCH  11  12
ENDBRANCH  10  11
ENDBRANCH   1  10
TORSDOF 12
ENDMDL
MODEL 8
REMARK VINA RESULT:    -0.871     23.125     26.218
REMARK INTER + INTRA:          -2.102
REMARK INTER:                  -1.435
REMARK INTRA:                  -0.667
REMARK UNBOUND:                -0.620
REMARK SMILES CCCCCCCCCCCCCC(=O)[O-]
REMARK SMILES IDX 8 1 9 2 10 3 11 4 12 5 13 6 14 7 15 8 16 9 7 10 6 11 5 12
REMARK SMILES IDX 4 13 3 14 2 15 1 16
REMARK H PARENT
REMARK Flexibility Score: inf
ROOT
ATOM      1  C   UNL     1      39.726  35.963  17.913  1.00  0.00     0.000 C 
ENDROOT
BRANCH   1   2
ATOM      2  C   UNL     1      38.589  34.949  18.137  1.00  0.00     0.000 C 
BRANCH   2   3
ATOM      3  C   UNL     1      38.110  34.899  19.598  1.00  0.00     0.000 C 
BRANCH   3   4
ATOM      4  C   UNL     1      38.693  36.038  20.449  1.00  0.00     0.000 C 
BRANCH   4   5
ATOM      5  C   UNL     1      37.627  37.051  20.895  1.00  0.00     0.006 C 
BRANCH   5   6
ATOM      6  C   UNL     1      38.122  38.487  20.699  1.00  0.00     0.053 C 
BRANCH   6   7
ATOM      7  C   UNL     1      37.067  39.320  20.043  1.00  0.00     0.041 C 
ATOM      8  O   UNL     1      35.940  39.459  20.586  1.00  0.00    -0.550 OA
ATOM      9  O   UNL     1      37.344  39.984  18.853  1.00  0.00    -0.550 OA
ENDBRANCH   6   7
ENDBRANCH   5   6
ENDBRANCH   4   5
ENDBRANCH   3   4
ENDBRANCH   2   3
ENDBRANCH   1   2
BRANCH   1  10
ATOM     10  C   UNL     1      39.689  36.703  16.563  1.00  0.00     0.000 C 
BRANCH  10  11
ATOM     11  C   UNL     1      41.071  37.199  16.111  1.00  0.00    -0.000 C 
BRANCH  11  12
ATOM     12  C   UNL     1      41.061  38.717  15.881  1.00  0.00    -0.000 C 
BRANCH  12  13
ATOM     13  C   UNL     1      41.125  39.518  17.191  1.00  0.00    -0.000 C 
BRANCH  13  14
ATOM     14  C   UNL     1      40.839  41.016  16.985  1.00  0.00    -0.000 C 
BRANCH  14  15
ATOM     15  C   UNL     1      41.063  41.840  18.263  1.00  0.00    -0.003 C 
ATOM     16  C   UNL     1      39.882  41.765  19.231  1.00  0.00     0.004 C 
ENDBRANCH  14  15
ENDBRANCH  13  14
ENDBRANCH  12  13
ENDBRANCH  11  12
ENDBRANCH  10  11
ENDBRANCH   1  10
TORSDOF 12
ENDMDL
MODEL 9
REMARK VINA RESULT:    -0.672      3.956      7.965
REMARK INTER + INTRA:          -1.764
REMARK INTER:                  -1.736
REMARK INTRA:                  -0.028
REMARK UNBOUND:                -0.620
REMARK SMILES CCCCCCCCCCCCCC(=O)[O-]
REMARK SMILES IDX 8 1 9 2 10 3 11 4 12 5 13 6 14 7 15 8 16 9 7 10 6 11 5 12
REMARK SMILES IDX 4 13 3 14 2 15 1 16
REMARK H PARENT
REMARK Flexibility Score: inf
ROOT
ATOM      1  C   UNL     1      22.982  54.579  30.313  1.00  0.00     0.000 C 
ENDROOT
BRANCH   1   2
ATOM      2  C   UNL     1      22.880  55.117  31.752  1.00  0.00     0.000 C 
BRANCH   2   3
ATOM      3  C   UNL     1      21.482  54.926  32.365  1.00  0.00     0.000 C 
BRANCH   3   4
ATOM      4  C   UNL     1      21.531  54.250  33.745  1.00  0.00     0.000 C 
BRANCH   4   5
ATOM      5  C   UNL     1      20.875  55.099  34.845  1.00  0.00     0.006 C 
BRANCH   5   6
ATOM      6  C   UNL     1      21.743  55.125  36.107  1.00  0.00     0.053 C 
BRANCH   6   7
ATOM      7  C   UNL     1      22.986  54.318  35.905  1.00  0.00     0.041 C 
ATOM      8  O   UNL     1      24.063  54.882  35.578  1.00  0.00    -0.550 OA
ATOM      9  O   UNL     1      22.968  52.946  36.124  1.00  0.00    -0.550 OA
ENDBRANCH   6   7
ENDBRANCH   5   6
ENDBRANCH   4   5
ENDBRANCH   3   4
ENDBRANCH   2   3
ENDBRANCH   1   2
BRANCH   1  10
ATOM     10  C   UNL     1      21.864  55.041  29.359  1.00  0.00     0.000 C 
BRANCH  10  11
ATOM     11  C   UNL     1      22.236  54.883  27.877  1.00  0.00    -0.000 C 
BRANCH  11  12
ATOM     12  C   UNL     1      23.474  53.988  27.714  1.00  0.00    -0.000 C 
BRANCH  12  13
ATOM     13  C   UNL     1      23.140  52.490  27.796  1.00  0.00    -0.000 C 
BRANCH  13  14
ATOM     14  C   UNL     1      24.217  51.607  27.141  1.00  0.00    -0.000 C 
BRANCH  14  15
ATOM     15  C   UNL     1      24.323  51.833  25.625  1.00  0.00    -0.003 C 
ATOM     16  C   UNL     1      25.659  51.365  25.048  1.00  0.00     0.004 C 
ENDBRANCH  14  15
ENDBRANCH  13  14
ENDBRANCH  12  13
ENDBRANCH  11  12
ENDBRANCH  10  11
ENDBRANCH   1  10
TORSDOF 12
ENDMDL
