MODEL 1
REMARK VINA RESULT:    -4.302      0.000      0.000
REMARK INTER + INTRA:         -16.146
REMARK INTER:                 -11.345
REMARK INTRA:                  -4.800
REMARK UNBOUND:                -4.800
REMARK SMILES CCCCCCCCCCCCCCCCCCCCCCCCCCCCCC(=O)[O-]
REMARK SMILES IDX 16 1 17 2 18 3 19 4 20 5 21 6 22 7 23 8 24 9 25 10 26 11
REMARK SMILES IDX 27 12 28 13 29 14 30 15 31 16 32 17 15 18 14 19 13 20 12 21
REMARK SMILES IDX 11 22 10 23 9 24 8 25 7 26 6 27 5 28 4 29 3 30 2 31 1 32
REMARK H PARENT
REMARK Flexibility Score: inf
ROOT
ATOM      1  C   UNL     1      29.703   4.470  39.011  1.00  0.00     0.000 C 
ENDROOT
BRANCH   1   2
ATOM      2  C   UNL     1      31.028   5.014  39.573  1.00  0.00     0.000 C 
BRANCH   2   3
ATOM      3  C   UNL     1      31.421   6.405  39.027  1.00  0.00     0.000 C 
BRANCH   3   4
ATOM      4  C   UNL     1      30.434   6.982  37.994  1.00  0.00     0.000 C 
BRANCH   4   5
ATOM      5  C   UNL     1      29.714   8.272  38.429  1.00  0.00     0.000 C 
BRANCH   5   6
ATOM      6  C   UNL     1      29.939   8.604  39.916  1.00  0.00     0.000 C 
BRANCH   6   7
ATOM      7  C   UNL     1      28.650   9.016  40.640  1.00  0.00     0.000 C 
BRANCH   7   8
ATOM      8  C   UNL     1      27.954   7.828  41.328  1.00  0.00     0.000 C 
BRANCH   8   9
ATOM      9  C   UNL     1      26.569   8.189  41.898  1.00  0.00     0.000 C 
BRANCH   9  10
ATOM     10  C   UNL     1      25.405   7.317  41.389  1.00  0.00     0.000 C 
BRANCH  10  11
ATOM     11  C   UNL     1      25.470   5.869  41.907  1.00  0.00     0.000 C 
BRANCH  11  12
ATOM     12  C   UNL     1      24.505   4.931  41.163  1.00  0.00     0.000 C 
BRANCH  12  13
ATOM     13  C   UNL     1      25.136   3.562  40.856  1.00  0.00     0.006 C 
BRANCH  13  14
ATOM     14  C   UNL     1      24.893   3.122  39.405  1.00  0.00     0.053 C 
BRANCH  14  15
ATOM     15  C   UNL     1      23.782   2.123  39.306  1.00  0.00     0.041 C 
ATOM     16  O   UNL     1      22.582   2.506  39.292  1.00  0.00    -0.550 OA
ATOM     17  O   UNL     1      24.073   0.767  39.205  1.00  0.00    -0.550 OA
ENDBRANCH  14  15
ENDBRANCH  13  14
ENDBRANCH  12  13
ENDBRANCH  11  12
ENDBRANCH  10  11
ENDBRANCH   9  10
ENDBRANCH   8   9
ENDBRANCH   7   8
ENDBRANCH   6   7
ENDBRANCH   5   6
ENDBRANCH   4   5
ENDBRANCH   3   4
ENDBRANCH   2   3
ENDBRANCH   1   2
BRANCH   1  18
ATOM     18  C   UNL     1      28.576   4.368  40.066  1.00  0.00     0.000 C 
BRANCH  18  19
ATOM     19  C   UNL     1      29.042   4.695  41.496  1.00  0.00     0.000 C 
BRANCH  19  20
ATOM     20  C   UNL     1      28.518   3.726  42.569  1.00  0.00     0.000 C 
BRANCH  20  21
ATOM     21  C   UNL     1      28.784   4.230  44.000  1.00  0.00     0.000 C 
BRANCH  21  22
ATOM     22  C   UNL     1      28.182   5.619  44.258  1.00  0.00     0.000 C 
BRANCH  22  23
ATOM     23  C   UNL     1      27.290   5.654  45.510  1.00  0.00     0.000 C 
BRANCH  23  24
ATOM     24  C   UNL     1      27.118   4.264  46.144  1.00  0.00    -0.000 C 
BRANCH  24  25
ATOM     25  C   UNL     1      26.835   4.336  47.656  1.00  0.00    -0.000 C 
BRANCH  25  26
ATOM     26  C   UNL     1      27.696   5.392  48.367  1.00  0.00    -0.000 C 
BRANCH  26  27
ATOM     27  C   UNL     1      28.951   4.786  49.022  1.00  0.00    -0.000 C 
BRANCH  27  28
ATOM     28  C   UNL     1      30.244   5.535  48.633  1.00  0.00    -0.000 C 
BRANCH  28  29
ATOM     29  C   UNL     1      30.018   6.709  47.662  1.00  0.00    -0.000 C 
BRANCH  29  30
ATOM     30  C   UNL     1      31.100   6.877  46.580  1.00  0.00    -0.000 C 
BRANCH  30  31
ATOM     31  C   UNL     1      31.517   5.575  45.872  1.00  0.00    -0.003 C 
ATOM     32  C   UNL     1      32.106   5.813  44.482  1.00  0.00     0.004 C 
ENDBRANCH  30  31
ENDBRANCH  29  30
ENDBRANCH  28  29
ENDBRANCH  27  28
ENDBRANCH  26  27
ENDBRANCH  25  26
ENDBRANCH  24  25
ENDBRANCH  23  24
ENDBRANCH  22  23
ENDBRANCH  21  22
ENDBRANCH  20  21
ENDBRANCH  19  20
ENDBRANCH  18  19
ENDBRANCH   1  18
TORSDOF 28
ENDMDL
MODEL 2
REMARK VINA RESULT:    -4.131      1.369      2.947
REMARK INTER + INTRA:         -15.694
REMARK INTER:                 -10.239
REMARK INTRA:                  -5.454
REMARK UNBOUND:                -4.800
REMARK SMILES CCCCCCCCCCCCCCCCCCCCCCCCCCCCCC(=O)[O-]
REMARK SMILES IDX 16 1 17 2 18 3 19 4 20 5 21 6 22 7 23 8 24 9 25 10 26 11
REMARK SMILES IDX 27 12 28 13 29 14 30 15 31 16 32 17 15 18 14 19 13 20 12 21
REMARK SMILES IDX 11 22 10 23 9 24 8 25 7 26 6 27 5 28 4 29 3 30 2 31 1 32
REMARK H PARENT
REMARK Flexibility Score: inf
ROOT
ATOM      1  C   UNL     1      29.766   4.608  41.127  1.00  0.00     0.000 C 
ENDROOT
BRANCH   1   2
ATOM      2  C   UNL     1      29.276   4.558  39.668  1.00  0.00     0.000 C 
BRANCH   2   3
ATOM      3  C   UNL     1      30.057   5.484  38.708  1.00  0.00     0.000 C 
BRANCH   3   4
ATOM      4  C   UNL     1      31.535   5.690  39.089  1.00  0.00     0.000 C 
BRANCH   4   5
ATOM      5  C   UNL     1      32.012   7.154  39.086  1.00  0.00     0.000 C 
BRANCH   5   6
ATOM      6  C   UNL     1      31.048   8.093  39.835  1.00  0.00     0.000 C 
BRANCH   6   7
ATOM      7  C   UNL     1      31.254   8.075  41.356  1.00  0.00     0.000 C 
BRANCH   7   8
ATOM      8  C   UNL     1      29.931   8.210  42.132  1.00  0.00     0.000 C 
BRANCH   8   9
ATOM      9  C   UNL     1      28.689   8.094  41.228  1.00  0.00     0.000 C 
BRANCH   9  10
ATOM     10  C   UNL     1      27.343   8.015  41.974  1.00  0.00     0.000 C 
BRANCH  10  11
ATOM     11  C   UNL     1      26.508   6.783  41.580  1.00  0.00     0.000 C 
BRANCH  11  12
ATOM     12  C   UNL     1      25.712   6.206  42.762  1.00  0.00     0.000 C 
BRANCH  12  13
ATOM     13  C   UNL     1      24.893   4.964  42.366  1.00  0.00     0.006 C 
BRANCH  13  14
ATOM     14  C   UNL     1      25.364   4.358  41.036  1.00  0.00     0.053 C 
BRANCH  14  15
ATOM     15  C   UNL     1      24.508   3.202  40.619  1.00  0.00     0.041 C 
ATOM     16  O   UNL     1      23.762   2.630  41.457  1.00  0.00    -0.550 OA
ATOM     17  O   UNL     1      24.517   2.771  39.298  1.00  0.00    -0.550 OA
ENDBRANCH  14  15
ENDBRANCH  13  14
ENDBRANCH  12  13
ENDBRANCH  11  12
ENDBRANCH  10  11
ENDBRANCH   9  10
ENDBRANCH   8   9
ENDBRANCH   7   8
ENDBRANCH   6   7
ENDBRANCH   5   6
ENDBRANCH   4   5
ENDBRANCH   3   4
ENDBRANCH   2   3
ENDBRANCH   1   2
BRANCH   1  18
ATOM     18  C   UNL     1      28.772   3.990  42.138  1.00  0.00     0.000 C 
BRANCH  18  19
ATOM     19  C   UNL     1      28.912   4.559  43.562  1.00  0.00     0.000 C 
BRANCH  19  20
ATOM     20  C   UNL     1      30.242   4.213  44.253  1.00  0.00     0.000 C 
BRANCH  20  21
ATOM     21  C   UNL     1      31.298   5.321  44.088  1.00  0.00     0.000 C 
BRANCH  21  22
ATOM     22  C   UNL     1      31.875   5.791  45.431  1.00  0.00     0.000 C 
BRANCH  22  23
ATOM     23  C   UNL     1      31.970   7.323  45.531  1.00  0.00     0.000 C 
BRANCH  23  24
ATOM     24  C   UNL     1      30.850   7.922  46.398  1.00  0.00    -0.000 C 
BRANCH  24  25
ATOM     25  C   UNL     1      29.592   8.269  45.580  1.00  0.00    -0.000 C 
BRANCH  25  26
ATOM     26  C   UNL     1      28.367   7.442  46.004  1.00  0.00    -0.000 C 
BRANCH  26  27
ATOM     27  C   UNL     1      28.492   6.895  47.437  1.00  0.00    -0.000 C 
BRANCH  27  28
ATOM     28  C   UNL     1      27.915   5.470  47.581  1.00  0.00    -0.000 C 
BRANCH  28  29
ATOM     29  C   UNL     1      28.587   4.633  48.687  1.00  0.00    -0.000 C 
BRANCH  29  30
ATOM     30  C   UNL     1      29.783   5.311  49.380  1.00  0.00    -0.000 C 
BRANCH  30  31
ATOM     31  C   UNL     1      31.166   4.850  48.884  1.00  0.00    -0.003 C 
ATOM     32  C   UNL     1      31.822   3.826  49.810  1.00  0.00     0.004 C 
ENDBRANCH  30  31
ENDBRANCH  29  30
ENDBRANCH  28  29
ENDBRANCH  27  28
ENDBRANCH  26  27
ENDBRANCH  25  26
ENDBRANCH  24  25
ENDBRANCH  23  24
ENDBRANCH  22  23
ENDBRANCH  21  22
ENDBRANCH  20  21
ENDBRANCH  19  20
ENDBRANCH  18  19
ENDBRANCH   1  18
TORSDOF 28
ENDMDL
MODEL 3
REMARK VINA RESULT:    -4.053      4.338      6.961
REMARK INTER + INTRA:         -15.488
REMARK INTER:                 -10.029
REMARK INTRA:                  -5.459
REMARK UNBOUND:                -4.800
REMARK SMILES CCCCCCCCCCCCCCCCCCCCCCCCCCCCCC(=O)[O-]
REMARK SMILES IDX 16 1 17 2 18 3 19 4 20 5 21 6 22 7 23 8 24 9 25 10 26 11
REMARK SMILES IDX 27 12 28 13 29 14 30 15 31 16 32 17 15 18 14 19 13 20 12 21
REMARK SMILES IDX 11 22 10 23 9 24 8 25 7 26 6 27 5 28 4 29 3 30 2 31 1 32
REMARK H PARENT
REMARK Flexibility Score: inf
ROOT
ATOM      1  C   UNL     1      31.594   6.370  39.499  1.00  0.00     0.000 C 
ENDROOT
BRANCH   1   2
ATOM      2  C   UNL     1      31.105   4.922  39.681  1.00  0.00     0.000 C 
BRANCH   2   3
ATOM      3  C   UNL     1      29.822   4.585  38.888  1.00  0.00     0.000 C 
BRANCH   3   4
ATOM      4  C   UNL     1      28.609   4.226  39.768  1.00  0.00     0.000 C 
BRANCH   4   5
ATOM      5  C   UNL     1      28.856   4.310  41.285  1.00  0.00     0.000 C 
BRANCH   5   6
ATOM      6  C   UNL     1      28.172   5.530  41.931  1.00  0.00     0.000 C 
BRANCH   6   7
ATOM      7  C   UNL     1      28.858   5.985  43.227  1.00  0.00     0.000 C 
BRANCH   7   8
ATOM      8  C   UNL     1      30.295   5.448  43.354  1.00  0.00     0.000 C 
BRANCH   8   9
ATOM      9  C   UNL     1      30.495   4.549  44.589  1.00  0.00     0.000 C 
BRANCH   9  10
ATOM     10  C   UNL     1      31.285   5.192  45.745  1.00  0.00     0.000 C 
BRANCH  10  11
ATOM     11  C   UNL     1      32.002   6.489  45.332  1.00  0.00     0.000 C 
BRANCH  11  12
ATOM     12  C   UNL     1      32.258   7.428  46.524  1.00  0.00     0.000 C 
BRANCH  12  13
ATOM     13  C   UNL     1      33.481   8.335  46.303  1.00  0.00     0.006 C 
BRANCH  13  14
ATOM     14  C   UNL     1      33.252   9.354  45.176  1.00  0.00     0.053 C 
BRANCH  14  15
ATOM     15  C   UNL     1      33.110  10.747  45.707  1.00  0.00     0.041 C 
ATOM     16  O   UNL     1      33.091  11.728  44.917  1.00  0.00    -0.550 OA
ATOM     17  O   UNL     1      32.973  10.960  47.073  1.00  0.00    -0.550 OA
ENDBRANCH  14  15
ENDBRANCH  13  14
ENDBRANCH  12  13
ENDBRANCH  11  12
ENDBRANCH  10  11
ENDBRANCH   9  10
ENDBRANCH   8   9
ENDBRANCH   7   8
ENDBRANCH   6   7
ENDBRANCH   5   6
ENDBRANCH   4   5
ENDBRANCH   3   4
ENDBRANCH   2   3
ENDBRANCH   1   2
BRANCH   1  18
ATOM     18  C   UNL     1      30.451   7.388  39.274  1.00  0.00     0.000 C 
BRANCH  18  19
ATOM     19  C   UNL     1      30.180   8.286  40.495  1.00  0.00     0.000 C 
BRANCH  19  20
ATOM     20  C   UNL     1      31.305   8.282  41.544  1.00  0.00     0.000 C 
BRANCH  20  21
ATOM     21  C   UNL     1      31.058   9.297  42.676  1.00  0.00     0.000 C 
BRANCH  21  22
ATOM     22  C   UNL     1      29.565   9.566  42.914  1.00  0.00     0.000 C 
BRANCH  22  23
ATOM     23  C   UNL     1      29.283  10.149  44.309  1.00  0.00     0.000 C 
BRANCH  23  24
ATOM     24  C   UNL     1      28.256   9.315  45.092  1.00  0.00    -0.000 C 
BRANCH  24  25
ATOM     25  C   UNL     1      28.874   8.622  46.322  1.00  0.00    -0.000 C 
BRANCH  25  26
ATOM     26  C   UNL     1      28.293   7.218  46.560  1.00  0.00    -0.000 C 
BRANCH  26  27
ATOM     27  C   UNL     1      28.355   6.799  48.040  1.00  0.00    -0.000 C 
BRANCH  27  28
ATOM     28  C   UNL     1      28.119   5.286  48.238  1.00  0.00    -0.000 C 
BRANCH  28  29
ATOM     29  C   UNL     1      29.149   4.609  49.163  1.00  0.00    -0.000 C 
BRANCH  29  30
ATOM     30  C   UNL     1      30.523   5.301  49.223  1.00  0.00    -0.000 C 
BRANCH  30  31
ATOM     31  C   UNL     1      31.615   4.510  49.968  1.00  0.00    -0.003 C 
ATOM     32  C   UNL     1      32.111   3.295  49.185  1.00  0.00     0.004 C 
ENDBRANCH  30  31
ENDBRANCH  29  30
ENDBRANCH  28  29
ENDBRANCH  27  28
ENDBRANCH  26  27
ENDBRANCH  25  26
ENDBRANCH  24  25
ENDBRANCH  23  24
ENDBRANCH  22  23
ENDBRANCH  21  22
ENDBRANCH  20  21
ENDBRANCH  19  20
ENDBRANCH  18  19
ENDBRANCH   1  18
TORSDOF 28
ENDMDL
MODEL 4
REMARK VINA RESULT:    -4.001      3.131      5.079
REMARK INTER + INTRA:         -15.351
REMARK INTER:                 -10.473
REMARK INTRA:                  -4.877
REMARK UNBOUND:                -4.800
REMARK SMILES CCCCCCCCCCCCCCCCCCCCCCCCCCCCCC(=O)[O-]
REMARK SMILES IDX 16 1 17 2 18 3 19 4 20 5 21 6 22 7 23 8 24 9 25 10 26 11
REMARK SMILES IDX 27 12 28 13 29 14 30 15 31 16 32 17 15 18 14 19 13 20 12 21
REMARK SMILES IDX 11 22 10 23 9 24 8 25 7 26 6 27 5 28 4 29 3 30 2 31 1 32
REMARK H PARENT
REMARK Flexibility Score: inf
ROOT
ATOM      1  C   UNL     1      23.538   4.981  45.400  1.00  0.00     0.000 C 
ENDROOT
BRANCH   1   2
ATOM      2  C   UNL     1      24.446   6.215  45.249  1.00  0.00     0.000 C 
BRANCH   2   3
ATOM      3  C   UNL     1      25.752   5.945  44.467  1.00  0.00     0.000 C 
BRANCH   3   4
ATOM      4  C   UNL     1      25.854   6.697  43.126  1.00  0.00     0.000 C 
BRANCH   4   5
ATOM      5  C   UNL     1      25.667   5.823  41.872  1.00  0.00     0.000 C 
BRANCH   5   6
ATOM      6  C   UNL     1      24.217   5.837  41.352  1.00  0.00     0.000 C 
BRANCH   6   7
ATOM      7  C   UNL     1      23.473   7.138  41.684  1.00  0.00     0.000 C 
BRANCH   7   8
ATOM      8  C   UNL     1      22.154   6.887  42.437  1.00  0.00     0.000 C 
BRANCH   8   9
ATOM      9  C   UNL     1      21.392   5.651  41.920  1.00  0.00     0.000 C 
BRANCH   9  10
ATOM     10  C   UNL     1      21.059   4.594  42.991  1.00  0.00     0.000 C 
BRANCH  10  11
ATOM     11  C   UNL     1      21.123   3.154  42.454  1.00  0.00     0.000 C 
BRANCH  11  12
ATOM     12  C   UNL     1      21.910   3.049  41.137  1.00  0.00     0.000 C 
BRANCH  12  13
ATOM     13  C   UNL     1      23.282   2.377  41.325  1.00  0.00     0.006 C 
BRANCH  13  14
ATOM     14  C   UNL     1      24.039   2.221  39.999  1.00  0.00     0.053 C 
BRANCH  14  15
ATOM     15  C   UNL     1      23.404   1.194  39.113  1.00  0.00     0.041 C 
ATOM     16  O   UNL     1      23.660  -0.029  39.275  1.00  0.00    -0.550 OA
ATOM     17  O   UNL     1      22.510   1.585  38.124  1.00  0.00    -0.550 OA
ENDBRANCH  14  15
ENDBRANCH  13  14
ENDBRANCH  12  13
ENDBRANCH  11  12
ENDBRANCH  10  11
ENDBRANCH   9  10
ENDBRANCH   8   9
ENDBRANCH   7   8
ENDBRANCH   6   7
ENDBRANCH   5   6
ENDBRANCH   4   5
ENDBRANCH   3   4
ENDBRANCH   2   3
ENDBRANCH   1   2
BRANCH   1  18
ATOM     18  C   UNL     1      24.197   3.663  44.926  1.00  0.00     0.000 C 
BRANCH  18  19
ATOM     19  C   UNL     1      23.783   2.437  45.760  1.00  0.00     0.000 C 
BRANCH  19  20
ATOM     20  C   UNL     1      22.612   2.693  46.724  1.00  0.00     0.000 C 
BRANCH  20  21
ATOM     21  C   UNL     1      23.012   2.507  48.199  1.00  0.00     0.000 C 
BRANCH  21  22
ATOM     22  C   UNL     1      24.486   2.110  48.367  1.00  0.00     0.000 C 
BRANCH  22  23
ATOM     23  C   UNL     1      25.269   3.097  49.249  1.00  0.00     0.000 C 
BRANCH  23  24
ATOM     24  C   UNL     1      24.831   4.553  49.026  1.00  0.00    -0.000 C 
BRANCH  24  25
ATOM     25  C   UNL     1      25.921   5.399  48.340  1.00  0.00    -0.000 C 
BRANCH  25  26
ATOM     26  C   UNL     1      27.279   4.680  48.289  1.00  0.00    -0.000 C 
BRANCH  26  27
ATOM     27  C   UNL     1      28.437   5.574  48.769  1.00  0.00    -0.000 C 
BRANCH  27  28
ATOM     28  C   UNL     1      29.639   4.758  49.293  1.00  0.00    -0.000 C 
BRANCH  28  29
ATOM     29  C   UNL     1      30.994   5.199  48.709  1.00  0.00    -0.000 C 
BRANCH  29  30
ATOM     30  C   UNL     1      30.905   6.074  47.445  1.00  0.00    -0.000 C 
BRANCH  30  31
ATOM     31  C   UNL     1      31.524   5.451  46.180  1.00  0.00    -0.003 C 
ATOM     32  C   UNL     1      30.476   4.997  45.164  1.00  0.00     0.004 C 
ENDBRANCH  30  31
ENDBRANCH  29  30
ENDBRANCH  28  29
ENDBRANCH  27  28
ENDBRANCH  26  27
ENDBRANCH  25  26
ENDBRANCH  24  25
ENDBRANCH  23  24
ENDBRANCH  22  23
ENDBRANCH  21  22
ENDBRANCH  20  21
ENDBRANCH  19  20
ENDBRANCH  18  19
ENDBRANCH   1  18
TORSDOF 28
ENDMDL
MODEL 5
REMARK VINA RESULT:    -3.977      3.139      8.367
REMARK INTER + INTRA:         -15.286
REMARK INTER:                 -10.486
REMARK INTRA:                  -4.801
REMARK UNBOUND:                -4.800
REMARK SMILES CCCCCCCCCCCCCCCCCCCCCCCCCCCCCC(=O)[O-]
REMARK SMILES IDX 16 1 17 2 18 3 19 4 20 5 21 6 22 7 23 8 24 9 25 10 26 11
REMARK SMILES IDX 27 12 28 13 29 14 30 15 31 16 32 17 15 18 14 19 13 20 12 21
REMARK SMILES IDX 11 22 10 23 9 24 8 25 7 26 6 27 5 28 4 29 3 30 2 31 1 32
REMARK H PARENT
REMARK Flexibility Score: inf
ROOT
ATOM      1  C   UNL     1      29.590   4.635  42.113  1.00  0.00     0.000 C 
ENDROOT
BRANCH   1   2
ATOM      2  C   UNL     1      28.384   4.049  42.870  1.00  0.00     0.000 C 
BRANCH   2   3
ATOM      3  C   UNL     1      28.621   3.863  44.385  1.00  0.00     0.000 C 
BRANCH   3   4
ATOM      4  C   UNL     1      27.435   4.296  45.270  1.00  0.00     0.000 C 
BRANCH   4   5
ATOM      5  C   UNL     1      27.725   5.474  46.218  1.00  0.00     0.000 C 
BRANCH   5   6
ATOM      6  C   UNL     1      27.571   5.091  47.703  1.00  0.00     0.000 C 
BRANCH   6   7
ATOM      7  C   UNL     1      28.581   5.804  48.613  1.00  0.00     0.000 C 
BRANCH   7   8
ATOM      8  C   UNL     1      29.654   4.849  49.165  1.00  0.00     0.000 C 
BRANCH   8   9
ATOM      9  C   UNL     1      31.076   5.200  48.687  1.00  0.00     0.000 C 
BRANCH   9  10
ATOM     10  C   UNL     1      31.145   6.227  47.540  1.00  0.00     0.000 C 
BRANCH  10  11
ATOM     11  C   UNL     1      31.423   5.581  46.171  1.00  0.00     0.000 C 
BRANCH  11  12
ATOM     12  C   UNL     1      31.038   6.496  44.997  1.00  0.00     0.000 C 
BRANCH  12  13
ATOM     13  C   UNL     1      32.268   7.080  44.280  1.00  0.00     0.006 C 
BRANCH  13  14
ATOM     14  C   UNL     1      33.029   6.017  43.474  1.00  0.00     0.053 C 
BRANCH  14  15
ATOM     15  C   UNL     1      32.939   6.269  42.000  1.00  0.00     0.041 C 
ATOM     16  O   UNL     1      33.087   5.320  41.184  1.00  0.00    -0.550 OA
ATOM     17  O   UNL     1      32.668   7.547  41.528  1.00  0.00    -0.550 OA
ENDBRANCH  14  15
ENDBRANCH  13  14
ENDBRANCH  12  13
ENDBRANCH  11  12
ENDBRANCH  10  11
ENDBRANCH   9  10
ENDBRANCH   8   9
ENDBRANCH   7   8
ENDBRANCH   6   7
ENDBRANCH   5   6
ENDBRANCH   4   5
ENDBRANCH   3   4
ENDBRANCH   2   3
ENDBRANCH   1   2
BRANCH   1  18
ATOM     18  C   UNL     1      29.263   5.929  41.330  1.00  0.00     0.000 C 
BRANCH  18  19
ATOM     19  C   UNL     1      28.511   6.979  42.167  1.00  0.00     0.000 C 
BRANCH  19  20
ATOM     20  C   UNL     1      27.488   7.808  41.370  1.00  0.00     0.000 C 
BRANCH  20  21
ATOM     21  C   UNL     1      26.146   7.956  42.110  1.00  0.00     0.000 C 
BRANCH  21  22
ATOM     22  C   UNL     1      25.848   6.770  43.038  1.00  0.00     0.000 C 
BRANCH  22  23
ATOM     23  C   UNL     1      24.655   5.927  42.557  1.00  0.00     0.000 C 
BRANCH  23  24
ATOM     24  C   UNL     1      24.833   5.436  41.111  1.00  0.00    -0.000 C 
BRANCH  24  25
ATOM     25  C   UNL     1      25.421   4.014  41.039  1.00  0.00    -0.000 C 
BRANCH  25  26
ATOM     26  C   UNL     1      25.470   3.468  39.602  1.00  0.00    -0.000 C 
BRANCH  26  27
ATOM     27  C   UNL     1      24.523   2.273  39.393  1.00  0.00    -0.000 C 
BRANCH  27  28
ATOM     28  C   UNL     1      23.039   2.694  39.339  1.00  0.00    -0.000 C 
BRANCH  28  29
ATOM     29  C   UNL     1      22.263   2.413  40.640  1.00  0.00    -0.000 C 
BRANCH  29  30
ATOM     30  C   UNL     1      21.162   3.437  40.976  1.00  0.00    -0.000 C 
BRANCH  30  31
ATOM     31  C   UNL     1      21.408   4.257  42.255  1.00  0.00    -0.003 C 
ATOM     32  C   UNL     1      21.148   5.751  42.066  1.00  0.00     0.004 C 
ENDBRANCH  30  31
ENDBRANCH  29  30
ENDBRANCH  28  29
ENDBRANCH  27  28
ENDBRANCH  26  27
ENDBRANCH  25  26
ENDBRANCH  24  25
ENDBRANCH  23  24
ENDBRANCH  22  23
ENDBRANCH  21  22
ENDBRANCH  20  21
ENDBRANCH  19  20
ENDBRANCH  18  19
ENDBRANCH   1  18
TORSDOF 28
ENDMDL
MODEL 6
REMARK VINA RESULT:    -3.962      4.762      8.550
REMARK INTER + INTRA:         -15.249
REMARK INTER:                 -10.104
REMARK INTRA:                  -5.145
REMARK UNBOUND:                -4.800
REMARK SMILES CCCCCCCCCCCCCCCCCCCCCCCCCCCCCC(=O)[O-]
REMARK SMILES IDX 16 1 17 2 18 3 19 4 20 5 21 6 22 7 23 8 24 9 25 10 26 11
REMARK SMILES IDX 27 12 28 13 29 14 30 15 31 16 32 17 15 18 14 19 13 20 12 21
REMARK SMILES IDX 11 22 10 23 9 24 8 25 7 26 6 27 5 28 4 29 3 30 2 31 1 32
REMARK H PARENT
REMARK Flexibility Score: inf
ROOT
ATOM      1  C   UNL     1      21.345   0.358  44.391  1.00  0.00     0.000 C 
ENDROOT
BRANCH   1   2
ATOM      2  C   UNL     1      20.405  -0.474  43.499  1.00  0.00     0.000 C 
BRANCH   2   3
ATOM      3  C   UNL     1      19.151  -1.006  44.229  1.00  0.00     0.000 C 
BRANCH   3   4
ATOM      4  C   UNL     1      17.816  -0.525  43.629  1.00  0.00     0.000 C 
BRANCH   4   5
ATOM      5  C   UNL     1      17.900   0.776  42.810  1.00  0.00     0.000 C 
BRANCH   5   6
ATOM      6  C   UNL     1      17.817   2.037  43.691  1.00  0.00     0.000 C 
BRANCH   6   7
ATOM      7  C   UNL     1      18.402   3.284  43.010  1.00  0.00     0.000 C 
BRANCH   7   8
ATOM      8  C   UNL     1      18.438   3.156  41.477  1.00  0.00     0.000 C 
BRANCH   8   9
ATOM      9  C   UNL     1      19.812   3.507  40.876  1.00  0.00     0.000 C 
BRANCH   9  10
ATOM     10  C   UNL     1      21.024   3.126  41.749  1.00  0.00     0.000 C 
BRANCH  10  11
ATOM     11  C   UNL     1      21.965   4.313  42.021  1.00  0.00     0.000 C 
BRANCH  11  12
ATOM     12  C   UNL     1      23.323   4.164  41.315  1.00  0.00     0.000 C 
BRANCH  12  13
ATOM     13  C   UNL     1      23.748   2.693  41.166  1.00  0.00     0.006 C 
BRANCH  13  14
ATOM     14  C   UNL     1      24.281   2.382  39.759  1.00  0.00     0.053 C 
BRANCH  14  15
ATOM     15  C   UNL     1      23.449   1.348  39.066  1.00  0.00     0.041 C 
ATOM     16  O   UNL     1      22.547   1.696  38.258  1.00  0.00    -0.550 OA
ATOM     17  O   UNL     1      23.685  -0.002  39.293  1.00  0.00    -0.550 OA
ENDBRANCH  14  15
ENDBRANCH  13  14
ENDBRANCH  12  13
ENDBRANCH  11  12
ENDBRANCH  10  11
ENDBRANCH   9  10
ENDBRANCH   8   9
ENDBRANCH   7   8
ENDBRANCH   6   7
ENDBRANCH   5   6
ENDBRANCH   4   5
ENDBRANCH   3   4
ENDBRANCH   2   3
ENDBRANCH   1   2
BRANCH   1  18
ATOM     18  C   UNL     1      20.851   0.502  45.850  1.00  0.00     0.000 C 
BRANCH  18  19
ATOM     19  C   UNL     1      20.911   1.946  46.378  1.00  0.00     0.000 C 
BRANCH  19  20
ATOM     20  C   UNL     1      21.263   2.996  45.311  1.00  0.00     0.000 C 
BRANCH  20  21
ATOM     21  C   UNL     1      22.538   3.785  45.658  1.00  0.00     0.000 C 
BRANCH  21  22
ATOM     22  C   UNL     1      23.820   2.988  45.380  1.00  0.00     0.000 C 
BRANCH  22  23
ATOM     23  C   UNL     1      24.815   3.756  44.492  1.00  0.00     0.000 C 
BRANCH  23  24
ATOM     24  C   UNL     1      25.958   4.384  45.305  1.00  0.00    -0.000 C 
BRANCH  24  25
ATOM     25  C   UNL     1      26.326   3.550  46.547  1.00  0.00    -0.000 C 
BRANCH  25  26
ATOM     26  C   UNL     1      26.151   4.336  47.858  1.00  0.00    -0.000 C 
BRANCH  26  27
ATOM     27  C   UNL     1      25.629   3.455  49.007  1.00  0.00    -0.000 C 
BRANCH  27  28
ATOM     28  C   UNL     1      24.125   3.670  49.284  1.00  0.00    -0.000 C 
BRANCH  28  29
ATOM     29  C   UNL     1      23.247   2.450  48.946  1.00  0.00    -0.000 C 
BRANCH  29  30
ATOM     30  C   UNL     1      24.023   1.178  48.558  1.00  0.00    -0.000 C 
BRANCH  30  31
ATOM     31  C   UNL     1      23.935   0.028  49.579  1.00  0.00    -0.003 C 
ATOM     32  C   UNL     1      25.184  -0.853  49.595  1.00  0.00     0.004 C 
ENDBRANCH  30  31
ENDBRANCH  29  30
ENDBRANCH  28  29
ENDBRANCH  27  28
ENDBRANCH  26  27
ENDBRANCH  25  26
ENDBRANCH  24  25
ENDBRANCH  23  24
ENDBRANCH  22  23
ENDBRANCH  21  22
ENDBRANCH  20  21
ENDBRANCH  19  20
ENDBRANCH  18  19
ENDBRANCH   1  18
TORSDOF 28
ENDMDL
MODEL 7
REMARK VINA RESULT:    -3.923      6.559     10.101
REMARK INTER + INTRA:         -15.144
REMARK INTER:                  -9.940
REMARK INTRA:                  -5.204
REMARK UNBOUND:                -4.800
REMARK SMILES CCCCCCCCCCCCCCCCCCCCCCCCCCCCCC(=O)[O-]
REMARK SMILES IDX 16 1 17 2 18 3 19 4 20 5 21 6 22 7 23 8 24 9 25 10 26 11
REMARK SMILES IDX 27 12 28 13 29 14 30 15 31 16 32 17 15 18 14 19 13 20 12 21
REMARK SMILES IDX 11 22 10 23 9 24 8 25 7 26 6 27 5 28 4 29 3 30 2 31 1 32
REMARK H PARENT
REMARK Flexibility Score: inf
ROOT
ATOM      1  C   UNL     1      22.039  -2.593  46.138  1.00  0.00     0.000 C 
ENDROOT
BRANCH   1   2
ATOM      2  C   UNL     1      20.968  -2.918  45.081  1.00  0.00     0.000 C 
BRANCH   2   3
ATOM      3  C   UNL     1      19.573  -2.332  45.396  1.00  0.00     0.000 C 
BRANCH   3   4
ATOM      4  C   UNL     1      19.174  -1.136  44.510  1.00  0.00     0.000 C 
BRANCH   4   5
ATOM      5  C   UNL     1      20.274  -0.632  43.559  1.00  0.00     0.000 C 
BRANCH   5   6
ATOM      6  C   UNL     1      20.404   0.903  43.564  1.00  0.00     0.000 C 
BRANCH   6   7
ATOM      7  C   UNL     1      19.138   1.610  44.067  1.00  0.00     0.000 C 
BRANCH   7   8
ATOM      8  C   UNL     1      18.197   2.021  42.921  1.00  0.00     0.000 C 
BRANCH   8   9
ATOM      9  C   UNL     1      18.874   2.940  41.886  1.00  0.00     0.000 C 
BRANCH   9  10
ATOM     10  C   UNL     1      19.591   4.170  42.475  1.00  0.00     0.000 C 
BRANCH  10  11
ATOM     11  C   UNL     1      20.912   4.496  41.756  1.00  0.00     0.000 C 
BRANCH  11  12
ATOM     12  C   UNL     1      21.352   3.381  40.793  1.00  0.00     0.000 C 
BRANCH  12  13
ATOM     13  C   UNL     1      22.640   2.679  41.258  1.00  0.00     0.006 C 
BRANCH  13  14
ATOM     14  C   UNL     1      23.695   2.603  40.145  1.00  0.00     0.053 C 
BRANCH  14  15
ATOM     15  C   UNL     1      23.388   1.517  39.161  1.00  0.00     0.041 C 
ATOM     16  O   UNL     1      23.932   0.386  39.274  1.00  0.00    -0.550 OA
ATOM     17  O   UNL     1      22.481   1.745  38.133  1.00  0.00    -0.550 OA
ENDBRANCH  14  15
ENDBRANCH  13  14
ENDBRANCH  12  13
ENDBRANCH  11  12
ENDBRANCH  10  11
ENDBRANCH   9  10
ENDBRANCH   8   9
ENDBRANCH   7   8
ENDBRANCH   6   7
ENDBRANCH   5   6
ENDBRANCH   4   5
ENDBRANCH   3   4
ENDBRANCH   2   3
ENDBRANCH   1   2
BRANCH   1  18
ATOM     18  C   UNL     1      22.534  -3.831  46.922  1.00  0.00     0.000 C 
BRANCH  18  19
ATOM     19  C   UNL     1      22.183  -3.789  48.421  1.00  0.00     0.000 C 
BRANCH  19  20
ATOM     20  C   UNL     1      20.731  -4.183  48.741  1.00  0.00     0.000 C 
BRANCH  20  21
ATOM     21  C   UNL     1      19.838  -2.961  49.027  1.00  0.00     0.000 C 
BRANCH  21  22
ATOM     22  C   UNL     1      20.636  -1.752  49.536  1.00  0.00     0.000 C 
BRANCH  22  23
ATOM     23  C   UNL     1      19.996  -0.411  49.140  1.00  0.00     0.000 C 
BRANCH  23  24
ATOM     24  C   UNL     1      20.561   0.138  47.820  1.00  0.00    -0.000 C 
BRANCH  24  25
ATOM     25  C   UNL     1      21.534   1.313  48.038  1.00  0.00    -0.000 C 
BRANCH  25  26
ATOM     26  C   UNL     1      22.044   1.908  46.715  1.00  0.00    -0.000 C 
BRANCH  26  27
ATOM     27  C   UNL     1      23.092   1.013  46.031  1.00  0.00    -0.000 C 
BRANCH  27  28
ATOM     28  C   UNL     1      24.358   0.815  46.893  1.00  0.00    -0.000 C 
BRANCH  28  29
ATOM     29  C   UNL     1      24.933  -0.613  46.839  1.00  0.00    -0.000 C 
BRANCH  29  30
ATOM     30  C   UNL     1      25.015  -1.334  48.197  1.00  0.00    -0.000 C 
BRANCH  30  31
ATOM     31  C   UNL     1      24.321  -0.603  49.362  1.00  0.00    -0.003 C 
ATOM     32  C   UNL     1      24.255  -1.441  50.639  1.00  0.00     0.004 C 
ENDBRANCH  30  31
ENDBRANCH  29  30
ENDBRANCH  28  29
ENDBRANCH  27  28
ENDBRANCH  26  27
ENDBRANCH  25  26
ENDBRANCH  24  25
ENDBRANCH  23  24
ENDBRANCH  22  23
ENDBRANCH  21  22
ENDBRANCH  20  21
ENDBRANCH  19  20
ENDBRANCH  18  19
ENDBRANCH   1  18
TORSDOF 28
ENDMDL
MODEL 8
REMARK VINA RESULT:    -3.917      8.568     13.366
REMARK INTER + INTRA:         -15.130
REMARK INTER:                 -11.041
REMARK INTRA:                  -4.089
REMARK UNBOUND:                -4.800
REMARK SMILES CCCCCCCCCCCCCCCCCCCCCCCCCCCCCC(=O)[O-]
REMARK SMILES IDX 16 1 17 2 18 3 19 4 20 5 21 6 22 7 23 8 24 9 25 10 26 11
REMARK SMILES IDX 27 12 28 13 29 14 30 15 31 16 32 17 15 18 14 19 13 20 12 21
REMARK SMILES IDX 11 22 10 23 9 24 8 25 7 26 6 27 5 28 4 29 3 30 2 31 1 32
REMARK H PARENT
REMARK Flexibility Score: inf
ROOT
ATOM      1  C   UNL     1      19.642  -3.504  45.752  1.00  0.00     0.000 C 
ENDROOT
BRANCH   1   2
ATOM      2  C   UNL     1      21.029  -4.062  45.381  1.00  0.00     0.000 C 
BRANCH   2   3
ATOM      3  C   UNL     1      21.037  -5.576  45.072  1.00  0.00     0.000 C 
BRANCH   3   4
ATOM      4  C   UNL     1      22.186  -6.354  45.743  1.00  0.00     0.000 C 
BRANCH   4   5
ATOM      5  C   UNL     1      21.794  -7.723  46.326  1.00  0.00     0.000 C 
BRANCH   5   6
ATOM      6  C   UNL     1      20.305  -7.797  46.717  1.00  0.00     0.000 C 
BRANCH   6   7
ATOM      7  C   UNL     1      20.066  -7.556  48.214  1.00  0.00     0.000 C 
BRANCH   7   8
ATOM      8  C   UNL     1      19.537  -6.140  48.507  1.00  0.00     0.000 C 
BRANCH   8   9
ATOM      9  C   UNL     1      20.627  -5.188  49.034  1.00  0.00     0.000 C 
BRANCH   9  10
ATOM     10  C   UNL     1      21.879  -5.881  49.608  1.00  0.00     0.000 C 
BRANCH  10  11
ATOM     11  C   UNL     1      23.193  -5.235  49.133  1.00  0.00     0.000 C 
BRANCH  11  12
ATOM     12  C   UNL     1      22.976  -3.854  48.492  1.00  0.00     0.000 C 
BRANCH  12  13
ATOM     13  C   UNL     1      24.054  -3.516  47.448  1.00  0.00     0.006 C 
BRANCH  13  14
ATOM     14  C   UNL     1      24.026  -2.034  47.045  1.00  0.00     0.053 C 
BRANCH  14  15
ATOM     15  C   UNL     1      24.256  -1.134  48.219  1.00  0.00     0.041 C 
ATOM     16  O   UNL     1      25.374  -1.120  48.800  1.00  0.00    -0.550 OA
ATOM     17  O   UNL     1      23.242  -0.291  48.658  1.00  0.00    -0.550 OA
ENDBRANCH  14  15
ENDBRANCH  13  14
ENDBRANCH  12  13
ENDBRANCH  11  12
ENDBRANCH  10  11
ENDBRANCH   9  10
ENDBRANCH   8   9
ENDBRANCH   7   8
ENDBRANCH   6   7
ENDBRANCH   5   6
ENDBRANCH   4   5
ENDBRANCH   3   4
ENDBRANCH   2   3
ENDBRANCH   1   2
BRANCH   1  18
ATOM     18  C   UNL     1      19.636  -1.979  46.014  1.00  0.00     0.000 C 
BRANCH  18  19
ATOM     19  C   UNL     1      20.723  -1.218  45.234  1.00  0.00     0.000 C 
BRANCH  19  20
ATOM     20  C   UNL     1      20.345  -0.887  43.781  1.00  0.00     0.000 C 
BRANCH  20  21
ATOM     21  C   UNL     1      18.844  -0.586  43.616  1.00  0.00     0.000 C 
BRANCH  21  22
ATOM     22  C   UNL     1      18.498   0.878  43.924  1.00  0.00     0.000 C 
BRANCH  22  23
ATOM     23  C   UNL     1      17.541   1.491  42.888  1.00  0.00     0.000 C 
BRANCH  23  24
ATOM     24  C   UNL     1      17.551   3.028  42.923  1.00  0.00    -0.000 C 
BRANCH  24  25
ATOM     25  C   UNL     1      17.579   3.650  41.514  1.00  0.00    -0.000 C 
BRANCH  25  26
ATOM     26  C   UNL     1      18.864   3.306  40.744  1.00  0.00    -0.000 C 
BRANCH  26  27
ATOM     27  C   UNL     1      20.135   3.751  41.489  1.00  0.00    -0.000 C 
BRANCH  27  28
ATOM     28  C   UNL     1      21.288   2.732  41.360  1.00  0.00    -0.000 C 
BRANCH  28  29
ATOM     29  C   UNL     1      22.441   3.206  40.455  1.00  0.00    -0.000 C 
BRANCH  29  30
ATOM     30  C   UNL     1      22.738   2.296  39.249  1.00  0.00    -0.000 C 
BRANCH  30  31
ATOM     31  C   UNL     1      24.007   1.434  39.384  1.00  0.00    -0.003 C 
ATOM     32  C   UNL     1      23.706  -0.064  39.450  1.00  0.00     0.004 C 
ENDBRANCH  30  31
ENDBRANCH  29  30
ENDBRANCH  28  29
ENDBRANCH  27  28
ENDBRANCH  26  27
ENDBRANCH  25  26
ENDBRANCH  24  25
ENDBRANCH  23  24
ENDBRANCH  22  23
ENDBRANCH  21  22
ENDBRANCH  20  21
ENDBRANCH  19  20
ENDBRANCH  18  19
ENDBRANCH   1  18
TORSDOF 28
ENDMDL
MODEL 9
REMARK VINA RESULT:    -3.868      9.782     13.807
REMARK INTER + INTRA:         -15.000
REMARK INTER:                  -8.691
REMARK INTRA:                  -6.309
REMARK UNBOUND:                -4.800
REMARK SMILES CCCCCCCCCCCCCCCCCCCCCCCCCCCCCC(=O)[O-]
REMARK SMILES IDX 16 1 17 2 18 3 19 4 20 5 21 6 22 7 23 8 24 9 25 10 26 11
REMARK SMILES IDX 27 12 28 13 29 14 30 15 31 16 32 17 15 18 14 19 13 20 12 21
REMARK SMILES IDX 11 22 10 23 9 24 8 25 7 26 6 27 5 28 4 29 3 30 2 31 1 32
REMARK H PARENT
REMARK Flexibility Score: inf
ROOT
ATOM      1  C   UNL     1      24.047  -1.783  49.955  1.00  0.00     0.000 C 
ENDROOT
BRANCH   1   2
ATOM      2  C   UNL     1      24.965  -0.822  49.180  1.00  0.00     0.000 C 
BRANCH   2   3
ATOM      3  C   UNL     1      24.379   0.596  48.993  1.00  0.00     0.000 C 
BRANCH   3   4
ATOM      4  C   UNL     1      23.902   0.901  47.560  1.00  0.00     0.000 C 
BRANCH   4   5
ATOM      5  C   UNL     1      22.377   0.858  47.357  1.00  0.00     0.000 C 
BRANCH   5   6
ATOM      6  C   UNL     1      21.609   0.660  48.678  1.00  0.00     0.000 C 
BRANCH   6   7
ATOM      7  C   UNL     1      20.256  -0.041  48.486  1.00  0.00     0.000 C 
BRANCH   7   8
ATOM      8  C   UNL     1      20.255  -1.480  49.033  1.00  0.00     0.000 C 
BRANCH   8   9
ATOM      9  C   UNL     1      18.922  -2.214  48.792  1.00  0.00     0.000 C 
BRANCH   9  10
ATOM     10  C   UNL     1      18.746  -3.524  49.584  1.00  0.00     0.000 C 
BRANCH  10  11
ATOM     11  C   UNL     1      20.047  -4.338  49.696  1.00  0.00     0.000 C 
BRANCH  11  12
ATOM     12  C   UNL     1      20.260  -4.922  51.103  1.00  0.00     0.000 C 
BRANCH  12  13
ATOM     13  C   UNL     1      21.727  -4.837  51.558  1.00  0.00     0.006 C 
BRANCH  13  14
ATOM     14  C   UNL     1      21.969  -3.666  52.523  1.00  0.00     0.053 C 
BRANCH  14  15
ATOM     15  C   UNL     1      21.640  -4.035  53.936  1.00  0.00     0.041 C 
ATOM     16  O   UNL     1      21.138  -3.181  54.715  1.00  0.00    -0.550 OA
ATOM     17  O   UNL     1      21.865  -5.329  54.388  1.00  0.00    -0.550 OA
ENDBRANCH  14  15
ENDBRANCH  13  14
ENDBRANCH  12  13
ENDBRANCH  11  12
ENDBRANCH  10  11
ENDBRANCH   9  10
ENDBRANCH   8   9
ENDBRANCH   7   8
ENDBRANCH   6   7
ENDBRANCH   5   6
ENDBRANCH   4   5
ENDBRANCH   3   4
ENDBRANCH   2   3
ENDBRANCH   1   2
BRANCH   1  18
ATOM     18  C   UNL     1      23.263  -2.761  49.048  1.00  0.00     0.000 C 
BRANCH  18  19
ATOM     19  C   UNL     1      23.908  -2.967  47.666  1.00  0.00     0.000 C 
BRANCH  19  20
ATOM     20  C   UNL     1      23.990  -4.437  47.220  1.00  0.00     0.000 C 
BRANCH  20  21
ATOM     21  C   UNL     1      23.384  -5.402  48.255  1.00  0.00     0.000 C 
BRANCH  21  22
ATOM     22  C   UNL     1      22.455  -6.446  47.617  1.00  0.00     0.000 C 
BRANCH  22  23
ATOM     23  C   UNL     1      22.675  -6.586  46.101  1.00  0.00     0.000 C 
BRANCH  23  24
ATOM     24  C   UNL     1      21.428  -6.193  45.292  1.00  0.00    -0.000 C 
BRANCH  24  25
ATOM     25  C   UNL     1      20.276  -5.698  46.187  1.00  0.00    -0.000 C 
BRANCH  25  26
ATOM     26  C   UNL     1      19.935  -4.219  45.944  1.00  0.00    -0.000 C 
BRANCH  26  27
ATOM     27  C   UNL     1      21.015  -3.493  45.120  1.00  0.00    -0.000 C 
BRANCH  27  28
ATOM     28  C   UNL     1      21.034  -1.970  45.377  1.00  0.00    -0.000 C 
BRANCH  28  29
ATOM     29  C   UNL     1      20.661  -1.125  44.144  1.00  0.00    -0.000 C 
BRANCH  29  30
ATOM     30  C   UNL     1      19.155  -0.853  43.972  1.00  0.00    -0.000 C 
BRANCH  30  31
ATOM     31  C   UNL     1      18.374  -0.679  45.288  1.00  0.00    -0.003 C 
ATOM     32  C   UNL     1      17.245  -1.697  45.452  1.00  0.00     0.004 C 
ENDBRANCH  30  31
ENDBRANCH  29  30
ENDBRANCH  28  29
ENDBRANCH  27  28
ENDBRANCH  26  27
ENDBRANCH  25  26
ENDBRANCH  24  25
ENDBRANCH  23  24
ENDBRANCH  22  23
ENDBRANCH  21  22
ENDBRANCH  20  21
ENDBRANCH  19  20
ENDBRANCH  18  19
ENDBRANCH   1  18
TORSDOF 28
ENDMDL
