MODEL 1
REMARK VINA RESULT:    -3.999      0.000      0.000
REMARK INTER + INTRA:         -10.262
REMARK INTER:                  -7.505
REMARK INTRA:                  -2.757
REMARK UNBOUND:                -2.757
REMARK SMILES CCCCCCCCC=CCCCCCCCC(=O)[O-]
REMARK SMILES IDX 10 1 9 2 11 3 12 4 13 5 14 6 15 7 16 8 17 9 18 10 19 11
REMARK SMILES IDX 20 12 8 13 7 14 6 15 5 16 4 17 3 18 2 19 1 20
REMARK H PARENT
REMARK Flexibility Score: inf
ROOT
ATOM      1  C   UNL     1      78.033  80.680  78.662  1.00  0.00    -0.031 C 
ATOM      2  C   UNL     1      77.019  79.874  79.009  1.00  0.00    -0.031 C 
ENDROOT
BRANCH   1   3
ATOM      3  C   UNL     1      79.402  80.136  78.358  1.00  0.00     0.027 C 
BRANCH   3   4
ATOM      4  C   UNL     1      80.404  81.270  78.098  1.00  0.00     0.004 C 
BRANCH   4   5
ATOM      5  C   UNL     1      80.640  81.529  76.598  1.00  0.00     0.000 C 
BRANCH   5   6
ATOM      6  C   UNL     1      79.905  82.755  76.027  1.00  0.00     0.000 C 
BRANCH   6   7
ATOM      7  C   UNL     1      79.649  82.647  74.515  1.00  0.00     0.000 C 
BRANCH   7   8
ATOM      8  C   UNL     1      78.160  82.452  74.175  1.00  0.00     0.006 C 
BRANCH   8   9
ATOM      9  C   UNL     1      77.202  82.805  75.324  1.00  0.00     0.053 C 
BRANCH   9  10
ATOM     10  C   UNL     1      76.337  83.981  74.990  1.00  0.00     0.041 C 
ATOM     11  O   UNL     1      76.842  85.128  74.873  1.00  0.00    -0.550 OA
ATOM     12  O   UNL     1      74.965  83.816  74.839  1.00  0.00    -0.550 OA
ENDBRANCH   9  10
ENDBRANCH   8   9
ENDBRANCH   7   8
ENDBRANCH   6   7
ENDBRANCH   5   6
ENDBRANCH   4   5
ENDBRANCH   3   4
ENDBRANCH   1   3
BRANCH   2  13
ATOM     13  C   UNL     1      75.652  80.418  79.328  1.00  0.00     0.027 C 
BRANCH  13  14
ATOM     14  C   UNL     1      75.442  81.836  78.776  1.00  0.00     0.004 C 
BRANCH  14  15
ATOM     15  C   UNL     1      74.430  81.864  77.620  1.00  0.00     0.000 C 
BRANCH  15  16
ATOM     16  C   UNL     1      73.850  80.464  77.366  1.00  0.00     0.000 C 
BRANCH  16  17
ATOM     17  C   UNL     1      73.550  80.207  75.880  1.00  0.00    -0.000 C 
BRANCH  17  18
ATOM     18  C   UNL     1      74.826  79.954  75.056  1.00  0.00    -0.000 C 
BRANCH  18  19
ATOM     19  C   UNL     1      75.722  78.871  75.678  1.00  0.00    -0.003 C 
ATOM     20  C   UNL     1      77.205  79.083  75.372  1.00  0.00     0.004 C 
ENDBRANCH  18  19
ENDBRANCH  17  18
ENDBRANCH  16  17
ENDBRANCH  15  16
ENDBRANCH  14  15
ENDBRANCH  13  14
ENDBRANCH   2  13
TORSDOF 15
ENDMDL
MODEL 2
REMARK VINA RESULT:    -3.858      1.111      4.743
REMARK INTER + INTRA:          -9.997
REMARK INTER:                  -7.712
REMARK INTRA:                  -2.285
REMARK UNBOUND:                -2.757
REMARK SMILES CCCCCCCCC=CCCCCCCCC(=O)[O-]
REMARK SMILES IDX 10 1 9 2 11 3 12 4 13 5 14 6 15 7 16 8 17 9 18 10 19 11
REMARK SMILES IDX 20 12 8 13 7 14 6 15 5 16 4 17 3 18 2 19 1 20
REMARK H PARENT
REMARK Flexibility Score: inf
ROOT
ATOM      1  C   UNL     1      73.753  80.586  77.443  1.00  0.00    -0.031 C 
ATOM      2  C   UNL     1      74.455  81.702  77.688  1.00  0.00    -0.031 C 
ENDROOT
BRANCH   1   3
ATOM      3  C   UNL     1      72.735  80.524  76.338  1.00  0.00     0.027 C 
BRANCH   3   4
ATOM      4  C   UNL     1      73.237  81.249  75.080  1.00  0.00     0.004 C 
BRANCH   4   5
ATOM      5  C   UNL     1      73.425  80.304  73.879  1.00  0.00     0.000 C 
BRANCH   5   6
ATOM      6  C   UNL     1      74.882  80.132  73.411  1.00  0.00     0.000 C 
BRANCH   6   7
ATOM      7  C   UNL     1      75.906  80.514  74.494  1.00  0.00     0.000 C 
BRANCH   7   8
ATOM      8  C   UNL     1      76.763  81.730  74.099  1.00  0.00     0.006 C 
BRANCH   8   9
ATOM      9  C   UNL     1      76.979  82.742  75.236  1.00  0.00     0.053 C 
BRANCH   9  10
ATOM     10  C   UNL     1      76.216  84.011  75.010  1.00  0.00     0.041 C 
ATOM     11  O   UNL     1      74.959  83.988  74.926  1.00  0.00    -0.550 OA
ATOM     12  O   UNL     1      76.894  85.214  74.860  1.00  0.00    -0.550 OA
ENDBRANCH   9  10
ENDBRANCH   8   9
ENDBRANCH   7   8
ENDBRANCH   6   7
ENDBRANCH   5   6
ENDBRANCH   4   5
ENDBRANCH   3   4
ENDBRANCH   1   3
BRANCH   2  13
ATOM     13  C   UNL     1      75.464  81.772  78.804  1.00  0.00     0.027 C 
BRANCH  13  14
ATOM     14  C   UNL     1      76.708  80.915  78.522  1.00  0.00     0.004 C 
BRANCH  14  15
ATOM     15  C   UNL     1      77.986  81.763  78.431  1.00  0.00     0.000 C 
BRANCH  15  16
ATOM     16  C   UNL     1      79.238  80.877  78.514  1.00  0.00     0.000 C 
BRANCH  16  17
ATOM     17  C   UNL     1      79.422  79.990  77.272  1.00  0.00    -0.000 C 
BRANCH  17  18
ATOM     18  C   UNL     1      79.931  80.780  76.053  1.00  0.00    -0.000 C 
BRANCH  18  19
ATOM     19  C   UNL     1      80.882  81.922  76.448  1.00  0.00    -0.003 C 
ATOM     20  C   UNL     1      80.514  83.252  75.791  1.00  0.00     0.004 C 
ENDBRANCH  18  19
ENDBRANCH  17  18
ENDBRANCH  16  17
ENDBRANCH  15  16
ENDBRANCH  14  15
ENDBRANCH  13  14
ENDBRANCH   2  13
TORSDOF 15
ENDMDL
MODEL 3
REMARK VINA RESULT:    -3.857      1.283      4.689
REMARK INTER + INTRA:          -9.996
REMARK INTER:                  -7.163
REMARK INTRA:                  -2.833
REMARK UNBOUND:                -2.757
REMARK SMILES CCCCCCCCC=CCCCCCCCC(=O)[O-]
REMARK SMILES IDX 10 1 9 2 11 3 12 4 13 5 14 6 15 7 16 8 17 9 18 10 19 11
REMARK SMILES IDX 20 12 8 13 7 14 6 15 5 16 4 17 3 18 2 19 1 20
REMARK H PARENT
REMARK Flexibility Score: inf
ROOT
ATOM      1  C   UNL     1      77.475  81.754  78.369  1.00  0.00    -0.031 C 
ATOM      2  C   UNL     1      78.094  80.569  78.472  1.00  0.00    -0.031 C 
ENDROOT
BRANCH   1   3
ATOM      3  C   UNL     1      76.012  81.908  78.685  1.00  0.00     0.027 C 
BRANCH   3   4
ATOM      4  C   UNL     1      75.374  80.555  79.031  1.00  0.00     0.004 C 
BRANCH   4   5
ATOM      5  C   UNL     1      74.516  79.986  77.885  1.00  0.00     0.000 C 
BRANCH   5   6
ATOM      6  C   UNL     1      74.308  80.940  76.695  1.00  0.00     0.000 C 
BRANCH   6   7
ATOM      7  C   UNL     1      75.140  80.548  75.463  1.00  0.00     0.000 C 
BRANCH   7   8
ATOM      8  C   UNL     1      75.421  81.740  74.530  1.00  0.00     0.006 C 
BRANCH   8   9
ATOM      9  C   UNL     1      76.589  82.631  74.985  1.00  0.00     0.053 C 
BRANCH   9  10
ATOM     10  C   UNL     1      76.147  84.034  75.267  1.00  0.00     0.041 C 
ATOM     11  O   UNL     1      75.092  84.247  75.921  1.00  0.00    -0.550 OA
ATOM     12  O   UNL     1      76.883  85.107  74.780  1.00  0.00    -0.550 OA
ENDBRANCH   9  10
ENDBRANCH   8   9
ENDBRANCH   7   8
ENDBRANCH   6   7
ENDBRANCH   5   6
ENDBRANCH   4   5
ENDBRANCH   3   4
ENDBRANCH   1   3
BRANCH   2  13
ATOM     13  C   UNL     1      79.553  80.409  78.141  1.00  0.00     0.027 C 
BRANCH  13  14
ATOM     14  C   UNL     1      79.789  79.392  77.012  1.00  0.00     0.004 C 
BRANCH  14  15
ATOM     15  C   UNL     1      78.833  79.608  75.830  1.00  0.00     0.000 C 
BRANCH  15  16
ATOM     16  C   UNL     1      79.601  79.626  74.499  1.00  0.00     0.000 C 
BRANCH  16  17
ATOM     17  C   UNL     1      79.779  81.045  73.936  1.00  0.00    -0.000 C 
BRANCH  17  18
ATOM     18  C   UNL     1      81.215  81.571  74.108  1.00  0.00    -0.000 C 
BRANCH  18  19
ATOM     19  C   UNL     1      81.396  82.375  75.406  1.00  0.00    -0.003 C 
ATOM     20  C   UNL     1      80.218  83.306  75.694  1.00  0.00     0.004 C 
ENDBRANCH  18  19
ENDBRANCH  17  18
ENDBRANCH  16  17
ENDBRANCH  15  16
ENDBRANCH  14  15
ENDBRANCH  13  14
ENDBRANCH   2  13
TORSDOF 15
ENDMDL
MODEL 4
REMARK VINA RESULT:    -3.782      2.507      5.336
REMARK INTER + INTRA:          -9.856
REMARK INTER:                  -7.361
REMARK INTRA:                  -2.494
REMARK UNBOUND:                -2.757
REMARK SMILES CCCCCCCCC=CCCCCCCCC(=O)[O-]
REMARK SMILES IDX 10 1 9 2 11 3 12 4 13 5 14 6 15 7 16 8 17 9 18 10 19 11
REMARK SMILES IDX 20 12 8 13 7 14 6 15 5 16 4 17 3 18 2 19 1 20
REMARK H PARENT
REMARK Flexibility Score: inf
ROOT
ATOM      1  C   UNL     1      77.975  81.610  78.204  1.00  0.00    -0.031 C 
ATOM      2  C   UNL     1      78.349  80.346  77.958  1.00  0.00    -0.031 C 
ENDROOT
BRANCH   1   3
ATOM      3  C   UNL     1      76.528  81.981  78.383  1.00  0.00     0.027 C 
BRANCH   3   4
ATOM      4  C   UNL     1      75.782  81.970  77.041  1.00  0.00     0.004 C 
BRANCH   4   5
ATOM      5  C   UNL     1      75.815  83.334  76.326  1.00  0.00     0.000 C 
BRANCH   5   6
ATOM      6  C   UNL     1      75.225  83.335  74.904  1.00  0.00     0.000 C 
BRANCH   6   7
ATOM      7  C   UNL     1      74.172  82.234  74.694  1.00  0.00     0.000 C 
BRANCH   7   8
ATOM      8  C   UNL     1      72.732  82.743  74.890  1.00  0.00     0.006 C 
BRANCH   8   9
ATOM      9  C   UNL     1      72.262  82.749  76.354  1.00  0.00     0.053 C 
BRANCH   9  10
ATOM     10  C   UNL     1      71.754  81.407  76.784  1.00  0.00     0.041 C 
ATOM     11  O   UNL     1      70.517  81.173  76.804  1.00  0.00    -0.550 OA
ATOM     12  O   UNL     1      72.646  80.424  77.195  1.00  0.00    -0.550 OA
ENDBRANCH   9  10
ENDBRANCH   8   9
ENDBRANCH   7   8
ENDBRANCH   6   7
ENDBRANCH   5   6
ENDBRANCH   4   5
ENDBRANCH   3   4
ENDBRANCH   1   3
BRANCH   2  13
ATOM     13  C   UNL     1      79.795  79.974  77.762  1.00  0.00     0.027 C 
BRANCH  13  14
ATOM     14  C   UNL     1      80.753  81.075  78.244  1.00  0.00     0.004 C 
BRANCH  14  15
ATOM     15  C   UNL     1      81.820  81.417  77.193  1.00  0.00     0.000 C 
BRANCH  15  16
ATOM     16  C   UNL     1      81.169  81.777  75.848  1.00  0.00     0.000 C 
BRANCH  16  17
ATOM     17  C   UNL     1      80.522  83.171  75.857  1.00  0.00    -0.000 C 
BRANCH  17  18
ATOM     18  C   UNL     1      79.226  83.224  75.028  1.00  0.00    -0.000 C 
BRANCH  18  19
ATOM     19  C   UNL     1      78.775  81.834  74.553  1.00  0.00    -0.003 C 
ATOM     20  C   UNL     1      78.283  81.834  73.105  1.00  0.00     0.004 C 
ENDBRANCH  18  19
ENDBRANCH  17  18
ENDBRANCH  16  17
ENDBRANCH  15  16
ENDBRANCH  14  15
ENDBRANCH  13  14
ENDBRANCH   2  13
TORSDOF 15
ENDMDL
MODEL 5
REMARK VINA RESULT:    -3.760      2.288      4.913
REMARK INTER + INTRA:          -9.814
REMARK INTER:                  -7.195
REMARK INTRA:                  -2.619
REMARK UNBOUND:                -2.757
REMARK SMILES CCCCCCCCC=CCCCCCCCC(=O)[O-]
REMARK SMILES IDX 10 1 9 2 11 3 12 4 13 5 14 6 15 7 16 8 17 9 18 10 19 11
REMARK SMILES IDX 20 12 8 13 7 14 6 15 5 16 4 17 3 18 2 19 1 20
REMARK H PARENT
REMARK Flexibility Score: inf
ROOT
ATOM      1  C   UNL     1      77.960  80.620  77.669  1.00  0.00    -0.031 C 
ATOM      2  C   UNL     1      78.996  81.402  78.005  1.00  0.00    -0.031 C 
ENDROOT
BRANCH   1   3
ATOM      3  C   UNL     1      76.622  80.754  78.343  1.00  0.00     0.027 C 
BRANCH   3   4
ATOM      4  C   UNL     1      76.006  82.137  78.083  1.00  0.00     0.004 C 
BRANCH   4   5
ATOM      5  C   UNL     1      74.929  82.116  76.982  1.00  0.00     0.000 C 
BRANCH   5   6
ATOM      6  C   UNL     1      74.983  83.299  75.999  1.00  0.00     0.000 C 
BRANCH   6   7
ATOM      7  C   UNL     1      74.021  83.133  74.811  1.00  0.00     0.000 C 
BRANCH   7   8
ATOM      8  C   UNL     1      73.036  81.965  75.002  1.00  0.00     0.006 C 
BRANCH   8   9
ATOM      9  C   UNL     1      71.578  82.402  75.220  1.00  0.00     0.053 C 
BRANCH   9  10
ATOM     10  C   UNL     1      71.177  82.315  76.661  1.00  0.00     0.041 C 
ATOM     11  O   UNL     1      71.640  83.133  77.499  1.00  0.00    -0.550 OA
ATOM     12  O   UNL     1      70.316  81.310  77.085  1.00  0.00    -0.550 OA
ENDBRANCH   9  10
ENDBRANCH   8   9
ENDBRANCH   7   8
ENDBRANCH   6   7
ENDBRANCH   5   6
ENDBRANCH   4   5
ENDBRANCH   3   4
ENDBRANCH   1   3
BRANCH   2  13
ATOM     13  C   UNL     1      80.341  81.260  77.343  1.00  0.00     0.027 C 
BRANCH  13  14
ATOM     14  C   UNL     1      80.678  82.457  76.440  1.00  0.00     0.004 C 
BRANCH  14  15
ATOM     15  C   UNL     1      80.165  82.262  75.005  1.00  0.00     0.000 C 
BRANCH  15  16
ATOM     16  C   UNL     1      79.055  83.272  74.678  1.00  0.00     0.000 C 
BRANCH  16  17
ATOM     17  C   UNL     1      77.749  82.595  74.230  1.00  0.00    -0.000 C 
BRANCH  17  18
ATOM     18  C   UNL     1      77.902  81.073  74.062  1.00  0.00    -0.000 C 
BRANCH  18  19
ATOM     19  C   UNL     1      76.564  80.330  74.199  1.00  0.00    -0.003 C 
ATOM     20  C   UNL     1      75.732  80.364  72.917  1.00  0.00     0.004 C 
ENDBRANCH  18  19
ENDBRANCH  17  18
ENDBRANCH  16  17
ENDBRANCH  15  16
ENDBRANCH  14  15
ENDBRANCH  13  14
ENDBRANCH   2  13
TORSDOF 15
ENDMDL
MODEL 6
REMARK VINA RESULT:    -3.758      1.465      4.705
REMARK INTER + INTRA:          -9.810
REMARK INTER:                  -7.058
REMARK INTRA:                  -2.753
REMARK UNBOUND:                -2.757
REMARK SMILES CCCCCCCCC=CCCCCCCCC(=O)[O-]
REMARK SMILES IDX 10 1 9 2 11 3 12 4 13 5 14 6 15 7 16 8 17 9 18 10 19 11
REMARK SMILES IDX 20 12 8 13 7 14 6 15 5 16 4 17 3 18 2 19 1 20
REMARK H PARENT
REMARK Flexibility Score: inf
ROOT
ATOM      1  C   UNL     1      79.315  80.343  77.904  1.00  0.00    -0.031 C 
ATOM      2  C   UNL     1      80.166  81.377  77.972  1.00  0.00    -0.031 C 
ENDROOT
BRANCH   1   3
ATOM      3  C   UNL     1      77.944  80.409  78.519  1.00  0.00     0.027 C 
BRANCH   3   4
ATOM      4  C   UNL     1      77.328  81.806  78.351  1.00  0.00     0.004 C 
BRANCH   4   5
ATOM      5  C   UNL     1      75.805  81.820  78.577  1.00  0.00     0.000 C 
BRANCH   5   6
ATOM      6  C   UNL     1      75.123  80.442  78.493  1.00  0.00     0.000 C 
BRANCH   6   7
ATOM      7  C   UNL     1      73.939  80.421  77.512  1.00  0.00     0.000 C 
BRANCH   7   8
ATOM      8  C   UNL     1      74.088  81.451  76.378  1.00  0.00     0.006 C 
BRANCH   8   9
ATOM      9  C   UNL     1      72.862  82.360  76.191  1.00  0.00     0.053 C 
BRANCH   9  10
ATOM     10  C   UNL     1      72.792  82.928  74.807  1.00  0.00     0.041 C 
ATOM     11  O   UNL     1      73.818  83.427  74.273  1.00  0.00    -0.550 OA
ATOM     12  O   UNL     1      71.585  82.937  74.118  1.00  0.00    -0.550 OA
ENDBRANCH   9  10
ENDBRANCH   8   9
ENDBRANCH   7   8
ENDBRANCH   6   7
ENDBRANCH   5   6
ENDBRANCH   4   5
ENDBRANCH   3   4
ENDBRANCH   1   3
BRANCH   2  13
ATOM     13  C   UNL     1      81.544  81.308  77.371  1.00  0.00     0.027 C 
BRANCH  13  14
ATOM     14  C   UNL     1      81.608  81.953  75.978  1.00  0.00     0.004 C 
BRANCH  14  15
ATOM     15  C   UNL     1      80.571  83.074  75.810  1.00  0.00     0.000 C 
BRANCH  15  16
ATOM     16  C   UNL     1      79.640  82.786  74.621  1.00  0.00     0.000 C 
BRANCH  16  17
ATOM     17  C   UNL     1      78.193  83.238  74.877  1.00  0.00    -0.000 C 
BRANCH  17  18
ATOM     18  C   UNL     1      77.174  82.108  74.651  1.00  0.00    -0.000 C 
BRANCH  18  19
ATOM     19  C   UNL     1      77.845  80.733  74.501  1.00  0.00    -0.003 C 
ATOM     20  C   UNL     1      76.984  79.591  75.043  1.00  0.00     0.004 C 
ENDBRANCH  18  19
ENDBRANCH  17  18
ENDBRANCH  16  17
ENDBRANCH  15  16
ENDBRANCH  14  15
ENDBRANCH  13  14
ENDBRANCH   2  13
TORSDOF 15
ENDMDL
MODEL 7
REMARK VINA RESULT:    -3.753      1.909      5.815
REMARK INTER + INTRA:          -9.801
REMARK INTER:                  -8.026
REMARK INTRA:                  -1.775
REMARK UNBOUND:                -2.757
REMARK SMILES CCCCCCCCC=CCCCCCCCC(=O)[O-]
REMARK SMILES IDX 10 1 9 2 11 3 12 4 13 5 14 6 15 7 16 8 17 9 18 10 19 11
REMARK SMILES IDX 20 12 8 13 7 14 6 15 5 16 4 17 3 18 2 19 1 20
REMARK H PARENT
REMARK Flexibility Score: inf
ROOT
ATOM      1  C   UNL     1      79.631  81.309  78.357  1.00  0.00    -0.031 C 
ATOM      2  C   UNL     1      80.005  80.071  78.711  1.00  0.00    -0.031 C 
ENDROOT
BRANCH   1   3
ATOM      3  C   UNL     1      78.232  81.606  77.891  1.00  0.00     0.027 C 
BRANCH   3   4
ATOM      4  C   UNL     1      77.196  80.825  78.713  1.00  0.00     0.004 C 
BRANCH   4   5
ATOM      5  C   UNL     1      75.838  81.545  78.806  1.00  0.00     0.000 C 
BRANCH   5   6
ATOM      6  C   UNL     1      74.697  80.882  78.014  1.00  0.00     0.000 C 
BRANCH   6   7
ATOM      7  C   UNL     1      74.037  81.838  77.005  1.00  0.00     0.000 C 
BRANCH   7   8
ATOM      8  C   UNL     1      74.907  82.078  75.757  1.00  0.00     0.006 C 
BRANCH   8   9
ATOM      9  C   UNL     1      75.006  83.553  75.336  1.00  0.00     0.053 C 
BRANCH   9  10
ATOM     10  C   UNL     1      76.409  83.942  74.982  1.00  0.00     0.041 C 
ATOM     11  O   UNL     1      76.724  85.157  74.882  1.00  0.00    -0.550 OA
ATOM     12  O   UNL     1      77.361  82.961  74.732  1.00  0.00    -0.550 OA
ENDBRANCH   9  10
ENDBRANCH   8   9
ENDBRANCH   7   8
ENDBRANCH   6   7
ENDBRANCH   5   6
ENDBRANCH   4   5
ENDBRANCH   3   4
ENDBRANCH   1   3
BRANCH   2  13
ATOM     13  C   UNL     1      81.409  79.769  79.163  1.00  0.00     0.027 C 
BRANCH  13  14
ATOM     14  C   UNL     1      82.059  80.958  79.889  1.00  0.00     0.004 C 
BRANCH  14  15
ATOM     15  C   UNL     1      83.450  81.289  79.328  1.00  0.00     0.000 C 
BRANCH  15  16
ATOM     16  C   UNL     1      83.590  80.791  77.881  1.00  0.00     0.000 C 
BRANCH  16  17
ATOM     17  C   UNL     1      84.078  81.888  76.921  1.00  0.00    -0.000 C 
BRANCH  17  18
ATOM     18  C   UNL     1      83.249  81.950  75.626  1.00  0.00    -0.000 C 
BRANCH  18  19
ATOM     19  C   UNL     1      81.876  82.608  75.838  1.00  0.00    -0.003 C 
ATOM     20  C   UNL     1      80.818  82.099  74.858  1.00  0.00     0.004 C 
ENDBRANCH  18  19
ENDBRANCH  17  18
ENDBRANCH  16  17
ENDBRANCH  15  16
ENDBRANCH  14  15
ENDBRANCH  13  14
ENDBRANCH   2  13
TORSDOF 15
ENDMDL
MODEL 8
REMARK VINA RESULT:    -3.706      1.209      4.849
REMARK INTER + INTRA:          -9.712
REMARK INTER:                  -7.142
REMARK INTRA:                  -2.571
REMARK UNBOUND:                -2.757
REMARK SMILES CCCCCCCCC=CCCCCCCCC(=O)[O-]
REMARK SMILES IDX 10 1 9 2 11 3 12 4 13 5 14 6 15 7 16 8 17 9 18 10 19 11
REMARK SMILES IDX 20 12 8 13 7 14 6 15 5 16 4 17 3 18 2 19 1 20
REMARK H PARENT
REMARK Flexibility Score: inf
ROOT
ATOM      1  C   UNL     1      77.496  80.118  79.064  1.00  0.00    -0.031 C 
ATOM      2  C   UNL     1      77.986  80.524  77.884  1.00  0.00    -0.031 C 
ENDROOT
BRANCH   1   3
ATOM      3  C   UNL     1      76.095  80.457  79.494  1.00  0.00     0.027 C 
BRANCH   3   4
ATOM      4  C   UNL     1      75.124  79.312  79.172  1.00  0.00     0.004 C 
BRANCH   4   5
ATOM      5  C   UNL     1      74.137  79.662  78.042  1.00  0.00     0.000 C 
BRANCH   5   6
ATOM      6  C   UNL     1      74.623  79.310  76.625  1.00  0.00     0.000 C 
BRANCH   6   7
ATOM      7  C   UNL     1      74.979  80.551  75.789  1.00  0.00     0.000 C 
BRANCH   7   8
ATOM      8  C   UNL     1      74.665  81.870  76.520  1.00  0.00     0.006 C 
BRANCH   8   9
ATOM      9  C   UNL     1      75.741  82.954  76.350  1.00  0.00     0.053 C 
BRANCH   9  10
ATOM     10  C   UNL     1      75.454  83.852  75.187  1.00  0.00     0.041 C 
ATOM     11  O   UNL     1      76.210  84.828  74.937  1.00  0.00    -0.550 OA
ATOM     12  O   UNL     1      74.331  83.632  74.397  1.00  0.00    -0.550 OA
ENDBRANCH   9  10
ENDBRANCH   8   9
ENDBRANCH   7   8
ENDBRANCH   6   7
ENDBRANCH   5   6
ENDBRANCH   4   5
ENDBRANCH   3   4
ENDBRANCH   1   3
BRANCH   2  13
ATOM     13  C   UNL     1      79.392  80.200  77.458  1.00  0.00     0.027 C 
BRANCH  13  14
ATOM     14  C   UNL     1      80.333  81.409  77.575  1.00  0.00     0.004 C 
BRANCH  14  15
ATOM     15  C   UNL     1      81.539  81.299  76.630  1.00  0.00     0.000 C 
BRANCH  15  16
ATOM     16  C   UNL     1      81.454  82.347  75.509  1.00  0.00     0.000 C 
BRANCH  16  17
ATOM     17  C   UNL     1      80.420  83.446  75.801  1.00  0.00    -0.000 C 
BRANCH  17  18
ATOM     18  C   UNL     1      79.196  83.367  74.872  1.00  0.00    -0.000 C 
BRANCH  18  19
ATOM     19  C   UNL     1      79.290  82.200  73.875  1.00  0.00    -0.003 C 
ATOM     20  C   UNL     1      78.113  81.231  73.985  1.00  0.00     0.004 C 
ENDBRANCH  18  19
ENDBRANCH  17  18
ENDBRANCH  16  17
ENDBRANCH  15  16
ENDBRANCH  14  15
ENDBRANCH  13  14
ENDBRANCH   2  13
TORSDOF 15
ENDMDL
MODEL 9
REMARK VINA RESULT:    -3.622      1.391      5.205
REMARK INTER + INTRA:          -9.554
REMARK INTER:                  -7.087
REMARK INTRA:                  -2.467
REMARK UNBOUND:                -2.757
REMARK SMILES CCCCCCCCC=CCCCCCCCC(=O)[O-]
REMARK SMILES IDX 10 1 9 2 11 3 12 4 13 5 14 6 15 7 16 8 17 9 18 10 19 11
REMARK SMILES IDX 20 12 8 13 7 14 6 15 5 16 4 17 3 18 2 19 1 20
REMARK H PARENT
REMARK Flexibility Score: inf
ROOT
ATOM      1  C   UNL     1      78.154  79.564  75.785  1.00  0.00    -0.031 C 
ATOM      2  C   UNL     1      78.223  80.223  74.619  1.00  0.00    -0.031 C 
ENDROOT
BRANCH   1   3
ATOM      3  C   UNL     1      76.871  78.939  76.261  1.00  0.00     0.027 C 
BRANCH   3   4
ATOM      4  C   UNL     1      76.714  79.087  77.782  1.00  0.00     0.004 C 
BRANCH   4   5
ATOM      5  C   UNL     1      77.723  80.076  78.395  1.00  0.00     0.000 C 
BRANCH   5   6
ATOM      6  C   UNL     1      77.260  81.544  78.418  1.00  0.00     0.000 C 
BRANCH   6   7
ATOM      7  C   UNL     1      75.729  81.689  78.381  1.00  0.00     0.000 C 
BRANCH   7   8
ATOM      8  C   UNL     1      75.230  82.405  77.112  1.00  0.00     0.006 C 
BRANCH   8   9
ATOM      9  C   UNL     1      76.353  82.957  76.219  1.00  0.00     0.053 C 
BRANCH   9  10
ATOM     10  C   UNL     1      75.838  83.943  75.217  1.00  0.00     0.041 C 
ATOM     11  O   UNL     1      76.490  84.990  74.964  1.00  0.00    -0.550 OA
ATOM     12  O   UNL     1      74.620  83.722  74.584  1.00  0.00    -0.550 OA
ENDBRANCH   9  10
ENDBRANCH   8   9
ENDBRANCH   7   8
ENDBRANCH   6   7
ENDBRANCH   5   6
ENDBRANCH   4   5
ENDBRANCH   3   4
ENDBRANCH   1   3
BRANCH   2  13
ATOM     13  C   UNL     1      79.501  80.862  74.147  1.00  0.00     0.027 C 
BRANCH  13  14
ATOM     14  C   UNL     1      79.504  82.385  74.353  1.00  0.00     0.004 C 
BRANCH  14  15
ATOM     15  C   UNL     1      80.061  82.782  75.729  1.00  0.00     0.000 C 
BRANCH  15  16
ATOM     16  C   UNL     1      81.595  82.702  75.743  1.00  0.00     0.000 C 
BRANCH  16  17
ATOM     17  C   UNL     1      82.127  81.666  76.746  1.00  0.00    -0.000 C 
BRANCH  17  18
ATOM     18  C   UNL     1      81.004  81.021  77.579  1.00  0.00    -0.000 C 
BRANCH  18  19
ATOM     19  C   UNL     1      81.332  80.986  79.080  1.00  0.00    -0.003 C 
ATOM     20  C   UNL     1      82.824  80.800  79.356  1.00  0.00     0.004 C 
ENDBRANCH  18  19
ENDBRANCH  17  18
ENDBRANCH  16  17
ENDBRANCH  15  16
ENDBRANCH  14  15
ENDBRANCH  13  14
ENDBRANCH   2  13
TORSDOF 15
ENDMDL
