MODEL 1
REMARK VINA RESULT:   113.595      0.000      0.000
REMARK INTER + INTRA:         116.916
REMARK INTER:                 116.916
REMARK INTRA:                   0.000
REMARK UNBOUND:                 0.000
REMARK SMILES CC1(C)CC[C@]2(C)CC[C@]3(C)C(=CC[C@@H]4[C@@]5(C)CC[C@H](O)C(C)(C)[C@H]5CC[C@]43C)[C@H]2C1
REMARK SMILES IDX 1 1 2 2 4 3 5 4 6 5 8 6 9 7 10 8 12 9 13 10 14 11 15 12
REMARK SMILES IDX 28 13 27 14 26 15 25 16 16 17 18 18 19 19 20 20 22 21 23 22
REMARK SMILES IDX 24 23 17 24 29 25 30 26 31 27 11 28 7 29 3 30 21 31
REMARK H PARENT 21 32
REMARK Flexibility Score: inf
ROOT
ATOM      1  C   UNL     1       1.069 -12.351  11.452  1.00  0.00     0.011 C 
ATOM      2  C   UNL     1       0.235 -11.053  11.385  1.00  0.00    -0.035 C 
ATOM      3  C   UNL     1      -1.237 -11.428  11.075  1.00  0.00     0.007 C 
ATOM      4  C   UNL     1      -2.215 -10.255  11.261  1.00  0.00     0.008 C 
ATOM      5  C   UNL     1      -2.112  -9.579  12.656  1.00  0.00    -0.026 C 
ATOM      6  C   UNL     1      -3.009  -8.314  12.637  1.00  0.00     0.008 C 
ATOM      7  C   UNL     1      -2.927  -7.490  13.935  1.00  0.00     0.012 C 
ATOM      8  C   UNL     1      -1.470  -7.101  14.386  1.00  0.00    -0.006 C 
ATOM      9  C   UNL     1      -0.530  -8.318  14.218  1.00  0.00    -0.064 C 
ATOM     10  C   UNL     1       0.482  -8.543  15.097  1.00  0.00    -0.027 C 
ATOM     11  C   UNL     1       0.739  -7.752  16.354  1.00  0.00     0.032 C 
ATOM     12  C   UNL     1      -0.000  -6.388  16.417  1.00  0.00     0.006 C 
ATOM     13  C   UNL     1      -1.469  -6.594  15.923  1.00  0.00    -0.020 C 
ATOM     14  C   UNL     1      -2.172  -5.226  16.047  1.00  0.00     0.008 C 
ATOM     15  C   UNL     1      -2.284  -4.691  17.473  1.00  0.00     0.005 C 
ATOM     16  C   UNL     1      -1.161  -5.093  18.485  1.00  0.00     0.003 C 
ATOM     17  C   UNL     1       0.203  -5.495  17.762  1.00  0.00    -0.025 C 
ATOM     18  C   UNL     1       0.929  -4.172  17.358  1.00  0.00     0.010 C 
ATOM     19  C   UNL     1       1.106  -3.157  18.496  1.00  0.00     0.033 C 
ATOM     20  C   UNL     1      -0.230  -2.765  19.144  1.00  0.00     0.120 C 
ATOM     21  C   UNL     1      -1.039  -4.001  19.653  1.00  0.00    -0.006 C 
ATOM     22  C   UNL     1      -2.456  -3.516  20.097  1.00  0.00     0.014 C 
ATOM     23  C   UNL     1      -0.391  -4.592  20.950  1.00  0.00     0.014 C 
ATOM     24  C   UNL     1       1.124  -6.273  18.752  1.00  0.00     0.012 C 
ATOM     25  C   UNL     1      -2.191  -7.651  16.830  1.00  0.00     0.012 C 
ATOM     26  C   UNL     1      -0.643  -9.136  12.911  1.00  0.00     0.022 C 
ATOM     27  C   UNL     1       0.346 -10.324  12.756  1.00  0.00     0.015 C 
ATOM     28  C   UNL     1      -0.974  -5.998  13.393  1.00  0.00     0.017 C 
ATOM     29  C   UNL     1      -2.625 -10.565  13.745  1.00  0.00     0.012 C 
ATOM     30  C   UNL     1       0.819 -10.178  10.247  1.00  0.00     0.011 C 
ENDROOT
BRANCH  20  31
ATOM     31  O   UNL     1       0.031  -1.871  20.198  1.00  0.00    -0.393 OA
ATOM     32  H   UNL     1       0.207  -0.981  19.796  1.00  0.00     0.210 HD
ENDBRANCH  20  31
TORSDOF 1
ENDMDL
