MODEL 1
REMARK VINA RESULT:    -6.439      0.000      0.000
REMARK INTER + INTRA:          -7.621
REMARK INTER:                  -7.568
REMARK INTRA:                  -0.053
REMARK UNBOUND:                -0.053
REMARK SMILES O=c1c(O)c(-c2ccc(O)cc2)oc2cc(O)cc(O)c12
REMARK SMILES IDX 5 1 3 2 2 3 1 4 21 5 19 6 18 7 16 8 15 9 14 10 13 11 6 12
REMARK SMILES IDX 7 13 8 14 9 15 12 16 11 17 10 18 4 20 20 22 17 24
REMARK H PARENT 10 19 4 21 20 23 17 25
REMARK Flexibility Score: inf
ROOT
ATOM      1  C   UNL     1      -7.776 -14.618  18.441  1.00  0.00     0.180 A 
ATOM      2  C   UNL     1      -7.397 -15.902  18.877  1.00  0.00     0.208 A 
ATOM      3  C   UNL     1      -7.777 -16.323  20.161  1.00  0.00     0.238 A 
ATOM      4  O   UNL     1      -7.434 -17.466  20.567  1.00  0.00    -0.285 OA
ATOM      5  C   UNL     1      -8.544 -15.465  20.976  1.00  0.00     0.111 A 
ATOM      6  C   UNL     1      -8.971 -15.813  22.280  1.00  0.00     0.134 A 
ATOM      7  C   UNL     1      -9.741 -14.907  23.026  1.00  0.00     0.093 A 
ATOM      8  C   UNL     1     -10.090 -13.663  22.495  1.00  0.00     0.123 A 
ATOM      9  C   UNL     1      -9.671 -13.313  21.208  1.00  0.00     0.094 A 
ATOM     10  C   UNL     1      -8.902 -14.201  20.449  1.00  0.00     0.146 A 
ATOM     11  O   UNL     1      -8.512 -13.843  19.232  1.00  0.00    -0.452 OA
ENDROOT
BRANCH   1  12
ATOM     12  C   UNL     1      -7.397 -14.095  17.108  1.00  0.00     0.021 A 
ATOM     13  C   UNL     1      -7.749 -14.774  15.927  1.00  0.00     0.016 A 
ATOM     14  C   UNL     1      -7.358 -14.274  14.682  1.00  0.00     0.047 A 
ATOM     15  C   UNL     1      -6.604 -13.100  14.600  1.00  0.00     0.115 A 
ATOM     16  C   UNL     1      -6.621 -12.929  17.019  1.00  0.00     0.016 A 
ATOM     17  C   UNL     1      -6.233 -12.429  15.772  1.00  0.00     0.047 A 
BRANCH  15  18
ATOM     18  O   UNL     1      -6.224 -12.612  13.352  1.00  0.00    -0.508 OA
ATOM     19  H   UNL     1      -6.352 -13.160  12.508  1.00  0.00     0.293 HD
ENDBRANCH  15  18
ENDBRANCH   1  12
BRANCH   2  20
ATOM     20  O   UNL     1      -6.678 -16.752  18.031  1.00  0.00    -0.502 OA
ATOM     21  H   UNL     1      -7.103 -17.208  17.233  1.00  0.00     0.293 HD
ENDBRANCH   2  20
BRANCH   6  22
ATOM     22  O   UNL     1      -8.639 -17.049  22.839  1.00  0.00    -0.507 OA
ATOM     23  H   UNL     1      -7.802 -17.550  22.563  1.00  0.00     0.293 HD
ENDBRANCH   6  22
BRANCH   8  24
ATOM     24  O   UNL     1     -10.855 -12.783  23.256  1.00  0.00    -0.508 OA
ATOM     25  H   UNL     1     -10.528 -12.429  24.147  1.00  0.00     0.293 HD
ENDBRANCH   8  24
TORSDOF 5
ENDMDL
MODEL 2
REMARK VINA RESULT:    -6.428      3.143      4.493
REMARK INTER + INTRA:          -7.608
REMARK INTER:                  -7.317
REMARK INTRA:                  -0.291
REMARK UNBOUND:                -0.053
REMARK SMILES O=c1c(O)c(-c2ccc(O)cc2)oc2cc(O)cc(O)c12
REMARK SMILES IDX 5 1 3 2 2 3 1 4 21 5 19 6 18 7 16 8 15 9 14 10 13 11 6 12
REMARK SMILES IDX 7 13 8 14 9 15 12 16 11 17 10 18 4 20 20 22 17 24
REMARK H PARENT 10 19 4 21 20 23 17 25
REMARK Flexibility Score: inf
ROOT
ATOM      1  C   UNL     1      -6.189 -14.271  20.013  1.00  0.00     0.180 A 
ATOM      2  C   UNL     1      -6.375 -13.891  21.356  1.00  0.00     0.208 A 
ATOM      3  C   UNL     1      -7.590 -13.294  21.730  1.00  0.00     0.238 A 
ATOM      4  O   UNL     1      -7.765 -12.939  22.927  1.00  0.00    -0.285 OA
ATOM      5  C   UNL     1      -8.601 -13.107  20.764  1.00  0.00     0.111 A 
ATOM      6  C   UNL     1      -9.854 -12.518  21.059  1.00  0.00     0.134 A 
ATOM      7  C   UNL     1     -10.812 -12.376  20.044  1.00  0.00     0.093 A 
ATOM      8  C   UNL     1     -10.543 -12.810  18.744  1.00  0.00     0.123 A 
ATOM      9  C   UNL     1      -9.307 -13.392  18.446  1.00  0.00     0.094 A 
ATOM     10  C   UNL     1      -8.338 -13.542  19.443  1.00  0.00     0.146 A 
ATOM     11  O   UNL     1      -7.171 -14.093  19.134  1.00  0.00    -0.452 OA
ENDROOT
BRANCH   1  12
ATOM     12  C   UNL     1      -4.930 -14.888  19.537  1.00  0.00     0.021 A 
ATOM     13  C   UNL     1      -4.739 -16.282  19.568  1.00  0.00     0.016 A 
ATOM     14  C   UNL     1      -3.531 -16.839  19.136  1.00  0.00     0.047 A 
ATOM     15  C   UNL     1      -2.498 -16.015  18.682  1.00  0.00     0.115 A 
ATOM     16  C   UNL     1      -3.879 -14.065  19.100  1.00  0.00     0.016 A 
ATOM     17  C   UNL     1      -2.673 -14.625  18.667  1.00  0.00     0.047 A 
BRANCH  15  18
ATOM     18  O   UNL     1      -1.302 -16.584  18.252  1.00  0.00    -0.508 OA
ATOM     19  H   UNL     1      -1.288 -17.439  17.706  1.00  0.00     0.293 HD
ENDBRANCH  15  18
ENDBRANCH   1  12
BRANCH   2  20
ATOM     20  O   UNL     1      -5.377 -14.131  22.304  1.00  0.00    -0.502 OA
ATOM     21  H   UNL     1      -5.566 -14.591  23.186  1.00  0.00     0.293 HD
ENDBRANCH   2  20
BRANCH   6  22
ATOM     22  O   UNL     1     -10.154 -12.075  22.348  1.00  0.00    -0.507 OA
ATOM     23  H   UNL     1      -9.510 -11.494  22.875  1.00  0.00     0.293 HD
ENDBRANCH   6  22
BRANCH   8  24
ATOM     24  O   UNL     1     -11.511 -12.658  17.755  1.00  0.00    -0.508 OA
ATOM     25  H   UNL     1     -11.512 -13.232  16.920  1.00  0.00     0.293 HD
ENDBRANCH   8  24
TORSDOF 5
ENDMDL
MODEL 3
REMARK VINA RESULT:    -6.361      3.700      6.119
REMARK INTER + INTRA:          -7.529
REMARK INTER:                  -7.263
REMARK INTRA:                  -0.267
REMARK UNBOUND:                -0.053
REMARK SMILES O=c1c(O)c(-c2ccc(O)cc2)oc2cc(O)cc(O)c12
REMARK SMILES IDX 5 1 3 2 2 3 1 4 21 5 19 6 18 7 16 8 15 9 14 10 13 11 6 12
REMARK SMILES IDX 7 13 8 14 9 15 12 16 11 17 10 18 4 20 20 22 17 24
REMARK H PARENT 10 19 4 21 20 23 17 25
REMARK Flexibility Score: inf
ROOT
ATOM      1  C   UNL     1      -9.180 -17.689  21.251  1.00  0.00     0.180 A 
ATOM      2  C   UNL     1      -9.206 -17.252  22.589  1.00  0.00     0.208 A 
ATOM      3  C   UNL     1      -9.654 -15.951  22.868  1.00  0.00     0.238 A 
ATOM      4  O   UNL     1      -9.672 -15.544  24.062  1.00  0.00    -0.285 OA
ATOM      5  C   UNL     1     -10.086 -15.121  21.813  1.00  0.00     0.111 A 
ATOM      6  C   UNL     1     -10.556 -13.800  22.010  1.00  0.00     0.134 A 
ATOM      7  C   UNL     1     -10.977 -13.040  20.908  1.00  0.00     0.093 A 
ATOM      8  C   UNL     1     -10.938 -13.573  19.618  1.00  0.00     0.123 A 
ATOM      9  C   UNL     1     -10.474 -14.877  19.417  1.00  0.00     0.094 A 
ATOM     10  C   UNL     1     -10.049 -15.651  20.502  1.00  0.00     0.146 A 
ATOM     11  O   UNL     1      -9.608 -16.884  20.284  1.00  0.00    -0.452 OA
ENDROOT
BRANCH   1  12
ATOM     12  C   UNL     1      -8.702 -19.039  20.873  1.00  0.00     0.021 A 
ATOM     13  C   UNL     1      -7.329 -19.338  20.802  1.00  0.00     0.016 A 
ATOM     14  C   UNL     1      -6.902 -20.613  20.419  1.00  0.00     0.047 A 
ATOM     15  C   UNL     1      -7.837 -21.600  20.092  1.00  0.00     0.115 A 
ATOM     16  C   UNL     1      -9.634 -20.029  20.522  1.00  0.00     0.016 A 
ATOM     17  C   UNL     1      -9.205 -21.304  20.142  1.00  0.00     0.047 A 
BRANCH  15  18
ATOM     18  O   UNL     1      -7.397 -22.866  19.715  1.00  0.00    -0.508 OA
ATOM     19  H   UNL     1      -7.961 -23.693  19.879  1.00  0.00     0.293 HD
ENDBRANCH  15  18
ENDBRANCH   1  12
BRANCH   2  20
ATOM     20  O   UNL     1      -8.819 -18.111  23.621  1.00  0.00    -0.502 OA
ATOM     21  H   UNL     1      -8.880 -17.848  24.597  1.00  0.00     0.293 HD
ENDBRANCH   2  20
BRANCH   6  22
ATOM     22  O   UNL     1     -10.608 -13.239  23.287  1.00  0.00    -0.507 OA
ATOM     23  H   UNL     1     -10.284 -12.295  23.468  1.00  0.00     0.293 HD
ENDBRANCH   6  22
BRANCH   8  24
ATOM     24  O   UNL     1     -11.362 -12.798  18.542  1.00  0.00    -0.508 OA
ATOM     25  H   UNL     1     -11.427 -13.180  17.606  1.00  0.00     0.293 HD
ENDBRANCH   8  24
TORSDOF 5
ENDMDL
MODEL 4
REMARK VINA RESULT:    -6.277      4.443      6.938
REMARK INTER + INTRA:          -7.431
REMARK INTER:                  -7.134
REMARK INTRA:                  -0.297
REMARK UNBOUND:                -0.053
REMARK SMILES O=c1c(O)c(-c2ccc(O)cc2)oc2cc(O)cc(O)c12
REMARK SMILES IDX 5 1 3 2 2 3 1 4 21 5 19 6 18 7 16 8 15 9 14 10 13 11 6 12
REMARK SMILES IDX 7 13 8 14 9 15 12 16 11 17 10 18 4 20 20 22 17 24
REMARK H PARENT 10 19 4 21 20 23 17 25
REMARK Flexibility Score: inf
ROOT
ATOM      1  C   UNL     1     -11.612 -16.885  21.460  1.00  0.00     0.180 A 
ATOM      2  C   UNL     1     -10.520 -16.935  22.347  1.00  0.00     0.208 A 
ATOM      3  C   UNL     1      -9.729 -15.787  22.512  1.00  0.00     0.238 A 
ATOM      4  O   UNL     1      -8.740 -15.821  23.294  1.00  0.00    -0.285 OA
ATOM      5  C   UNL     1     -10.054 -14.609  21.807  1.00  0.00     0.111 A 
ATOM      6  C   UNL     1      -9.311 -13.409  21.920  1.00  0.00     0.134 A 
ATOM      7  C   UNL     1      -9.704 -12.276  21.193  1.00  0.00     0.093 A 
ATOM      8  C   UNL     1     -10.822 -12.318  20.357  1.00  0.00     0.123 A 
ATOM      9  C   UNL     1     -11.560 -13.500  20.241  1.00  0.00     0.094 A 
ATOM     10  C   UNL     1     -11.183 -14.642  20.956  1.00  0.00     0.146 A 
ATOM     11  O   UNL     1     -11.898 -15.753  20.824  1.00  0.00    -0.452 OA
ENDROOT
BRANCH   1  12
ATOM     12  C   UNL     1     -12.482 -18.059  21.217  1.00  0.00     0.021 A 
ATOM     13  C   UNL     1     -12.203 -18.978  20.189  1.00  0.00     0.016 A 
ATOM     14  C   UNL     1     -13.053 -20.065  19.963  1.00  0.00     0.047 A 
ATOM     15  C   UNL     1     -14.194 -20.242  20.750  1.00  0.00     0.115 A 
ATOM     16  C   UNL     1     -13.642 -18.232  21.990  1.00  0.00     0.016 A 
ATOM     17  C   UNL     1     -14.489 -19.321  21.763  1.00  0.00     0.047 A 
BRANCH  15  18
ATOM     18  O   UNL     1     -15.030 -21.332  20.515  1.00  0.00    -0.508 OA
ATOM     19  H   UNL     1     -14.657 -22.263  20.367  1.00  0.00     0.293 HD
ENDBRANCH  15  18
ENDBRANCH   1  12
BRANCH   2  20
ATOM     20  O   UNL     1     -10.248 -18.099  23.070  1.00  0.00    -0.502 OA
ATOM     21  H   UNL     1     -10.960 -18.788  23.276  1.00  0.00     0.293 HD
ENDBRANCH   2  20
BRANCH   6  22
ATOM     22  O   UNL     1      -8.189 -13.334  22.748  1.00  0.00    -0.507 OA
ATOM     23  H   UNL     1      -8.072 -13.950  23.545  1.00  0.00     0.293 HD
ENDBRANCH   6  22
BRANCH   8  24
ATOM     24  O   UNL     1     -11.192 -11.179  19.647  1.00  0.00    -0.508 OA
ATOM     25  H   UNL     1     -10.501 -10.542  19.268  1.00  0.00     0.293 HD
ENDBRANCH   8  24
TORSDOF 5
ENDMDL
MODEL 5
REMARK VINA RESULT:    -6.188      4.431      5.674
REMARK INTER + INTRA:          -7.327
REMARK INTER:                  -7.219
REMARK INTRA:                  -0.108
REMARK UNBOUND:                -0.053
REMARK SMILES O=c1c(O)c(-c2ccc(O)cc2)oc2cc(O)cc(O)c12
REMARK SMILES IDX 5 1 3 2 2 3 1 4 21 5 19 6 18 7 16 8 15 9 14 10 13 11 6 12
REMARK SMILES IDX 7 13 8 14 9 15 12 16 11 17 10 18 4 20 20 22 17 24
REMARK H PARENT 10 19 4 21 20 23 17 25
REMARK Flexibility Score: inf
ROOT
ATOM      1  C   UNL     1      -9.819 -14.889  21.812  1.00  0.00     0.180 A 
ATOM      2  C   UNL     1      -9.787 -16.165  22.406  1.00  0.00     0.208 A 
ATOM      3  C   UNL     1     -10.791 -17.090  22.079  1.00  0.00     0.238 A 
ATOM      4  O   UNL     1     -10.780 -18.233  22.612  1.00  0.00    -0.285 OA
ATOM      5  C   UNL     1     -11.793 -16.733  21.153  1.00  0.00     0.111 A 
ATOM      6  C   UNL     1     -12.837 -17.608  20.766  1.00  0.00     0.134 A 
ATOM      7  C   UNL     1     -13.792 -17.181  19.831  1.00  0.00     0.093 A 
ATOM      8  C   UNL     1     -13.724 -15.901  19.277  1.00  0.00     0.123 A 
ATOM      9  C   UNL     1     -12.695 -15.032  19.655  1.00  0.00     0.094 A 
ATOM     10  C   UNL     1     -11.735 -15.438  20.586  1.00  0.00     0.146 A 
ATOM     11  O   UNL     1     -10.771 -14.593  20.932  1.00  0.00    -0.452 OA
ENDROOT
BRANCH   1  12
ATOM     12  C   UNL     1      -8.808 -13.852  22.121  1.00  0.00     0.021 A 
ATOM     13  C   UNL     1      -7.445 -14.049  21.834  1.00  0.00     0.016 A 
ATOM     14  C   UNL     1      -6.505 -13.065  22.157  1.00  0.00     0.047 A 
ATOM     15  C   UNL     1      -6.911 -11.881  22.780  1.00  0.00     0.115 A 
ATOM     16  C   UNL     1      -9.205 -12.669  22.766  1.00  0.00     0.016 A 
ATOM     17  C   UNL     1      -8.264 -11.686  23.087  1.00  0.00     0.047 A 
BRANCH  15  18
ATOM     18  O   UNL     1      -5.964 -10.909  23.093  1.00  0.00    -0.508 OA
ATOM     19  H   UNL     1      -5.237 -11.080  23.779  1.00  0.00     0.293 HD
ENDBRANCH  15  18
ENDBRANCH   1  12
BRANCH   2  20
ATOM     20  O   UNL     1      -8.756 -16.511  23.283  1.00  0.00    -0.502 OA
ATOM     21  H   UNL     1      -8.560 -15.984  24.125  1.00  0.00     0.293 HD
ENDBRANCH   2  20
BRANCH   6  22
ATOM     22  O   UNL     1     -12.933 -18.893  21.302  1.00  0.00    -0.507 OA
ATOM     23  H   UNL     1     -13.630 -19.130  21.999  1.00  0.00     0.293 HD
ENDBRANCH   6  22
BRANCH   8  24
ATOM     24  O   UNL     1     -14.684 -15.502  18.350  1.00  0.00    -0.508 OA
ATOM     25  H   UNL     1     -14.727 -15.909  17.422  1.00  0.00     0.293 HD
ENDBRANCH   8  24
TORSDOF 5
ENDMDL
MODEL 6
REMARK VINA RESULT:    -6.116      5.198      7.086
REMARK INTER + INTRA:          -7.242
REMARK INTER:                  -6.981
REMARK INTRA:                  -0.261
REMARK UNBOUND:                -0.053
REMARK SMILES O=c1c(O)c(-c2ccc(O)cc2)oc2cc(O)cc(O)c12
REMARK SMILES IDX 5 1 3 2 2 3 1 4 21 5 19 6 18 7 16 8 15 9 14 10 13 11 6 12
REMARK SMILES IDX 7 13 8 14 9 15 12 16 11 17 10 18 4 20 20 22 17 24
REMARK H PARENT 10 19 4 21 20 23 17 25
REMARK Flexibility Score: inf
ROOT
ATOM      1  C   UNL     1     -13.100 -16.335  19.954  1.00  0.00     0.180 A 
ATOM      2  C   UNL     1     -12.807 -14.958  19.915  1.00  0.00     0.208 A 
ATOM      3  C   UNL     1     -11.715 -14.476  20.653  1.00  0.00     0.238 A 
ATOM      4  O   UNL     1     -11.449 -13.244  20.635  1.00  0.00    -0.285 OA
ATOM      5  C   UNL     1     -10.926 -15.377  21.398  1.00  0.00     0.111 A 
ATOM      6  C   UNL     1      -9.806 -14.973  22.165  1.00  0.00     0.134 A 
ATOM      7  C   UNL     1      -9.064 -15.932  22.872  1.00  0.00     0.093 A 
ATOM      8  C   UNL     1      -9.419 -17.282  22.827  1.00  0.00     0.123 A 
ATOM      9  C   UNL     1     -10.524 -17.687  22.072  1.00  0.00     0.094 A 
ATOM     10  C   UNL     1     -11.277 -16.746  21.361  1.00  0.00     0.146 A 
ATOM     11  O   UNL     1     -12.325 -17.156  20.656  1.00  0.00    -0.452 OA
ENDROOT
BRANCH   1  12
ATOM     12  C   UNL     1     -14.246 -16.917  19.219  1.00  0.00     0.021 A 
ATOM     13  C   UNL     1     -14.174 -17.182  17.839  1.00  0.00     0.016 A 
ATOM     14  C   UNL     1     -15.278 -17.709  17.162  1.00  0.00     0.047 A 
ATOM     15  C   UNL     1     -16.468 -17.965  17.847  1.00  0.00     0.115 A 
ATOM     16  C   UNL     1     -15.453 -17.156  19.897  1.00  0.00     0.016 A 
ATOM     17  C   UNL     1     -16.555 -17.685  19.217  1.00  0.00     0.047 A 
BRANCH  15  18
ATOM     18  O   UNL     1     -17.558 -18.493  17.160  1.00  0.00    -0.508 OA
ATOM     19  H   UNL     1     -18.509 -18.222  17.388  1.00  0.00     0.293 HD
ENDBRANCH  15  18
ENDBRANCH   1  12
BRANCH   2  20
ATOM     20  O   UNL     1     -13.575 -14.094  19.130  1.00  0.00    -0.502 OA
ATOM     21  H   UNL     1     -13.437 -13.091  19.133  1.00  0.00     0.293 HD
ENDBRANCH   2  20
BRANCH   6  22
ATOM     22  O   UNL     1      -9.425 -13.631  22.230  1.00  0.00    -0.507 OA
ATOM     23  H   UNL     1      -8.921 -13.184  21.473  1.00  0.00     0.293 HD
ENDBRANCH   6  22
BRANCH   8  24
ATOM     24  O   UNL     1      -8.666 -18.214  23.537  1.00  0.00    -0.508 OA
ATOM     25  H   UNL     1      -9.088 -18.816  24.235  1.00  0.00     0.293 HD
ENDBRANCH   8  24
TORSDOF 5
ENDMDL
MODEL 7
REMARK VINA RESULT:    -6.097      3.269      4.780
REMARK INTER + INTRA:          -7.220
REMARK INTER:                  -6.951
REMARK INTRA:                  -0.268
REMARK UNBOUND:                -0.053
REMARK SMILES O=c1c(O)c(-c2ccc(O)cc2)oc2cc(O)cc(O)c12
REMARK SMILES IDX 5 1 3 2 2 3 1 4 21 5 19 6 18 7 16 8 15 9 14 10 13 11 6 12
REMARK SMILES IDX 7 13 8 14 9 15 12 16 11 17 10 18 4 20 20 22 17 24
REMARK H PARENT 10 19 4 21 20 23 17 25
REMARK Flexibility Score: inf
ROOT
ATOM      1  C   UNL     1     -10.145 -14.400  19.239  1.00  0.00     0.180 A 
ATOM      2  C   UNL     1     -10.932 -13.563  20.054  1.00  0.00     0.208 A 
ATOM      3  C   UNL     1     -10.325 -12.900  21.132  1.00  0.00     0.238 A 
ATOM      4  O   UNL     1     -11.021 -12.157  21.875  1.00  0.00    -0.285 OA
ATOM      5  C   UNL     1      -8.944 -13.069  21.365  1.00  0.00     0.111 A 
ATOM      6  C   UNL     1      -8.254 -12.434  22.426  1.00  0.00     0.134 A 
ATOM      7  C   UNL     1      -6.877 -12.644  22.585  1.00  0.00     0.093 A 
ATOM      8  C   UNL     1      -6.176 -13.474  21.707  1.00  0.00     0.123 A 
ATOM      9  C   UNL     1      -6.851 -14.104  20.657  1.00  0.00     0.094 A 
ATOM     10  C   UNL     1      -8.225 -13.909  20.482  1.00  0.00     0.146 A 
ATOM     11  O   UNL     1      -8.843 -14.522  19.480  1.00  0.00    -0.452 OA
ENDROOT
BRANCH   1  12
ATOM     12  C   UNL     1     -10.716 -15.148  18.095  1.00  0.00     0.021 A 
ATOM     13  C   UNL     1     -11.441 -16.339  18.287  1.00  0.00     0.016 A 
ATOM     14  C   UNL     1     -11.949 -17.040  17.189  1.00  0.00     0.047 A 
ATOM     15  C   UNL     1     -11.731 -16.571  15.891  1.00  0.00     0.115 A 
ATOM     16  C   UNL     1     -10.483 -14.694  16.787  1.00  0.00     0.016 A 
ATOM     17  C   UNL     1     -10.994 -15.397  15.692  1.00  0.00     0.047 A 
BRANCH  15  18
ATOM     18  O   UNL     1     -12.246 -17.279  14.807  1.00  0.00    -0.508 OA
ATOM     19  H   UNL     1     -12.770 -18.137  14.937  1.00  0.00     0.293 HD
ENDBRANCH  15  18
ENDBRANCH   1  12
BRANCH   2  20
ATOM     20  O   UNL     1     -12.288 -13.375  19.772  1.00  0.00    -0.502 OA
ATOM     21  H   UNL     1     -12.991 -13.327  20.499  1.00  0.00     0.293 HD
ENDBRANCH   2  20
BRANCH   6  22
ATOM     22  O   UNL     1      -8.926 -11.598  23.320  1.00  0.00    -0.507 OA
ATOM     23  H   UNL     1      -9.858 -11.816  23.656  1.00  0.00     0.293 HD
ENDBRANCH   6  22
BRANCH   8  24
ATOM     24  O   UNL     1      -4.809 -13.666  21.887  1.00  0.00    -0.508 OA
ATOM     25  H   UNL     1      -4.430 -13.990  22.769  1.00  0.00     0.293 HD
ENDBRANCH   8  24
TORSDOF 5
ENDMDL
MODEL 8
REMARK VINA RESULT:    -6.022      2.594      4.026
REMARK INTER + INTRA:          -7.131
REMARK INTER:                  -6.856
REMARK INTRA:                  -0.275
REMARK UNBOUND:                -0.053
REMARK SMILES O=c1c(O)c(-c2ccc(O)cc2)oc2cc(O)cc(O)c12
REMARK SMILES IDX 5 1 3 2 2 3 1 4 21 5 19 6 18 7 16 8 15 9 14 10 13 11 6 12
REMARK SMILES IDX 7 13 8 14 9 15 12 16 11 17 10 18 4 20 20 22 17 24
REMARK H PARENT 10 19 4 21 20 23 17 25
REMARK Flexibility Score: inf
ROOT
ATOM      1  C   UNL     1      -6.846 -14.502  19.192  1.00  0.00     0.180 A 
ATOM      2  C   UNL     1      -7.692 -14.560  18.069  1.00  0.00     0.208 A 
ATOM      3  C   UNL     1      -9.051 -14.243  18.226  1.00  0.00     0.238 A 
ATOM      4  O   UNL     1      -9.821 -14.302  17.230  1.00  0.00    -0.285 OA
ATOM      5  C   UNL     1      -9.534 -13.856  19.493  1.00  0.00     0.111 A 
ATOM      6  C   UNL     1     -10.887 -13.516  19.736  1.00  0.00     0.134 A 
ATOM      7  C   UNL     1     -11.288 -13.131  21.023  1.00  0.00     0.093 A 
ATOM      8  C   UNL     1     -10.366 -13.079  22.071  1.00  0.00     0.123 A 
ATOM      9  C   UNL     1      -9.028 -13.413  21.838  1.00  0.00     0.094 A 
ATOM     10  C   UNL     1      -8.608 -13.801  20.562  1.00  0.00     0.146 A 
ATOM     11  O   UNL     1      -7.334 -14.118  20.368  1.00  0.00    -0.452 OA
ENDROOT
BRANCH   1  12
ATOM     12  C   UNL     1      -5.406 -14.840  19.112  1.00  0.00     0.021 A 
ATOM     13  C   UNL     1      -4.456 -13.901  18.670  1.00  0.00     0.016 A 
ATOM     14  C   UNL     1      -3.106 -14.252  18.579  1.00  0.00     0.047 A 
ATOM     15  C   UNL     1      -2.689 -15.543  18.914  1.00  0.00     0.115 A 
ATOM     16  C   UNL     1      -4.983 -16.141  19.427  1.00  0.00     0.016 A 
ATOM     17  C   UNL     1      -3.632 -16.489  19.336  1.00  0.00     0.047 A 
BRANCH  15  18
ATOM     18  O   UNL     1      -1.340 -15.877  18.821  1.00  0.00    -0.508 OA
ATOM     19  H   UNL     1      -0.614 -15.174  18.908  1.00  0.00     0.293 HD
ENDBRANCH  15  18
ENDBRANCH   1  12
BRANCH   2  20
ATOM     20  O   UNL     1      -7.179 -14.899  16.814  1.00  0.00    -0.502 OA
ATOM     21  H   UNL     1      -6.667 -15.757  16.652  1.00  0.00     0.293 HD
ENDBRANCH   2  20
BRANCH   6  22
ATOM     22  O   UNL     1     -11.833 -13.559  18.709  1.00  0.00    -0.507 OA
ATOM     23  H   UNL     1     -12.297 -12.720  18.378  1.00  0.00     0.293 HD
ENDBRANCH   6  22
BRANCH   8  24
ATOM     24  O   UNL     1     -10.789 -12.692  23.340  1.00  0.00    -0.508 OA
ATOM     25  H   UNL     1     -10.903 -11.716  23.587  1.00  0.00     0.293 HD
ENDBRANCH   8  24
TORSDOF 5
ENDMDL
MODEL 9
REMARK VINA RESULT:    -5.951      2.608      6.593
REMARK INTER + INTRA:          -7.048
REMARK INTER:                  -7.005
REMARK INTRA:                  -0.044
REMARK UNBOUND:                -0.053
REMARK SMILES O=c1c(O)c(-c2ccc(O)cc2)oc2cc(O)cc(O)c12
REMARK SMILES IDX 5 1 3 2 2 3 1 4 21 5 19 6 18 7 16 8 15 9 14 10 13 11 6 12
REMARK SMILES IDX 7 13 8 14 9 15 12 16 11 17 10 18 4 20 20 22 17 24
REMARK H PARENT 10 19 4 21 20 23 17 25
REMARK Flexibility Score: inf
ROOT
ATOM      1  C   UNL     1      -7.167 -14.281  19.479  1.00  0.00     0.180 A 
ATOM      2  C   UNL     1      -7.268 -13.893  18.129  1.00  0.00     0.208 A 
ATOM      3  C   UNL     1      -6.276 -14.309  17.228  1.00  0.00     0.238 A 
ATOM      4  O   UNL     1      -6.349 -13.959  16.019  1.00  0.00    -0.285 OA
ATOM      5  C   UNL     1      -5.215 -15.119  17.685  1.00  0.00     0.111 A 
ATOM      6  C   UNL     1      -4.178 -15.585  16.841  1.00  0.00     0.134 A 
ATOM      7  C   UNL     1      -3.162 -16.395  17.369  1.00  0.00     0.093 A 
ATOM      8  C   UNL     1      -3.163 -16.749  18.721  1.00  0.00     0.123 A 
ATOM      9  C   UNL     1      -4.185 -16.292  19.559  1.00  0.00     0.094 A 
ATOM     10  C   UNL     1      -5.206 -15.482  19.052  1.00  0.00     0.146 A 
ATOM     11  O   UNL     1      -6.161 -15.057  19.870  1.00  0.00    -0.452 OA
ENDROOT
BRANCH   1  12
ATOM     12  C   UNL     1      -8.163 -13.866  20.494  1.00  0.00     0.021 A 
ATOM     13  C   UNL     1      -9.532 -14.149  20.336  1.00  0.00     0.016 A 
ATOM     14  C   UNL     1     -10.457 -13.725  21.296  1.00  0.00     0.047 A 
ATOM     15  C   UNL     1     -10.029 -13.006  22.415  1.00  0.00     0.115 A 
ATOM     16  C   UNL     1      -7.744 -13.124  21.610  1.00  0.00     0.016 A 
ATOM     17  C   UNL     1      -8.671 -12.703  22.569  1.00  0.00     0.047 A 
BRANCH  15  18
ATOM     18  O   UNL     1     -10.961 -12.593  23.364  1.00  0.00    -0.508 OA
ATOM     19  H   UNL     1     -11.637 -13.238  23.758  1.00  0.00     0.293 HD
ENDBRANCH  15  18
ENDBRANCH   1  12
BRANCH   2  20
ATOM     20  O   UNL     1      -8.355 -13.131  17.692  1.00  0.00    -0.502 OA
ATOM     21  H   UNL     1      -9.126 -12.886  18.302  1.00  0.00     0.293 HD
ENDBRANCH   2  20
BRANCH   6  22
ATOM     22  O   UNL     1      -4.149 -15.249  15.486  1.00  0.00    -0.507 OA
ATOM     23  H   UNL     1      -4.392 -15.920  14.766  1.00  0.00     0.293 HD
ENDBRANCH   6  22
BRANCH   8  24
ATOM     24  O   UNL     1      -2.144 -17.556  19.220  1.00  0.00    -0.508 OA
ATOM     25  H   UNL     1      -1.601 -17.284  20.031  1.00  0.00     0.293 HD
ENDBRANCH   8  24
TORSDOF 5
ENDMDL
