MODEL 1
REMARK VINA RESULT:    -2.348      0.000      0.000
REMARK INTER + INTRA:          -4.274
REMARK INTER:                  -3.720
REMARK INTRA:                  -0.554
REMARK UNBOUND:                -0.554
REMARK SMILES CCCCCCCCCCCC(=O)[O-]
REMARK SMILES IDX 7 1 8 2 9 3 10 4 11 5 12 6 13 7 14 8 6 9 5 10 4 11 3 12 2 13
REMARK SMILES IDX 1 14
REMARK H PARENT
REMARK Flexibility Score: inf
ROOT
ATOM      1  C   UNL     1      30.402  24.071  32.007  1.00  0.00     0.000 C 
ENDROOT
BRANCH   1   2
ATOM      2  C   UNL     1      30.391  25.017  33.220  1.00  0.00     0.000 C 
BRANCH   2   3
ATOM      3  C   UNL     1      31.730  25.026  33.975  1.00  0.00     0.000 C 
BRANCH   3   4
ATOM      4  C   UNL     1      32.941  25.121  33.030  1.00  0.00     0.006 C 
BRANCH   4   5
ATOM      5  C   UNL     1      34.231  24.621  33.692  1.00  0.00     0.053 C 
BRANCH   5   6
ATOM      6  C   UNL     1      35.430  24.856  32.823  1.00  0.00     0.041 C 
ATOM      7  O   UNL     1      35.286  25.122  31.602  1.00  0.00    -0.550 OA
ATOM      8  O   UNL     1      36.705  24.810  33.372  1.00  0.00    -0.550 OA
ENDBRANCH   5   6
ENDBRANCH   4   5
ENDBRANCH   3   4
ENDBRANCH   2   3
ENDBRANCH   1   2
BRANCH   1   9
ATOM      9  C   UNL     1      30.297  24.823  30.671  1.00  0.00     0.000 C 
BRANCH   9  10
ATOM     10  C   UNL     1      30.464  23.899  29.456  1.00  0.00    -0.000 C 
BRANCH  10  11
ATOM     11  C   UNL     1      31.249  24.599  28.338  1.00  0.00    -0.000 C 
BRANCH  11  12
ATOM     12  C   UNL     1      32.698  24.932  28.740  1.00  0.00    -0.000 C 
BRANCH  12  13
ATOM     13  C   UNL     1      33.733  24.787  27.610  1.00  0.00    -0.003 C 
ATOM     14  C   UNL     1      34.805  23.741  27.912  1.00  0.00     0.004 C 
ENDBRANCH  12  13
ENDBRANCH  11  12
ENDBRANCH  10  11
ENDBRANCH   9  10
ENDBRANCH   1   9
TORSDOF 10
ENDMDL
MODEL 2
REMARK VINA RESULT:    -2.163      2.620      4.836
REMARK INTER + INTRA:          -3.981
REMARK INTER:                  -3.443
REMARK INTRA:                  -0.539
REMARK UNBOUND:                -0.554
REMARK SMILES CCCCCCCCCCCC(=O)[O-]
REMARK SMILES IDX 7 1 8 2 9 3 10 4 11 5 12 6 13 7 14 8 6 9 5 10 4 11 3 12 2 13
REMARK SMILES IDX 1 14
REMARK H PARENT
REMARK Flexibility Score: inf
ROOT
ATOM      1  C   UNL     1      32.087  24.507  33.913  1.00  0.00     0.000 C 
ENDROOT
BRANCH   1   2
ATOM      2  C   UNL     1      31.350  25.118  32.707  1.00  0.00     0.000 C 
BRANCH   2   3
ATOM      3  C   UNL     1      30.616  24.062  31.865  1.00  0.00     0.000 C 
BRANCH   3   4
ATOM      4  C   UNL     1      30.134  24.617  30.513  1.00  0.00     0.006 C 
BRANCH   4   5
ATOM      5  C   UNL     1      31.296  24.858  29.540  1.00  0.00     0.053 C 
BRANCH   5   6
ATOM      6  C   UNL     1      31.295  23.868  28.415  1.00  0.00     0.041 C 
ATOM      7  O   UNL     1      30.343  23.846  27.591  1.00  0.00    -0.550 OA
ATOM      8  O   UNL     1      32.360  22.991  28.260  1.00  0.00    -0.550 OA
ENDBRANCH   5   6
ENDBRANCH   4   5
ENDBRANCH   3   4
ENDBRANCH   2   3
ENDBRANCH   1   2
BRANCH   1   9
ATOM      9  C   UNL     1      33.476  25.125  34.130  1.00  0.00     0.000 C 
BRANCH   9  10
ATOM     10  C   UNL     1      34.349  25.079  32.867  1.00  0.00    -0.000 C 
BRANCH  10  11
ATOM     11  C   UNL     1      35.768  24.596  33.197  1.00  0.00    -0.000 C 
BRANCH  11  12
ATOM     12  C   UNL     1      36.784  24.910  32.084  1.00  0.00    -0.000 C 
BRANCH  12  13
ATOM     13  C   UNL     1      36.170  25.125  30.689  1.00  0.00    -0.003 C 
ATOM     14  C   UNL     1      36.727  24.167  29.637  1.00  0.00     0.004 C 
ENDBRANCH  12  13
ENDBRANCH  11  12
ENDBRANCH  10  11
ENDBRANCH   9  10
ENDBRANCH   1   9
TORSDOF 10
ENDMDL
MODEL 3
REMARK VINA RESULT:    -0.442     16.677     19.295
REMARK INTER + INTRA:          -1.254
REMARK INTER:                  -0.665
REMARK INTRA:                  -0.589
REMARK UNBOUND:                -0.554
REMARK SMILES CCCCCCCCCCCC(=O)[O-]
REMARK SMILES IDX 7 1 8 2 9 3 10 4 11 5 12 6 13 7 14 8 6 9 5 10 4 11 3 12 2 13
REMARK SMILES IDX 1 14
REMARK H PARENT
REMARK Flexibility Score: inf
ROOT
ATOM      1  C   UNL     1      20.072  22.282  47.125  1.00  0.00     0.000 C 
ENDROOT
BRANCH   1   2
ATOM      2  C   UNL     1      19.492  23.707  47.071  1.00  0.00     0.000 C 
BRANCH   2   3
ATOM      3  C   UNL     1      17.992  23.723  46.736  1.00  0.00     0.000 C 
BRANCH   3   4
ATOM      4  C   UNL     1      17.605  24.894  45.816  1.00  0.00     0.006 C 
BRANCH   4   5
ATOM      5  C   UNL     1      17.168  24.417  44.425  1.00  0.00     0.053 C 
BRANCH   5   6
ATOM      6  C   UNL     1      18.144  24.825  43.364  1.00  0.00     0.041 C 
ATOM      7  O   UNL     1      17.773  24.924  42.166  1.00  0.00    -0.550 OA
ATOM      8  O   UNL     1      19.457  25.125  43.705  1.00  0.00    -0.550 OA
ENDBRANCH   5   6
ENDBRANCH   4   5
ENDBRANCH   3   4
ENDBRANCH   2   3
ENDBRANCH   1   2
BRANCH   1   9
ATOM      9  C   UNL     1      20.529  21.780  45.747  1.00  0.00     0.000 C 
BRANCH   9  10
ATOM     10  C   UNL     1      21.514  22.740  45.064  1.00  0.00    -0.000 C 
BRANCH  10  11
ATOM     11  C   UNL     1      22.759  22.960  45.934  1.00  0.00    -0.000 C 
BRANCH  11  12
ATOM     12  C   UNL     1      24.066  22.973  45.121  1.00  0.00    -0.000 C 
BRANCH  12  13
ATOM     13  C   UNL     1      25.354  22.995  45.964  1.00  0.00    -0.003 C 
ATOM     14  C   UNL     1      26.486  23.782  45.306  1.00  0.00     0.004 C 
ENDBRANCH  12  13
ENDBRANCH  11  12
ENDBRANCH  10  11
ENDBRANCH   9  10
ENDBRANCH   1   9
TORSDOF 10
ENDMDL
MODEL 4
REMARK VINA RESULT:    -0.429      1.531      2.277
REMARK INTER + INTRA:          -1.234
REMARK INTER:                  -1.769
REMARK INTRA:                   0.535
REMARK UNBOUND:                -0.554
REMARK SMILES CCCCCCCCCCCC(=O)[O-]
REMARK SMILES IDX 7 1 8 2 9 3 10 4 11 5 12 6 13 7 14 8 6 9 5 10 4 11 3 12 2 13
REMARK SMILES IDX 1 14
REMARK H PARENT
REMARK Flexibility Score: inf
ROOT
ATOM      1  C   UNL     1      31.408  23.831  30.507  1.00  0.00     0.000 C 
ENDROOT
BRANCH   1   2
ATOM      2  C   UNL     1      32.168  25.123  30.858  1.00  0.00     0.000 C 
BRANCH   2   3
ATOM      3  C   UNL     1      32.703  25.122  32.299  1.00  0.00     0.000 C 
BRANCH   3   4
ATOM      4  C   UNL     1      34.234  24.978  32.360  1.00  0.00     0.006 C 
BRANCH   4   5
ATOM      5  C   UNL     1      34.883  25.115  30.976  1.00  0.00     0.053 C 
BRANCH   5   6
ATOM      6  C   UNL     1      36.375  24.990  31.046  1.00  0.00     0.041 C 
ATOM      7  O   UNL     1      36.962  25.013  32.158  1.00  0.00    -0.550 OA
ATOM      8  O   UNL     1      37.112  24.819  29.881  1.00  0.00    -0.550 OA
ENDBRANCH   5   6
ENDBRANCH   4   5
ENDBRANCH   3   4
ENDBRANCH   2   3
ENDBRANCH   1   2
BRANCH   1   9
ATOM      9  C   UNL     1      31.786  23.282  29.123  1.00  0.00     0.000 C 
BRANCH   9  10
ATOM     10  C   UNL     1      31.883  24.382  28.056  1.00  0.00    -0.000 C 
BRANCH  10  11
ATOM     11  C   UNL     1      33.226  25.120  28.148  1.00  0.00    -0.000 C 
BRANCH  11  12
ATOM     12  C   UNL     1      34.437  24.170  28.103  1.00  0.00    -0.000 C 
BRANCH  12  13
ATOM     13  C   UNL     1      34.361  23.075  27.024  1.00  0.00    -0.003 C 
ATOM     14  C   UNL     1      35.663  22.288  26.878  1.00  0.00     0.004 C 
ENDBRANCH  12  13
ENDBRANCH  11  12
ENDBRANCH  10  11
ENDBRANCH   9  10
ENDBRANCH   1   9
TORSDOF 10
ENDMDL
