MODEL 1
REMARK VINA RESULT:    -0.406      0.000      0.000
REMARK INTER + INTRA:          -1.823
REMARK INTER:                  -1.070
REMARK INTRA:                  -0.753
REMARK UNBOUND:                -0.753
REMARK SMILES CCCCCCCCCCCCCCCCCCCCCCCCCCCCCC(=O)[O-]
REMARK SMILES IDX 16 1 17 2 18 3 19 4 20 5 21 6 22 7 23 8 24 9 25 10 26 11
REMARK SMILES IDX 27 12 28 13 29 14 30 15 31 16 32 17 15 18 14 19 13 20 12 21
REMARK SMILES IDX 11 22 10 23 9 24 8 25 7 26 6 27 5 28 4 29 3 30 2 31 1 32
REMARK H PARENT
REMARK Flexibility Score: inf
ROOT
ATOM      1  C   UNL     1       8.493 -30.723  16.846  1.00  0.00     0.000 C 
ENDROOT
BRANCH   1   2
ATOM      2  C   UNL     1       8.513 -31.033  18.359  1.00  0.00     0.000 C 
BRANCH   2   3
ATOM      3  C   UNL     1       8.398 -29.785  19.255  1.00  0.00     0.000 C 
BRANCH   3   4
ATOM      4  C   UNL     1       9.284 -28.598  18.835  1.00  0.00     0.000 C 
BRANCH   4   5
ATOM      5  C   UNL     1       9.259 -28.258  17.330  1.00  0.00     0.000 C 
BRANCH   5   6
ATOM      6  C   UNL     1      10.377 -27.314  16.853  1.00  0.00     0.000 C 
BRANCH   6   7
ATOM      7  C   UNL     1      11.655 -28.062  16.446  1.00  0.00     0.000 C 
BRANCH   7   8
ATOM      8  C   UNL     1      12.059 -27.719  15.005  1.00  0.00     0.000 C 
BRANCH   8   9
ATOM      9  C   UNL     1      11.927 -28.914  14.043  1.00  0.00     0.000 C 
BRANCH   9  10
ATOM     10  C   UNL     1      10.546 -29.602  14.038  1.00  0.00     0.000 C 
BRANCH  10  11
ATOM     11  C   UNL     1      10.130 -30.219  12.689  1.00  0.00     0.000 C 
BRANCH  11  12
ATOM     12  C   UNL     1      10.982 -31.420  12.239  1.00  0.00     0.000 C 
BRANCH  12  13
ATOM     13  C   UNL     1      11.940 -31.943  13.332  1.00  0.00     0.006 C 
BRANCH  13  14
ATOM     14  C   UNL     1      11.440 -33.241  13.977  1.00  0.00     0.053 C 
BRANCH  14  15
ATOM     15  C   UNL     1      11.301 -34.319  12.948  1.00  0.00     0.041 C 
ATOM     16  O   UNL     1      10.252 -35.014  12.897  1.00  0.00    -0.550 OA
ATOM     17  O   UNL     1      12.319 -34.538  12.028  1.00  0.00    -0.550 OA
ENDBRANCH  14  15
ENDBRANCH  13  14
ENDBRANCH  12  13
ENDBRANCH  11  12
ENDBRANCH  10  11
ENDBRANCH   9  10
ENDBRANCH   8   9
ENDBRANCH   7   8
ENDBRANCH   6   7
ENDBRANCH   5   6
ENDBRANCH   4   5
ENDBRANCH   3   4
ENDBRANCH   2   3
ENDBRANCH   1   2
BRANCH   1  18
ATOM     18  C   UNL     1       7.175 -31.075  16.125  1.00  0.00     0.000 C 
BRANCH  18  19
ATOM     19  C   UNL     1       7.188 -30.916  14.591  1.00  0.00     0.000 C 
BRANCH  19  20
ATOM     20  C   UNL     1       5.909 -30.318  13.979  1.00  0.00     0.000 C 
BRANCH  20  21
ATOM     21  C   UNL     1       5.941 -30.286  12.443  1.00  0.00     0.000 C 
BRANCH  21  22
ATOM     22  C   UNL     1       6.252 -31.680  11.875  1.00  0.00     0.000 C 
BRANCH  22  23
ATOM     23  C   UNL     1       7.567 -32.266  12.413  1.00  0.00     0.000 C 
BRANCH  23  24
ATOM     24  C   UNL     1       7.842 -33.687  11.893  1.00  0.00    -0.000 C 
BRANCH  24  25
ATOM     25  C   UNL     1       6.773 -34.702  12.339  1.00  0.00    -0.000 C 
BRANCH  25  26
ATOM     26  C   UNL     1       5.879 -34.246  13.511  1.00  0.00    -0.000 C 
BRANCH  26  27
ATOM     27  C   UNL     1       5.959 -35.123  14.773  1.00  0.00    -0.000 C 
BRANCH  27  28
ATOM     28  C   UNL     1       6.865 -34.517  15.860  1.00  0.00    -0.000 C 
BRANCH  28  29
ATOM     29  C   UNL     1       6.359 -34.813  17.279  1.00  0.00    -0.000 C 
BRANCH  29  30
ATOM     30  C   UNL     1       7.188 -34.094  18.360  1.00  0.00    -0.000 C 
BRANCH  30  31
ATOM     31  C   UNL     1       7.643 -35.042  19.481  1.00  0.00    -0.003 C 
ATOM     32  C   UNL     1       9.127 -34.898  19.813  1.00  0.00     0.004 C 
ENDBRANCH  30  31
ENDBRANCH  29  30
ENDBRANCH  28  29
ENDBRANCH  27  28
ENDBRANCH  26  27
ENDBRANCH  25  26
ENDBRANCH  24  25
ENDBRANCH  23  24
ENDBRANCH  22  23
ENDBRANCH  21  22
ENDBRANCH  20  21
ENDBRANCH  19  20
ENDBRANCH  18  19
ENDBRANCH   1  18
TORSDOF 28
ENDMDL
MODEL 2
REMARK VINA RESULT:    -0.319      1.350      5.783
REMARK INTER + INTRA:          -1.593
REMARK INTER:                   1.592
REMARK INTRA:                  -3.185
REMARK UNBOUND:                -0.753
REMARK SMILES CCCCCCCCCCCCCCCCCCCCCCCCCCCCCC(=O)[O-]
REMARK SMILES IDX 16 1 17 2 18 3 19 4 20 5 21 6 22 7 23 8 24 9 25 10 26 11
REMARK SMILES IDX 27 12 28 13 29 14 30 15 31 16 32 17 15 18 14 19 13 20 12 21
REMARK SMILES IDX 11 22 10 23 9 24 8 25 7 26 6 27 5 28 4 29 3 30 2 31 1 32
REMARK H PARENT
REMARK Flexibility Score: inf
ROOT
ATOM      1  C   UNL     1       8.121 -28.935  17.175  1.00  0.00     0.000 C 
ENDROOT
BRANCH   1   2
ATOM      2  C   UNL     1       9.044 -29.105  18.402  1.00  0.00     0.000 C 
BRANCH   2   3
ATOM      3  C   UNL     1       8.768 -30.381  19.220  1.00  0.00     0.000 C 
BRANCH   3   4
ATOM      4  C   UNL     1       8.793 -31.691  18.412  1.00  0.00     0.000 C 
BRANCH   4   5
ATOM      5  C   UNL     1       7.619 -32.655  18.684  1.00  0.00     0.000 C 
BRANCH   5   6
ATOM      6  C   UNL     1       7.691 -34.002  17.942  1.00  0.00     0.000 C 
BRANCH   6   7
ATOM      7  C   UNL     1       6.304 -34.558  17.582  1.00  0.00     0.000 C 
BRANCH   7   8
ATOM      8  C   UNL     1       5.875 -34.102  16.180  1.00  0.00     0.000 C 
BRANCH   8   9
ATOM      9  C   UNL     1       6.838 -34.573  15.074  1.00  0.00     0.000 C 
BRANCH   9  10
ATOM     10  C   UNL     1       6.164 -34.996  13.753  1.00  0.00     0.000 C 
BRANCH  10  11
ATOM     11  C   UNL     1       6.735 -34.330  12.487  1.00  0.00     0.000 C 
BRANCH  11  12
ATOM     12  C   UNL     1       7.953 -35.046  11.875  1.00  0.00     0.000 C 
BRANCH  12  13
ATOM     13  C   UNL     1       9.225 -34.958  12.747  1.00  0.00     0.006 C 
BRANCH  13  14
ATOM     14  C   UNL     1      10.492 -34.736  11.913  1.00  0.00     0.053 C 
BRANCH  14  15
ATOM     15  C   UNL     1      11.619 -34.272  12.782  1.00  0.00     0.041 C 
ATOM     16  O   UNL     1      11.744 -34.721  13.951  1.00  0.00    -0.550 OA
ATOM     17  O   UNL     1      12.547 -33.362  12.289  1.00  0.00    -0.550 OA
ENDBRANCH  14  15
ENDBRANCH  13  14
ENDBRANCH  12  13
ENDBRANCH  11  12
ENDBRANCH  10  11
ENDBRANCH   9  10
ENDBRANCH   8   9
ENDBRANCH   7   8
ENDBRANCH   6   7
ENDBRANCH   5   6
ENDBRANCH   4   5
ENDBRANCH   3   4
ENDBRANCH   2   3
ENDBRANCH   1   2
BRANCH   1  18
ATOM     18  C   UNL     1       6.649 -29.335  17.406  1.00  0.00     0.000 C 
BRANCH  18  19
ATOM     19  C   UNL     1       5.982 -30.122  16.259  1.00  0.00     0.000 C 
BRANCH  19  20
ATOM     20  C   UNL     1       6.909 -31.082  15.492  1.00  0.00     0.000 C 
BRANCH  20  21
ATOM     21  C   UNL     1       6.536 -31.212  14.007  1.00  0.00     0.000 C 
BRANCH  21  22
ATOM     22  C   UNL     1       6.769 -29.885  13.268  1.00  0.00     0.000 C 
BRANCH  22  23
ATOM     23  C   UNL     1       7.563 -30.058  11.963  1.00  0.00     0.000 C 
BRANCH  23  24
ATOM     24  C   UNL     1       8.651 -31.141  12.070  1.00  0.00    -0.000 C 
BRANCH  24  25
ATOM     25  C   UNL     1      10.074 -30.575  11.908  1.00  0.00    -0.000 C 
BRANCH  25  26
ATOM     26  C   UNL     1      10.403 -29.357  12.796  1.00  0.00    -0.000 C 
BRANCH  26  27
ATOM     27  C   UNL     1       9.998 -29.496  14.274  1.00  0.00    -0.000 C 
BRANCH  27  28
ATOM     28  C   UNL     1      10.970 -28.776  15.225  1.00  0.00    -0.000 C 
BRANCH  28  29
ATOM     29  C   UNL     1      12.022 -27.946  14.474  1.00  0.00    -0.000 C 
BRANCH  29  30
ATOM     30  C   UNL     1      13.212 -28.800  13.997  1.00  0.00    -0.000 C 
BRANCH  30  31
ATOM     31  C   UNL     1      14.509 -27.986  13.876  1.00  0.00    -0.003 C 
ATOM     32  C   UNL     1      14.293 -26.490  14.102  1.00  0.00     0.004 C 
ENDBRANCH  30  31
ENDBRANCH  29  30
ENDBRANCH  28  29
ENDBRANCH  27  28
ENDBRANCH  26  27
ENDBRANCH  25  26
ENDBRANCH  24  25
ENDBRANCH  23  24
ENDBRANCH  22  23
ENDBRANCH  21  22
ENDBRANCH  20  21
ENDBRANCH  19  20
ENDBRANCH  18  19
ENDBRANCH   1  18
TORSDOF 28
ENDMDL
MODEL 3
REMARK VINA RESULT:     0.054      2.781      5.758
REMARK INTER + INTRA:          -0.611
REMARK INTER:                  -1.110
REMARK INTRA:                   0.500
REMARK UNBOUND:                -0.753
REMARK SMILES CCCCCCCCCCCCCCCCCCCCCCCCCCCCCC(=O)[O-]
REMARK SMILES IDX 16 1 17 2 18 3 19 4 20 5 21 6 22 7 23 8 24 9 25 10 26 11
REMARK SMILES IDX 27 12 28 13 29 14 30 15 31 16 32 17 15 18 14 19 13 20 12 21
REMARK SMILES IDX 11 22 10 23 9 24 8 25 7 26 6 27 5 28 4 29 3 30 2 31 1 32
REMARK H PARENT
REMARK Flexibility Score: inf
ROOT
ATOM      1  C   UNL     1       9.245 -30.742  14.759  1.00  0.00     0.000 C 
ENDROOT
BRANCH   1   2
ATOM      2  C   UNL     1       9.601 -32.067  14.051  1.00  0.00     0.000 C 
BRANCH   2   3
ATOM      3  C   UNL     1       8.444 -33.084  14.007  1.00  0.00     0.000 C 
BRANCH   3   4
ATOM      4  C   UNL     1       8.389 -33.954  12.739  1.00  0.00     0.000 C 
BRANCH   4   5
ATOM      5  C   UNL     1       9.447 -35.075  12.664  1.00  0.00     0.000 C 
BRANCH   5   6
ATOM      6  C   UNL     1      10.511 -35.048  13.776  1.00  0.00     0.000 C 
BRANCH   6   7
ATOM      7  C   UNL     1      11.933 -34.837  13.235  1.00  0.00     0.000 C 
BRANCH   7   8
ATOM      8  C   UNL     1      11.905 -34.117  11.879  1.00  0.00     0.000 C 
BRANCH   8   9
ATOM      9  C   UNL     1      12.675 -32.783  11.891  1.00  0.00     0.000 C 
BRANCH   9  10
ATOM     10  C   UNL     1      11.832 -31.542  12.246  1.00  0.00     0.000 C 
BRANCH  10  11
ATOM     11  C   UNL     1      12.517 -30.536  13.190  1.00  0.00     0.000 C 
BRANCH  11  12
ATOM     12  C   UNL     1      11.820 -29.166  13.288  1.00  0.00     0.000 C 
BRANCH  12  13
ATOM     13  C   UNL     1      12.324 -28.298  14.462  1.00  0.00     0.006 C 
BRANCH  13  14
ATOM     14  C   UNL     1      13.855 -28.259  14.545  1.00  0.00     0.053 C 
BRANCH  14  15
ATOM     15  C   UNL     1      14.365 -26.889  14.229  1.00  0.00     0.041 C 
ATOM     16  O   UNL     1      14.295 -26.441  13.054  1.00  0.00    -0.550 OA
ATOM     17  O   UNL     1      14.894 -26.094  15.239  1.00  0.00    -0.550 OA
ENDBRANCH  14  15
ENDBRANCH  13  14
ENDBRANCH  12  13
ENDBRANCH  11  12
ENDBRANCH  10  11
ENDBRANCH   9  10
ENDBRANCH   8   9
ENDBRANCH   7   8
ENDBRANCH   6   7
ENDBRANCH   5   6
ENDBRANCH   4   5
ENDBRANCH   3   4
ENDBRANCH   2   3
ENDBRANCH   1   2
BRANCH   1  18
ATOM     18  C   UNL     1       8.606 -29.669  13.852  1.00  0.00     0.000 C 
BRANCH  18  19
ATOM     19  C   UNL     1       8.204 -30.141  12.439  1.00  0.00     0.000 C 
BRANCH  19  20
ATOM     20  C   UNL     1       6.691 -30.171  12.160  1.00  0.00     0.000 C 
BRANCH  20  21
ATOM     21  C   UNL     1       5.875 -30.696  13.350  1.00  0.00     0.000 C 
BRANCH  21  22
ATOM     22  C   UNL     1       6.454 -30.182  14.677  1.00  0.00     0.000 C 
BRANCH  22  23
ATOM     23  C   UNL     1       5.902 -30.931  15.901  1.00  0.00     0.000 C 
BRANCH  23  24
ATOM     24  C   UNL     1       5.876 -32.456  15.702  1.00  0.00    -0.000 C 
BRANCH  24  25
ATOM     25  C   UNL     1       6.800 -33.202  16.683  1.00  0.00    -0.000 C 
BRANCH  25  26
ATOM     26  C   UNL     1       7.619 -32.301  17.631  1.00  0.00    -0.000 C 
BRANCH  26  27
ATOM     27  C   UNL     1       6.786 -31.444  18.601  1.00  0.00    -0.000 C 
BRANCH  27  28
ATOM     28  C   UNL     1       7.228 -29.971  18.618  1.00  0.00    -0.000 C 
BRANCH  28  29
ATOM     29  C   UNL     1       8.605 -29.761  17.970  1.00  0.00    -0.000 C 
BRANCH  29  30
ATOM     30  C   UNL     1       9.580 -29.008  18.894  1.00  0.00    -0.000 C 
BRANCH  30  31
ATOM     31  C   UNL     1      10.176 -27.758  18.226  1.00  0.00    -0.003 C 
ATOM     32  C   UNL     1      10.200 -27.856  16.701  1.00  0.00     0.004 C 
ENDBRANCH  30  31
ENDBRANCH  29  30
ENDBRANCH  28  29
ENDBRANCH  27  28
ENDBRANCH  26  27
ENDBRANCH  25  26
ENDBRANCH  24  25
ENDBRANCH  23  24
ENDBRANCH  22  23
ENDBRANCH  21  22
ENDBRANCH  20  21
ENDBRANCH  19  20
ENDBRANCH  18  19
ENDBRANCH   1  18
TORSDOF 28
ENDMDL
MODEL 4
REMARK VINA RESULT:     0.567      2.015      5.310
REMARK INTER + INTRA:           0.743
REMARK INTER:                   0.826
REMARK INTRA:                  -0.082
REMARK UNBOUND:                -0.753
REMARK SMILES CCCCCCCCCCCCCCCCCCCCCCCCCCCCCC(=O)[O-]
REMARK SMILES IDX 16 1 17 2 18 3 19 4 20 5 21 6 22 7 23 8 24 9 25 10 26 11
REMARK SMILES IDX 27 12 28 13 29 14 30 15 31 16 32 17 15 18 14 19 13 20 12 21
REMARK SMILES IDX 11 22 10 23 9 24 8 25 7 26 6 27 5 28 4 29 3 30 2 31 1 32
REMARK H PARENT
REMARK Flexibility Score: inf
ROOT
ATOM      1  C   UNL     1      12.127 -31.519  12.132  1.00  0.00     0.000 C 
ENDROOT
BRANCH   1   2
ATOM      2  C   UNL     1      10.652 -31.140  11.876  1.00  0.00     0.000 C 
BRANCH   2   3
ATOM      3  C   UNL     1      10.056 -30.195  12.937  1.00  0.00     0.000 C 
BRANCH   3   4
ATOM      4  C   UNL     1      10.150 -28.695  12.601  1.00  0.00     0.000 C 
BRANCH   4   5
ATOM      5  C   UNL     1      11.218 -27.910  13.391  1.00  0.00     0.000 C 
BRANCH   5   6
ATOM      6  C   UNL     1      11.962 -28.719  14.469  1.00  0.00     0.000 C 
BRANCH   6   7
ATOM      7  C   UNL     1      11.079 -29.050  15.682  1.00  0.00     0.000 C 
BRANCH   7   8
ATOM      8  C   UNL     1      10.641 -27.771  16.410  1.00  0.00     0.000 C 
BRANCH   8   9
ATOM      9  C   UNL     1      10.394 -27.991  17.914  1.00  0.00     0.000 C 
BRANCH   9  10
ATOM     10  C   UNL     1       8.918 -28.198  18.313  1.00  0.00     0.000 C 
BRANCH  10  11
ATOM     11  C   UNL     1       8.605 -29.555  18.971  1.00  0.00     0.000 C 
BRANCH  11  12
ATOM     12  C   UNL     1       7.294 -30.213  18.499  1.00  0.00     0.000 C 
BRANCH  12  13
ATOM     13  C   UNL     1       7.245 -31.737  18.741  1.00  0.00     0.006 C 
BRANCH  13  14
ATOM     14  C   UNL     1       6.396 -32.469  17.695  1.00  0.00     0.053 C 
BRANCH  14  15
ATOM     15  C   UNL     1       6.854 -33.885  17.541  1.00  0.00     0.041 C 
ATOM     16  O   UNL     1       6.747 -34.470  16.431  1.00  0.00    -0.550 OA
ATOM     17  O   UNL     1       7.426 -34.551  18.619  1.00  0.00    -0.550 OA
ENDBRANCH  14  15
ENDBRANCH  13  14
ENDBRANCH  12  13
ENDBRANCH  11  12
ENDBRANCH  10  11
ENDBRANCH   9  10
ENDBRANCH   8   9
ENDBRANCH   7   8
ENDBRANCH   6   7
ENDBRANCH   5   6
ENDBRANCH   4   5
ENDBRANCH   3   4
ENDBRANCH   2   3
ENDBRANCH   1   2
BRANCH   1  18
ATOM     18  C   UNL     1      12.339 -32.882  12.823  1.00  0.00     0.000 C 
BRANCH  18  19
ATOM     19  C   UNL     1      11.784 -32.998  14.258  1.00  0.00     0.000 C 
BRANCH  19  20
ATOM     20  C   UNL     1      10.716 -34.086  14.466  1.00  0.00     0.000 C 
BRANCH  20  21
ATOM     21  C   UNL     1      10.089 -34.566  13.148  1.00  0.00     0.000 C 
BRANCH  21  22
ATOM     22  C   UNL     1       8.558 -34.631  13.264  1.00  0.00     0.000 C 
BRANCH  22  23
ATOM     23  C   UNL     1       7.881 -35.118  11.972  1.00  0.00     0.000 C 
BRANCH  23  24
ATOM     24  C   UNL     1       6.356 -34.924  11.992  1.00  0.00    -0.000 C 
BRANCH  24  25
ATOM     25  C   UNL     1       5.915 -33.748  12.883  1.00  0.00    -0.000 C 
BRANCH  25  26
ATOM     26  C   UNL     1       6.069 -32.349  12.251  1.00  0.00    -0.000 C 
BRANCH  26  27
ATOM     27  C   UNL     1       6.992 -31.384  13.016  1.00  0.00    -0.000 C 
BRANCH  27  28
ATOM     28  C   UNL     1       6.291 -30.067  13.392  1.00  0.00    -0.000 C 
BRANCH  28  29
ATOM     29  C   UNL     1       6.356 -29.775  14.899  1.00  0.00    -0.000 C 
BRANCH  29  30
ATOM     30  C   UNL     1       7.793 -29.851  15.450  1.00  0.00    -0.000 C 
BRANCH  30  31
ATOM     31  C   UNL     1       8.591 -31.021  14.853  1.00  0.00    -0.003 C 
ATOM     32  C   UNL     1       8.847 -32.139  15.863  1.00  0.00     0.004 C 
ENDBRANCH  30  31
ENDBRANCH  29  30
ENDBRANCH  28  29
ENDBRANCH  27  28
ENDBRANCH  26  27
ENDBRANCH  25  26
ENDBRANCH  24  25
ENDBRANCH  23  24
ENDBRANCH  22  23
ENDBRANCH  21  22
ENDBRANCH  20  21
ENDBRANCH  19  20
ENDBRANCH  18  19
ENDBRANCH   1  18
TORSDOF 28
ENDMDL
MODEL 5
REMARK VINA RESULT:     0.607      2.297      5.369
REMARK INTER + INTRA:           0.847
REMARK INTER:                  -1.538
REMARK INTRA:                   2.385
REMARK UNBOUND:                -0.753
REMARK SMILES CCCCCCCCCCCCCCCCCCCCCCCCCCCCCC(=O)[O-]
REMARK SMILES IDX 16 1 17 2 18 3 19 4 20 5 21 6 22 7 23 8 24 9 25 10 26 11
REMARK SMILES IDX 27 12 28 13 29 14 30 15 31 16 32 17 15 18 14 19 13 20 12 21
REMARK SMILES IDX 11 22 10 23 9 24 8 25 7 26 6 27 5 28 4 29 3 30 2 31 1 32
REMARK H PARENT
REMARK Flexibility Score: inf
ROOT
ATOM      1  C   UNL     1       6.707 -30.032  14.796  1.00  0.00     0.000 C 
ENDROOT
BRANCH   1   2
ATOM      2  C   UNL     1       7.976 -29.427  14.156  1.00  0.00     0.000 C 
BRANCH   2   3
ATOM      3  C   UNL     1       8.189 -29.832  12.685  1.00  0.00     0.000 C 
BRANCH   3   4
ATOM      4  C   UNL     1       9.634 -29.691  12.172  1.00  0.00     0.000 C 
BRANCH   4   5
ATOM      5  C   UNL     1      10.698 -29.451  13.263  1.00  0.00     0.000 C 
BRANCH   5   6
ATOM      6  C   UNL     1      10.149 -29.314  14.695  1.00  0.00     0.000 C 
BRANCH   6   7
ATOM      7  C   UNL     1      11.096 -28.538  15.624  1.00  0.00     0.000 C 
BRANCH   7   8
ATOM      8  C   UNL     1      10.308 -27.765  16.692  1.00  0.00     0.000 C 
BRANCH   8   9
ATOM      9  C   UNL     1      10.588 -28.263  18.122  1.00  0.00     0.000 C 
BRANCH   9  10
ATOM     10  C   UNL     1       9.387 -28.915  18.836  1.00  0.00     0.000 C 
BRANCH  10  11
ATOM     11  C   UNL     1       8.241 -29.363  17.909  1.00  0.00     0.000 C 
BRANCH  11  12
ATOM     12  C   UNL     1       6.995 -29.899  18.638  1.00  0.00     0.000 C 
BRANCH  12  13
ATOM     13  C   UNL     1       6.755 -31.410  18.423  1.00  0.00     0.006 C 
BRANCH  13  14
ATOM     14  C   UNL     1       8.064 -32.196  18.280  1.00  0.00     0.053 C 
BRANCH  14  15
ATOM     15  C   UNL     1       7.889 -33.602  18.761  1.00  0.00     0.041 C 
ATOM     16  O   UNL     1       8.726 -34.111  19.553  1.00  0.00    -0.550 OA
ATOM     17  O   UNL     1       6.785 -34.342  18.355  1.00  0.00    -0.550 OA
ENDBRANCH  14  15
ENDBRANCH  13  14
ENDBRANCH  12  13
ENDBRANCH  11  12
ENDBRANCH  10  11
ENDBRANCH   9  10
ENDBRANCH   8   9
ENDBRANCH   7   8
ENDBRANCH   6   7
ENDBRANCH   5   6
ENDBRANCH   4   5
ENDBRANCH   3   4
ENDBRANCH   2   3
ENDBRANCH   1   2
BRANCH   1  18
ATOM     18  C   UNL     1       6.663 -31.574  14.824  1.00  0.00     0.000 C 
BRANCH  18  19
ATOM     19  C   UNL     1       7.931 -32.270  15.362  1.00  0.00     0.000 C 
BRANCH  19  20
ATOM     20  C   UNL     1       7.871 -33.807  15.407  1.00  0.00     0.000 C 
BRANCH  20  21
ATOM     21  C   UNL     1       6.463 -34.340  15.708  1.00  0.00     0.000 C 
BRANCH  21  22
ATOM     22  C   UNL     1       5.878 -35.058  14.481  1.00  0.00     0.000 C 
BRANCH  22  23
ATOM     23  C   UNL     1       6.112 -34.289  13.171  1.00  0.00     0.000 C 
BRANCH  23  24
ATOM     24  C   UNL     1       6.860 -35.123  12.118  1.00  0.00    -0.000 C 
BRANCH  24  25
ATOM     25  C   UNL     1       8.298 -34.629  11.877  1.00  0.00    -0.000 C 
BRANCH  25  26
ATOM     26  C   UNL     1       8.628 -33.244  12.470  1.00  0.00    -0.000 C 
BRANCH  26  27
ATOM     27  C   UNL     1      10.117 -32.998  12.770  1.00  0.00    -0.000 C 
BRANCH  27  28
ATOM     28  C   UNL     1      10.580 -33.677  14.071  1.00  0.00    -0.000 C 
BRANCH  28  29
ATOM     29  C   UNL     1      11.158 -35.079  13.829  1.00  0.00    -0.000 C 
BRANCH  29  30
ATOM     30  C   UNL     1      12.630 -35.038  13.377  1.00  0.00    -0.000 C 
BRANCH  30  31
ATOM     31  C   UNL     1      12.798 -34.427  11.977  1.00  0.00    -0.003 C 
ATOM     32  C   UNL     1      12.779 -32.899  11.992  1.00  0.00     0.004 C 
ENDBRANCH  30  31
ENDBRANCH  29  30
ENDBRANCH  28  29
ENDBRANCH  27  28
ENDBRANCH  26  27
ENDBRANCH  25  26
ENDBRANCH  24  25
ENDBRANCH  23  24
ENDBRANCH  22  23
ENDBRANCH  21  22
ENDBRANCH  20  21
ENDBRANCH  19  20
ENDBRANCH  18  19
ENDBRANCH   1  18
TORSDOF 28
ENDMDL
